MODEL 1
REMARK VINA RESULT:     -11.5      0.000      0.000
REMARK SMILES COc1ccc(F)c(Nc2ccc(C(=O)NCCCCNC(=O)c3ccc(-c4c5nc(c(-c6ccccc6)c6ccc([nH]6)c(-c6ccccc6)c6nc(c(-c7ccccc7)c7ccc4[nH]7)C=C6)C=C5)cc3)cc2)c1
REMARK SMILES IDX 18 1 17 2 16 3 14 4 15 5 13 7 10 8 11 9 73 10 12 11 72 12
REMARK SMILES IDX 9 13 8 15 3 16 4 17 74 18 5 19 6 20 7 21 2 22 1 23 19 24
REMARK SMILES IDX 20 25 21 26 22 27 23 29 24 30 25 31 71 32 26 33 70 34 27 35
REMARK SMILES IDX 28 36 29 37 64 38 30 39 69 40 63 41 65 42 31 43 68 44 62 45
REMARK SMILES IDX 61 46 32 48 54 49 39 50 53 51 40 52 43 53 52 54 66 55 41 56
REMARK SMILES IDX 42 57 51 59 67 60 44 61 33 62 34 63 38 64 35 65 37 66 36 67
REMARK SMILES IDX 55 68 56 69 60 70 57 71 59 72 58 73 45 74 46 75 50 76 47 77
REMARK SMILES IDX 49 78 48 79
REMARK H PARENT 16 6 9 14 21 28 65 47 43 58
REMARK Flexibility Score: inf
ROOT
ATOM      1  C   UNL A   1      36.216  21.583  24.947  1.00  0.00     0.023 C 
ENDROOT
BRANCH   1   2
ATOM      2  C   UNL A   1      35.189  21.441  26.073  1.00  0.00     0.116 C 
BRANCH   2   3
ATOM      3  N   UNL A   1      34.199  20.437  25.736  1.00  0.00    -0.352 N 
ATOM      4  C   UNL A   1      32.879  20.536  25.374  1.00  0.00     0.251 C 
ATOM      5  O   UNL A   1      32.278  19.494  25.112  1.00  0.00    -0.269 OA
ATOM      6  H   UNL A   1      34.537  19.513  25.772  1.00  0.00     0.163 HD
BRANCH   4   7
ATOM      7  C   UNL A   1      32.170  21.838  25.224  1.00  0.00     0.039 A 
ATOM      8  C   UNL A   1      30.661  24.220  25.100  1.00  0.00     0.038 A 
ATOM      9  C   UNL A   1      30.907  23.606  26.328  1.00  0.00     0.027 A 
ATOM     10  C   UNL A   1      31.234  23.675  23.949  1.00  0.00     0.027 A 
ATOM     11  C   UNL A   1      31.642  22.418  26.388  1.00  0.00     0.016 A 
ATOM     12  C   UNL A   1      32.014  22.518  24.015  1.00  0.00     0.016 A 
BRANCH   8  13
ATOM     13  N   UNL A   1      29.803  25.321  25.016  1.00  0.00    -0.353 N 
ATOM     14  H   UNL A   1      28.863  25.156  25.260  1.00  0.00     0.167 HD
BRANCH  13  15
ATOM     15  C   UNL A   1      30.119  26.637  24.624  1.00  0.00     0.078 A 
ATOM     16  C   UNL A   1      29.960  28.508  23.059  1.00  0.00     0.121 A 
ATOM     17  C   UNL A   1      30.837  29.253  23.847  1.00  0.00     0.049 A 
ATOM     18  C   UNL A   1      29.609  27.210  23.451  1.00  0.00     0.075 A 
ATOM     19  C   UNL A   1      31.366  28.696  25.014  1.00  0.00     0.045 A 
ATOM     20  C   UNL A   1      31.008  27.402  25.388  1.00  0.00     0.146 A 
ATOM     21  F   UNL A   1      31.529  26.887  26.513  1.00  0.00    -0.205 F 
BRANCH  16  22
ATOM     22  O   UNL A   1      29.350  28.945  21.916  1.00  0.00    -0.497 OA
ATOM     23  C   UNL A   1      28.197  29.758  22.092  1.00  0.00     0.278 C 
ENDBRANCH  16  22
ENDBRANCH  13  15
ENDBRANCH   8  13
ENDBRANCH   4   7
ENDBRANCH   2   3
ENDBRANCH   1   2
BRANCH   1  24
ATOM     24  C   UNL A   1      37.274  20.476  24.921  1.00  0.00     0.023 C 
BRANCH  24  25
ATOM     25  C   UNL A   1      38.608  20.850  25.555  1.00  0.00     0.116 C 
BRANCH  25  26
ATOM     26  N   UNL A   1      39.559  19.750  25.585  1.00  0.00    -0.352 N 
ATOM     27  C   UNL A   1      40.867  19.758  26.008  1.00  0.00     0.251 C 
ATOM     28  H   UNL A   1      39.222  18.885  25.256  1.00  0.00     0.163 HD
ATOM     29  O   UNL A   1      41.571  18.767  25.872  1.00  0.00    -0.269 OA
BRANCH  27  30
ATOM     30  C   UNL A   1      41.428  20.994  26.593  1.00  0.00     0.039 A 
ATOM     31  C   UNL A   1      42.004  21.937  25.740  1.00  0.00     0.014 A 
ATOM     32  C   UNL A   1      41.356  21.232  27.969  1.00  0.00     0.014 A 
ATOM     33  C   UNL A   1      42.450  23.154  26.258  1.00  0.00     0.010 A 
ATOM     34  C   UNL A   1      41.741  22.469  28.474  1.00  0.00     0.010 A 
ATOM     35  C   UNL A   1      42.288  23.443  27.624  1.00  0.00    -0.014 A 
BRANCH  35  36
ATOM     36  C   UNL A   1      42.676  24.761  28.180  1.00  0.00     0.031 A 
ATOM     37  C   UNL A   1      41.641  25.831  28.380  1.00  0.00     0.074 A 
ATOM     38  C   UNL A   1      43.973  25.016  28.441  1.00  0.00     0.049 A 
ATOM     39  N   UNL A   1      41.797  27.063  28.794  1.00  0.00    -0.248 NA
ATOM     40  C   UNL A   1      40.250  25.479  28.050  1.00  0.00     0.031 C 
ATOM     41  C   UNL A   1      45.080  24.076  28.251  1.00  0.00     0.029 A 
ATOM     42  N   UNL A   1      44.580  26.151  28.917  1.00  0.00    -0.354 N 
ATOM     43  C   UNL A   1      40.534  27.636  28.757  1.00  0.00     0.074 A 
ATOM     44  C   UNL A   1      39.627  26.633  28.239  1.00  0.00     0.031 C 
ATOM     45  C   UNL A   1      46.226  24.664  28.629  1.00  0.00     0.029 A 
ATOM     46  C   UNL A   1      45.942  26.031  29.051  1.00  0.00     0.049 A 
ATOM     47  H   UNL A   1      44.087  26.973  29.140  1.00  0.00     0.167 HD
ATOM     48  C   UNL A   1      40.155  28.879  29.137  1.00  0.00     0.031 A 
ATOM     49  C   UNL A   1      46.860  26.925  29.465  1.00  0.00     0.031 A 
ATOM     50  C   UNL A   1      41.051  29.872  29.665  1.00  0.00     0.049 A 
ATOM     51  C   UNL A   1      46.414  28.300  29.876  1.00  0.00     0.074 A 
ATOM     52  C   UNL A   1      40.753  31.142  30.129  1.00  0.00     0.029 A 
ATOM     53  N   UNL A   1      42.420  29.707  29.799  1.00  0.00    -0.354 N 
ATOM     54  N   UNL A   1      45.204  28.805  29.897  1.00  0.00    -0.248 NA
ATOM     55  C   UNL A   1      47.461  29.226  30.332  1.00  0.00     0.031 C 
ATOM     56  C   UNL A   1      41.950  31.761  30.505  1.00  0.00     0.029 A 
ATOM     57  C   UNL A   1      42.985  30.858  30.321  1.00  0.00     0.049 A 
ATOM     58  H   UNL A   1      42.918  28.892  29.559  1.00  0.00     0.167 HD
ATOM     59  C   UNL A   1      45.341  30.094  30.392  1.00  0.00     0.074 A 
ATOM     60  C   UNL A   1      46.749  30.290  30.674  1.00  0.00     0.031 C 
ATOM     61  C   UNL A   1      44.386  31.034  30.597  1.00  0.00     0.031 A 
BRANCH  48  62
ATOM     62  C   UNL A   1      38.702  29.233  28.992  1.00  0.00    -0.014 A 
ATOM     63  C   UNL A   1      38.198  29.750  27.788  1.00  0.00     0.009 A 
ATOM     64  C   UNL A   1      37.819  29.015  30.060  1.00  0.00     0.009 A 
ATOM     65  C   UNL A   1      36.844  30.074  27.669  1.00  0.00     0.001 A 
ATOM     66  C   UNL A   1      36.461  29.314  29.929  1.00  0.00     0.001 A 
ATOM     67  C   UNL A   1      35.978  29.851  28.737  1.00  0.00     0.000 A 
ENDBRANCH  48  62
BRANCH  49  68
ATOM     68  C   UNL A   1      48.294  26.545  29.529  1.00  0.00    -0.014 A 
ATOM     69  C   UNL A   1      49.136  26.766  28.428  1.00  0.00     0.009 A 
ATOM     70  C   UNL A   1      48.826  25.949  30.682  1.00  0.00     0.009 A 
ATOM     71  C   UNL A   1      50.476  26.372  28.473  1.00  0.00     0.001 A 
ATOM     72  C   UNL A   1      50.172  25.581  30.734  1.00  0.00     0.001 A 
ATOM     73  C   UNL A   1      50.994  25.784  29.626  1.00  0.00     0.000 A 
ENDBRANCH  49  68
BRANCH  61  74
ATOM     74  C   UNL A   1      44.827  32.343  31.186  1.00  0.00    -0.014 A 
ATOM     75  C   UNL A   1      44.886  32.533  32.574  1.00  0.00     0.009 A 
ATOM     76  C   UNL A   1      45.228  33.385  30.336  1.00  0.00     0.009 A 
ATOM     77  C   UNL A   1      45.309  33.756  33.101  1.00  0.00     0.001 A 
ATOM     78  C   UNL A   1      45.676  34.596  30.865  1.00  0.00     0.001 A 
ATOM     79  C   UNL A   1      45.708  34.783  32.245  1.00  0.00     0.000 A 
ENDBRANCH  61  74
ENDBRANCH  35  36
ENDBRANCH  27  30
ENDBRANCH  25  26
ENDBRANCH  24  25
ENDBRANCH   1  24
TORSDOF 14
ENDMDL
MODEL 2
REMARK VINA RESULT:     -11.5      0.972      6.029
REMARK SMILES COc1ccc(F)c(Nc2ccc(C(=O)NCCCCNC(=O)c3ccc(-c4c5nc(c(-c6ccccc6)c6ccc([nH]6)c(-c6ccccc6)c6nc(c(-c7ccccc7)c7ccc4[nH]7)C=C6)C=C5)cc3)cc2)c1
REMARK SMILES IDX 18 1 17 2 16 3 14 4 15 5 13 7 10 8 11 9 73 10 12 11 72 12
REMARK SMILES IDX 9 13 8 15 3 16 4 17 74 18 5 19 6 20 7 21 2 22 1 23 19 24
REMARK SMILES IDX 20 25 21 26 22 27 23 29 24 30 25 31 71 32 26 33 70 34 27 35
REMARK SMILES IDX 28 36 29 37 64 38 30 39 69 40 63 41 65 42 31 43 68 44 62 45
REMARK SMILES IDX 61 46 32 48 54 49 39 50 53 51 40 52 43 53 52 54 66 55 41 56
REMARK SMILES IDX 42 57 51 59 67 60 44 61 33 62 34 63 38 64 35 65 37 66 36 67
REMARK SMILES IDX 55 68 56 69 60 70 57 71 59 72 58 73 45 74 46 75 50 76 47 77
REMARK SMILES IDX 49 78 48 79
REMARK H PARENT 16 6 9 14 21 28 65 47 43 58
REMARK Flexibility Score: inf
ROOT
ATOM      1  C   UNL A   1      37.149  20.988  24.618  1.00  0.00     0.023 C 
ENDROOT
BRANCH   1   2
ATOM      2  C   UNL A   1      35.829  21.037  25.392  1.00  0.00     0.116 C 
BRANCH   2   3
ATOM      3  N   UNL A   1      34.935  19.988  24.939  1.00  0.00    -0.352 N 
ATOM      4  C   UNL A   1      33.625  20.013  24.531  1.00  0.00     0.251 C 
ATOM      5  O   UNL A   1      33.120  18.951  24.168  1.00  0.00    -0.269 OA
ATOM      6  H   UNL A   1      35.345  19.093  24.920  1.00  0.00     0.163 HD
BRANCH   4   7
ATOM      7  C   UNL A   1      32.820  21.264  24.450  1.00  0.00     0.039 A 
ATOM      8  C   UNL A   1      31.111  23.510  24.402  1.00  0.00     0.038 A 
ATOM      9  C   UNL A   1      31.184  22.705  25.538  1.00  0.00     0.027 A 
ATOM     10  C   UNL A   1      31.950  23.225  23.321  1.00  0.00     0.027 A 
ATOM     11  C   UNL A   1      32.020  21.584  25.557  1.00  0.00     0.016 A 
ATOM     12  C   UNL A   1      32.825  22.136  23.360  1.00  0.00     0.016 A 
BRANCH   8  13
ATOM     13  N   UNL A   1      30.170  24.541  24.320  1.00  0.00    -0.353 N 
ATOM     14  H   UNL A   1      29.226  24.263  24.289  1.00  0.00     0.167 HD
BRANCH  13  15
ATOM     15  C   UNL A   1      30.408  25.929  24.277  1.00  0.00     0.078 A 
ATOM     16  C   UNL A   1      30.420  28.069  23.096  1.00  0.00     0.121 A 
ATOM     17  C   UNL A   1      30.966  28.695  24.217  1.00  0.00     0.049 A 
ATOM     18  C   UNL A   1      30.147  26.696  23.133  1.00  0.00     0.075 A 
ATOM     19  C   UNL A   1      31.246  27.945  25.362  1.00  0.00     0.045 A 
ATOM     20  C   UNL A   1      30.970  26.579  25.382  1.00  0.00     0.146 A 
ATOM     21  F   UNL A   1      31.248  25.880  26.493  1.00  0.00    -0.205 F 
BRANCH  16  22
ATOM     22  O   UNL A   1      30.071  28.691  21.929  1.00  0.00    -0.497 OA
ATOM     23  C   UNL A   1      29.418  29.947  22.058  1.00  0.00     0.278 C 
ENDBRANCH  16  22
ENDBRANCH  13  15
ENDBRANCH   8  13
ENDBRANCH   4   7
ENDBRANCH   2   3
ENDBRANCH   1   2
BRANCH   1  24
ATOM     24  C   UNL A   1      38.047  19.801  24.982  1.00  0.00     0.023 C 
BRANCH  24  25
ATOM     25  C   UNL A   1      39.208  20.139  25.910  1.00  0.00     0.116 C 
BRANCH  25  26
ATOM     26  N   UNL A   1      40.260  19.135  25.901  1.00  0.00    -0.352 N 
ATOM     27  C   UNL A   1      41.604  19.299  26.142  1.00  0.00     0.251 C 
ATOM     28  H   UNL A   1      39.973  18.216  25.694  1.00  0.00     0.163 HD
ATOM     29  O   UNL A   1      42.381  18.366  25.994  1.00  0.00    -0.269 OA
BRANCH  27  30
ATOM     30  C   UNL A   1      42.108  20.630  26.542  1.00  0.00     0.039 A 
ATOM     31  C   UNL A   1      42.537  21.510  25.547  1.00  0.00     0.014 A 
ATOM     32  C   UNL A   1      42.125  21.015  27.886  1.00  0.00     0.014 A 
ATOM     33  C   UNL A   1      42.923  22.806  25.893  1.00  0.00     0.010 A 
ATOM     34  C   UNL A   1      42.447  22.325  28.222  1.00  0.00     0.010 A 
ATOM     35  C   UNL A   1      42.846  23.234  27.229  1.00  0.00    -0.014 A 
BRANCH  35  36
ATOM     36  C   UNL A   1      43.169  24.630  27.606  1.00  0.00     0.031 A 
ATOM     37  C   UNL A   1      44.601  25.072  27.713  1.00  0.00     0.074 A 
ATOM     38  C   UNL A   1      42.173  25.482  27.919  1.00  0.00     0.049 A 
ATOM     39  N   UNL A   1      45.082  26.230  28.088  1.00  0.00    -0.248 NA
ATOM     40  C   UNL A   1      45.630  24.075  27.375  1.00  0.00     0.031 C 
ATOM     41  C   UNL A   1      40.743  25.164  27.895  1.00  0.00     0.029 A 
ATOM     42  N   UNL A   1      42.215  26.791  28.327  1.00  0.00    -0.354 N 
ATOM     43  C   UNL A   1      46.462  26.096  28.050  1.00  0.00     0.074 A 
ATOM     44  C   UNL A   1      46.745  24.731  27.658  1.00  0.00     0.031 C 
ATOM     45  C   UNL A   1      40.044  26.255  28.249  1.00  0.00     0.029 A 
ATOM     46  C   UNL A   1      40.974  27.335  28.559  1.00  0.00     0.049 A 
ATOM     47  H   UNL A   1      43.053  27.294  28.443  1.00  0.00     0.167 HD
ATOM     48  C   UNL A   1      47.412  27.027  28.301  1.00  0.00     0.031 A 
ATOM     49  C   UNL A   1      40.626  28.565  28.980  1.00  0.00     0.031 A 
ATOM     50  C   UNL A   1      47.133  28.387  28.677  1.00  0.00     0.049 A 
ATOM     51  C   UNL A   1      41.700  29.579  29.256  1.00  0.00     0.074 A 
ATOM     52  C   UNL A   1      48.027  29.420  28.899  1.00  0.00     0.029 A 
ATOM     53  N   UNL A   1      45.865  28.902  28.888  1.00  0.00    -0.354 N 
ATOM     54  N   UNL A   1      43.001  29.455  29.152  1.00  0.00    -0.248 NA
ATOM     55  C   UNL A   1      41.255  30.909  29.699  1.00  0.00     0.031 C 
ATOM     56  C   UNL A   1      47.299  30.551  29.286  1.00  0.00     0.029 A 
ATOM     57  C   UNL A   1      45.951  30.234  29.255  1.00  0.00     0.049 A 
ATOM     58  H   UNL A   1      45.025  28.396  28.790  1.00  0.00     0.167 HD
ATOM     59  C   UNL A   1      43.527  30.695  29.488  1.00  0.00     0.074 A 
ATOM     60  C   UNL A   1      42.406  31.562  29.786  1.00  0.00     0.031 C 
ATOM     61  C   UNL A   1      44.825  31.081  29.545  1.00  0.00     0.031 A 
BRANCH  48  62
ATOM     62  C   UNL A   1      48.847  26.602  28.175  1.00  0.00    -0.014 A 
ATOM     63  C   UNL A   1      49.513  26.653  26.940  1.00  0.00     0.009 A 
ATOM     64  C   UNL A   1      49.555  26.179  29.311  1.00  0.00     0.009 A 
ATOM     65  C   UNL A   1      50.848  26.255  26.839  1.00  0.00     0.001 A 
ATOM     66  C   UNL A   1      50.897  25.808  29.212  1.00  0.00     0.001 A 
ATOM     67  C   UNL A   1      51.539  25.838  27.975  1.00  0.00     0.000 A 
ENDBRANCH  48  62
BRANCH  49  68
ATOM     68  C   UNL A   1      39.193  28.917  29.150  1.00  0.00    -0.014 A 
ATOM     69  C   UNL A   1      38.555  28.715  30.385  1.00  0.00     0.009 A 
ATOM     70  C   UNL A   1      38.453  29.442  28.081  1.00  0.00     0.009 A 
ATOM     71  C   UNL A   1      37.198  29.007  30.534  1.00  0.00     0.001 A 
ATOM     72  C   UNL A   1      37.102  29.758  28.242  1.00  0.00     0.001 A 
ATOM     73  C   UNL A   1      36.473  29.532  29.465  1.00  0.00     0.000 A 
ENDBRANCH  49  68
BRANCH  61  74
ATOM     74  C   UNL A   1      45.098  32.513  29.908  1.00  0.00    -0.014 A 
ATOM     75  C   UNL A   1      45.144  33.516  28.928  1.00  0.00     0.009 A 
ATOM     76  C   UNL A   1      45.272  32.865  31.255  1.00  0.00     0.009 A 
ATOM     77  C   UNL A   1      45.389  34.843  29.289  1.00  0.00     0.001 A 
ATOM     78  C   UNL A   1      45.491  34.195  31.615  1.00  0.00     0.001 A 
ATOM     79  C   UNL A   1      45.558  35.181  30.632  1.00  0.00     0.000 A 
ENDBRANCH  61  74
ENDBRANCH  35  36
ENDBRANCH  27  30
ENDBRANCH  25  26
ENDBRANCH  24  25
ENDBRANCH   1  24
TORSDOF 14
ENDMDL
MODEL 3
REMARK VINA RESULT:     -11.1      4.422      9.732
REMARK SMILES COc1ccc(F)c(Nc2ccc(C(=O)NCCCCNC(=O)c3ccc(-c4c5nc(c(-c6ccccc6)c6ccc([nH]6)c(-c6ccccc6)c6nc(c(-c7ccccc7)c7ccc4[nH]7)C=C6)C=C5)cc3)cc2)c1
REMARK SMILES IDX 18 1 17 2 16 3 14 4 15 5 13 7 10 8 11 9 73 10 12 11 72 12
REMARK SMILES IDX 9 13 8 15 3 16 4 17 74 18 5 19 6 20 7 21 2 22 1 23 19 24
REMARK SMILES IDX 20 25 21 26 22 27 23 29 24 30 25 31 71 32 26 33 70 34 27 35
REMARK SMILES IDX 28 36 29 37 64 38 30 39 69 40 63 41 65 42 31 43 68 44 62 45
REMARK SMILES IDX 61 46 32 48 54 49 39 50 53 51 40 52 43 53 52 54 66 55 41 56
REMARK SMILES IDX 42 57 51 59 67 60 44 61 33 62 34 63 38 64 35 65 37 66 36 67
REMARK SMILES IDX 55 68 56 69 60 70 57 71 59 72 58 73 45 74 46 75 50 76 47 77
REMARK SMILES IDX 49 78 48 79
REMARK H PARENT 16 6 9 14 21 28 65 47 43 58
REMARK Flexibility Score: inf
ROOT
ATOM      1  C   UNL A   1      31.882  30.279  26.575  1.00  0.00     0.023 C 
ENDROOT
BRANCH   1   2
ATOM      2  C   UNL A   1      32.938  29.925  25.524  1.00  0.00     0.116 C 
BRANCH   2   3
ATOM      3  N   UNL A   1      32.308  29.413  24.322  1.00  0.00    -0.352 N 
ATOM      4  C   UNL A   1      32.015  28.137  23.913  1.00  0.00     0.251 C 
ATOM      5  O   UNL A   1      31.440  28.001  22.833  1.00  0.00    -0.269 OA
ATOM      6  H   UNL A   1      32.040  30.112  23.682  1.00  0.00     0.163 HD
BRANCH   4   7
ATOM      7  C   UNL A   1      32.302  26.930  24.739  1.00  0.00     0.039 A 
ATOM      8  C   UNL A   1      32.971  24.556  26.110  1.00  0.00     0.038 A 
ATOM      9  C   UNL A   1      33.931  25.224  25.351  1.00  0.00     0.027 A 
ATOM     10  C   UNL A   1      31.700  25.122  26.236  1.00  0.00     0.027 A 
ATOM     11  C   UNL A   1      33.596  26.393  24.659  1.00  0.00     0.016 A 
ATOM     12  C   UNL A   1      31.380  26.318  25.589  1.00  0.00     0.016 A 
BRANCH   8  13
ATOM     13  N   UNL A   1      33.256  23.311  26.681  1.00  0.00    -0.353 N 
ATOM     14  H   UNL A   1      33.323  23.291  27.663  1.00  0.00     0.167 HD
BRANCH  13  15
ATOM     15  C   UNL A   1      33.457  22.082  26.021  1.00  0.00     0.078 A 
ATOM     16  C   UNL A   1      34.922  20.357  25.097  1.00  0.00     0.121 A 
ATOM     17  C   UNL A   1      33.812  19.650  24.635  1.00  0.00     0.049 A 
ATOM     18  C   UNL A   1      34.738  21.564  25.784  1.00  0.00     0.075 A 
ATOM     19  C   UNL A   1      32.528  20.156  24.851  1.00  0.00     0.045 A 
ATOM     20  C   UNL A   1      32.363  21.359  25.534  1.00  0.00     0.146 A 
ATOM     21  F   UNL A   1      31.119  21.826  25.728  1.00  0.00    -0.205 F 
BRANCH  16  22
ATOM     22  O   UNL A   1      36.225  19.958  24.980  1.00  0.00    -0.497 OA
ATOM     23  C   UNL A   1      37.203  20.990  25.013  1.00  0.00     0.278 C 
ENDBRANCH  16  22
ENDBRANCH  13  15
ENDBRANCH   8  13
ENDBRANCH   4   7
ENDBRANCH   2   3
ENDBRANCH   1   2
BRANCH   1  24
ATOM     24  C   UNL A   1      31.623  31.781  26.722  1.00  0.00     0.023 C 
BRANCH  24  25
ATOM     25  C   UNL A   1      32.786  32.578  27.301  1.00  0.00     0.116 C 
BRANCH  25  26
ATOM     26  N   UNL A   1      32.442  33.957  27.607  1.00  0.00    -0.352 N 
ATOM     27  C   UNL A   1      33.017  34.801  28.527  1.00  0.00     0.251 C 
ATOM     28  H   UNL A   1      31.697  34.338  27.086  1.00  0.00     0.163 HD
ATOM     29  O   UNL A   1      32.542  35.909  28.737  1.00  0.00    -0.269 OA
BRANCH  27  30
ATOM     30  C   UNL A   1      34.194  34.340  29.291  1.00  0.00     0.039 A 
ATOM     31  C   UNL A   1      33.988  33.682  30.506  1.00  0.00     0.014 A 
ATOM     32  C   UNL A   1      35.488  34.527  28.797  1.00  0.00     0.014 A 
ATOM     33  C   UNL A   1      35.078  33.150  31.195  1.00  0.00     0.010 A 
ATOM     34  C   UNL A   1      36.566  33.941  29.452  1.00  0.00     0.010 A 
ATOM     35  C   UNL A   1      36.371  33.244  30.655  1.00  0.00    -0.014 A 
BRANCH  35  36
ATOM     36  C   UNL A   1      37.532  32.613  31.327  1.00  0.00     0.031 A 
ATOM     37  C   UNL A   1      38.215  31.430  30.703  1.00  0.00     0.074 A 
ATOM     38  C   UNL A   1      37.927  33.065  32.533  1.00  0.00     0.049 A 
ATOM     39  N   UNL A   1      39.202  30.707  31.168  1.00  0.00    -0.248 NA
ATOM     40  C   UNL A   1      37.709  30.985  29.394  1.00  0.00     0.031 C 
ATOM     41  C   UNL A   1      37.320  34.179  33.265  1.00  0.00     0.029 A 
ATOM     42  N   UNL A   1      38.932  32.632  33.362  1.00  0.00    -0.354 N 
ATOM     43  C   UNL A   1      39.422  29.715  30.222  1.00  0.00     0.074 A 
ATOM     44  C   UNL A   1      38.438  29.900  29.177  1.00  0.00     0.031 C 
ATOM     45  C   UNL A   1      37.981  34.358  34.420  1.00  0.00     0.029 A 
ATOM     46  C   UNL A   1      39.030  33.350  34.529  1.00  0.00     0.049 A 
ATOM     47  H   UNL A   1      39.527  31.879  33.141  1.00  0.00     0.167 HD
ATOM     48  C   UNL A   1      40.368  28.747  30.213  1.00  0.00     0.031 A 
ATOM     49  C   UNL A   1      39.869  33.209  35.572  1.00  0.00     0.031 A 
ATOM     50  C   UNL A   1      41.355  28.570  31.243  1.00  0.00     0.049 A 
ATOM     51  C   UNL A   1      40.907  32.123  35.539  1.00  0.00     0.074 A 
ATOM     52  C   UNL A   1      42.391  27.652  31.297  1.00  0.00     0.029 A 
ATOM     53  N   UNL A   1      41.430  29.327  32.401  1.00  0.00    -0.354 N 
ATOM     54  N   UNL A   1      41.143  31.234  34.606  1.00  0.00    -0.248 NA
ATOM     55  C   UNL A   1      41.802  32.029  36.702  1.00  0.00     0.031 C 
ATOM     56  C   UNL A   1      43.067  27.827  32.509  1.00  0.00     0.029 A 
ATOM     57  C   UNL A   1      42.482  28.886  33.186  1.00  0.00     0.049 A 
ATOM     58  H   UNL A   1      40.825  30.068  32.633  1.00  0.00     0.167 HD
ATOM     59  C   UNL A   1      42.229  30.494  35.054  1.00  0.00     0.074 A 
ATOM     60  C   UNL A   1      42.615  31.048  36.336  1.00  0.00     0.031 C 
ATOM     61  C   UNL A   1      42.853  29.449  34.457  1.00  0.00     0.031 A 
BRANCH  48  62
ATOM     62  C   UNL A   1      40.378  27.802  29.045  1.00  0.00    -0.014 A 
ATOM     63  C   UNL A   1      41.158  28.064  27.907  1.00  0.00     0.009 A 
ATOM     64  C   UNL A   1      39.628  26.618  29.097  1.00  0.00     0.009 A 
ATOM     65  C   UNL A   1      41.158  27.174  26.830  1.00  0.00     0.001 A 
ATOM     66  C   UNL A   1      39.651  25.717  28.030  1.00  0.00     0.001 A 
ATOM     67  C   UNL A   1      40.409  26.001  26.895  1.00  0.00     0.000 A 
ENDBRANCH  48  62
BRANCH  49  68
ATOM     68  C   UNL A   1      39.776  34.131  36.733  1.00  0.00    -0.014 A 
ATOM     69  C   UNL A   1      40.478  35.346  36.732  1.00  0.00     0.009 A 
ATOM     70  C   UNL A   1      38.999  33.796  37.852  1.00  0.00     0.009 A 
ATOM     71  C   UNL A   1      40.424  36.194  37.841  1.00  0.00     0.001 A 
ATOM     72  C   UNL A   1      38.925  34.659  38.948  1.00  0.00     0.001 A 
ATOM     73  C   UNL A   1      39.645  35.852  38.946  1.00  0.00     0.000 A 
ENDBRANCH  49  68
BRANCH  61  74
ATOM     74  C   UNL A   1      44.038  28.862  35.167  1.00  0.00    -0.014 A 
ATOM     75  C   UNL A   1      43.892  27.797  36.069  1.00  0.00     0.009 A 
ATOM     76  C   UNL A   1      45.323  29.356  34.898  1.00  0.00     0.009 A 
ATOM     77  C   UNL A   1      45.009  27.259  36.711  1.00  0.00     0.001 A 
ATOM     78  C   UNL A   1      46.440  28.799  35.520  1.00  0.00     0.001 A 
ATOM     79  C   UNL A   1      46.282  27.758  36.432  1.00  0.00     0.000 A 
ENDBRANCH  61  74
ENDBRANCH  35  36
ENDBRANCH  27  30
ENDBRANCH  25  26
ENDBRANCH  24  25
ENDBRANCH   1  24
TORSDOF 14
ENDMDL
