MODEL 1
REMARK VINA RESULT:     -10.5      0.000      0.000
REMARK SMILES CC[C@@H](C)N(CC)c1cc(C(=O)NCCCCNC(=O)c2ccc(-c3c4nc(c(-c5ccccc5)c5ccc([nH]5)c(-c5ccccc5)c5nc(c(-c6ccccc6)c6ccc3[nH]6)C=C5)C=C4)cc2)c2ccccc2n1
REMARK SMILES IDX 15 1 14 2 13 3 11 4 12 5 10 7 8 8 9 9 75 10 74 11 69 12
REMARK SMILES IDX 73 13 70 14 72 15 71 16 5 17 3 18 4 19 2 20 1 21 6 22 7 23
REMARK SMILES IDX 16 24 17 25 18 26 19 27 20 29 21 30 22 31 68 32 23 33 67 34
REMARK SMILES IDX 24 35 25 36 26 37 61 38 27 39 66 40 60 41 62 42 28 43 65 44
REMARK SMILES IDX 59 45 58 46 29 48 51 49 36 50 50 51 37 52 40 53 49 54 63 55
REMARK SMILES IDX 38 56 39 57 48 59 64 60 41 61 30 62 31 63 35 64 32 65 34 66
REMARK SMILES IDX 33 67 52 68 53 69 57 70 54 71 56 72 55 73 42 74 43 75 47 76
REMARK SMILES IDX 44 77 46 78 45 79
REMARK H PARENT 13 6 18 28 62 47 40 58
REMARK Flexibility Score: inf
ROOT
ATOM      1  C   UNL A   1      39.032  22.624  26.353  1.00  0.00     0.023 C 
ENDROOT
BRANCH   1   2
ATOM      2  C   UNL A   1      37.849  23.545  26.026  1.00  0.00     0.116 C 
BRANCH   2   3
ATOM      3  N   UNL A   1      37.614  23.488  24.603  1.00  0.00    -0.352 N 
ATOM      4  C   UNL A   1      36.508  23.208  23.846  1.00  0.00     0.252 C 
ATOM      5  O   UNL A   1      36.745  22.902  22.673  1.00  0.00    -0.269 OA
ATOM      6  H   UNL A   1      38.413  23.691  24.066  1.00  0.00     0.163 HD
BRANCH   4   7
ATOM      7  C   UNL A   1      35.077  23.384  24.255  1.00  0.00     0.052 A 
ATOM      8  C   UNL A   1      33.479  25.152  24.728  1.00  0.00     0.130 A 
ATOM      9  C   UNL A   1      34.744  24.745  24.365  1.00  0.00     0.061 A 
ATOM     10  N   UNL A   1      32.597  24.235  25.140  1.00  0.00    -0.231 NA
ATOM     11  C   UNL A   1      32.851  22.932  25.018  1.00  0.00     0.073 A 
ATOM     12  C   UNL A   1      34.056  22.430  24.497  1.00  0.00     0.013 A 
ATOM     13  C   UNL A   1      31.828  22.067  25.390  1.00  0.00     0.029 A 
ATOM     14  C   UNL A   1      34.073  21.043  24.221  1.00  0.00     0.011 A 
ATOM     15  C   UNL A   1      31.929  20.689  25.228  1.00  0.00     0.002 A 
ATOM     16  C   UNL A   1      33.054  20.174  24.617  1.00  0.00     0.001 A 
BRANCH   8  17
ATOM     17  N   UNL A   1      33.096  26.484  24.670  1.00  0.00    -0.354 N 
BRANCH  17  18
ATOM     18  C   UNL A   1      32.720  27.206  25.907  1.00  0.00     0.080 C 
ATOM     19  C   UNL A   1      31.367  27.895  25.707  1.00  0.00     0.031 C 
BRANCH  18  20
ATOM     20  C   UNL A   1      33.826  28.145  26.433  1.00  0.00     0.021 C 
ATOM     21  C   UNL A   1      33.440  29.618  26.419  1.00  0.00     0.006 C 
ENDBRANCH  18  20
ENDBRANCH  17  18
BRANCH  17  22
ATOM     22  C   UNL A   1      32.577  26.997  23.393  1.00  0.00     0.115 C 
ATOM     23  C   UNL A   1      33.583  27.878  22.663  1.00  0.00     0.027 C 
ENDBRANCH  17  22
ENDBRANCH   8  17
ENDBRANCH   4   7
ENDBRANCH   2   3
ENDBRANCH   1   2
BRANCH   1  24
ATOM     24  C   UNL A   1      39.053  21.290  25.622  1.00  0.00     0.023 C 
BRANCH  24  25
ATOM     25  C   UNL A   1      39.560  20.142  26.473  1.00  0.00     0.116 C 
BRANCH  25  26
ATOM     26  N   UNL A   1      40.670  19.407  25.880  1.00  0.00    -0.352 N 
ATOM     27  C   UNL A   1      41.986  19.785  25.796  1.00  0.00     0.251 C 
ATOM     28  H   UNL A   1      40.449  18.530  25.491  1.00  0.00     0.163 HD
ATOM     29  O   UNL A   1      42.807  19.089  25.209  1.00  0.00    -0.269 OA
BRANCH  27  30
ATOM     30  C   UNL A   1      42.380  21.078  26.381  1.00  0.00     0.039 A 
ATOM     31  C   UNL A   1      42.645  22.150  25.529  1.00  0.00     0.014 A 
ATOM     32  C   UNL A   1      42.390  21.244  27.768  1.00  0.00     0.014 A 
ATOM     33  C   UNL A   1      42.866  23.412  26.075  1.00  0.00     0.010 A 
ATOM     34  C   UNL A   1      42.498  22.517  28.300  1.00  0.00     0.010 A 
ATOM     35  C   UNL A   1      42.763  23.608  27.461  1.00  0.00    -0.014 A 
BRANCH  35  36
ATOM     36  C   UNL A   1      42.990  24.939  28.065  1.00  0.00     0.031 A 
ATOM     37  C   UNL A   1      44.383  25.344  28.457  1.00  0.00     0.074 A 
ATOM     38  C   UNL A   1      41.946  25.752  28.306  1.00  0.00     0.049 A 
ATOM     39  N   UNL A   1      44.796  26.456  29.007  1.00  0.00    -0.248 NA
ATOM     40  C   UNL A   1      45.451  24.352  28.236  1.00  0.00     0.031 C 
ATOM     41  C   UNL A   1      40.541  25.444  28.023  1.00  0.00     0.029 A 
ATOM     42  N   UNL A   1      41.909  27.015  28.838  1.00  0.00    -0.354 N 
ATOM     43  C   UNL A   1      46.156  26.281  29.225  1.00  0.00     0.074 A 
ATOM     44  C   UNL A   1      46.488  24.939  28.811  1.00  0.00     0.031 C 
ATOM     45  C   UNL A   1      39.787  26.511  28.334  1.00  0.00     0.029 A 
ATOM     46  C   UNL A   1      40.650  27.562  28.861  1.00  0.00     0.049 A 
ATOM     47  H   UNL A   1      42.708  27.483  29.171  1.00  0.00     0.167 HD
ATOM     48  C   UNL A   1      47.060  27.172  29.697  1.00  0.00     0.031 A 
ATOM     49  C   UNL A   1      40.246  28.787  29.247  1.00  0.00     0.031 A 
ATOM     50  C   UNL A   1      46.733  28.519  30.070  1.00  0.00     0.049 A 
ATOM     51  C   UNL A   1      41.271  29.771  29.736  1.00  0.00     0.074 A 
ATOM     52  C   UNL A   1      47.579  29.530  30.487  1.00  0.00     0.029 A 
ATOM     53  N   UNL A   1      45.449  29.042  30.062  1.00  0.00    -0.354 N 
ATOM     54  N   UNL A   1      42.568  29.624  29.859  1.00  0.00    -0.248 NA
ATOM     55  C   UNL A   1      40.775  31.100  30.119  1.00  0.00     0.031 C 
ATOM     56  C   UNL A   1      46.800  30.658  30.768  1.00  0.00     0.029 A 
ATOM     57  C   UNL A   1      45.477  30.361  30.481  1.00  0.00     0.049 A 
ATOM     58  H   UNL A   1      44.639  28.550  29.798  1.00  0.00     0.167 HD
ATOM     59  C   UNL A   1      43.048  30.849  30.300  1.00  0.00     0.074 A 
ATOM     60  C   UNL A   1      41.903  31.731  30.413  1.00  0.00     0.031 C 
ATOM     61  C   UNL A   1      44.323  31.217  30.580  1.00  0.00     0.031 A 
BRANCH  48  62
ATOM     62  C   UNL A   1      48.480  26.698  29.830  1.00  0.00    -0.014 A 
ATOM     63  C   UNL A   1      48.930  26.058  30.998  1.00  0.00     0.009 A 
ATOM     64  C   UNL A   1      49.387  26.911  28.782  1.00  0.00     0.009 A 
ATOM     65  C   UNL A   1      50.270  25.691  31.132  1.00  0.00     0.001 A 
ATOM     66  C   UNL A   1      50.719  26.513  28.907  1.00  0.00     0.001 A 
ATOM     67  C   UNL A   1      51.163  25.917  30.087  1.00  0.00     0.000 A 
ENDBRANCH  48  62
BRANCH  49  68
ATOM     68  C   UNL A   1      38.819  29.176  29.115  1.00  0.00    -0.014 A 
ATOM     69  C   UNL A   1      37.960  29.079  30.221  1.00  0.00     0.009 A 
ATOM     70  C   UNL A   1      38.309  29.645  27.895  1.00  0.00     0.009 A 
ATOM     71  C   UNL A   1      36.611  29.421  30.102  1.00  0.00     0.001 A 
ATOM     72  C   UNL A   1      36.964  30.008  27.787  1.00  0.00     0.001 A 
ATOM     73  C   UNL A   1      36.116  29.888  28.886  1.00  0.00     0.000 A 
ENDBRANCH  49  68
BRANCH  61  74
ATOM     74  C   UNL A   1      44.546  32.643  30.990  1.00  0.00    -0.014 A 
ATOM     75  C   UNL A   1      44.521  33.026  32.340  1.00  0.00     0.009 A 
ATOM     76  C   UNL A   1      44.818  33.610  30.010  1.00  0.00     0.009 A 
ATOM     77  C   UNL A   1      44.730  34.360  32.695  1.00  0.00     0.001 A 
ATOM     78  C   UNL A   1      45.053  34.936  30.371  1.00  0.00     0.001 A 
ATOM     79  C   UNL A   1      44.999  35.312  31.713  1.00  0.00     0.000 A 
ENDBRANCH  61  74
ENDBRANCH  35  36
ENDBRANCH  27  30
ENDBRANCH  25  26
ENDBRANCH  24  25
ENDBRANCH   1  24
TORSDOF 15
ENDMDL
MODEL 2
REMARK VINA RESULT:     -10.5      2.450      7.970
REMARK SMILES CC[C@@H](C)N(CC)c1cc(C(=O)NCCCCNC(=O)c2ccc(-c3c4nc(c(-c5ccccc5)c5ccc([nH]5)c(-c5ccccc5)c5nc(c(-c6ccccc6)c6ccc3[nH]6)C=C5)C=C4)cc2)c2ccccc2n1
REMARK SMILES IDX 15 1 14 2 13 3 11 4 12 5 10 7 8 8 9 9 75 10 74 11 69 12
REMARK SMILES IDX 73 13 70 14 72 15 71 16 5 17 3 18 4 19 2 20 1 21 6 22 7 23
REMARK SMILES IDX 16 24 17 25 18 26 19 27 20 29 21 30 22 31 68 32 23 33 67 34
REMARK SMILES IDX 24 35 25 36 26 37 61 38 27 39 66 40 60 41 62 42 28 43 65 44
REMARK SMILES IDX 59 45 58 46 29 48 51 49 36 50 50 51 37 52 40 53 49 54 63 55
REMARK SMILES IDX 38 56 39 57 48 59 64 60 41 61 30 62 31 63 35 64 32 65 34 66
REMARK SMILES IDX 33 67 52 68 53 69 57 70 54 71 56 72 55 73 42 74 43 75 47 76
REMARK SMILES IDX 44 77 46 78 45 79
REMARK H PARENT 13 6 18 28 62 47 40 58
REMARK Flexibility Score: inf
ROOT
ATOM      1  C   UNL A   1      32.351  26.507  25.726  1.00  0.00     0.023 C 
ENDROOT
BRANCH   1   2
ATOM      2  C   UNL A   1      32.808  25.074  25.425  1.00  0.00     0.116 C 
BRANCH   2   3
ATOM      3  N   UNL A   1      32.744  24.314  26.650  1.00  0.00    -0.352 N 
ATOM      4  C   UNL A   1      33.041  23.014  26.964  1.00  0.00     0.252 C 
ATOM      5  O   UNL A   1      32.536  22.606  28.015  1.00  0.00    -0.269 OA
ATOM      6  H   UNL A   1      32.420  24.837  27.418  1.00  0.00     0.163 HD
BRANCH   4   7
ATOM      7  C   UNL A   1      34.012  22.123  26.252  1.00  0.00     0.052 A 
ATOM      8  C   UNL A   1      34.081  19.976  25.115  1.00  0.00     0.130 A 
ATOM      9  C   UNL A   1      33.385  20.948  25.800  1.00  0.00     0.061 A 
ATOM     10  N   UNL A   1      35.411  20.077  25.019  1.00  0.00    -0.231 NA
ATOM     11  C   UNL A   1      36.045  21.188  25.396  1.00  0.00     0.073 A 
ATOM     12  C   UNL A   1      35.387  22.299  25.950  1.00  0.00     0.013 A 
ATOM     13  C   UNL A   1      37.416  21.223  25.165  1.00  0.00     0.029 A 
ATOM     14  C   UNL A   1      36.166  23.472  26.078  1.00  0.00     0.011 A 
ATOM     15  C   UNL A   1      38.181  22.354  25.428  1.00  0.00     0.002 A 
ATOM     16  C   UNL A   1      37.546  23.497  25.867  1.00  0.00     0.001 A 
BRANCH   8  17
ATOM     17  N   UNL A   1      33.437  18.902  24.519  1.00  0.00    -0.354 N 
BRANCH  17  18
ATOM     18  C   UNL A   1      34.181  17.655  24.229  1.00  0.00     0.080 C 
ATOM     19  C   UNL A   1      33.778  17.127  22.849  1.00  0.00     0.031 C 
BRANCH  18  20
ATOM     20  C   UNL A   1      34.081  16.602  25.353  1.00  0.00     0.021 C 
ATOM     21  C   UNL A   1      33.006  15.550  25.116  1.00  0.00     0.006 C 
ENDBRANCH  18  20
ENDBRANCH  17  18
BRANCH  17  22
ATOM     22  C   UNL A   1      32.226  19.175  23.731  1.00  0.00     0.115 C 
ATOM     23  C   UNL A   1      32.385  20.374  22.806  1.00  0.00     0.027 C 
ENDBRANCH  17  22
ENDBRANCH   8  17
ENDBRANCH   4   7
ENDBRANCH   2   3
ENDBRANCH   1   2
BRANCH   1  24
ATOM     24  C   UNL A   1      33.405  27.589  25.549  1.00  0.00     0.023 C 
BRANCH  24  25
ATOM     25  C   UNL A   1      33.915  28.158  26.859  1.00  0.00     0.116 C 
BRANCH  25  26
ATOM     26  N   UNL A   1      33.533  29.545  27.093  1.00  0.00    -0.352 N 
ATOM     27  C   UNL A   1      34.269  30.535  27.694  1.00  0.00     0.251 C 
ATOM     28  H   UNL A   1      32.636  29.804  26.781  1.00  0.00     0.163 HD
ATOM     29  O   UNL A   1      33.793  31.650  27.882  1.00  0.00    -0.269 OA
BRANCH  27  30
ATOM     30  C   UNL A   1      35.627  30.210  28.160  1.00  0.00     0.039 A 
ATOM     31  C   UNL A   1      35.791  29.685  29.442  1.00  0.00     0.014 A 
ATOM     32  C   UNL A   1      36.714  30.336  27.292  1.00  0.00     0.014 A 
ATOM     33  C   UNL A   1      37.049  29.233  29.834  1.00  0.00     0.010 A 
ATOM     34  C   UNL A   1      37.934  29.783  27.642  1.00  0.00     0.010 A 
ATOM     35  C   UNL A   1      38.119  29.250  28.925  1.00  0.00    -0.014 A 
BRANCH  35  36
ATOM     36  C   UNL A   1      39.463  28.771  29.316  1.00  0.00     0.031 A 
ATOM     37  C   UNL A   1      40.317  29.621  30.215  1.00  0.00     0.074 A 
ATOM     38  C   UNL A   1      39.929  27.610  28.823  1.00  0.00     0.049 A 
ATOM     39  N   UNL A   1      41.522  29.391  30.667  1.00  0.00    -0.248 NA
ATOM     40  C   UNL A   1      39.756  30.918  30.633  1.00  0.00     0.031 C 
ATOM     41  C   UNL A   1      39.215  26.729  27.895  1.00  0.00     0.029 A 
ATOM     42  N   UNL A   1      41.119  26.966  29.045  1.00  0.00    -0.354 N 
ATOM     43  C   UNL A   1      41.870  30.525  31.389  1.00  0.00     0.074 A 
ATOM     44  C   UNL A   1      40.782  31.465  31.263  1.00  0.00     0.031 C 
ATOM     45  C   UNL A   1      39.959  25.633  27.671  1.00  0.00     0.029 A 
ATOM     46  C   UNL A   1      41.208  25.749  28.416  1.00  0.00     0.049 A 
ATOM     47  H   UNL A   1      41.839  27.340  29.602  1.00  0.00     0.167 HD
ATOM     48  C   UNL A   1      42.985  30.752  32.123  1.00  0.00     0.031 A 
ATOM     49  C   UNL A   1      42.184  24.823  28.457  1.00  0.00     0.031 A 
ATOM     50  C   UNL A   1      44.047  29.799  32.278  1.00  0.00     0.049 A 
ATOM     51  C   UNL A   1      43.398  25.081  29.304  1.00  0.00     0.074 A 
ATOM     52  C   UNL A   1      45.185  29.892  33.058  1.00  0.00     0.029 A 
ATOM     53  N   UNL A   1      44.093  28.569  31.639  1.00  0.00    -0.354 N 
ATOM     54  N   UNL A   1      43.680  26.122  30.051  1.00  0.00    -0.248 NA
ATOM     55  C   UNL A   1      44.418  24.026  29.330  1.00  0.00     0.031 C 
ATOM     56  C   UNL A   1      45.941  28.729  32.861  1.00  0.00     0.029 A 
ATOM     57  C   UNL A   1      45.248  27.897  31.996  1.00  0.00     0.049 A 
ATOM     58  H   UNL A   1      43.406  28.225  31.024  1.00  0.00     0.167 HD
ATOM     59  C   UNL A   1      44.891  25.832  30.663  1.00  0.00     0.074 A 
ATOM     60  C   UNL A   1      45.285  24.513  30.206  1.00  0.00     0.031 C 
ATOM     61  C   UNL A   1      45.613  26.584  31.530  1.00  0.00     0.031 A 
BRANCH  48  62
ATOM     62  C   UNL A   1      43.093  32.088  32.803  1.00  0.00    -0.014 A 
ATOM     63  C   UNL A   1      42.588  32.290  34.100  1.00  0.00     0.009 A 
ATOM     64  C   UNL A   1      43.690  33.166  32.133  1.00  0.00     0.009 A 
ATOM     65  C   UNL A   1      42.631  33.555  34.687  1.00  0.00     0.001 A 
ATOM     66  C   UNL A   1      43.760  34.423  32.736  1.00  0.00     0.001 A 
ATOM     67  C   UNL A   1      43.219  34.620  34.006  1.00  0.00     0.000 A 
ENDBRANCH  48  62
BRANCH  49  68
ATOM     68  C   UNL A   1      42.021  23.537  27.733  1.00  0.00    -0.014 A 
ATOM     69  C   UNL A   1      42.528  23.393  26.432  1.00  0.00     0.009 A 
ATOM     70  C   UNL A   1      41.364  22.451  28.331  1.00  0.00     0.009 A 
ATOM     71  C   UNL A   1      42.361  22.195  25.735  1.00  0.00     0.001 A 
ATOM     72  C   UNL A   1      41.219  21.246  27.639  1.00  0.00     0.001 A 
ATOM     73  C   UNL A   1      41.709  21.122  26.340  1.00  0.00     0.000 A 
ENDBRANCH  49  68
BRANCH  61  74
ATOM     74  C   UNL A   1      46.873  25.977  32.073  1.00  0.00    -0.014 A 
ATOM     75  C   UNL A   1      46.872  25.242  33.268  1.00  0.00     0.009 A 
ATOM     76  C   UNL A   1      48.072  26.117  31.357  1.00  0.00     0.009 A 
ATOM     77  C   UNL A   1      48.059  24.689  33.754  1.00  0.00     0.001 A 
ATOM     78  C   UNL A   1      49.250  25.539  31.831  1.00  0.00     0.001 A 
ATOM     79  C   UNL A   1      49.244  24.834  33.034  1.00  0.00     0.000 A 
ENDBRANCH  61  74
ENDBRANCH  35  36
ENDBRANCH  27  30
ENDBRANCH  25  26
ENDBRANCH  24  25
ENDBRANCH   1  24
TORSDOF 15
ENDMDL
MODEL 3
REMARK VINA RESULT:     -10.4      2.585      4.598
REMARK SMILES CC[C@@H](C)N(CC)c1cc(C(=O)NCCCCNC(=O)c2ccc(-c3c4nc(c(-c5ccccc5)c5ccc([nH]5)c(-c5ccccc5)c5nc(c(-c6ccccc6)c6ccc3[nH]6)C=C5)C=C4)cc2)c2ccccc2n1
REMARK SMILES IDX 15 1 14 2 13 3 11 4 12 5 10 7 8 8 9 9 75 10 74 11 69 12
REMARK SMILES IDX 73 13 70 14 72 15 71 16 5 17 3 18 4 19 2 20 1 21 6 22 7 23
REMARK SMILES IDX 16 24 17 25 18 26 19 27 20 29 21 30 22 31 68 32 23 33 67 34
REMARK SMILES IDX 24 35 25 36 26 37 61 38 27 39 66 40 60 41 62 42 28 43 65 44
REMARK SMILES IDX 59 45 58 46 29 48 51 49 36 50 50 51 37 52 40 53 49 54 63 55
REMARK SMILES IDX 38 56 39 57 48 59 64 60 41 61 30 62 31 63 35 64 32 65 34 66
REMARK SMILES IDX 33 67 52 68 53 69 57 70 54 71 56 72 55 73 42 74 43 75 47 76
REMARK SMILES IDX 44 77 46 78 45 79
REMARK H PARENT 13 6 18 28 62 47 40 58
REMARK Flexibility Score: inf
ROOT
ATOM      1  C   UNL A   1      34.687  24.347  25.423  1.00  0.00     0.023 C 
ENDROOT
BRANCH   1   2
ATOM      2  C   UNL A   1      33.493  24.680  24.518  1.00  0.00     0.116 C 
BRANCH   2   3
ATOM      3  N   UNL A   1      33.957  25.544  23.460  1.00  0.00    -0.352 N 
ATOM      4  C   UNL A   1      33.513  26.741  22.965  1.00  0.00     0.252 C 
ATOM      5  O   UNL A   1      33.929  27.021  21.835  1.00  0.00    -0.269 OA
ATOM      6  H   UNL A   1      34.756  25.202  22.999  1.00  0.00     0.163 HD
BRANCH   4   7
ATOM      7  C   UNL A   1      32.721  27.776  23.704  1.00  0.00     0.052 A 
ATOM      8  C   UNL A   1      30.633  29.005  23.519  1.00  0.00     0.130 A 
ATOM      9  C   UNL A   1      31.527  28.079  23.027  1.00  0.00     0.061 A 
ATOM     10  N   UNL A   1      30.984  29.745  24.577  1.00  0.00    -0.231 NA
ATOM     11  C   UNL A   1      32.086  29.469  25.275  1.00  0.00     0.073 A 
ATOM     12  C   UNL A   1      32.968  28.428  24.939  1.00  0.00     0.013 A 
ATOM     13  C   UNL A   1      32.306  30.242  26.410  1.00  0.00     0.029 A 
ATOM     14  C   UNL A   1      33.954  28.124  25.905  1.00  0.00     0.011 A 
ATOM     15  C   UNL A   1      33.368  29.999  27.275  1.00  0.00     0.002 A 
ATOM     16  C   UNL A   1      34.187  28.915  27.033  1.00  0.00     0.001 A 
BRANCH   8  17
ATOM     17  N   UNL A   1      29.380  29.182  22.952  1.00  0.00    -0.354 N 
BRANCH  17  18
ATOM     18  C   UNL A   1      28.878  30.546  22.665  1.00  0.00     0.080 C 
ATOM     19  C   UNL A   1      27.621  30.815  23.497  1.00  0.00     0.031 C 
BRANCH  18  20
ATOM     20  C   UNL A   1      28.704  30.835  21.159  1.00  0.00     0.021 C 
ATOM     21  C   UNL A   1      28.016  32.160  20.864  1.00  0.00     0.006 C 
ENDBRANCH  18  20
ENDBRANCH  17  18
BRANCH  17  22
ATOM     22  C   UNL A   1      28.389  28.110  23.121  1.00  0.00     0.115 C 
ATOM     23  C   UNL A   1      28.949  26.905  23.867  1.00  0.00     0.027 C 
ENDBRANCH  17  22
ENDBRANCH   8  17
ENDBRANCH   4   7
ENDBRANCH   2   3
ENDBRANCH   1   2
BRANCH   1  24
ATOM     24  C   UNL A   1      35.578  23.209  24.951  1.00  0.00     0.023 C 
BRANCH  24  25
ATOM     25  C   UNL A   1      37.036  23.601  24.807  1.00  0.00     0.116 C 
BRANCH  25  26
ATOM     26  N   UNL A   1      37.973  22.585  25.269  1.00  0.00    -0.352 N 
ATOM     27  C   UNL A   1      39.032  22.739  26.129  1.00  0.00     0.251 C 
ATOM     28  H   UNL A   1      37.830  21.676  24.921  1.00  0.00     0.163 HD
ATOM     29  O   UNL A   1      39.780  21.802  26.383  1.00  0.00    -0.269 OA
BRANCH  27  30
ATOM     30  C   UNL A   1      39.280  24.074  26.698  1.00  0.00     0.039 A 
ATOM     31  C   UNL A   1      38.875  24.332  28.008  1.00  0.00     0.014 A 
ATOM     32  C   UNL A   1      39.994  25.025  25.967  1.00  0.00     0.014 A 
ATOM     33  C   UNL A   1      39.240  25.536  28.606  1.00  0.00     0.010 A 
ATOM     34  C   UNL A   1      40.451  26.169  26.600  1.00  0.00     0.010 A 
ATOM     35  C   UNL A   1      40.057  26.446  27.916  1.00  0.00    -0.014 A 
BRANCH  35  36
ATOM     36  C   UNL A   1      40.462  27.729  28.530  1.00  0.00     0.031 A 
ATOM     37  C   UNL A   1      41.886  27.920  28.971  1.00  0.00     0.074 A 
ATOM     38  C   UNL A   1      39.545  28.692  28.737  1.00  0.00     0.049 A 
ATOM     39  N   UNL A   1      42.443  28.958  29.537  1.00  0.00    -0.248 NA
ATOM     40  C   UNL A   1      42.798  26.777  28.785  1.00  0.00     0.031 C 
ATOM     41  C   UNL A   1      38.121  28.599  28.405  1.00  0.00     0.029 A 
ATOM     42  N   UNL A   1      39.682  29.947  29.270  1.00  0.00    -0.354 N 
ATOM     43  C   UNL A   1      43.753  28.580  29.801  1.00  0.00     0.074 A 
ATOM     44  C   UNL A   1      43.891  27.202  29.397  1.00  0.00     0.031 C 
ATOM     45  C   UNL A   1      37.527  29.770  28.692  1.00  0.00     0.029 A 
ATOM     46  C   UNL A   1      38.521  30.679  29.251  1.00  0.00     0.049 A 
ATOM     47  H   UNL A   1      40.530  30.291  29.632  1.00  0.00     0.167 HD
ATOM     48  C   UNL A   1      44.764  29.325  30.306  1.00  0.00     0.031 A 
ATOM     49  C   UNL A   1      38.294  31.952  29.625  1.00  0.00     0.031 A 
ATOM     50  C   UNL A   1      44.633  30.707  30.671  1.00  0.00     0.049 A 
ATOM     51  C   UNL A   1      39.438  32.772  30.151  1.00  0.00     0.074 A 
ATOM     52  C   UNL A   1      45.607  31.580  31.119  1.00  0.00     0.029 A 
ATOM     53  N   UNL A   1      43.444  31.419  30.620  1.00  0.00    -0.354 N 
ATOM     54  N   UNL A   1      40.693  32.430  30.318  1.00  0.00    -0.248 NA
ATOM     55  C   UNL A   1      39.137  34.161  30.520  1.00  0.00     0.031 C 
ATOM     56  C   UNL A   1      44.999  32.814  31.376  1.00  0.00     0.029 A 
ATOM     57  C   UNL A   1      43.657  32.719  31.042  1.00  0.00     0.049 A 
ATOM     58  H   UNL A   1      42.578  31.055  30.327  1.00  0.00     0.167 HD
ATOM     59  C   UNL A   1      41.338  33.570  30.778  1.00  0.00     0.074 A 
ATOM     60  C   UNL A   1      40.337  34.615  30.853  1.00  0.00     0.031 C 
ATOM     61  C   UNL A   1      42.643  33.741  31.103  1.00  0.00     0.031 A 
BRANCH  48  62
ATOM     62  C   UNL A   1      46.091  28.642  30.487  1.00  0.00    -0.014 A 
ATOM     63  C   UNL A   1      47.016  28.553  29.433  1.00  0.00     0.009 A 
ATOM     64  C   UNL A   1      46.413  28.060  31.722  1.00  0.00     0.009 A 
ATOM     65  C   UNL A   1      48.211  27.851  29.597  1.00  0.00     0.001 A 
ATOM     66  C   UNL A   1      47.623  27.386  31.892  1.00  0.00     0.001 A 
ATOM     67  C   UNL A   1      48.514  27.270  30.827  1.00  0.00     0.000 A 
ENDBRANCH  48  62
BRANCH  49  68
ATOM     68  C   UNL A   1      36.948  32.552  29.445  1.00  0.00    -0.014 A 
ATOM     69  C   UNL A   1      36.020  32.527  30.498  1.00  0.00     0.009 A 
ATOM     70  C   UNL A   1      36.582  33.152  28.231  1.00  0.00     0.009 A 
ATOM     71  C   UNL A   1      34.744  33.069  30.332  1.00  0.00     0.001 A 
ATOM     72  C   UNL A   1      35.312  33.714  28.076  1.00  0.00     0.001 A 
ATOM     73  C   UNL A   1      34.393  33.665  29.122  1.00  0.00     0.000 A 
ENDBRANCH  49  68
BRANCH  61  74
ATOM     74  C   UNL A   1      43.065  35.118  31.524  1.00  0.00    -0.014 A 
ATOM     75  C   UNL A   1      43.043  35.507  32.872  1.00  0.00     0.009 A 
ATOM     76  C   UNL A   1      43.523  36.026  30.557  1.00  0.00     0.009 A 
ATOM     77  C   UNL A   1      43.439  36.796  33.237  1.00  0.00     0.001 A 
ATOM     78  C   UNL A   1      43.945  37.303  30.929  1.00  0.00     0.001 A 
ATOM     79  C   UNL A   1      43.892  37.689  32.267  1.00  0.00     0.000 A 
ENDBRANCH  61  74
ENDBRANCH  35  36
ENDBRANCH  27  30
ENDBRANCH  25  26
ENDBRANCH  24  25
ENDBRANCH   1  24
TORSDOF 15
ENDMDL
