MODEL 1
REMARK VINA RESULT:     -10.6      0.000      0.000
REMARK SMILES CC(C)[C@H](NC(=O)CCC1=c2ccccc2=NC1)C(=O)NCCCCNC(=O)c1ccc(-c2c3nc(c(-c4ccccc4)c4ccc([nH]4)c(-c4ccccc4)c4nc(c(-c5ccccc5)c5ccc2[nH]5)C=C4)C=C3)cc1
REMARK SMILES IDX 22 1 21 2 19 3 20 4 4 6 2 7 1 8 3 9 5 10 6 11 7 13 8 14 9 15
REMARK SMILES IDX 10 16 11 17 18 18 12 19 16 20 17 21 13 22 15 23 14 24 23 25
REMARK SMILES IDX 24 26 25 27 26 28 27 29 28 31 29 32 30 33 76 34 31 35 75 36
REMARK SMILES IDX 32 37 33 38 34 39 69 40 35 41 74 42 68 43 70 44 36 45 73 46
REMARK SMILES IDX 67 47 66 48 37 50 59 51 44 52 58 53 45 54 48 55 57 56 71 57
REMARK SMILES IDX 46 58 47 59 56 61 72 62 49 63 38 64 39 65 43 66 40 67 42 68
REMARK SMILES IDX 41 69 60 70 61 71 65 72 62 73 64 74 63 75 50 76 51 77 55 78
REMARK SMILES IDX 52 79 54 80 53 81
REMARK H PARENT 21 5 5 12 26 30 70 49 48 60
REMARK Flexibility Score: inf
ROOT
ATOM      1  C   UNL A   1      33.612  29.333  25.562  1.00  0.00     0.116 C 
ENDROOT
BRANCH   1   2
ATOM      2  N   UNL A   1      33.443  29.332  24.139  1.00  0.00    -0.354 N 
ATOM      3  C   UNL A   1      33.616  28.291  23.300  1.00  0.00     0.242 C 
ATOM      4  O   UNL A   1      34.222  28.565  22.262  1.00  0.00    -0.273 OA
ATOM      5  H   UNL A   1      33.171  30.185  23.730  1.00  0.00     0.163 HD
BRANCH   3   6
ATOM      6  C   UNL A   1      33.124  26.864  23.633  1.00  0.00     0.173 C 
BRANCH   6   7
ATOM      7  C   UNL A   1      33.748  25.703  22.788  1.00  0.00     0.015 C 
ATOM      8  C   UNL A   1      34.479  24.600  23.558  1.00  0.00     0.010 C 
ATOM      9  C   UNL A   1      32.769  25.078  21.785  1.00  0.00     0.010 C 
ENDBRANCH   6   7
BRANCH   6  10
ATOM     10  N   UNL A   1      31.699  26.723  23.936  1.00  0.00    -0.344 N 
ATOM     11  C   UNL A   1      31.105  25.914  24.866  1.00  0.00     0.220 C 
ATOM     12  H   UNL A   1      31.090  27.281  23.401  1.00  0.00     0.164 HD
ATOM     13  O   UNL A   1      29.923  25.609  24.690  1.00  0.00    -0.275 OA
BRANCH  11  14
ATOM     14  C   UNL A   1      31.835  25.493  26.130  1.00  0.00     0.104 C 
BRANCH  14  15
ATOM     15  C   UNL A   1      31.460  24.164  26.806  1.00  0.00     0.043 C 
BRANCH  15  16
ATOM     16  C   UNL A   1      32.372  22.996  26.612  1.00  0.00    -0.039 C 
ATOM     17  C   UNL A   1      32.551  22.223  25.538  1.00  0.00     0.001 A 
ATOM     18  C   UNL A   1      33.223  22.512  27.748  1.00  0.00     0.174 C 
ATOM     19  C   UNL A   1      32.015  22.173  24.216  1.00  0.00     0.010 A 
ATOM     20  C   UNL A   1      33.362  21.117  26.078  1.00  0.00     0.065 A 
ATOM     21  N   UNL A   1      33.790  21.217  27.299  1.00  0.00    -0.280 NA
ATOM     22  C   UNL A   1      32.188  21.058  23.487  1.00  0.00     0.001 A 
ATOM     23  C   UNL A   1      33.531  19.933  25.205  1.00  0.00     0.028 A 
ATOM     24  C   UNL A   1      32.940  19.925  23.999  1.00  0.00     0.002 A 
ENDBRANCH  15  16
ENDBRANCH  14  15
ENDBRANCH  11  14
ENDBRANCH   6  10
ENDBRANCH   3   6
ENDBRANCH   1   2
BRANCH   1  25
ATOM     25  C   UNL A   1      32.276  29.409  26.299  1.00  0.00     0.023 C 
BRANCH  25  26
ATOM     26  C   UNL A   1      31.823  30.782  26.805  1.00  0.00     0.023 C 
BRANCH  26  27
ATOM     27  C   UNL A   1      32.891  31.788  27.208  1.00  0.00     0.116 C 
BRANCH  27  28
ATOM     28  N   UNL A   1      32.396  33.102  27.577  1.00  0.00    -0.352 N 
ATOM     29  C   UNL A   1      33.058  34.080  28.280  1.00  0.00     0.251 C 
ATOM     30  H   UNL A   1      31.481  33.318  27.288  1.00  0.00     0.163 HD
ATOM     31  O   UNL A   1      32.529  35.164  28.502  1.00  0.00    -0.269 OA
BRANCH  29  32
ATOM     32  C   UNL A   1      34.386  33.765  28.835  1.00  0.00     0.039 A 
ATOM     33  C   UNL A   1      35.547  34.053  28.116  1.00  0.00     0.014 A 
ATOM     34  C   UNL A   1      34.443  33.053  30.036  1.00  0.00     0.014 A 
ATOM     35  C   UNL A   1      36.751  33.489  28.518  1.00  0.00     0.010 A 
ATOM     36  C   UNL A   1      35.667  32.557  30.480  1.00  0.00     0.010 A 
ATOM     37  C   UNL A   1      36.821  32.728  29.698  1.00  0.00    -0.014 A 
BRANCH  37  38
ATOM     38  C   UNL A   1      38.111  32.126  30.112  1.00  0.00     0.031 A 
ATOM     39  C   UNL A   1      38.989  32.803  31.128  1.00  0.00     0.074 A 
ATOM     40  C   UNL A   1      38.474  30.943  29.580  1.00  0.00     0.049 A 
ATOM     41  N   UNL A   1      40.155  32.424  31.587  1.00  0.00    -0.248 NA
ATOM     42  C   UNL A   1      38.505  34.071  31.699  1.00  0.00     0.031 C 
ATOM     43  C   UNL A   1      37.691  30.189  28.599  1.00  0.00     0.029 A 
ATOM     44  N   UNL A   1      39.576  30.160  29.803  1.00  0.00    -0.354 N 
ATOM     45  C   UNL A   1      40.553  33.413  32.478  1.00  0.00     0.074 A 
ATOM     46  C   UNL A   1      39.517  34.421  32.483  1.00  0.00     0.031 C 
ATOM     47  C   UNL A   1      38.309  29.028  28.346  1.00  0.00     0.029 A 
ATOM     48  C   UNL A   1      39.565  28.988  29.087  1.00  0.00     0.049 A 
ATOM     49  H   UNL A   1      40.305  30.413  30.414  1.00  0.00     0.167 HD
ATOM     50  C   UNL A   1      41.680  33.466  33.228  1.00  0.00     0.031 A 
ATOM     51  C   UNL A   1      40.472  27.996  29.017  1.00  0.00     0.031 A 
ATOM     52  C   UNL A   1      42.699  32.449  33.227  1.00  0.00     0.049 A 
ATOM     53  C   UNL A   1      41.729  28.099  29.828  1.00  0.00     0.074 A 
ATOM     54  C   UNL A   1      43.864  32.402  33.973  1.00  0.00     0.029 A 
ATOM     55  N   UNL A   1      42.674  31.303  32.447  1.00  0.00    -0.354 N 
ATOM     56  N   UNL A   1      42.088  29.038  30.669  1.00  0.00    -0.248 NA
ATOM     57  C   UNL A   1      42.706  27.014  29.680  1.00  0.00     0.031 C 
ATOM     58  C   UNL A   1      44.573  31.258  33.602  1.00  0.00     0.029 A 
ATOM     59  C   UNL A   1      43.818  30.556  32.674  1.00  0.00     0.049 A 
ATOM     60  H   UNL A   1      41.951  31.057  31.826  1.00  0.00     0.167 HD
ATOM     61  C   UNL A   1      43.328  28.655  31.158  1.00  0.00     0.074 A 
ATOM     62  C   UNL A   1      43.649  27.386  30.535  1.00  0.00     0.031 C 
ATOM     63  C   UNL A   1      44.128  29.300  32.040  1.00  0.00     0.031 A 
BRANCH  50  64
ATOM     64  C   UNL A   1      41.895  34.670  34.105  1.00  0.00    -0.014 A 
ATOM     65  C   UNL A   1      42.589  35.782  33.602  1.00  0.00     0.009 A 
ATOM     66  C   UNL A   1      41.503  34.670  35.453  1.00  0.00     0.009 A 
ATOM     67  C   UNL A   1      42.898  36.863  34.430  1.00  0.00     0.001 A 
ATOM     68  C   UNL A   1      41.790  35.764  36.272  1.00  0.00     0.001 A 
ATOM     69  C   UNL A   1      42.495  36.855  35.764  1.00  0.00     0.000 A 
ENDBRANCH  50  64
BRANCH  51  70
ATOM     70  C   UNL A   1      40.196  26.828  28.140  1.00  0.00    -0.014 A 
ATOM     71  C   UNL A   1      39.470  25.728  28.627  1.00  0.00     0.009 A 
ATOM     72  C   UNL A   1      40.727  26.771  26.845  1.00  0.00     0.009 A 
ATOM     73  C   UNL A   1      39.313  24.580  27.847  1.00  0.00     0.001 A 
ATOM     74  C   UNL A   1      40.542  25.633  26.055  1.00  0.00     0.001 A 
ATOM     75  C   UNL A   1      39.847  24.535  26.561  1.00  0.00     0.000 A 
ENDBRANCH  51  70
BRANCH  63  76
ATOM     76  C   UNL A   1      45.435  28.653  32.400  1.00  0.00    -0.014 A 
ATOM     77  C   UNL A   1      46.577  28.910  31.624  1.00  0.00     0.009 A 
ATOM     78  C   UNL A   1      45.513  27.711  33.436  1.00  0.00     0.009 A 
ATOM     79  C   UNL A   1      47.768  28.225  31.868  1.00  0.00     0.001 A 
ATOM     80  C   UNL A   1      46.713  27.049  33.698  1.00  0.00     0.001 A 
ATOM     81  C   UNL A   1      47.836  27.298  32.908  1.00  0.00     0.000 A 
ENDBRANCH  63  76
ENDBRANCH  37  38
ENDBRANCH  29  32
ENDBRANCH  27  28
ENDBRANCH  26  27
ENDBRANCH  25  26
ENDBRANCH   1  25
TORSDOF 16
ENDMDL
MODEL 2
REMARK VINA RESULT:     -10.6      2.498      4.014
REMARK SMILES CC(C)[C@H](NC(=O)CCC1=c2ccccc2=NC1)C(=O)NCCCCNC(=O)c1ccc(-c2c3nc(c(-c4ccccc4)c4ccc([nH]4)c(-c4ccccc4)c4nc(c(-c5ccccc5)c5ccc2[nH]5)C=C4)C=C3)cc1
REMARK SMILES IDX 22 1 21 2 19 3 20 4 4 6 2 7 1 8 3 9 5 10 6 11 7 13 8 14 9 15
REMARK SMILES IDX 10 16 11 17 18 18 12 19 16 20 17 21 13 22 15 23 14 24 23 25
REMARK SMILES IDX 24 26 25 27 26 28 27 29 28 31 29 32 30 33 76 34 31 35 75 36
REMARK SMILES IDX 32 37 33 38 34 39 69 40 35 41 74 42 68 43 70 44 36 45 73 46
REMARK SMILES IDX 67 47 66 48 37 50 59 51 44 52 58 53 45 54 48 55 57 56 71 57
REMARK SMILES IDX 46 58 47 59 56 61 72 62 49 63 38 64 39 65 43 66 40 67 42 68
REMARK SMILES IDX 41 69 60 70 61 71 65 72 62 73 64 74 63 75 50 76 51 77 55 78
REMARK SMILES IDX 52 79 54 80 53 81
REMARK H PARENT 21 5 5 12 26 30 70 49 48 60
REMARK Flexibility Score: inf
ROOT
ATOM      1  C   UNL A   1      31.563  26.492  26.559  1.00  0.00     0.116 C 
ENDROOT
BRANCH   1   2
ATOM      2  N   UNL A   1      30.404  26.047  25.844  1.00  0.00    -0.354 N 
ATOM      3  C   UNL A   1      30.224  26.042  24.508  1.00  0.00     0.242 C 
ATOM      4  O   UNL A   1      29.115  26.436  24.139  1.00  0.00    -0.273 OA
ATOM      5  H   UNL A   1      29.657  25.708  26.388  1.00  0.00     0.163 HD
BRANCH   3   6
ATOM      6  C   UNL A   1      31.332  25.612  23.521  1.00  0.00     0.173 C 
BRANCH   6   7
ATOM      7  C   UNL A   1      31.865  26.721  22.553  1.00  0.00     0.015 C 
ATOM      8  C   UNL A   1      31.862  28.160  23.078  1.00  0.00     0.010 C 
ATOM      9  C   UNL A   1      33.231  26.394  21.935  1.00  0.00     0.010 C 
ENDBRANCH   6   7
BRANCH   6  10
ATOM     10  N   UNL A   1      31.196  24.279  22.932  1.00  0.00    -0.344 N 
ATOM     11  C   UNL A   1      31.521  23.069  23.482  1.00  0.00     0.220 C 
ATOM     12  H   UNL A   1      30.821  24.249  22.022  1.00  0.00     0.164 HD
ATOM     13  O   UNL A   1      31.742  22.130  22.714  1.00  0.00    -0.275 OA
BRANCH  11  14
ATOM     14  C   UNL A   1      31.504  22.854  24.986  1.00  0.00     0.104 C 
BRANCH  14  15
ATOM     15  C   UNL A   1      32.791  23.090  25.792  1.00  0.00     0.043 C 
BRANCH  15  16
ATOM     16  C   UNL A   1      33.911  22.113  25.629  1.00  0.00    -0.039 C 
ATOM     17  C   UNL A   1      35.228  22.303  25.720  1.00  0.00     0.001 A 
ATOM     18  C   UNL A   1      33.616  20.687  25.264  1.00  0.00     0.174 C 
ATOM     19  C   UNL A   1      36.082  23.412  25.997  1.00  0.00     0.010 A 
ATOM     20  C   UNL A   1      35.767  21.035  25.196  1.00  0.00     0.065 A 
ATOM     21  N   UNL A   1      34.928  20.079  24.938  1.00  0.00    -0.280 NA
ATOM     22  C   UNL A   1      37.388  23.319  25.694  1.00  0.00     0.001 A 
ATOM     23  C   UNL A   1      37.220  20.999  24.912  1.00  0.00     0.028 A 
ATOM     24  C   UNL A   1      37.952  22.104  25.131  1.00  0.00     0.002 A 
ENDBRANCH  15  16
ENDBRANCH  14  15
ENDBRANCH  11  14
ENDBRANCH   6  10
ENDBRANCH   3   6
ENDBRANCH   1   2
BRANCH   1  25
ATOM     25  C   UNL A   1      31.437  27.944  27.013  1.00  0.00     0.023 C 
BRANCH  25  26
ATOM     26  C   UNL A   1      32.400  28.965  26.400  1.00  0.00     0.023 C 
BRANCH  26  27
ATOM     27  C   UNL A   1      33.692  29.272  27.144  1.00  0.00     0.116 C 
BRANCH  27  28
ATOM     28  N   UNL A   1      33.669  30.477  27.953  1.00  0.00    -0.352 N 
ATOM     29  C   UNL A   1      34.707  31.030  28.664  1.00  0.00     0.251 C 
ATOM     30  H   UNL A   1      32.810  30.955  27.995  1.00  0.00     0.163 HD
ATOM     31  O   UNL A   1      34.558  32.074  29.288  1.00  0.00    -0.269 OA
BRANCH  29  32
ATOM     32  C   UNL A   1      35.981  30.292  28.728  1.00  0.00     0.039 A 
ATOM     33  C   UNL A   1      36.365  29.630  29.895  1.00  0.00     0.014 A 
ATOM     34  C   UNL A   1      36.849  30.384  27.637  1.00  0.00     0.014 A 
ATOM     35  C   UNL A   1      37.678  29.198  30.029  1.00  0.00     0.010 A 
ATOM     36  C   UNL A   1      38.142  29.877  27.746  1.00  0.00     0.010 A 
ATOM     37  C   UNL A   1      38.581  29.326  28.960  1.00  0.00    -0.014 A 
BRANCH  37  38
ATOM     38  C   UNL A   1      39.983  28.868  29.120  1.00  0.00     0.031 A 
ATOM     39  C   UNL A   1      41.020  29.759  29.745  1.00  0.00     0.074 A 
ATOM     40  C   UNL A   1      40.307  27.624  28.718  1.00  0.00     0.049 A 
ATOM     41  N   UNL A   1      42.293  29.522  29.943  1.00  0.00    -0.248 NA
ATOM     42  C   UNL A   1      40.581  31.088  30.202  1.00  0.00     0.031 C 
ATOM     43  C   UNL A   1      39.376  26.669  28.115  1.00  0.00     0.029 A 
ATOM     44  N   UNL A   1      41.496  26.945  28.775  1.00  0.00    -0.354 N 
ATOM     45  C   UNL A   1      42.809  30.675  30.522  1.00  0.00     0.074 A 
ATOM     46  C   UNL A   1      41.720  31.621  30.626  1.00  0.00     0.031 C 
ATOM     47  C   UNL A   1      40.014  25.509  27.908  1.00  0.00     0.029 A 
ATOM     48  C   UNL A   1      41.413  25.662  28.293  1.00  0.00     0.049 A 
ATOM     49  H   UNL A   1      42.327  27.338  29.126  1.00  0.00     0.167 HD
ATOM     50  C   UNL A   1      44.077  30.916  30.934  1.00  0.00     0.031 A 
ATOM     51  C   UNL A   1      42.359  24.714  28.157  1.00  0.00     0.031 A 
ATOM     52  C   UNL A   1      45.151  29.961  30.839  1.00  0.00     0.049 A 
ATOM     53  C   UNL A   1      43.763  25.020  28.586  1.00  0.00     0.074 A 
ATOM     54  C   UNL A   1      46.463  30.104  31.254  1.00  0.00     0.029 A 
ATOM     55  N   UNL A   1      45.036  28.691  30.296  1.00  0.00    -0.354 N 
ATOM     56  N   UNL A   1      44.234  26.113  29.135  1.00  0.00    -0.248 NA
ATOM     57  C   UNL A   1      44.766  23.970  28.373  1.00  0.00     0.031 C 
ATOM     58  C   UNL A   1      47.157  28.943  30.908  1.00  0.00     0.029 A 
ATOM     59  C   UNL A   1      46.263  28.050  30.339  1.00  0.00     0.049 A 
ATOM     60  H   UNL A   1      44.207  28.303  29.933  1.00  0.00     0.167 HD
ATOM     61  C   UNL A   1      45.586  25.881  29.343  1.00  0.00     0.074 A 
ATOM     62  C   UNL A   1      45.855  24.535  28.879  1.00  0.00     0.031 C 
ATOM     63  C   UNL A   1      46.518  26.713  29.866  1.00  0.00     0.031 A 
BRANCH  50  64
ATOM     64  C   UNL A   1      44.393  32.269  31.511  1.00  0.00    -0.014 A 
ATOM     65  C   UNL A   1      44.938  33.266  30.686  1.00  0.00     0.009 A 
ATOM     66  C   UNL A   1      44.248  32.529  32.882  1.00  0.00     0.009 A 
ATOM     67  C   UNL A   1      45.344  34.490  31.222  1.00  0.00     0.001 A 
ATOM     68  C   UNL A   1      44.629  33.764  33.412  1.00  0.00     0.001 A 
ATOM     69  C   UNL A   1      45.186  34.740  32.584  1.00  0.00     0.000 A 
ENDBRANCH  50  64
BRANCH  51  70
ATOM     70  C   UNL A   1      41.981  23.393  27.591  1.00  0.00    -0.014 A 
ATOM     71  C   UNL A   1      42.201  23.112  26.231  1.00  0.00     0.009 A 
ATOM     72  C   UNL A   1      41.325  22.442  28.383  1.00  0.00     0.009 A 
ATOM     73  C   UNL A   1      41.738  21.921  25.670  1.00  0.00     0.001 A 
ATOM     74  C   UNL A   1      40.891  21.236  27.825  1.00  0.00     0.001 A 
ATOM     75  C   UNL A   1      41.086  20.983  26.468  1.00  0.00     0.000 A 
ENDBRANCH  51  70
BRANCH  63  76
ATOM     76  C   UNL A   1      47.925  26.201  29.978  1.00  0.00    -0.014 A 
ATOM     77  C   UNL A   1      48.401  25.733  31.213  1.00  0.00     0.009 A 
ATOM     78  C   UNL A   1      48.810  26.279  28.892  1.00  0.00     0.009 A 
ATOM     79  C   UNL A   1      49.739  25.368  31.365  1.00  0.00     0.001 A 
ATOM     80  C   UNL A   1      50.141  25.886  29.038  1.00  0.00     0.001 A 
ATOM     81  C   UNL A   1      50.607  25.441  30.276  1.00  0.00     0.000 A 
ENDBRANCH  63  76
ENDBRANCH  37  38
ENDBRANCH  29  32
ENDBRANCH  27  28
ENDBRANCH  26  27
ENDBRANCH  25  26
ENDBRANCH   1  25
TORSDOF 16
ENDMDL
MODEL 3
REMARK VINA RESULT:     -10.5      1.576      6.022
REMARK SMILES CC(C)[C@H](NC(=O)CCC1=c2ccccc2=NC1)C(=O)NCCCCNC(=O)c1ccc(-c2c3nc(c(-c4ccccc4)c4ccc([nH]4)c(-c4ccccc4)c4nc(c(-c5ccccc5)c5ccc2[nH]5)C=C4)C=C3)cc1
REMARK SMILES IDX 22 1 21 2 19 3 20 4 4 6 2 7 1 8 3 9 5 10 6 11 7 13 8 14 9 15
REMARK SMILES IDX 10 16 11 17 18 18 12 19 16 20 17 21 13 22 15 23 14 24 23 25
REMARK SMILES IDX 24 26 25 27 26 28 27 29 28 31 29 32 30 33 76 34 31 35 75 36
REMARK SMILES IDX 32 37 33 38 34 39 69 40 35 41 74 42 68 43 70 44 36 45 73 46
REMARK SMILES IDX 67 47 66 48 37 50 59 51 44 52 58 53 45 54 48 55 57 56 71 57
REMARK SMILES IDX 46 58 47 59 56 61 72 62 49 63 38 64 39 65 43 66 40 67 42 68
REMARK SMILES IDX 41 69 60 70 61 71 65 72 62 73 64 74 63 75 50 76 51 77 55 78
REMARK SMILES IDX 52 79 54 80 53 81
REMARK H PARENT 21 5 5 12 26 30 70 49 48 60
REMARK Flexibility Score: inf
ROOT
ATOM      1  C   UNL A   1      31.766  29.518  25.157  1.00  0.00     0.116 C 
ENDROOT
BRANCH   1   2
ATOM      2  N   UNL A   1      30.680  29.117  24.312  1.00  0.00    -0.354 N 
ATOM      3  C   UNL A   1      30.650  28.063  23.472  1.00  0.00     0.242 C 
ATOM      4  O   UNL A   1      30.155  28.302  22.368  1.00  0.00    -0.273 OA
ATOM      5  H   UNL A   1      29.868  29.672  24.350  1.00  0.00     0.163 HD
BRANCH   3   6
ATOM      6  C   UNL A   1      31.223  26.680  23.852  1.00  0.00     0.173 C 
BRANCH   6   7
ATOM      7  C   UNL A   1      31.115  25.562  22.760  1.00  0.00     0.015 C 
ATOM      8  C   UNL A   1      32.397  25.210  22.000  1.00  0.00     0.010 C 
ATOM      9  C   UNL A   1      30.434  24.280  23.257  1.00  0.00     0.010 C 
ENDBRANCH   6   7
BRANCH   6  10
ATOM     10  N   UNL A   1      30.990  26.235  25.227  1.00  0.00    -0.344 N 
ATOM     11  C   UNL A   1      31.858  25.602  26.074  1.00  0.00     0.220 C 
ATOM     12  H   UNL A   1      30.093  26.416  25.590  1.00  0.00     0.164 HD
ATOM     13  O   UNL A   1      31.380  24.937  26.995  1.00  0.00    -0.275 OA
BRANCH  11  14
ATOM     14  C   UNL A   1      33.361  25.795  25.956  1.00  0.00     0.104 C 
BRANCH  14  15
ATOM     15  C   UNL A   1      34.187  24.780  25.150  1.00  0.00     0.043 C 
BRANCH  15  16
ATOM     16  C   UNL A   1      34.156  23.349  25.582  1.00  0.00    -0.039 C 
ATOM     17  C   UNL A   1      33.717  22.271  24.929  1.00  0.00     0.001 A 
ATOM     18  C   UNL A   1      34.626  22.969  26.956  1.00  0.00     0.174 C 
ATOM     19  C   UNL A   1      33.146  22.018  23.646  1.00  0.00     0.010 A 
ATOM     20  C   UNL A   1      33.714  21.242  25.985  1.00  0.00     0.065 A 
ATOM     21  N   UNL A   1      34.224  21.554  27.137  1.00  0.00    -0.280 NA
ATOM     22  C   UNL A   1      32.522  20.847  23.433  1.00  0.00     0.001 A 
ATOM     23  C   UNL A   1      33.032  19.968  25.667  1.00  0.00     0.028 A 
ATOM     24  C   UNL A   1      32.454  19.824  24.463  1.00  0.00     0.002 A 
ENDBRANCH  15  16
ENDBRANCH  14  15
ENDBRANCH  11  14
ENDBRANCH   6  10
ENDBRANCH   3   6
ENDBRANCH   1   2
BRANCH   1  25
ATOM     25  C   UNL A   1      31.496  30.854  25.846  1.00  0.00     0.023 C 
BRANCH  25  26
ATOM     26  C   UNL A   1      32.235  31.137  27.158  1.00  0.00     0.023 C 
BRANCH  26  27
ATOM     27  C   UNL A   1      33.231  32.287  27.188  1.00  0.00     0.116 C 
BRANCH  27  28
ATOM     28  N   UNL A   1      32.697  33.557  27.644  1.00  0.00    -0.352 N 
ATOM     29  C   UNL A   1      33.239  34.408  28.577  1.00  0.00     0.251 C 
ATOM     30  H   UNL A   1      31.849  33.843  27.236  1.00  0.00     0.163 HD
ATOM     31  O   UNL A   1      32.694  35.471  28.853  1.00  0.00    -0.269 OA
BRANCH  29  32
ATOM     32  C   UNL A   1      34.446  33.973  29.302  1.00  0.00     0.039 A 
ATOM     33  C   UNL A   1      35.718  34.302  28.831  1.00  0.00     0.014 A 
ATOM     34  C   UNL A   1      34.284  33.116  30.392  1.00  0.00     0.014 A 
ATOM     35  C   UNL A   1      36.825  33.645  29.353  1.00  0.00     0.010 A 
ATOM     36  C   UNL A   1      35.405  32.520  30.967  1.00  0.00     0.010 A 
ATOM     37  C   UNL A   1      36.678  32.741  30.419  1.00  0.00    -0.014 A 
BRANCH  37  38
ATOM     38  C   UNL A   1      37.867  32.041  30.962  1.00  0.00     0.031 A 
ATOM     39  C   UNL A   1      38.534  30.938  30.188  1.00  0.00     0.074 A 
ATOM     40  C   UNL A   1      38.359  32.430  32.154  1.00  0.00     0.049 A 
ATOM     41  N   UNL A   1      39.570  30.210  30.524  1.00  0.00    -0.248 NA
ATOM     42  C   UNL A   1      37.967  30.599  28.872  1.00  0.00     0.031 C 
ATOM     43  C   UNL A   1      37.802  33.500  32.982  1.00  0.00     0.029 A 
ATOM     44  N   UNL A   1      39.445  31.987  32.863  1.00  0.00    -0.354 N 
ATOM     45  C   UNL A   1      39.762  29.316  29.478  1.00  0.00     0.074 A 
ATOM     46  C   UNL A   1      38.727  29.575  28.503  1.00  0.00     0.031 C 
ATOM     47  C   UNL A   1      38.581  33.669  34.060  1.00  0.00     0.029 A 
ATOM     48  C   UNL A   1      39.645  32.672  34.036  1.00  0.00     0.049 A 
ATOM     49  H   UNL A   1      40.024  31.249  32.563  1.00  0.00     0.167 HD
ATOM     50  C   UNL A   1      40.723  28.370  29.345  1.00  0.00     0.031 A 
ATOM     51  C   UNL A   1      40.572  32.509  34.999  1.00  0.00     0.031 A 
ATOM     52  C   UNL A   1      41.759  28.131  30.315  1.00  0.00     0.049 A 
ATOM     53  C   UNL A   1      41.600  31.429  34.844  1.00  0.00     0.074 A 
ATOM     54  C   UNL A   1      42.792  27.212  30.256  1.00  0.00     0.029 A 
ATOM     55  N   UNL A   1      41.894  28.812  31.514  1.00  0.00    -0.354 N 
ATOM     56  N   UNL A   1      41.772  30.595  33.847  1.00  0.00    -0.248 NA
ATOM     57  C   UNL A   1      42.558  31.262  35.944  1.00  0.00     0.031 C 
ATOM     58  C   UNL A   1      43.519  27.297  31.446  1.00  0.00     0.029 A 
ATOM     59  C   UNL A   1      42.979  28.314  32.218  1.00  0.00     0.049 A 
ATOM     60  H   UNL A   1      41.308  29.540  31.821  1.00  0.00     0.167 HD
ATOM     61  C   UNL A   1      42.861  29.809  34.193  1.00  0.00     0.074 A 
ATOM     62  C   UNL A   1      43.324  30.281  35.483  1.00  0.00     0.031 C 
ATOM     63  C   UNL A   1      43.423  28.787  33.504  1.00  0.00     0.031 A 
BRANCH  50  64
ATOM     64  C   UNL A   1      40.701  27.502  28.117  1.00  0.00    -0.014 A 
ATOM     65  C   UNL A   1      40.038  26.264  28.152  1.00  0.00     0.009 A 
ATOM     66  C   UNL A   1      41.413  27.854  26.960  1.00  0.00     0.009 A 
ATOM     67  C   UNL A   1      40.099  25.392  27.064  1.00  0.00     0.001 A 
ATOM     68  C   UNL A   1      41.450  26.992  25.862  1.00  0.00     0.001 A 
ATOM     69  C   UNL A   1      40.802  25.757  25.918  1.00  0.00     0.000 A 
ENDBRANCH  50  64
BRANCH  51  70
ATOM     70  C   UNL A   1      40.548  33.407  36.183  1.00  0.00    -0.014 A 
ATOM     71  C   UNL A   1      41.313  34.586  36.199  1.00  0.00     0.009 A 
ATOM     72  C   UNL A   1      39.828  33.050  37.331  1.00  0.00     0.009 A 
ATOM     73  C   UNL A   1      41.387  35.368  37.353  1.00  0.00     0.001 A 
ATOM     74  C   UNL A   1      39.879  33.851  38.474  1.00  0.00     0.001 A 
ATOM     75  C   UNL A   1      40.668  35.001  38.488  1.00  0.00     0.000 A 
ENDBRANCH  51  70
BRANCH  63  76
ATOM     76  C   UNL A   1      44.608  28.100  34.118  1.00  0.00    -0.014 A 
ATOM     77  C   UNL A   1      45.906  28.544  33.814  1.00  0.00     0.009 A 
ATOM     78  C   UNL A   1      44.449  26.954  34.910  1.00  0.00     0.009 A 
ATOM     79  C   UNL A   1      47.020  27.844  34.277  1.00  0.00     0.001 A 
ATOM     80  C   UNL A   1      45.565  26.272  35.396  1.00  0.00     0.001 A 
ATOM     81  C   UNL A   1      46.848  26.710  35.071  1.00  0.00     0.000 A 
ENDBRANCH  63  76
ENDBRANCH  37  38
ENDBRANCH  29  32
ENDBRANCH  27  28
ENDBRANCH  26  27
ENDBRANCH  25  26
ENDBRANCH   1  25
TORSDOF 16
ENDMDL
