MODEL 1
REMARK VINA RESULT:     -11.6      0.000      0.000
REMARK SMILES Cc1ccc(NC(=O)Cn2c(CCC(=O)NCCCCNC(=O)c3ccc(-c4c5nc(c(-c6ccccc6)c6ccc([nH]6)c(-c6ccccc6)c6nc(c(-c7ccccc7)c7ccc4[nH]7)C=C6)C=C5)cc3)ccc2-c2ccccc2)cc1
REMARK SMILES IDX 17 1 16 2 14 3 15 4 13 6 12 7 11 8 10 9 74 10 72 11 73 12
REMARK SMILES IDX 9 13 7 14 6 15 8 17 5 18 1 19 2 20 3 21 82 22 4 23 81 24
REMARK SMILES IDX 75 25 76 26 80 27 77 28 79 29 78 30 18 31 19 32 20 33 21 34
REMARK SMILES IDX 22 35 23 37 24 38 25 39 71 40 26 41 70 42 27 43 28 44 29 45
REMARK SMILES IDX 64 46 30 47 69 48 63 49 65 50 31 51 68 52 62 53 61 54 32 56
REMARK SMILES IDX 54 57 39 58 53 59 40 60 43 61 52 62 66 63 41 64 42 65 51 67
REMARK SMILES IDX 67 68 44 69 33 70 34 71 38 72 35 73 37 74 36 75 55 76 56 77
REMARK SMILES IDX 60 78 57 79 59 80 58 81 45 82 46 83 50 84 47 85 49 86 48 87
REMARK H PARENT 16 5 6 16 21 36 65 55 43 66
REMARK Flexibility Score: inf
ROOT
ATOM      1  C   UNL A   1      35.076  30.348  27.282  1.00  0.00     0.116 C 
ENDROOT
BRANCH   1   2
ATOM      2  N   UNL A   1      33.796  29.869  27.781  1.00  0.00    -0.356 N 
ATOM      3  C   UNL A   1      32.642  29.599  27.106  1.00  0.00     0.220 C 
ATOM      4  O   UNL A   1      31.743  28.975  27.677  1.00  0.00    -0.275 OA
ATOM      5  H   UNL A   1      33.757  29.717  28.754  1.00  0.00     0.163 HD
BRANCH   3   6
ATOM      6  C   UNL A   1      32.436  30.083  25.692  1.00  0.00     0.106 C 
BRANCH   6   7
ATOM      7  C   UNL A   1      31.178  29.462  25.095  1.00  0.00     0.064 C 
BRANCH   7   8
ATOM      8  C   UNL A   1      31.413  28.350  24.107  1.00  0.00     0.019 A 
ATOM      9  N   UNL A   1      31.941  27.076  24.312  1.00  0.00    -0.335 N 
ATOM     10  C   UNL A   1      31.880  26.377  23.086  1.00  0.00     0.049 A 
ATOM     11  C   UNL A   1      31.178  28.483  22.746  1.00  0.00     0.024 A 
ATOM     12  C   UNL A   1      31.479  27.271  22.115  1.00  0.00     0.029 A 
BRANCH   9  13
ATOM     13  C   UNL A   1      32.418  26.387  25.529  1.00  0.00     0.222 C 
BRANCH  13  14
ATOM     14  C   UNL A   1      31.502  25.599  26.438  1.00  0.00     0.244 C 
ATOM     15  N   UNL A   1      31.781  24.342  26.905  1.00  0.00    -0.325 N 
ATOM     16  H   UNL A   1      31.118  23.970  27.530  1.00  0.00     0.169 HD
ATOM     17  O   UNL A   1      30.406  26.088  26.747  1.00  0.00    -0.273 OA
BRANCH  15  18
ATOM     18  C   UNL A   1      32.871  23.509  26.621  1.00  0.00     0.041 A 
ATOM     19  C   UNL A   1      35.979  21.107  24.898  1.00  0.00     0.044 C 
ATOM     20  C   UNL A   1      34.964  21.944  25.614  1.00  0.00    -0.051 A 
ATOM     21  C   UNL A   1      33.802  21.345  26.105  1.00  0.00     0.005 A 
ATOM     22  C   UNL A   1      35.113  23.331  25.724  1.00  0.00     0.005 A 
ATOM     23  C   UNL A   1      32.769  22.123  26.619  1.00  0.00     0.026 A 
ATOM     24  C   UNL A   1      34.082  24.109  26.258  1.00  0.00     0.026 A 
ENDBRANCH  15  18
ENDBRANCH  13  14
ENDBRANCH   9  13
BRANCH  10  25
ATOM     25  C   UNL A   1      32.050  24.931  22.881  1.00  0.00    -0.002 A 
ATOM     26  C   UNL A   1      31.082  24.002  23.264  1.00  0.00     0.010 A 
ATOM     27  C   UNL A   1      33.295  24.448  22.461  1.00  0.00     0.010 A 
ATOM     28  C   UNL A   1      31.354  22.627  23.186  1.00  0.00     0.001 A 
ATOM     29  C   UNL A   1      33.564  23.085  22.353  1.00  0.00     0.001 A 
ATOM     30  C   UNL A   1      32.588  22.170  22.719  1.00  0.00     0.000 A 
ENDBRANCH  10  25
ENDBRANCH   7   8
ENDBRANCH   6   7
ENDBRANCH   3   6
ENDBRANCH   1   2
BRANCH   1  31
ATOM     31  C   UNL A   1      36.208  30.201  28.293  1.00  0.00     0.023 C 
BRANCH  31  32
ATOM     32  C   UNL A   1      35.911  30.670  29.731  1.00  0.00     0.023 C 
BRANCH  32  33
ATOM     33  C   UNL A   1      35.385  32.124  29.848  1.00  0.00     0.116 C 
BRANCH  33  34
ATOM     34  N   UNL A   1      36.340  33.124  29.365  1.00  0.00    -0.352 N 
ATOM     35  C   UNL A   1      37.666  33.395  29.650  1.00  0.00     0.251 C 
ATOM     36  H   UNL A   1      35.956  33.732  28.692  1.00  0.00     0.163 HD
ATOM     37  O   UNL A   1      38.098  34.491  29.299  1.00  0.00    -0.269 OA
BRANCH  35  38
ATOM     38  C   UNL A   1      38.605  32.456  30.339  1.00  0.00     0.039 A 
ATOM     39  C   UNL A   1      38.579  32.338  31.749  1.00  0.00     0.014 A 
ATOM     40  C   UNL A   1      39.606  31.779  29.664  1.00  0.00     0.014 A 
ATOM     41  C   UNL A   1      39.437  31.447  32.456  1.00  0.00     0.010 A 
ATOM     42  C   UNL A   1      40.498  30.958  30.375  1.00  0.00     0.010 A 
ATOM     43  C   UNL A   1      40.390  30.698  31.766  1.00  0.00    -0.014 A 
BRANCH  43  44
ATOM     44  C   UNL A   1      40.899  29.342  32.222  1.00  0.00     0.031 A 
ATOM     45  C   UNL A   1      40.230  28.291  31.455  1.00  0.00     0.074 A 
ATOM     46  C   UNL A   1      42.151  28.909  32.552  1.00  0.00     0.049 A 
ATOM     47  N   UNL A   1      40.741  28.015  30.306  1.00  0.00    -0.248 NA
ATOM     48  C   UNL A   1      38.956  27.675  31.739  1.00  0.00     0.031 C 
ATOM     49  C   UNL A   1      43.250  29.740  32.999  1.00  0.00     0.029 A 
ATOM     50  N   UNL A   1      42.753  27.630  32.307  1.00  0.00    -0.354 N 
ATOM     51  C   UNL A   1      39.879  27.201  29.658  1.00  0.00     0.074 A 
ATOM     52  C   UNL A   1      38.798  26.972  30.605  1.00  0.00     0.031 C 
ATOM     53  C   UNL A   1      44.398  29.046  32.865  1.00  0.00     0.029 A 
ATOM     54  C   UNL A   1      44.147  27.716  32.259  1.00  0.00     0.049 A 
ATOM     55  H   UNL A   1      42.247  26.793  32.187  1.00  0.00     0.167 HD
ATOM     56  C   UNL A   1      40.240  26.794  28.416  1.00  0.00     0.031 A 
ATOM     57  C   UNL A   1      45.053  27.123  31.414  1.00  0.00     0.031 A 
ATOM     58  C   UNL A   1      41.155  27.709  27.678  1.00  0.00     0.049 A 
ATOM     59  C   UNL A   1      45.291  28.220  30.439  1.00  0.00     0.074 A 
ATOM     60  C   UNL A   1      41.203  28.178  26.377  1.00  0.00     0.029 A 
ATOM     61  N   UNL A   1      42.185  28.395  28.321  1.00  0.00    -0.354 N 
ATOM     62  N   UNL A   1      44.403  28.475  29.531  1.00  0.00    -0.248 NA
ATOM     63  C   UNL A   1      46.467  29.059  30.412  1.00  0.00     0.031 C 
ATOM     64  C   UNL A   1      42.213  29.194  26.288  1.00  0.00     0.029 A 
ATOM     65  C   UNL A   1      42.806  29.357  27.530  1.00  0.00     0.049 A 
ATOM     66  H   UNL A   1      42.450  28.214  29.252  1.00  0.00     0.167 HD
ATOM     67  C   UNL A   1      44.786  29.618  28.895  1.00  0.00     0.074 A 
ATOM     68  C   UNL A   1      46.101  29.916  29.450  1.00  0.00     0.031 C 
ATOM     69  C   UNL A   1      43.899  30.228  28.060  1.00  0.00     0.031 A 
BRANCH  56  70
ATOM     70  C   UNL A   1      39.911  25.387  27.995  1.00  0.00    -0.014 A 
ATOM     71  C   UNL A   1      38.776  25.202  27.189  1.00  0.00     0.009 A 
ATOM     72  C   UNL A   1      40.761  24.276  28.143  1.00  0.00     0.009 A 
ATOM     73  C   UNL A   1      38.544  23.998  26.513  1.00  0.00     0.001 A 
ATOM     74  C   UNL A   1      40.553  23.082  27.444  1.00  0.00     0.001 A 
ATOM     75  C   UNL A   1      39.447  22.947  26.619  1.00  0.00     0.000 A 
ENDBRANCH  56  70
BRANCH  57  76
ATOM     76  C   UNL A   1      45.239  25.777  30.739  1.00  0.00    -0.014 A 
ATOM     77  C   UNL A   1      46.103  25.670  29.640  1.00  0.00     0.009 A 
ATOM     78  C   UNL A   1      44.305  24.718  30.898  1.00  0.00     0.009 A 
ATOM     79  C   UNL A   1      45.980  24.608  28.717  1.00  0.00     0.001 A 
ATOM     80  C   UNL A   1      44.161  23.680  29.967  1.00  0.00     0.001 A 
ATOM     81  C   UNL A   1      44.992  23.634  28.862  1.00  0.00     0.000 A 
ENDBRANCH  57  76
BRANCH  69  82
ATOM     82  C   UNL A   1      43.979  31.722  27.764  1.00  0.00    -0.014 A 
ATOM     83  C   UNL A   1      43.666  32.758  28.667  1.00  0.00     0.009 A 
ATOM     84  C   UNL A   1      44.259  32.147  26.451  1.00  0.00     0.009 A 
ATOM     85  C   UNL A   1      43.668  34.114  28.311  1.00  0.00     0.001 A 
ATOM     86  C   UNL A   1      44.268  33.503  26.084  1.00  0.00     0.001 A 
ATOM     87  C   UNL A   1      43.979  34.489  27.018  1.00  0.00     0.000 A 
ENDBRANCH  69  82
ENDBRANCH  43  44
ENDBRANCH  35  38
ENDBRANCH  33  34
ENDBRANCH  32  33
ENDBRANCH  31  32
ENDBRANCH   1  31
TORSDOF 17
ENDMDL
MODEL 2
REMARK VINA RESULT:     -11.4      1.274      3.189
REMARK SMILES Cc1ccc(NC(=O)Cn2c(CCC(=O)NCCCCNC(=O)c3ccc(-c4c5nc(c(-c6ccccc6)c6ccc([nH]6)c(-c6ccccc6)c6nc(c(-c7ccccc7)c7ccc4[nH]7)C=C6)C=C5)cc3)ccc2-c2ccccc2)cc1
REMARK SMILES IDX 17 1 16 2 14 3 15 4 13 6 12 7 11 8 10 9 74 10 72 11 73 12
REMARK SMILES IDX 9 13 7 14 6 15 8 17 5 18 1 19 2 20 3 21 82 22 4 23 81 24
REMARK SMILES IDX 75 25 76 26 80 27 77 28 79 29 78 30 18 31 19 32 20 33 21 34
REMARK SMILES IDX 22 35 23 37 24 38 25 39 71 40 26 41 70 42 27 43 28 44 29 45
REMARK SMILES IDX 64 46 30 47 69 48 63 49 65 50 31 51 68 52 62 53 61 54 32 56
REMARK SMILES IDX 54 57 39 58 53 59 40 60 43 61 52 62 66 63 41 64 42 65 51 67
REMARK SMILES IDX 67 68 44 69 33 70 34 71 38 72 35 73 37 74 36 75 55 76 56 77
REMARK SMILES IDX 60 78 57 79 59 80 58 81 45 82 46 83 50 84 47 85 49 86 48 87
REMARK H PARENT 16 5 6 16 21 36 65 55 43 66
REMARK Flexibility Score: inf
ROOT
ATOM      1  C   UNL A   1      35.014  29.391  27.963  1.00  0.00     0.116 C 
ENDROOT
BRANCH   1   2
ATOM      2  N   UNL A   1      34.032  30.463  27.880  1.00  0.00    -0.356 N 
ATOM      3  C   UNL A   1      33.027  30.657  26.978  1.00  0.00     0.220 C 
ATOM      4  O   UNL A   1      32.157  31.497  27.220  1.00  0.00    -0.275 OA
ATOM      5  H   UNL A   1      34.104  31.151  28.581  1.00  0.00     0.163 HD
BRANCH   3   6
ATOM      6  C   UNL A   1      32.988  29.891  25.679  1.00  0.00     0.106 C 
BRANCH   6   7
ATOM      7  C   UNL A   1      31.754  28.997  25.625  1.00  0.00     0.064 C 
BRANCH   7   8
ATOM      8  C   UNL A   1      32.022  27.519  25.720  1.00  0.00     0.019 A 
ATOM      9  N   UNL A   1      32.764  26.694  24.875  1.00  0.00    -0.335 N 
ATOM     10  C   UNL A   1      32.786  25.399  25.439  1.00  0.00     0.049 A 
ATOM     11  C   UNL A   1      31.469  26.710  26.701  1.00  0.00     0.024 A 
ATOM     12  C   UNL A   1      31.929  25.401  26.520  1.00  0.00     0.029 A 
BRANCH   9  13
ATOM     13  C   UNL A   1      33.535  26.975  23.647  1.00  0.00     0.222 C 
BRANCH  13  14
ATOM     14  C   UNL A   1      33.053  26.587  22.267  1.00  0.00     0.244 C 
ATOM     15  N   UNL A   1      31.890  27.042  21.705  1.00  0.00    -0.325 N 
ATOM     16  H   UNL A   1      31.728  26.748  20.779  1.00  0.00     0.169 HD
ATOM     17  O   UNL A   1      33.716  25.769  21.613  1.00  0.00    -0.273 OA
BRANCH  15  18
ATOM     18  C   UNL A   1      30.898  27.864  22.255  1.00  0.00     0.041 A 
ATOM     19  C   UNL A   1      27.395  30.149  23.207  1.00  0.00     0.044 C 
ATOM     20  C   UNL A   1      28.654  29.364  23.003  1.00  0.00    -0.051 A 
ATOM     21  C   UNL A   1      29.768  29.987  22.436  1.00  0.00     0.005 A 
ATOM     22  C   UNL A   1      28.711  27.995  23.287  1.00  0.00     0.005 A 
ATOM     23  C   UNL A   1      30.888  29.242  22.079  1.00  0.00     0.026 A 
ATOM     24  C   UNL A   1      29.845  27.252  22.945  1.00  0.00     0.026 A 
ENDBRANCH  15  18
ENDBRANCH  13  14
ENDBRANCH   9  13
BRANCH  10  25
ATOM     25  C   UNL A   1      33.669  24.285  25.065  1.00  0.00    -0.002 A 
ATOM     26  C   UNL A   1      35.040  24.297  25.321  1.00  0.00     0.010 A 
ATOM     27  C   UNL A   1      33.159  23.258  24.260  1.00  0.00     0.010 A 
ATOM     28  C   UNL A   1      35.862  23.280  24.811  1.00  0.00     0.001 A 
ATOM     29  C   UNL A   1      33.963  22.229  23.774  1.00  0.00     0.001 A 
ATOM     30  C   UNL A   1      35.322  22.241  24.050  1.00  0.00     0.000 A 
ENDBRANCH  10  25
ENDBRANCH   7   8
ENDBRANCH   6   7
ENDBRANCH   3   6
ENDBRANCH   1   2
BRANCH   1  31
ATOM     31  C   UNL A   1      36.169  29.707  28.908  1.00  0.00     0.023 C 
BRANCH  31  32
ATOM     32  C   UNL A   1      36.372  31.190  29.275  1.00  0.00     0.023 C 
BRANCH  32  33
ATOM     33  C   UNL A   1      36.861  32.089  28.110  1.00  0.00     0.116 C 
BRANCH  33  34
ATOM     34  N   UNL A   1      37.466  33.344  28.564  1.00  0.00    -0.352 N 
ATOM     35  C   UNL A   1      38.326  33.671  29.596  1.00  0.00     0.251 C 
ATOM     36  H   UNL A   1      37.205  34.120  28.016  1.00  0.00     0.163 HD
ATOM     37  O   UNL A   1      38.410  34.861  29.895  1.00  0.00    -0.269 OA
BRANCH  35  38
ATOM     38  C   UNL A   1      39.162  32.693  30.360  1.00  0.00     0.039 A 
ATOM     39  C   UNL A   1      38.872  32.426  31.720  1.00  0.00     0.014 A 
ATOM     40  C   UNL A   1      40.306  32.123  29.831  1.00  0.00     0.014 A 
ATOM     41  C   UNL A   1      39.622  31.492  32.490  1.00  0.00     0.010 A 
ATOM     42  C   UNL A   1      41.086  31.258  30.619  1.00  0.00     0.010 A 
ATOM     43  C   UNL A   1      40.726  30.849  31.930  1.00  0.00    -0.014 A 
BRANCH  43  44
ATOM     44  C   UNL A   1      41.205  29.468  32.342  1.00  0.00     0.031 A 
ATOM     45  C   UNL A   1      40.474  28.455  31.580  1.00  0.00     0.074 A 
ATOM     46  C   UNL A   1      42.454  28.987  32.617  1.00  0.00     0.049 A 
ATOM     47  N   UNL A   1      40.934  28.186  30.408  1.00  0.00    -0.248 NA
ATOM     48  C   UNL A   1      39.192  27.875  31.899  1.00  0.00     0.031 C 
ATOM     49  C   UNL A   1      43.595  29.773  33.039  1.00  0.00     0.029 A 
ATOM     50  N   UNL A   1      43.003  27.695  32.326  1.00  0.00    -0.354 N 
ATOM     51  C   UNL A   1      40.023  27.414  29.776  1.00  0.00     0.074 A 
ATOM     52  C   UNL A   1      38.969  27.201  30.758  1.00  0.00     0.031 C 
ATOM     53  C   UNL A   1      44.713  29.045  32.850  1.00  0.00     0.029 A 
ATOM     54  C   UNL A   1      44.396  27.737  32.229  1.00  0.00     0.049 A 
ATOM     55  H   UNL A   1      42.465  26.878  32.209  1.00  0.00     0.167 HD
ATOM     56  C   UNL A   1      40.325  27.019  28.515  1.00  0.00     0.031 A 
ATOM     57  C   UNL A   1      45.252  27.131  31.340  1.00  0.00     0.031 A 
ATOM     58  C   UNL A   1      41.243  27.918  27.761  1.00  0.00     0.049 A 
ATOM     59  C   UNL A   1      45.490  28.239  30.378  1.00  0.00     0.074 A 
ATOM     60  C   UNL A   1      41.259  28.412  26.469  1.00  0.00     0.029 A 
ATOM     61  N   UNL A   1      42.317  28.557  28.378  1.00  0.00    -0.354 N 
ATOM     62  N   UNL A   1      44.580  28.541  29.508  1.00  0.00    -0.248 NA
ATOM     63  C   UNL A   1      46.692  29.040  30.324  1.00  0.00     0.031 C 
ATOM     64  C   UNL A   1      42.299  29.395  26.361  1.00  0.00     0.029 A 
ATOM     65  C   UNL A   1      42.941  29.515  27.584  1.00  0.00     0.049 A 
ATOM     66  H   UNL A   1      42.610  28.349  29.296  1.00  0.00     0.167 HD
ATOM     67  C   UNL A   1      44.977  29.683  28.880  1.00  0.00     0.074 A 
ATOM     68  C   UNL A   1      46.320  29.927  29.392  1.00  0.00     0.031 C 
ATOM     69  C   UNL A   1      44.081  30.339  28.089  1.00  0.00     0.031 A 
BRANCH  56  70
ATOM     70  C   UNL A   1      39.934  25.633  28.080  1.00  0.00    -0.014 A 
ATOM     71  C   UNL A   1      38.843  25.513  27.203  1.00  0.00     0.009 A 
ATOM     72  C   UNL A   1      40.700  24.471  28.287  1.00  0.00     0.009 A 
ATOM     73  C   UNL A   1      38.578  24.321  26.519  1.00  0.00     0.001 A 
ATOM     74  C   UNL A   1      40.462  23.287  27.581  1.00  0.00     0.001 A 
ATOM     75  C   UNL A   1      39.404  23.215  26.687  1.00  0.00     0.000 A 
ENDBRANCH  56  70
BRANCH  57  76
ATOM     76  C   UNL A   1      45.367  25.793  30.633  1.00  0.00    -0.014 A 
ATOM     77  C   UNL A   1      46.278  25.648  29.578  1.00  0.00     0.009 A 
ATOM     78  C   UNL A   1      44.346  24.808  30.711  1.00  0.00     0.009 A 
ATOM     79  C   UNL A   1      46.123  24.624  28.617  1.00  0.00     0.001 A 
ATOM     80  C   UNL A   1      44.173  23.811  29.742  1.00  0.00     0.001 A 
ATOM     81  C   UNL A   1      45.055  23.728  28.681  1.00  0.00     0.000 A 
ENDBRANCH  57  76
BRANCH  69  82
ATOM     82  C   UNL A   1      44.200  31.835  27.819  1.00  0.00    -0.014 A 
ATOM     83  C   UNL A   1      43.836  32.864  28.710  1.00  0.00     0.009 A 
ATOM     84  C   UNL A   1      44.579  32.271  26.535  1.00  0.00     0.009 A 
ATOM     85  C   UNL A   1      43.880  34.224  28.372  1.00  0.00     0.001 A 
ATOM     86  C   UNL A   1      44.631  33.631  26.186  1.00  0.00     0.001 A 
ATOM     87  C   UNL A   1      44.288  34.610  27.110  1.00  0.00     0.000 A 
ENDBRANCH  69  82
ENDBRANCH  43  44
ENDBRANCH  35  38
ENDBRANCH  33  34
ENDBRANCH  32  33
ENDBRANCH  31  32
ENDBRANCH   1  31
TORSDOF 17
ENDMDL
MODEL 3
REMARK VINA RESULT:     -11.3      2.636      6.833
REMARK SMILES Cc1ccc(NC(=O)Cn2c(CCC(=O)NCCCCNC(=O)c3ccc(-c4c5nc(c(-c6ccccc6)c6ccc([nH]6)c(-c6ccccc6)c6nc(c(-c7ccccc7)c7ccc4[nH]7)C=C6)C=C5)cc3)ccc2-c2ccccc2)cc1
REMARK SMILES IDX 17 1 16 2 14 3 15 4 13 6 12 7 11 8 10 9 74 10 72 11 73 12
REMARK SMILES IDX 9 13 7 14 6 15 8 17 5 18 1 19 2 20 3 21 82 22 4 23 81 24
REMARK SMILES IDX 75 25 76 26 80 27 77 28 79 29 78 30 18 31 19 32 20 33 21 34
REMARK SMILES IDX 22 35 23 37 24 38 25 39 71 40 26 41 70 42 27 43 28 44 29 45
REMARK SMILES IDX 64 46 30 47 69 48 63 49 65 50 31 51 68 52 62 53 61 54 32 56
REMARK SMILES IDX 54 57 39 58 53 59 40 60 43 61 52 62 66 63 41 64 42 65 51 67
REMARK SMILES IDX 67 68 44 69 33 70 34 71 38 72 35 73 37 74 36 75 55 76 56 77
REMARK SMILES IDX 60 78 57 79 59 80 58 81 45 82 46 83 50 84 47 85 49 86 48 87
REMARK H PARENT 16 5 6 16 21 36 65 55 43 66
REMARK Flexibility Score: inf
ROOT
ATOM      1  C   UNL A   1      38.545  24.059  26.150  1.00  0.00     0.116 C 
ENDROOT
BRANCH   1   2
ATOM      2  N   UNL A   1      37.906  22.751  26.133  1.00  0.00    -0.356 N 
ATOM      3  C   UNL A   1      36.632  22.407  25.788  1.00  0.00     0.220 C 
ATOM      4  O   UNL A   1      36.357  21.217  25.612  1.00  0.00    -0.275 OA
ATOM      5  H   UNL A   1      38.480  22.001  26.413  1.00  0.00     0.163 HD
BRANCH   3   6
ATOM      6  C   UNL A   1      35.552  23.453  25.656  1.00  0.00     0.106 C 
BRANCH   6   7
ATOM      7  C   UNL A   1      35.496  23.984  24.228  1.00  0.00     0.064 C 
BRANCH   7   8
ATOM      8  C   UNL A   1      34.122  24.332  23.722  1.00  0.00     0.019 A 
ATOM      9  N   UNL A   1      33.134  25.124  24.306  1.00  0.00    -0.335 N 
ATOM     10  C   UNL A   1      32.054  25.212  23.399  1.00  0.00     0.049 A 
ATOM     11  C   UNL A   1      33.594  23.817  22.547  1.00  0.00     0.024 A 
ATOM     12  C   UNL A   1      32.314  24.349  22.356  1.00  0.00     0.029 A 
BRANCH   9  13
ATOM     13  C   UNL A   1      33.098  25.887  25.570  1.00  0.00     0.222 C 
BRANCH  13  14
ATOM     14  C   UNL A   1      31.947  25.805  26.548  1.00  0.00     0.244 C 
ATOM     15  N   UNL A   1      31.403  24.631  26.995  1.00  0.00    -0.325 N 
ATOM     16  H   UNL A   1      30.692  24.728  27.670  1.00  0.00     0.169 HD
ATOM     17  O   UNL A   1      31.420  26.858  26.936  1.00  0.00    -0.273 OA
BRANCH  15  18
ATOM     18  C   UNL A   1      31.710  23.313  26.634  1.00  0.00     0.041 A 
ATOM     19  C   UNL A   1      33.361  19.651  25.130  1.00  0.00     0.044 C 
ATOM     20  C   UNL A   1      32.710  20.855  25.738  1.00  0.00    -0.051 A 
ATOM     21  C   UNL A   1      31.661  21.484  25.063  1.00  0.00     0.005 A 
ATOM     22  C   UNL A   1      33.188  21.418  26.927  1.00  0.00     0.005 A 
ATOM     23  C   UNL A   1      31.155  22.697  25.518  1.00  0.00     0.026 A 
ATOM     24  C   UNL A   1      32.665  22.628  27.392  1.00  0.00     0.026 A 
ENDBRANCH  15  18
ENDBRANCH  13  14
ENDBRANCH   9  13
BRANCH  10  25
ATOM     25  C   UNL A   1      30.929  26.158  23.451  1.00  0.00    -0.002 A 
ATOM     26  C   UNL A   1      29.660  25.788  23.899  1.00  0.00     0.010 A 
ATOM     27  C   UNL A   1      31.076  27.419  22.863  1.00  0.00     0.010 A 
ATOM     28  C   UNL A   1      28.585  26.683  23.788  1.00  0.00     0.001 A 
ATOM     29  C   UNL A   1      30.021  28.325  22.774  1.00  0.00     0.001 A 
ATOM     30  C   UNL A   1      28.768  27.953  23.239  1.00  0.00     0.000 A 
ENDBRANCH  10  25
ENDBRANCH   7   8
ENDBRANCH   6   7
ENDBRANCH   3   6
ENDBRANCH   1   2
BRANCH   1  31
ATOM     31  C   UNL A   1      38.876  24.547  27.556  1.00  0.00     0.023 C 
BRANCH  31  32
ATOM     32  C   UNL A   1      40.364  24.523  27.960  1.00  0.00     0.023 C 
BRANCH  32  33
ATOM     33  C   UNL A   1      41.084  23.171  27.718  1.00  0.00     0.116 C 
BRANCH  33  34
ATOM     34  N   UNL A   1      42.071  22.850  28.751  1.00  0.00    -0.352 N 
ATOM     35  C   UNL A   1      43.178  23.510  29.254  1.00  0.00     0.251 C 
ATOM     36  H   UNL A   1      41.912  21.978  29.181  1.00  0.00     0.163 HD
ATOM     37  O   UNL A   1      43.975  22.842  29.909  1.00  0.00    -0.269 OA
BRANCH  35  38
ATOM     38  C   UNL A   1      43.466  24.966  29.068  1.00  0.00     0.039 A 
ATOM     39  C   UNL A   1      44.126  25.413  27.899  1.00  0.00     0.014 A 
ATOM     40  C   UNL A   1      43.231  25.901  30.061  1.00  0.00     0.014 A 
ATOM     41  C   UNL A   1      44.410  26.789  27.662  1.00  0.00     0.010 A 
ATOM     42  C   UNL A   1      43.580  27.247  29.852  1.00  0.00     0.010 A 
ATOM     43  C   UNL A   1      44.094  27.745  28.626  1.00  0.00    -0.014 A 
BRANCH  43  44
ATOM     44  C   UNL A   1      43.752  29.191  28.310  1.00  0.00     0.031 A 
ATOM     45  C   UNL A   1      42.379  29.266  27.814  1.00  0.00     0.074 A 
ATOM     46  C   UNL A   1      44.042  30.354  28.965  1.00  0.00     0.049 A 
ATOM     47  N   UNL A   1      41.455  29.320  28.710  1.00  0.00    -0.248 NA
ATOM     48  C   UNL A   1      41.925  29.083  26.456  1.00  0.00     0.031 C 
ATOM     49  C   UNL A   1      45.143  30.563  29.884  1.00  0.00     0.029 A 
ATOM     50  N   UNL A   1      43.232  31.529  29.111  1.00  0.00    -0.354 N 
ATOM     51  C   UNL A   1      40.267  29.159  28.085  1.00  0.00     0.074 A 
ATOM     52  C   UNL A   1      40.599  29.062  26.671  1.00  0.00     0.031 C 
ATOM     53  C   UNL A   1      44.896  31.674  30.605  1.00  0.00     0.029 A 
ATOM     54  C   UNL A   1      43.578  32.254  30.254  1.00  0.00     0.049 A 
ATOM     55  H   UNL A   1      42.520  31.792  28.483  1.00  0.00     0.167 HD
ATOM     56  C   UNL A   1      39.158  29.185  28.865  1.00  0.00     0.031 A 
ATOM     57  C   UNL A   1      42.791  32.881  31.190  1.00  0.00     0.031 A 
ATOM     58  C   UNL A   1      39.357  28.772  30.282  1.00  0.00     0.049 A 
ATOM     59  C   UNL A   1      42.756  31.855  32.265  1.00  0.00     0.074 A 
ATOM     60  C   UNL A   1      38.654  27.963  31.157  1.00  0.00     0.029 A 
ATOM     61  N   UNL A   1      40.503  29.121  30.996  1.00  0.00    -0.354 N 
ATOM     62  N   UNL A   1      42.004  30.810  32.131  1.00  0.00    -0.248 NA
ATOM     63  C   UNL A   1      43.517  31.921  33.492  1.00  0.00     0.031 C 
ATOM     64  C   UNL A   1      39.432  27.782  32.349  1.00  0.00     0.029 A 
ATOM     65  C   UNL A   1      40.621  28.483  32.227  1.00  0.00     0.049 A 
ATOM     66  H   UNL A   1      41.171  29.762  30.658  1.00  0.00     0.167 HD
ATOM     67  C   UNL A   1      42.291  29.965  33.160  1.00  0.00     0.074 A 
ATOM     68  C   UNL A   1      43.206  30.723  34.005  1.00  0.00     0.031 C 
ATOM     69  C   UNL A   1      41.807  28.692  33.114  1.00  0.00     0.031 A 
BRANCH  56  70
ATOM     70  C   UNL A   1      37.917  29.846  28.331  1.00  0.00    -0.014 A 
ATOM     71  C   UNL A   1      36.929  29.015  27.776  1.00  0.00     0.009 A 
ATOM     72  C   UNL A   1      37.557  31.190  28.542  1.00  0.00     0.009 A 
ATOM     73  C   UNL A   1      35.635  29.484  27.518  1.00  0.00     0.001 A 
ATOM     74  C   UNL A   1      36.257  31.656  28.318  1.00  0.00     0.001 A 
ATOM     75  C   UNL A   1      35.291  30.798  27.814  1.00  0.00     0.000 A 
ENDBRANCH  56  70
BRANCH  57  76
ATOM     76  C   UNL A   1      41.513  33.699  31.209  1.00  0.00    -0.014 A 
ATOM     77  C   UNL A   1      40.938  34.051  32.438  1.00  0.00     0.009 A 
ATOM     78  C   UNL A   1      40.659  33.791  30.077  1.00  0.00     0.009 A 
ATOM     79  C   UNL A   1      39.572  34.396  32.533  1.00  0.00     0.001 A 
ATOM     80  C   UNL A   1      39.296  34.104  30.173  1.00  0.00     0.001 A 
ATOM     81  C   UNL A   1      38.746  34.391  31.408  1.00  0.00     0.000 A 
ENDBRANCH  57  76
BRANCH  69  82
ATOM     82  C   UNL A   1      42.492  27.549  33.855  1.00  0.00    -0.014 A 
ATOM     83  C   UNL A   1      43.749  26.997  33.535  1.00  0.00     0.009 A 
ATOM     84  C   UNL A   1      41.791  26.872  34.870  1.00  0.00     0.009 A 
ATOM     85  C   UNL A   1      44.290  25.884  34.194  1.00  0.00     0.001 A 
ATOM     86  C   UNL A   1      42.324  25.758  35.540  1.00  0.00     0.001 A 
ATOM     87  C   UNL A   1      43.580  25.268  35.206  1.00  0.00     0.000 A 
ENDBRANCH  69  82
ENDBRANCH  43  44
ENDBRANCH  35  38
ENDBRANCH  33  34
ENDBRANCH  32  33
ENDBRANCH  31  32
ENDBRANCH   1  31
TORSDOF 17
ENDMDL
