MODEL 1
REMARK VINA RESULT:      -9.0      0.000      0.000
REMARK SMILES O=C(NCCCCNC(=O)c1ccc(-c2ccc(Cl)cc2)cc1F)c1ccc(-c2c3nc(c(-c4ccccc4)c4ccc([nH]4)c(-c4ccccc4)c4nc(c(-c5ccccc5)c5ccc2[nH]5)C=C4)C=C3)cc1
REMARK SMILES IDX 5 1 4 2 3 3 1 4 2 5 25 7 26 8 72 9 27 10 71 11 28 12 29 13
REMARK SMILES IDX 30 14 65 15 31 16 70 17 64 18 66 19 32 20 69 21 63 22 62 23
REMARK SMILES IDX 33 25 55 26 40 27 54 28 41 29 44 30 53 31 67 32 42 33 43 34
REMARK SMILES IDX 52 36 68 37 45 38 34 39 35 40 39 41 36 42 38 43 37 44 56 45
REMARK SMILES IDX 57 46 61 47 58 48 60 49 59 50 46 51 47 52 51 53 48 54 50 55
REMARK SMILES IDX 49 56 6 57 7 58 8 59 9 60 10 62 11 63 12 64 23 65 13 66
REMARK SMILES IDX 22 67 24 68 14 69 15 70 16 71 21 72 17 73 20 74 18 75 19 76
REMARK H PARENT 3 6 66 24 44 35 8 61
REMARK Flexibility Score: inf
ROOT
ATOM      1  C   UNL A   1      41.769  21.950  26.169  1.00  0.00     0.023 C 
ENDROOT
BRANCH   1   2
ATOM      2  C   UNL A   1      40.452  21.445  26.739  1.00  0.00     0.116 C 
BRANCH   2   3
ATOM      3  N   UNL A   1      39.293  21.851  25.956  1.00  0.00    -0.352 N 
ATOM      4  O   UNL A   1      37.604  23.201  25.297  1.00  0.00    -0.269 OA
ATOM      5  C   UNL A   1      38.648  23.066  25.926  1.00  0.00     0.251 C 
ATOM      6  H   UNL A   1      38.917  21.158  25.365  1.00  0.00     0.163 HD
BRANCH   5   7
ATOM      7  C   UNL A   1      39.205  24.206  26.687  1.00  0.00     0.039 A 
ATOM      8  C   UNL A   1      38.931  24.346  28.047  1.00  0.00     0.014 A 
ATOM      9  C   UNL A   1      39.983  25.161  26.025  1.00  0.00     0.014 A 
ATOM     10  C   UNL A   1      39.279  25.522  28.699  1.00  0.00     0.010 A 
ATOM     11  C   UNL A   1      40.423  26.298  26.712  1.00  0.00     0.010 A 
ATOM     12  C   UNL A   1      40.040  26.508  28.045  1.00  0.00    -0.014 A 
BRANCH  12  13
ATOM     13  C   UNL A   1      40.453  27.708  28.815  1.00  0.00     0.031 A 
ATOM     14  C   UNL A   1      41.861  27.884  29.312  1.00  0.00     0.074 A 
ATOM     15  C   UNL A   1      39.549  28.692  28.992  1.00  0.00     0.049 A 
ATOM     16  N   UNL A   1      42.397  28.923  29.903  1.00  0.00    -0.248 NA
ATOM     17  C   UNL A   1      42.787  26.754  29.132  1.00  0.00     0.031 C 
ATOM     18  C   UNL A   1      38.147  28.631  28.569  1.00  0.00     0.029 A 
ATOM     19  N   UNL A   1      39.681  29.947  29.526  1.00  0.00    -0.354 N 
ATOM     20  C   UNL A   1      43.714  28.571  30.178  1.00  0.00     0.074 A 
ATOM     21  C   UNL A   1      43.890  27.211  29.713  1.00  0.00     0.031 C 
ATOM     22  C   UNL A   1      37.570  29.820  28.788  1.00  0.00     0.029 A 
ATOM     23  C   UNL A   1      38.539  30.705  29.422  1.00  0.00     0.049 A 
ATOM     24  H   UNL A   1      40.510  30.274  29.943  1.00  0.00     0.167 HD
ATOM     25  C   UNL A   1      44.686  29.314  30.759  1.00  0.00     0.031 A 
ATOM     26  C   UNL A   1      38.293  31.973  29.796  1.00  0.00     0.031 A 
ATOM     27  C   UNL A   1      44.512  30.666  31.223  1.00  0.00     0.049 A 
ATOM     28  C   UNL A   1      39.391  32.772  30.430  1.00  0.00     0.074 A 
ATOM     29  C   UNL A   1      45.441  31.500  31.824  1.00  0.00     0.029 A 
ATOM     30  N   UNL A   1      43.330  31.385  31.135  1.00  0.00    -0.354 N 
ATOM     31  N   UNL A   1      40.631  32.424  30.668  1.00  0.00    -0.248 NA
ATOM     32  C   UNL A   1      39.052  34.139  30.846  1.00  0.00     0.031 C 
ATOM     33  C   UNL A   1      44.811  32.711  32.132  1.00  0.00     0.029 A 
ATOM     34  C   UNL A   1      43.502  32.648  31.681  1.00  0.00     0.049 A 
ATOM     35  H   UNL A   1      42.492  31.049  30.742  1.00  0.00     0.167 HD
ATOM     36  C   UNL A   1      41.223  33.527  31.265  1.00  0.00     0.074 A 
ATOM     37  C   UNL A   1      40.216  34.568  31.316  1.00  0.00     0.031 C 
ATOM     38  C   UNL A   1      42.485  33.662  31.740  1.00  0.00     0.031 A 
BRANCH  25  39
ATOM     39  C   UNL A   1      46.034  28.673  30.945  1.00  0.00    -0.014 A 
ATOM     40  C   UNL A   1      47.038  28.800  29.971  1.00  0.00     0.009 A 
ATOM     41  C   UNL A   1      46.325  27.987  32.134  1.00  0.00     0.009 A 
ATOM     42  C   UNL A   1      48.298  28.232  30.176  1.00  0.00     0.001 A 
ATOM     43  C   UNL A   1      47.592  27.439  32.345  1.00  0.00     0.001 A 
ATOM     44  C   UNL A   1      48.575  27.557  31.364  1.00  0.00     0.000 A 
ENDBRANCH  25  39
BRANCH  26  45
ATOM     45  C   UNL A   1      36.942  32.553  29.588  1.00  0.00    -0.014 A 
ATOM     46  C   UNL A   1      35.972  32.496  30.599  1.00  0.00     0.009 A 
ATOM     47  C   UNL A   1      36.624  33.183  28.374  1.00  0.00     0.009 A 
ATOM     48  C   UNL A   1      34.703  33.042  30.392  1.00  0.00     0.001 A 
ATOM     49  C   UNL A   1      35.367  33.755  28.181  1.00  0.00     0.001 A 
ATOM     50  C   UNL A   1      34.404  33.676  29.186  1.00  0.00     0.000 A 
ENDBRANCH  26  45
BRANCH  38  51
ATOM     51  C   UNL A   1      42.833  34.988  32.351  1.00  0.00    -0.014 A 
ATOM     52  C   UNL A   1      43.504  35.971  31.607  1.00  0.00     0.009 A 
ATOM     53  C   UNL A   1      42.489  35.256  33.685  1.00  0.00     0.009 A 
ATOM     54  C   UNL A   1      43.859  37.184  32.200  1.00  0.00     0.001 A 
ATOM     55  C   UNL A   1      42.824  36.478  34.268  1.00  0.00     0.001 A 
ATOM     56  C   UNL A   1      43.518  37.437  33.529  1.00  0.00     0.000 A 
ENDBRANCH  38  51
ENDBRANCH  12  13
ENDBRANCH   5   7
ENDBRANCH   2   3
ENDBRANCH   1   2
BRANCH   1  57
ATOM     57  C   UNL A   1      42.613  22.787  27.126  1.00  0.00     0.023 C 
BRANCH  57  58
ATOM     58  C   UNL A   1      44.120  22.582  27.014  1.00  0.00     0.116 C 
BRANCH  58  59
ATOM     59  N   UNL A   1      44.562  22.394  25.642  1.00  0.00    -0.352 N 
ATOM     60  C   UNL A   1      44.911  23.344  24.715  1.00  0.00     0.254 C 
ATOM     61  H   UNL A   1      44.620  21.459  25.337  1.00  0.00     0.163 HD
ATOM     62  O   UNL A   1      45.188  23.025  23.565  1.00  0.00    -0.269 OA
BRANCH  60  63
ATOM     63  C   UNL A   1      44.888  24.764  25.091  1.00  0.00     0.075 A 
ATOM     64  C   UNL A   1      43.685  25.466  25.001  1.00  0.00     0.017 A 
ATOM     65  C   UNL A   1      46.035  25.404  25.547  1.00  0.00     0.136 A 
ATOM     66  C   UNL A   1      43.630  26.794  25.435  1.00  0.00     0.010 A 
ATOM     67  C   UNL A   1      45.978  26.723  25.986  1.00  0.00     0.048 A 
ATOM     68  F   UNL A   1      47.206  24.754  25.616  1.00  0.00    -0.206 F 
ATOM     69  C   UNL A   1      44.769  27.440  25.952  1.00  0.00    -0.015 A 
BRANCH  69  70
ATOM     70  C   UNL A   1      44.702  28.821  26.457  1.00  0.00    -0.018 A 
ATOM     71  C   UNL A   1      45.871  29.528  26.787  1.00  0.00     0.010 A 
ATOM     72  C   UNL A   1      43.466  29.466  26.642  1.00  0.00     0.010 A 
ATOM     73  C   UNL A   1      45.810  30.832  27.287  1.00  0.00     0.021 A 
ATOM     74  C   UNL A   1      43.401  30.771  27.141  1.00  0.00     0.021 A 
ATOM     75  C   UNL A   1      44.574  31.448  27.462  1.00  0.00     0.041 A 
ATOM     76  Cl  UNL A   1      44.496  33.051  28.079  1.00  0.00    -0.084 Cl
ENDBRANCH  69  70
ENDBRANCH  60  63
ENDBRANCH  58  59
ENDBRANCH  57  58
ENDBRANCH   1  57
TORSDOF 12
ENDMDL
MODEL 2
REMARK VINA RESULT:      -9.0      3.860      9.080
REMARK SMILES O=C(NCCCCNC(=O)c1ccc(-c2ccc(Cl)cc2)cc1F)c1ccc(-c2c3nc(c(-c4ccccc4)c4ccc([nH]4)c(-c4ccccc4)c4nc(c(-c5ccccc5)c5ccc2[nH]5)C=C4)C=C3)cc1
REMARK SMILES IDX 5 1 4 2 3 3 1 4 2 5 25 7 26 8 72 9 27 10 71 11 28 12 29 13
REMARK SMILES IDX 30 14 65 15 31 16 70 17 64 18 66 19 32 20 69 21 63 22 62 23
REMARK SMILES IDX 33 25 55 26 40 27 54 28 41 29 44 30 53 31 67 32 42 33 43 34
REMARK SMILES IDX 52 36 68 37 45 38 34 39 35 40 39 41 36 42 38 43 37 44 56 45
REMARK SMILES IDX 57 46 61 47 58 48 60 49 59 50 46 51 47 52 51 53 48 54 50 55
REMARK SMILES IDX 49 56 6 57 7 58 8 59 9 60 10 62 11 63 12 64 23 65 13 66
REMARK SMILES IDX 22 67 24 68 14 69 15 70 16 71 21 72 17 73 20 74 18 75 19 76
REMARK H PARENT 3 6 66 24 44 35 8 61
REMARK Flexibility Score: inf
ROOT
ATOM      1  C   UNL A   1      37.846  19.974  24.826  1.00  0.00     0.023 C 
ENDROOT
BRANCH   1   2
ATOM      2  C   UNL A   1      38.966  20.346  25.786  1.00  0.00     0.116 C 
BRANCH   2   3
ATOM      3  N   UNL A   1      40.034  19.357  25.834  1.00  0.00    -0.352 N 
ATOM      4  O   UNL A   1      42.158  18.606  26.016  1.00  0.00    -0.269 OA
ATOM      5  C   UNL A   1      41.363  19.532  26.143  1.00  0.00     0.251 C 
ATOM      6  H   UNL A   1      39.768  18.435  25.614  1.00  0.00     0.163 HD
BRANCH   5   7
ATOM      7  C   UNL A   1      41.838  20.855  26.603  1.00  0.00     0.039 A 
ATOM      8  C   UNL A   1      41.776  21.196  27.953  1.00  0.00     0.014 A 
ATOM      9  C   UNL A   1      42.319  21.777  25.667  1.00  0.00     0.014 A 
ATOM     10  C   UNL A   1      42.023  22.506  28.342  1.00  0.00     0.010 A 
ATOM     11  C   UNL A   1      42.668  23.068  26.078  1.00  0.00     0.010 A 
ATOM     12  C   UNL A   1      42.484  23.456  27.413  1.00  0.00    -0.014 A 
BRANCH  12  13
ATOM     13  C   UNL A   1      42.810  24.821  27.900  1.00  0.00     0.031 A 
ATOM     14  C   UNL A   1      41.740  25.845  28.159  1.00  0.00     0.074 A 
ATOM     15  C   UNL A   1      44.096  25.102  28.189  1.00  0.00     0.049 A 
ATOM     16  N   UNL A   1      41.860  27.040  28.685  1.00  0.00    -0.248 NA
ATOM     17  C   UNL A   1      40.362  25.496  27.776  1.00  0.00     0.031 C 
ATOM     18  C   UNL A   1      45.225  24.195  27.965  1.00  0.00     0.029 A 
ATOM     19  N   UNL A   1      44.665  26.203  28.774  1.00  0.00    -0.354 N 
ATOM     20  C   UNL A   1      40.583  27.588  28.685  1.00  0.00     0.074 A 
ATOM     21  C   UNL A   1      39.705  26.608  28.082  1.00  0.00     0.031 C 
ATOM     22  C   UNL A   1      46.336  24.742  28.476  1.00  0.00     0.029 A 
ATOM     23  C   UNL A   1      46.011  26.061  29.006  1.00  0.00     0.049 A 
ATOM     24  H   UNL A   1      44.159  27.016  29.004  1.00  0.00     0.167 HD
ATOM     25  C   UNL A   1      40.179  28.796  29.149  1.00  0.00     0.031 A 
ATOM     26  C   UNL A   1      46.894  26.898  29.580  1.00  0.00     0.031 A 
ATOM     27  C   UNL A   1      41.052  29.772  29.748  1.00  0.00     0.049 A 
ATOM     28  C   UNL A   1      46.416  28.223  30.091  1.00  0.00     0.074 A 
ATOM     29  C   UNL A   1      40.732  31.023  30.250  1.00  0.00     0.029 A 
ATOM     30  N   UNL A   1      42.416  29.606  29.931  1.00  0.00    -0.354 N 
ATOM     31  N   UNL A   1      45.202  28.716  30.092  1.00  0.00    -0.248 NA
ATOM     32  C   UNL A   1      47.432  29.106  30.678  1.00  0.00     0.031 C 
ATOM     33  C   UNL A   1      41.910  31.629  30.703  1.00  0.00     0.029 A 
ATOM     34  C   UNL A   1      42.955  30.736  30.526  1.00  0.00     0.049 A 
ATOM     35  H   UNL A   1      42.927  28.804  29.675  1.00  0.00     0.167 HD
ATOM     36  C   UNL A   1      45.306  29.969  30.677  1.00  0.00     0.074 A 
ATOM     37  C   UNL A   1      46.695  30.142  31.053  1.00  0.00     0.031 C 
ATOM     38  C   UNL A   1      44.341  30.898  30.875  1.00  0.00     0.031 A 
BRANCH  25  39
ATOM     39  C   UNL A   1      38.722  29.141  29.013  1.00  0.00    -0.014 A 
ATOM     40  C   UNL A   1      37.837  28.993  30.093  1.00  0.00     0.009 A 
ATOM     41  C   UNL A   1      38.240  29.680  27.810  1.00  0.00     0.009 A 
ATOM     42  C   UNL A   1      36.495  29.356  29.963  1.00  0.00     0.001 A 
ATOM     43  C   UNL A   1      36.902  30.062  27.689  1.00  0.00     0.001 A 
ATOM     44  C   UNL A   1      36.030  29.894  28.763  1.00  0.00     0.000 A 
ENDBRANCH  25  39
BRANCH  26  45
ATOM     45  C   UNL A   1      48.321  26.502  29.687  1.00  0.00    -0.014 A 
ATOM     46  C   UNL A   1      48.788  25.788  30.800  1.00  0.00     0.009 A 
ATOM     47  C   UNL A   1      49.221  26.825  28.659  1.00  0.00     0.009 A 
ATOM     48  C   UNL A   1      50.134  25.424  30.890  1.00  0.00     0.001 A 
ATOM     49  C   UNL A   1      50.557  26.432  28.737  1.00  0.00     0.001 A 
ATOM     50  C   UNL A   1      51.015  25.741  29.856  1.00  0.00     0.000 A 
ENDBRANCH  26  45
BRANCH  38  51
ATOM     51  C   UNL A   1      44.766  32.180  31.529  1.00  0.00    -0.014 A 
ATOM     52  C   UNL A   1      45.173  33.282  30.760  1.00  0.00     0.009 A 
ATOM     53  C   UNL A   1      44.762  32.287  32.928  1.00  0.00     0.009 A 
ATOM     54  C   UNL A   1      45.606  34.454  31.383  1.00  0.00     0.001 A 
ATOM     55  C   UNL A   1      45.172  33.468  33.547  1.00  0.00     0.001 A 
ATOM     56  C   UNL A   1      45.604  34.547  32.774  1.00  0.00     0.000 A 
ENDBRANCH  38  51
ENDBRANCH  12  13
ENDBRANCH   5   7
ENDBRANCH   2   3
ENDBRANCH   1   2
BRANCH   1  57
ATOM     57  C   UNL A   1      36.785  21.051  24.618  1.00  0.00     0.023 C 
BRANCH  57  58
ATOM     58  C   UNL A   1      35.581  20.968  25.551  1.00  0.00     0.116 C 
BRANCH  58  59
ATOM     59  N   UNL A   1      34.397  20.435  24.896  1.00  0.00    -0.352 N 
ATOM     60  C   UNL A   1      33.226  21.080  24.585  1.00  0.00     0.254 C 
ATOM     61  H   UNL A   1      34.441  19.485  24.642  1.00  0.00     0.163 HD
ATOM     62  O   UNL A   1      32.282  20.465  24.100  1.00  0.00    -0.269 OA
BRANCH  60  63
ATOM     63  C   UNL A   1      33.081  22.508  24.897  1.00  0.00     0.075 A 
ATOM     64  C   UNL A   1      32.383  22.880  26.047  1.00  0.00     0.017 A 
ATOM     65  C   UNL A   1      33.640  23.481  24.076  1.00  0.00     0.136 A 
ATOM     66  C   UNL A   1      32.310  24.230  26.399  1.00  0.00     0.010 A 
ATOM     67  C   UNL A   1      33.573  24.825  24.432  1.00  0.00     0.048 A 
ATOM     68  F   UNL A   1      34.292  23.146  22.953  1.00  0.00    -0.206 F 
ATOM     69  C   UNL A   1      32.919  25.225  25.610  1.00  0.00    -0.015 A 
BRANCH  69  70
ATOM     70  C   UNL A   1      32.887  26.642  26.006  1.00  0.00    -0.018 A 
ATOM     71  C   UNL A   1      33.855  27.546  25.537  1.00  0.00     0.010 A 
ATOM     72  C   UNL A   1      31.899  27.128  26.881  1.00  0.00     0.010 A 
ATOM     73  C   UNL A   1      33.841  28.888  25.929  1.00  0.00     0.021 A 
ATOM     74  C   UNL A   1      31.881  28.470  27.274  1.00  0.00     0.021 A 
ATOM     75  C   UNL A   1      32.853  29.344  26.796  1.00  0.00     0.041 A 
ATOM     76  Cl  UNL A   1      32.834  30.993  27.281  1.00  0.00    -0.084 Cl
ENDBRANCH  69  70
ENDBRANCH  60  63
ENDBRANCH  58  59
ENDBRANCH  57  58
ENDBRANCH   1  57
TORSDOF 12
ENDMDL
MODEL 3
REMARK VINA RESULT:      -8.9      3.913      6.923
REMARK SMILES O=C(NCCCCNC(=O)c1ccc(-c2ccc(Cl)cc2)cc1F)c1ccc(-c2c3nc(c(-c4ccccc4)c4ccc([nH]4)c(-c4ccccc4)c4nc(c(-c5ccccc5)c5ccc2[nH]5)C=C4)C=C3)cc1
REMARK SMILES IDX 5 1 4 2 3 3 1 4 2 5 25 7 26 8 72 9 27 10 71 11 28 12 29 13
REMARK SMILES IDX 30 14 65 15 31 16 70 17 64 18 66 19 32 20 69 21 63 22 62 23
REMARK SMILES IDX 33 25 55 26 40 27 54 28 41 29 44 30 53 31 67 32 42 33 43 34
REMARK SMILES IDX 52 36 68 37 45 38 34 39 35 40 39 41 36 42 38 43 37 44 56 45
REMARK SMILES IDX 57 46 61 47 58 48 60 49 59 50 46 51 47 52 51 53 48 54 50 55
REMARK SMILES IDX 49 56 6 57 7 58 8 59 9 60 10 62 11 63 12 64 23 65 13 66
REMARK SMILES IDX 22 67 24 68 14 69 15 70 16 71 21 72 17 73 20 74 18 75 19 76
REMARK H PARENT 3 6 66 24 44 35 8 61
REMARK Flexibility Score: inf
ROOT
ATOM      1  C   UNL A   1      37.711  20.125  24.844  1.00  0.00     0.023 C 
ENDROOT
BRANCH   1   2
ATOM      2  C   UNL A   1      38.897  20.480  25.727  1.00  0.00     0.116 C 
BRANCH   2   3
ATOM      3  N   UNL A   1      39.939  19.461  25.728  1.00  0.00    -0.352 N 
ATOM      4  O   UNL A   1      42.040  18.643  25.894  1.00  0.00    -0.269 OA
ATOM      5  C   UNL A   1      41.267  19.580  26.068  1.00  0.00     0.251 C 
ATOM      6  H   UNL A   1      39.653  18.562  25.446  1.00  0.00     0.163 HD
BRANCH   5   7
ATOM      7  C   UNL A   1      41.768  20.859  26.618  1.00  0.00     0.039 A 
ATOM      8  C   UNL A   1      41.794  21.072  27.996  1.00  0.00     0.014 A 
ATOM      9  C   UNL A   1      42.185  21.868  25.744  1.00  0.00     0.014 A 
ATOM     10  C   UNL A   1      42.063  22.341  28.489  1.00  0.00     0.010 A 
ATOM     11  C   UNL A   1      42.557  23.118  26.251  1.00  0.00     0.010 A 
ATOM     12  C   UNL A   1      42.460  23.378  27.625  1.00  0.00    -0.014 A 
BRANCH  12  13
ATOM     13  C   UNL A   1      42.815  24.694  28.216  1.00  0.00     0.031 A 
ATOM     14  C   UNL A   1      44.243  25.086  28.475  1.00  0.00     0.074 A 
ATOM     15  C   UNL A   1      41.822  25.576  28.443  1.00  0.00     0.049 A 
ATOM     16  N   UNL A   1      44.714  26.238  28.885  1.00  0.00    -0.248 NA
ATOM     17  C   UNL A   1      45.276  24.061  28.255  1.00  0.00     0.031 C 
ATOM     18  C   UNL A   1      40.395  25.306  28.246  1.00  0.00     0.029 A 
ATOM     19  N   UNL A   1      41.859  26.888  28.839  1.00  0.00    -0.354 N 
ATOM     20  C   UNL A   1      46.091  26.075  28.985  1.00  0.00     0.074 A 
ATOM     21  C   UNL A   1      46.379  24.704  28.619  1.00  0.00     0.031 C 
ATOM     22  C   UNL A   1      39.702  26.435  28.446  1.00  0.00     0.029 A 
ATOM     23  C   UNL A   1      40.625  27.490  28.845  1.00  0.00     0.049 A 
ATOM     24  H   UNL A   1      42.689  27.352  29.095  1.00  0.00     0.167 HD
ATOM     25  C   UNL A   1      47.028  26.984  29.345  1.00  0.00     0.031 A 
ATOM     26  C   UNL A   1      40.267  28.753  29.141  1.00  0.00     0.031 A 
ATOM     27  C   UNL A   1      46.743  28.348  29.711  1.00  0.00     0.049 A 
ATOM     28  C   UNL A   1      41.327  29.738  29.528  1.00  0.00     0.074 A 
ATOM     29  C   UNL A   1      47.628  29.344  30.088  1.00  0.00     0.029 A 
ATOM     30  N   UNL A   1      45.476  28.909  29.742  1.00  0.00    -0.354 N 
ATOM     31  N   UNL A   1      42.624  29.566  29.604  1.00  0.00    -0.248 NA
ATOM     32  C   UNL A   1      40.873  31.091  29.871  1.00  0.00     0.031 C 
ATOM     33  C   UNL A   1      46.892  30.498  30.382  1.00  0.00     0.029 A 
ATOM     34  C   UNL A   1      45.553  30.233  30.143  1.00  0.00     0.049 A 
ATOM     35  H   UNL A   1      44.643  28.436  29.512  1.00  0.00     0.167 HD
ATOM     36  C   UNL A   1      43.143  30.788  30.005  1.00  0.00     0.074 A 
ATOM     37  C   UNL A   1      42.023  31.702  30.119  1.00  0.00     0.031 C 
ATOM     38  C   UNL A   1      44.429  31.121  30.268  1.00  0.00     0.031 A 
BRANCH  25  39
ATOM     39  C   UNL A   1      48.461  26.531  29.377  1.00  0.00    -0.014 A 
ATOM     40  C   UNL A   1      49.260  26.565  28.223  1.00  0.00     0.009 A 
ATOM     41  C   UNL A   1      49.039  26.123  30.590  1.00  0.00     0.009 A 
ATOM     42  C   UNL A   1      50.601  26.178  28.279  1.00  0.00     0.001 A 
ATOM     43  C   UNL A   1      50.386  25.757  30.647  1.00  0.00     0.001 A 
ATOM     44  C   UNL A   1      51.163  25.779  29.491  1.00  0.00     0.000 A 
ENDBRANCH  25  39
BRANCH  26  45
ATOM     45  C   UNL A   1      38.835  29.143  29.092  1.00  0.00    -0.014 A 
ATOM     46  C   UNL A   1      38.258  29.611  27.903  1.00  0.00     0.009 A 
ATOM     47  C   UNL A   1      38.034  29.030  30.239  1.00  0.00     0.009 A 
ATOM     48  C   UNL A   1      36.911  29.978  27.869  1.00  0.00     0.001 A 
ATOM     49  C   UNL A   1      36.682  29.367  30.195  1.00  0.00     0.001 A 
ATOM     50  C   UNL A   1      36.123  29.850  29.013  1.00  0.00     0.000 A 
ENDBRANCH  26  45
BRANCH  38  51
ATOM     51  C   UNL A   1      44.681  32.535  30.702  1.00  0.00    -0.014 A 
ATOM     52  C   UNL A   1      44.669  32.886  32.062  1.00  0.00     0.009 A 
ATOM     53  C   UNL A   1      44.932  33.528  29.742  1.00  0.00     0.009 A 
ATOM     54  C   UNL A   1      44.863  34.213  32.448  1.00  0.00     0.001 A 
ATOM     55  C   UNL A   1      45.150  34.849  30.134  1.00  0.00     0.001 A 
ATOM     56  C   UNL A   1      45.105  35.192  31.485  1.00  0.00     0.000 A 
ENDBRANCH  38  51
ENDBRANCH  12  13
ENDBRANCH   5   7
ENDBRANCH   2   3
ENDBRANCH   1   2
BRANCH   1  57
ATOM     57  C   UNL A   1      36.635  21.202  24.737  1.00  0.00     0.023 C 
BRANCH  57  58
ATOM     58  C   UNL A   1      35.405  20.982  25.611  1.00  0.00     0.116 C 
BRANCH  58  59
ATOM     59  N   UNL A   1      34.259  20.497  24.858  1.00  0.00    -0.352 N 
ATOM     60  C   UNL A   1      33.127  21.177  24.487  1.00  0.00     0.254 C 
ATOM     61  H   UNL A   1      34.302  19.554  24.577  1.00  0.00     0.163 HD
ATOM     62  O   UNL A   1      32.207  20.599  23.917  1.00  0.00    -0.269 OA
BRANCH  60  63
ATOM     63  C   UNL A   1      32.990  22.598  24.833  1.00  0.00     0.075 A 
ATOM     64  C   UNL A   1      32.272  22.947  25.978  1.00  0.00     0.017 A 
ATOM     65  C   UNL A   1      33.576  23.587  24.051  1.00  0.00     0.136 A 
ATOM     66  C   UNL A   1      32.205  24.289  26.365  1.00  0.00     0.010 A 
ATOM     67  C   UNL A   1      33.516  24.921  24.441  1.00  0.00     0.048 A 
ATOM     68  F   UNL A   1      34.249  23.274  22.933  1.00  0.00    -0.206 F 
ATOM     69  C   UNL A   1      32.841  25.297  25.615  1.00  0.00    -0.015 A 
BRANCH  69  70
ATOM     70  C   UNL A   1      32.815  26.703  26.048  1.00  0.00    -0.018 A 
ATOM     71  C   UNL A   1      33.876  27.573  25.743  1.00  0.00     0.010 A 
ATOM     72  C   UNL A   1      31.739  27.212  26.798  1.00  0.00     0.010 A 
ATOM     73  C   UNL A   1      33.865  28.904  26.172  1.00  0.00     0.021 A 
ATOM     74  C   UNL A   1      31.725  28.542  27.227  1.00  0.00     0.021 A 
ATOM     75  C   UNL A   1      32.789  29.383  26.912  1.00  0.00     0.041 A 
ATOM     76  Cl  UNL A   1      32.774  31.018  27.442  1.00  0.00    -0.084 Cl
ENDBRANCH  69  70
ENDBRANCH  60  63
ENDBRANCH  58  59
ENDBRANCH  57  58
ENDBRANCH   1  57
TORSDOF 12
ENDMDL
