MODEL 1
REMARK VINA RESULT:     -12.4      0.000      0.000
REMARK SMILES Cc1ccc(OCC(=O)NNC(=O)[C@H]2CCCC[C@@H]2C(=O)NCCCCNC(=O)c2ccc(-c3c4nc(c(-c5ccccc5)c5ccc([nH]5)c(-c5ccccc5)c5nc(c(-c6ccccc6)c6ccc3[nH]6)C=C5)C=C4)cc2)cc1
REMARK SMILES IDX 23 1 22 2 20 3 21 4 19 6 14 7 15 8 16 9 18 10 17 11 12 12
REMARK SMILES IDX 11 13 13 15 10 16 8 17 9 18 7 20 6 21 5 22 1 23 2 24 3 25
REMARK SMILES IDX 79 26 4 27 78 28 24 29 25 30 26 31 27 32 28 33 29 35 30 36
REMARK SMILES IDX 31 37 77 38 32 39 76 40 33 41 34 42 35 43 70 44 36 45 75 46
REMARK SMILES IDX 69 47 71 48 37 49 74 50 68 51 67 52 38 54 60 55 45 56 59 57
REMARK SMILES IDX 46 58 49 59 58 60 72 61 47 62 48 63 57 65 73 66 50 67 39 68
REMARK SMILES IDX 40 69 44 70 41 71 43 72 42 73 61 74 62 75 66 76 63 77 65 78
REMARK SMILES IDX 64 79 51 80 52 81 56 82 53 83 55 84 54 85
REMARK H PARENT 22 5 11 14 10 19 27 34 71 53 49 64
REMARK Flexibility Score: inf
ROOT
ATOM      1  C   UNL A   1      32.859  31.007  26.967  1.00  0.00     0.116 C 
ENDROOT
BRANCH   1   2
ATOM      2  N   UNL A   1      32.343  29.835  27.658  1.00  0.00    -0.356 N 
ATOM      3  C   UNL A   1      31.849  28.632  27.278  1.00  0.00     0.223 C 
ATOM      4  O   UNL A   1      31.665  27.836  28.211  1.00  0.00    -0.275 OA
ATOM      5  H   UNL A   1      32.356  29.942  28.636  1.00  0.00     0.163 HD
BRANCH   3   6
ATOM      6  C   UNL A   1      31.403  28.215  25.861  1.00  0.00     0.091 C 
ATOM      7  C   UNL A   1      31.824  26.733  25.615  1.00  0.00     0.092 C 
ATOM      8  C   UNL A   1      33.329  26.647  25.278  1.00  0.00     0.014 C 
ATOM      9  C   UNL A   1      33.759  27.564  24.132  1.00  0.00     0.001 C 
ATOM     10  C   UNL A   1      31.779  29.049  24.640  1.00  0.00     0.014 C 
ATOM     11  C   UNL A   1      33.270  28.993  24.320  1.00  0.00     0.001 C 
BRANCH   7  12
ATOM     12  C   UNL A   1      30.977  26.057  24.529  1.00  0.00     0.242 C 
ATOM     13  N   UNL A   1      30.070  25.092  24.871  1.00  0.00    -0.267 N 
ATOM     14  H   UNL A   1      29.501  24.735  24.150  1.00  0.00     0.191 HD
ATOM     15  O   UNL A   1      31.081  26.337  23.334  1.00  0.00    -0.273 OA
BRANCH  13  16
ATOM     16  N   UNL A   1      29.878  24.574  26.142  1.00  0.00    -0.265 N 
ATOM     17  C   UNL A   1      30.329  23.331  26.526  1.00  0.00     0.276 C 
ATOM     18  O   UNL A   1      30.183  22.959  27.693  1.00  0.00    -0.269 OA
ATOM     19  H   UNL A   1      29.396  25.123  26.802  1.00  0.00     0.191 HD
BRANCH  17  20
ATOM     20  C   UNL A   1      31.052  22.458  25.493  1.00  0.00     0.331 C 
BRANCH  20  21
ATOM     21  O   UNL A   1      31.862  23.154  24.557  1.00  0.00    -0.484 OA
BRANCH  21  22
ATOM     22  C   UNL A   1      33.217  23.120  24.739  1.00  0.00     0.120 A 
ATOM     23  C   UNL A   1      37.417  23.110  25.748  1.00  0.00     0.044 C 
ATOM     24  C   UNL A   1      35.958  23.113  25.394  1.00  0.00    -0.051 A 
ATOM     25  C   UNL A   1      34.991  23.208  26.399  1.00  0.00     0.007 A 
ATOM     26  C   UNL A   1      35.543  23.007  24.065  1.00  0.00     0.007 A 
ATOM     27  C   UNL A   1      33.632  23.214  26.070  1.00  0.00     0.047 A 
ATOM     28  C   UNL A   1      34.182  23.009  23.739  1.00  0.00     0.047 A 
ENDBRANCH  21  22
ENDBRANCH  20  21
ENDBRANCH  17  20
ENDBRANCH  13  16
ENDBRANCH   7  12
ENDBRANCH   3   6
ENDBRANCH   1   2
BRANCH   1  29
ATOM     29  C   UNL A   1      34.273  31.404  27.397  1.00  0.00     0.023 C 
BRANCH  29  30
ATOM     30  C   UNL A   1      34.379  32.134  28.736  1.00  0.00     0.023 C 
BRANCH  30  31
ATOM     31  C   UNL A   1      34.335  33.656  28.646  1.00  0.00     0.116 C 
BRANCH  31  32
ATOM     32  N   UNL A   1      33.496  34.324  29.632  1.00  0.00    -0.352 N 
ATOM     33  C   UNL A   1      33.652  34.405  31.012  1.00  0.00     0.251 C 
ATOM     34  H   UNL A   1      32.706  34.786  29.270  1.00  0.00     0.163 HD
ATOM     35  O   UNL A   1      32.816  34.968  31.690  1.00  0.00    -0.269 OA
BRANCH  33  36
ATOM     36  C   UNL A   1      34.915  33.922  31.639  1.00  0.00     0.039 A 
ATOM     37  C   UNL A   1      36.044  34.746  31.558  1.00  0.00     0.014 A 
ATOM     38  C   UNL A   1      35.046  32.617  32.103  1.00  0.00     0.014 A 
ATOM     39  C   UNL A   1      37.313  34.179  31.664  1.00  0.00     0.010 A 
ATOM     40  C   UNL A   1      36.296  32.028  32.104  1.00  0.00     0.010 A 
ATOM     41  C   UNL A   1      37.423  32.795  31.806  1.00  0.00    -0.014 A 
BRANCH  41  42
ATOM     42  C   UNL A   1      38.657  32.068  31.546  1.00  0.00     0.031 A 
ATOM     43  C   UNL A   1      38.625  30.813  30.763  1.00  0.00     0.074 A 
ATOM     44  C   UNL A   1      39.841  32.545  32.000  1.00  0.00     0.049 A 
ATOM     45  N   UNL A   1      39.427  29.818  30.956  1.00  0.00    -0.248 NA
ATOM     46  C   UNL A   1      37.651  30.569  29.703  1.00  0.00     0.031 C 
ATOM     47  C   UNL A   1      41.169  32.009  31.700  1.00  0.00     0.029 A 
ATOM     48  N   UNL A   1      40.113  33.515  32.967  1.00  0.00    -0.354 N 
ATOM     49  C   UNL A   1      39.294  28.973  29.879  1.00  0.00     0.074 A 
ATOM     50  C   UNL A   1      38.110  29.426  29.184  1.00  0.00     0.031 C 
ATOM     51  C   UNL A   1      42.012  32.385  32.675  1.00  0.00     0.029 A 
ATOM     52  C   UNL A   1      41.213  33.044  33.694  1.00  0.00     0.049 A 
ATOM     53  H   UNL A   1      39.629  34.360  33.107  1.00  0.00     0.167 HD
ATOM     54  C   UNL A   1      40.285  28.083  29.586  1.00  0.00     0.031 A 
ATOM     55  C   UNL A   1      41.182  32.685  35.014  1.00  0.00     0.031 A 
ATOM     56  C   UNL A   1      41.389  28.158  30.541  1.00  0.00     0.049 A 
ATOM     57  C   UNL A   1      41.624  31.250  35.263  1.00  0.00     0.074 A 
ATOM     58  C   UNL A   1      42.639  28.755  30.483  1.00  0.00     0.029 A 
ATOM     59  N   UNL A   1      41.174  27.826  31.873  1.00  0.00    -0.354 N 
ATOM     60  N   UNL A   1      41.726  30.348  34.325  1.00  0.00    -0.248 NA
ATOM     61  C   UNL A   1      41.920  30.697  36.585  1.00  0.00     0.031 C 
ATOM     62  C   UNL A   1      43.152  28.831  31.802  1.00  0.00     0.029 A 
ATOM     63  C   UNL A   1      42.227  28.259  32.656  1.00  0.00     0.049 A 
ATOM     64  H   UNL A   1      40.382  27.349  32.211  1.00  0.00     0.167 HD
ATOM     65  C   UNL A   1      42.081  29.141  34.868  1.00  0.00     0.074 A 
ATOM     66  C   UNL A   1      42.205  29.415  36.289  1.00  0.00     0.031 C 
ATOM     67  C   UNL A   1      42.221  28.023  34.095  1.00  0.00     0.031 A 
BRANCH  54  68
ATOM     68  C   UNL A   1      40.389  27.383  28.250  1.00  0.00    -0.014 A 
ATOM     69  C   UNL A   1      39.849  26.093  28.092  1.00  0.00     0.009 A 
ATOM     70  C   UNL A   1      41.046  27.914  27.127  1.00  0.00     0.009 A 
ATOM     71  C   UNL A   1      40.058  25.334  26.932  1.00  0.00     0.001 A 
ATOM     72  C   UNL A   1      41.298  27.147  25.980  1.00  0.00     0.001 A 
ATOM     73  C   UNL A   1      40.815  25.848  25.889  1.00  0.00     0.000 A 
ENDBRANCH  54  68
BRANCH  55  74
ATOM     74  C   UNL A   1      40.163  33.400  35.825  1.00  0.00    -0.014 A 
ATOM     75  C   UNL A   1      38.908  32.788  36.012  1.00  0.00     0.009 A 
ATOM     76  C   UNL A   1      40.529  34.454  36.674  1.00  0.00     0.009 A 
ATOM     77  C   UNL A   1      38.102  33.130  37.101  1.00  0.00     0.001 A 
ATOM     78  C   UNL A   1      39.711  34.802  37.756  1.00  0.00     0.001 A 
ATOM     79  C   UNL A   1      38.521  34.115  37.992  1.00  0.00     0.000 A 
ENDBRANCH  55  74
BRANCH  67  80
ATOM     80  C   UNL A   1      42.434  26.602  34.574  1.00  0.00    -0.014 A 
ATOM     81  C   UNL A   1      41.536  25.882  35.372  1.00  0.00     0.009 A 
ATOM     82  C   UNL A   1      43.561  25.889  34.100  1.00  0.00     0.009 A 
ATOM     83  C   UNL A   1      41.773  24.539  35.709  1.00  0.00     0.001 A 
ATOM     84  C   UNL A   1      43.778  24.541  34.395  1.00  0.00     0.001 A 
ATOM     85  C   UNL A   1      42.887  23.867  35.214  1.00  0.00     0.000 A 
ENDBRANCH  67  80
ENDBRANCH  41  42
ENDBRANCH  33  36
ENDBRANCH  31  32
ENDBRANCH  30  31
ENDBRANCH  29  30
ENDBRANCH   1  29
TORSDOF 16
ENDMDL
MODEL 2
REMARK VINA RESULT:     -12.4      4.322      9.472
REMARK SMILES Cc1ccc(OCC(=O)NNC(=O)[C@H]2CCCC[C@@H]2C(=O)NCCCCNC(=O)c2ccc(-c3c4nc(c(-c5ccccc5)c5ccc([nH]5)c(-c5ccccc5)c5nc(c(-c6ccccc6)c6ccc3[nH]6)C=C5)C=C4)cc2)cc1
REMARK SMILES IDX 23 1 22 2 20 3 21 4 19 6 14 7 15 8 16 9 18 10 17 11 12 12
REMARK SMILES IDX 11 13 13 15 10 16 8 17 9 18 7 20 6 21 5 22 1 23 2 24 3 25
REMARK SMILES IDX 79 26 4 27 78 28 24 29 25 30 26 31 27 32 28 33 29 35 30 36
REMARK SMILES IDX 31 37 77 38 32 39 76 40 33 41 34 42 35 43 70 44 36 45 75 46
REMARK SMILES IDX 69 47 71 48 37 49 74 50 68 51 67 52 38 54 60 55 45 56 59 57
REMARK SMILES IDX 46 58 49 59 58 60 72 61 47 62 48 63 57 65 73 66 50 67 39 68
REMARK SMILES IDX 40 69 44 70 41 71 43 72 42 73 61 74 62 75 66 76 63 77 65 78
REMARK SMILES IDX 64 79 51 80 52 81 56 82 53 83 55 84 54 85
REMARK H PARENT 22 5 11 14 10 19 27 34 71 53 49 64
REMARK Flexibility Score: inf
ROOT
ATOM      1  C   UNL A   1      36.740  20.595  24.841  1.00  0.00     0.116 C 
ENDROOT
BRANCH   1   2
ATOM      2  N   UNL A   1      36.549  21.977  24.427  1.00  0.00    -0.356 N 
ATOM      3  C   UNL A   1      35.488  22.814  24.326  1.00  0.00     0.223 C 
ATOM      4  O   UNL A   1      35.788  23.992  24.077  1.00  0.00    -0.275 OA
ATOM      5  H   UNL A   1      37.392  22.405  24.153  1.00  0.00     0.163 HD
BRANCH   3   6
ATOM      6  C   UNL A   1      33.994  22.434  24.378  1.00  0.00     0.091 C 
ATOM      7  C   UNL A   1      33.153  23.723  24.630  1.00  0.00     0.092 C 
ATOM      8  C   UNL A   1      33.209  24.122  26.121  1.00  0.00     0.014 C 
ATOM      9  C   UNL A   1      32.827  22.992  27.078  1.00  0.00     0.001 C 
ATOM     10  C   UNL A   1      33.496  21.326  25.300  1.00  0.00     0.014 C 
ATOM     11  C   UNL A   1      33.576  21.702  26.777  1.00  0.00     0.001 C 
BRANCH   7  12
ATOM     12  C   UNL A   1      31.703  23.579  24.152  1.00  0.00     0.242 C 
ATOM     13  N   UNL A   1      31.403  23.708  22.824  1.00  0.00    -0.267 N 
ATOM     14  H   UNL A   1      30.471  23.540  22.555  1.00  0.00     0.191 HD
ATOM     15  O   UNL A   1      30.767  23.356  24.923  1.00  0.00    -0.273 OA
BRANCH  13  16
ATOM     16  N   UNL A   1      32.297  24.054  21.822  1.00  0.00    -0.265 N 
ATOM     17  C   UNL A   1      32.413  25.330  21.320  1.00  0.00     0.276 C 
ATOM     18  O   UNL A   1      33.275  25.583  20.477  1.00  0.00    -0.269 OA
ATOM     19  H   UNL A   1      32.878  23.350  21.451  1.00  0.00     0.191 HD
BRANCH  17  20
ATOM     20  C   UNL A   1      31.489  26.424  21.871  1.00  0.00     0.331 C 
BRANCH  20  21
ATOM     21  O   UNL A   1      32.136  27.589  22.360  1.00  0.00    -0.484 OA
BRANCH  21  22
ATOM     22  C   UNL A   1      32.147  27.790  23.714  1.00  0.00     0.120 A 
ATOM     23  C   UNL A   1      31.791  28.201  27.998  1.00  0.00     0.044 C 
ATOM     24  C   UNL A   1      31.917  28.060  26.510  1.00  0.00    -0.051 A 
ATOM     25  C   UNL A   1      31.025  27.250  25.801  1.00  0.00     0.007 A 
ATOM     26  C   UNL A   1      32.932  28.718  25.811  1.00  0.00     0.007 A 
ATOM     27  C   UNL A   1      31.139  27.121  24.413  1.00  0.00     0.047 A 
ATOM     28  C   UNL A   1      33.047  28.584  24.422  1.00  0.00     0.047 A 
ENDBRANCH  21  22
ENDBRANCH  20  21
ENDBRANCH  17  20
ENDBRANCH  13  16
ENDBRANCH   7  12
ENDBRANCH   3   6
ENDBRANCH   1   2
BRANCH   1  29
ATOM     29  C   UNL A   1      38.198  20.239  25.144  1.00  0.00     0.023 C 
BRANCH  29  30
ATOM     30  C   UNL A   1      39.035  21.350  25.777  1.00  0.00     0.023 C 
BRANCH  30  31
ATOM     31  C   UNL A   1      40.225  20.873  26.601  1.00  0.00     0.116 C 
BRANCH  31  32
ATOM     32  N   UNL A   1      41.292  20.220  25.854  1.00  0.00    -0.352 N 
ATOM     33  C   UNL A   1      42.634  20.572  25.746  1.00  0.00     0.251 C 
ATOM     34  H   UNL A   1      41.026  19.415  25.354  1.00  0.00     0.163 HD
ATOM     35  O   UNL A   1      43.378  19.933  25.029  1.00  0.00    -0.269 OA
BRANCH  33  36
ATOM     36  C   UNL A   1      43.186  21.645  26.621  1.00  0.00     0.039 A 
ATOM     37  C   UNL A   1      42.940  21.561  27.996  1.00  0.00     0.014 A 
ATOM     38  C   UNL A   1      43.741  22.805  26.089  1.00  0.00     0.014 A 
ATOM     39  C   UNL A   1      42.981  22.719  28.770  1.00  0.00     0.010 A 
ATOM     40  C   UNL A   1      43.682  23.974  26.824  1.00  0.00     0.010 A 
ATOM     41  C   UNL A   1      43.225  23.941  28.141  1.00  0.00    -0.014 A 
BRANCH  41  42
ATOM     42  C   UNL A   1      42.918  25.224  28.758  1.00  0.00     0.031 A 
ATOM     43  C   UNL A   1      41.716  25.978  28.338  1.00  0.00     0.074 A 
ATOM     44  C   UNL A   1      43.718  25.725  29.730  1.00  0.00     0.049 A 
ATOM     45  N   UNL A   1      41.642  27.267  28.314  1.00  0.00    -0.248 NA
ATOM     46  C   UNL A   1      40.495  25.322  27.879  1.00  0.00     0.031 C 
ATOM     47  C   UNL A   1      43.466  26.919  30.537  1.00  0.00     0.029 A 
ATOM     48  N   UNL A   1      45.017  25.372  30.103  1.00  0.00    -0.354 N 
ATOM     49  C   UNL A   1      40.316  27.597  28.156  1.00  0.00     0.074 A 
ATOM     50  C   UNL A   1      39.660  26.362  27.787  1.00  0.00     0.031 C 
ATOM     51  C   UNL A   1      44.640  27.375  31.004  1.00  0.00     0.029 A 
ATOM     52  C   UNL A   1      45.681  26.572  30.387  1.00  0.00     0.049 A 
ATOM     53  H   UNL A   1      45.390  24.463  30.155  1.00  0.00     0.167 HD
ATOM     54  C   UNL A   1      39.875  28.836  28.514  1.00  0.00     0.031 A 
ATOM     55  C   UNL A   1      46.731  27.073  29.668  1.00  0.00     0.031 A 
ATOM     56  C   UNL A   1      40.958  29.679  29.016  1.00  0.00     0.049 A 
ATOM     57  C   UNL A   1      46.475  28.467  29.112  1.00  0.00     0.074 A 
ATOM     58  C   UNL A   1      41.351  30.034  30.298  1.00  0.00     0.029 A 
ATOM     59  N   UNL A   1      41.998  30.045  28.170  1.00  0.00    -0.354 N 
ATOM     60  N   UNL A   1      45.292  29.016  29.046  1.00  0.00    -0.248 NA
ATOM     61  C   UNL A   1      47.507  29.324  28.528  1.00  0.00     0.031 C 
ATOM     62  C   UNL A   1      42.664  30.566  30.223  1.00  0.00     0.029 A 
ATOM     63  C   UNL A   1      43.056  30.558  28.897  1.00  0.00     0.049 A 
ATOM     64  H   UNL A   1      41.982  29.952  27.190  1.00  0.00     0.167 HD
ATOM     65  C   UNL A   1      45.376  30.243  28.439  1.00  0.00     0.074 A 
ATOM     66  C   UNL A   1      46.790  30.397  28.147  1.00  0.00     0.031 C 
ATOM     67  C   UNL A   1      44.265  31.008  28.219  1.00  0.00     0.031 A 
BRANCH  54  68
ATOM     68  C   UNL A   1      38.411  29.160  28.710  1.00  0.00    -0.014 A 
ATOM     69  C   UNL A   1      37.645  29.621  27.623  1.00  0.00     0.009 A 
ATOM     70  C   UNL A   1      37.741  29.082  29.943  1.00  0.00     0.009 A 
ATOM     71  C   UNL A   1      36.334  30.089  27.781  1.00  0.00     0.001 A 
ATOM     72  C   UNL A   1      36.446  29.588  30.119  1.00  0.00     0.001 A 
ATOM     73  C   UNL A   1      35.746  30.107  29.038  1.00  0.00     0.000 A 
ENDBRANCH  54  68
BRANCH  55  74
ATOM     74  C   UNL A   1      47.569  26.045  28.997  1.00  0.00    -0.014 A 
ATOM     75  C   UNL A   1      47.303  25.745  27.647  1.00  0.00     0.009 A 
ATOM     76  C   UNL A   1      48.797  25.650  29.544  1.00  0.00     0.009 A 
ATOM     77  C   UNL A   1      48.291  25.183  26.833  1.00  0.00     0.001 A 
ATOM     78  C   UNL A   1      49.778  25.076  28.727  1.00  0.00     0.001 A 
ATOM     79  C   UNL A   1      49.540  24.881  27.367  1.00  0.00     0.000 A 
ENDBRANCH  55  74
BRANCH  67  80
ATOM     80  C   UNL A   1      44.183  32.288  27.414  1.00  0.00    -0.014 A 
ATOM     81  C   UNL A   1      44.318  32.370  26.023  1.00  0.00     0.009 A 
ATOM     82  C   UNL A   1      43.832  33.487  28.081  1.00  0.00     0.009 A 
ATOM     83  C   UNL A   1      44.152  33.588  25.344  1.00  0.00     0.001 A 
ATOM     84  C   UNL A   1      43.620  34.690  27.404  1.00  0.00     0.001 A 
ATOM     85  C   UNL A   1      43.794  34.744  26.031  1.00  0.00     0.000 A 
ENDBRANCH  67  80
ENDBRANCH  41  42
ENDBRANCH  33  36
ENDBRANCH  31  32
ENDBRANCH  30  31
ENDBRANCH  29  30
ENDBRANCH   1  29
TORSDOF 16
ENDMDL
MODEL 3
REMARK VINA RESULT:     -12.2      3.229      5.160
REMARK SMILES Cc1ccc(OCC(=O)NNC(=O)[C@H]2CCCC[C@@H]2C(=O)NCCCCNC(=O)c2ccc(-c3c4nc(c(-c5ccccc5)c5ccc([nH]5)c(-c5ccccc5)c5nc(c(-c6ccccc6)c6ccc3[nH]6)C=C5)C=C4)cc2)cc1
REMARK SMILES IDX 23 1 22 2 20 3 21 4 19 6 14 7 15 8 16 9 18 10 17 11 12 12
REMARK SMILES IDX 11 13 13 15 10 16 8 17 9 18 7 20 6 21 5 22 1 23 2 24 3 25
REMARK SMILES IDX 79 26 4 27 78 28 24 29 25 30 26 31 27 32 28 33 29 35 30 36
REMARK SMILES IDX 31 37 77 38 32 39 76 40 33 41 34 42 35 43 70 44 36 45 75 46
REMARK SMILES IDX 69 47 71 48 37 49 74 50 68 51 67 52 38 54 60 55 45 56 59 57
REMARK SMILES IDX 46 58 49 59 58 60 72 61 47 62 48 63 57 65 73 66 50 67 39 68
REMARK SMILES IDX 40 69 44 70 41 71 43 72 42 73 61 74 62 75 66 76 63 77 65 78
REMARK SMILES IDX 64 79 51 80 52 81 56 82 53 83 55 84 54 85
REMARK H PARENT 22 5 11 14 10 19 27 34 71 53 49 64
REMARK Flexibility Score: inf
ROOT
ATOM      1  C   UNL A   1      33.468  26.961  26.110  1.00  0.00     0.116 C 
ENDROOT
BRANCH   1   2
ATOM      2  N   UNL A   1      33.800  26.301  24.856  1.00  0.00    -0.356 N 
ATOM      3  C   UNL A   1      33.888  25.016  24.437  1.00  0.00     0.223 C 
ATOM      4  O   UNL A   1      34.049  24.886  23.214  1.00  0.00    -0.275 OA
ATOM      5  H   UNL A   1      34.012  26.944  24.141  1.00  0.00     0.163 HD
BRANCH   3   6
ATOM      6  C   UNL A   1      33.919  23.750  25.318  1.00  0.00     0.091 C 
ATOM      7  C   UNL A   1      34.343  22.533  24.440  1.00  0.00     0.092 C 
ATOM      8  C   UNL A   1      33.152  22.038  23.592  1.00  0.00     0.014 C 
ATOM      9  C   UNL A   1      31.891  21.745  24.408  1.00  0.00     0.001 C 
ATOM     10  C   UNL A   1      32.718  23.355  26.171  1.00  0.00     0.014 C 
ATOM     11  C   UNL A   1      31.526  22.893  25.338  1.00  0.00     0.001 C 
BRANCH   7  12
ATOM     12  C   UNL A   1      34.941  21.391  25.272  1.00  0.00     0.242 C 
ATOM     13  N   UNL A   1      35.956  21.644  26.153  1.00  0.00    -0.267 N 
ATOM     14  H   UNL A   1      36.261  20.893  26.713  1.00  0.00     0.191 HD
ATOM     15  O   UNL A   1      34.551  20.225  25.177  1.00  0.00    -0.273 OA
BRANCH  13  16
ATOM     16  N   UNL A   1      36.591  22.862  26.328  1.00  0.00    -0.265 N 
ATOM     17  C   UNL A   1      37.947  23.038  26.164  1.00  0.00     0.276 C 
ATOM     18  O   UNL A   1      38.438  24.164  26.269  1.00  0.00    -0.269 OA
ATOM     19  H   UNL A   1      36.046  23.642  26.582  1.00  0.00     0.191 HD
BRANCH  17  20
ATOM     20  C   UNL A   1      38.807  21.821  25.799  1.00  0.00     0.331 C 
BRANCH  20  21
ATOM     21  O   UNL A   1      39.702  21.375  26.806  1.00  0.00    -0.484 OA
BRANCH  21  22
ATOM     22  C   UNL A   1      40.934  20.928  26.411  1.00  0.00     0.120 A 
ATOM     23  C   UNL A   1      44.917  19.947  25.062  1.00  0.00     0.044 C 
ATOM     24  C   UNL A   1      43.533  20.285  25.531  1.00  0.00    -0.051 A 
ATOM     25  C   UNL A   1      43.139  21.620  25.661  1.00  0.00     0.007 A 
ATOM     26  C   UNL A   1      42.622  19.278  25.859  1.00  0.00     0.007 A 
ATOM     27  C   UNL A   1      41.848  21.936  26.094  1.00  0.00     0.047 A 
ATOM     28  C   UNL A   1      41.331  19.597  26.297  1.00  0.00     0.047 A 
ENDBRANCH  21  22
ENDBRANCH  20  21
ENDBRANCH  17  20
ENDBRANCH  13  16
ENDBRANCH   7  12
ENDBRANCH   3   6
ENDBRANCH   1   2
BRANCH   1  29
ATOM     29  C   UNL A   1      34.272  28.238  26.366  1.00  0.00     0.023 C 
BRANCH  29  30
ATOM     30  C   UNL A   1      33.752  29.136  27.489  1.00  0.00     0.023 C 
BRANCH  30  31
ATOM     31  C   UNL A   1      33.893  30.633  27.236  1.00  0.00     0.116 C 
BRANCH  31  32
ATOM     32  N   UNL A   1      34.235  31.442  28.398  1.00  0.00    -0.352 N 
ATOM     33  C   UNL A   1      35.291  31.298  29.292  1.00  0.00     0.251 C 
ATOM     34  H   UNL A   1      33.632  32.200  28.577  1.00  0.00     0.163 HD
ATOM     35  O   UNL A   1      35.393  32.045  30.245  1.00  0.00    -0.269 OA
BRANCH  33  36
ATOM     36  C   UNL A   1      36.374  30.316  28.999  1.00  0.00     0.039 A 
ATOM     37  C   UNL A   1      36.618  29.309  29.940  1.00  0.00     0.014 A 
ATOM     38  C   UNL A   1      37.260  30.502  27.943  1.00  0.00     0.014 A 
ATOM     39  C   UNL A   1      37.871  28.699  29.980  1.00  0.00     0.010 A 
ATOM     40  C   UNL A   1      38.537  29.982  28.040  1.00  0.00     0.010 A 
ATOM     41  C   UNL A   1      38.863  29.142  29.105  1.00  0.00    -0.014 A 
BRANCH  41  42
ATOM     42  C   UNL A   1      40.279  28.863  29.306  1.00  0.00     0.031 A 
ATOM     43  C   UNL A   1      40.883  27.647  28.720  1.00  0.00     0.074 A 
ATOM     44  C   UNL A   1      41.052  29.723  30.011  1.00  0.00     0.049 A 
ATOM     45  N   UNL A   1      41.851  26.985  29.264  1.00  0.00    -0.248 NA
ATOM     46  C   UNL A   1      40.415  27.058  27.469  1.00  0.00     0.031 C 
ATOM     47  C   UNL A   1      42.504  29.655  30.176  1.00  0.00     0.029 A 
ATOM     48  N   UNL A   1      40.693  30.758  30.878  1.00  0.00    -0.354 N 
ATOM     49  C   UNL A   1      42.331  26.111  28.316  1.00  0.00     0.074 A 
ATOM     50  C   UNL A   1      41.344  26.119  27.258  1.00  0.00     0.031 C 
ATOM     51  C   UNL A   1      42.839  30.323  31.293  1.00  0.00     0.029 A 
ATOM     52  C   UNL A   1      41.599  30.706  31.945  1.00  0.00     0.049 A 
ATOM     53  H   UNL A   1      39.953  31.396  30.761  1.00  0.00     0.167 HD
ATOM     54  C   UNL A   1      43.587  25.597  28.438  1.00  0.00     0.031 A 
ATOM     55  C   UNL A   1      41.269  30.398  33.236  1.00  0.00     0.031 A 
ATOM     56  C   UNL A   1      44.256  26.067  29.649  1.00  0.00     0.049 A 
ATOM     57  C   UNL A   1      42.032  29.203  33.789  1.00  0.00     0.074 A 
ATOM     58  C   UNL A   1      45.212  27.047  29.871  1.00  0.00     0.029 A 
ATOM     59  N   UNL A   1      43.749  25.723  30.897  1.00  0.00    -0.354 N 
ATOM     60  N   UNL A   1      42.696  28.359  33.047  1.00  0.00    -0.248 NA
ATOM     61  C   UNL A   1      42.055  28.822  35.201  1.00  0.00     0.031 C 
ATOM     62  C   UNL A   1      45.236  27.332  31.260  1.00  0.00     0.029 A 
ATOM     63  C   UNL A   1      44.315  26.509  31.883  1.00  0.00     0.049 A 
ATOM     64  H   UNL A   1      43.080  25.019  31.055  1.00  0.00     0.167 HD
ATOM     65  C   UNL A   1      43.219  27.358  33.824  1.00  0.00     0.074 A 
ATOM     66  C   UNL A   1      42.801  27.702  35.171  1.00  0.00     0.031 C 
ATOM     67  C   UNL A   1      43.933  26.328  33.278  1.00  0.00     0.031 A 
BRANCH  54  68
ATOM     68  C   UNL A   1      44.315  24.932  27.292  1.00  0.00    -0.014 A 
ATOM     69  C   UNL A   1      45.274  23.936  27.557  1.00  0.00     0.009 A 
ATOM     70  C   UNL A   1      44.142  25.272  25.940  1.00  0.00     0.009 A 
ATOM     71  C   UNL A   1      46.092  23.403  26.552  1.00  0.00     0.001 A 
ATOM     72  C   UNL A   1      44.985  24.778  24.934  1.00  0.00     0.001 A 
ATOM     73  C   UNL A   1      45.973  23.852  25.244  1.00  0.00     0.000 A 
ENDBRANCH  54  68
BRANCH  55  74
ATOM     74  C   UNL A   1      39.879  30.755  33.621  1.00  0.00    -0.014 A 
ATOM     75  C   UNL A   1      39.586  32.107  33.890  1.00  0.00     0.009 A 
ATOM     76  C   UNL A   1      38.816  29.874  33.379  1.00  0.00     0.009 A 
ATOM     77  C   UNL A   1      38.279  32.588  33.787  1.00  0.00     0.001 A 
ATOM     78  C   UNL A   1      37.506  30.359  33.290  1.00  0.00     0.001 A 
ATOM     79  C   UNL A   1      37.244  31.719  33.453  1.00  0.00     0.000 A 
ENDBRANCH  55  74
BRANCH  67  80
ATOM     80  C   UNL A   1      44.414  25.077  33.982  1.00  0.00    -0.014 A 
ATOM     81  C   UNL A   1      45.742  24.820  34.343  1.00  0.00     0.009 A 
ATOM     82  C   UNL A   1      43.453  24.134  34.420  1.00  0.00     0.009 A 
ATOM     83  C   UNL A   1      46.094  23.667  35.064  1.00  0.00     0.001 A 
ATOM     84  C   UNL A   1      43.792  23.009  35.176  1.00  0.00     0.001 A 
ATOM     85  C   UNL A   1      45.120  22.769  35.488  1.00  0.00     0.000 A 
ENDBRANCH  67  80
ENDBRANCH  41  42
ENDBRANCH  33  36
ENDBRANCH  31  32
ENDBRANCH  30  31
ENDBRANCH  29  30
ENDBRANCH   1  29
TORSDOF 16
ENDMDL
