MODEL 1
REMARK VINA RESULT:     -11.6      0.000      0.000
REMARK SMILES Cc1cc(Cl)cc2c1O[C@H](C(F)(F)F)C(C(=O)NCCCCNC(=O)c1ccc(-c3c4nc(c(-c5ccccc5)c5ccc([nH]5)c(-c5ccccc5)c5nc(c(-c6ccccc6)c6ccc3[nH]6)C=C5)C=C4)cc1)=C2
REMARK SMILES IDX 21 1 20 2 19 3 18 4 16 5 17 6 15 8 1 9 2 10 3 11 8 12 4 13
REMARK SMILES IDX 7 14 9 15 5 16 6 17 74 18 10 19 11 20 12 21 13 22 14 23
REMARK SMILES IDX 22 24 23 25 24 26 25 28 26 29 27 30 73 31 28 32 72 33 29 34
REMARK SMILES IDX 30 35 31 36 66 37 32 38 71 39 65 40 67 41 33 42 70 43 64 44
REMARK SMILES IDX 63 45 34 47 56 48 41 49 55 50 42 51 45 52 54 53 68 54 43 55
REMARK SMILES IDX 44 56 53 58 69 59 46 60 35 61 36 62 40 63 37 64 39 65 38 66
REMARK SMILES IDX 57 67 58 68 62 69 59 70 61 71 60 72 47 73 48 74 52 75 49 76
REMARK SMILES IDX 51 77 50 78
REMARK H PARENT 18 7 23 27 67 46 45 57
REMARK Flexibility Score: inf
ROOT
ATOM      1  C   UNL A   1      33.929  28.564  25.844  1.00  0.00     0.023 C 
ENDROOT
BRANCH   1   2
ATOM      2  C   UNL A   1      32.816  28.863  24.838  1.00  0.00     0.023 C 
BRANCH   2   3
ATOM      3  C   UNL A   1      32.138  27.619  24.273  1.00  0.00     0.116 C 
BRANCH   3   4
ATOM      4  N   UNL A   1      31.246  27.003  25.239  1.00  0.00    -0.352 N 
ATOM      5  C   UNL A   1      31.112  25.793  25.828  1.00  0.00     0.251 C 
ATOM      6  O   UNL A   1      30.165  25.696  26.616  1.00  0.00    -0.270 OA
ATOM      7  H   UNL A   1      30.556  27.635  25.548  1.00  0.00     0.163 HD
BRANCH   5   8
ATOM      8  C   UNL A   1      32.000  24.614  25.594  1.00  0.00     0.067 C 
ATOM      9  C   UNL A   1      34.148  19.985  24.737  1.00  0.00     0.048 C 
ATOM     10  C   UNL A   1      34.623  21.345  25.165  1.00  0.00    -0.007 A 
ATOM     11  C   UNL A   1      35.997  21.551  25.360  1.00  0.00     0.027 A 
ATOM     12  C   UNL A   1      33.747  22.423  25.356  1.00  0.00     0.131 A 
ATOM     13  C   UNL A   1      36.472  22.803  25.749  1.00  0.00     0.042 A 
ATOM     14  C   UNL A   1      34.224  23.679  25.750  1.00  0.00     0.019 A 
ATOM     15  O   UNL A   1      32.411  22.187  25.195  1.00  0.00    -0.475 OA
ATOM     16  Cl  UNL A   1      38.160  23.033  25.993  1.00  0.00    -0.084 Cl
ATOM     17  C   UNL A   1      35.594  23.867  25.948  1.00  0.00     0.032 A 
ATOM     18  C   UNL A   1      33.281  24.766  25.981  1.00  0.00     0.025 C 
ATOM     19  C   UNL A   1      31.567  23.339  24.932  1.00  0.00     0.314 C 
BRANCH  19  20
ATOM     20  C   UNL A   1      31.377  23.490  23.411  1.00  0.00     0.429 C 
ATOM     21  F   UNL A   1      30.106  23.874  23.130  1.00  0.00    -0.167 F 
ATOM     22  F   UNL A   1      32.186  24.436  22.877  1.00  0.00    -0.167 F 
ATOM     23  F   UNL A   1      31.612  22.343  22.738  1.00  0.00    -0.167 F 
ENDBRANCH  19  20
ENDBRANCH   5   8
ENDBRANCH   3   4
ENDBRANCH   2   3
ENDBRANCH   1   2
BRANCH   1  24
ATOM     24  C   UNL A   1      33.561  28.774  27.313  1.00  0.00     0.116 C 
BRANCH  24  25
ATOM     25  N   UNL A   1      33.581  30.169  27.731  1.00  0.00    -0.352 N 
ATOM     26  C   UNL A   1      34.624  30.874  28.279  1.00  0.00     0.251 C 
ATOM     27  H   UNL A   1      32.742  30.669  27.604  1.00  0.00     0.163 HD
ATOM     28  O   UNL A   1      34.475  32.031  28.655  1.00  0.00    -0.269 OA
BRANCH  26  29
ATOM     29  C   UNL A   1      35.922  30.196  28.450  1.00  0.00     0.039 A 
ATOM     30  C   UNL A   1      36.845  30.237  27.404  1.00  0.00     0.014 A 
ATOM     31  C   UNL A   1      36.243  29.588  29.667  1.00  0.00     0.014 A 
ATOM     32  C   UNL A   1      38.127  29.728  27.603  1.00  0.00     0.010 A 
ATOM     33  C   UNL A   1      37.539  29.133  29.882  1.00  0.00     0.010 A 
ATOM     34  C   UNL A   1      38.492  29.207  28.855  1.00  0.00    -0.014 A 
BRANCH  34  35
ATOM     35  C   UNL A   1      39.870  28.731  29.112  1.00  0.00     0.031 A 
ATOM     36  C   UNL A   1      40.863  29.641  29.773  1.00  0.00     0.074 A 
ATOM     37  C   UNL A   1      40.242  27.505  28.697  1.00  0.00     0.049 A 
ATOM     38  N   UNL A   1      42.132  29.437  30.018  1.00  0.00    -0.248 NA
ATOM     39  C   UNL A   1      40.371  30.964  30.191  1.00  0.00     0.031 C 
ATOM     40  C   UNL A   1      39.375  26.539  28.017  1.00  0.00     0.029 A 
ATOM     41  N   UNL A   1      41.451  26.864  28.784  1.00  0.00    -0.354 N 
ATOM     42  C   UNL A   1      42.592  30.607  30.604  1.00  0.00     0.074 A 
ATOM     43  C   UNL A   1      41.481  31.533  30.639  1.00  0.00     0.031 C 
ATOM     44  C   UNL A   1      40.075  25.419  27.775  1.00  0.00     0.029 A 
ATOM     45  C   UNL A   1      41.442  25.599  28.250  1.00  0.00     0.049 A 
ATOM     46  H   UNL A   1      42.250  27.272  29.190  1.00  0.00     0.167 HD
ATOM     47  C   UNL A   1      43.826  30.881  31.088  1.00  0.00     0.031 A 
ATOM     48  C   UNL A   1      42.428  24.687  28.155  1.00  0.00     0.031 A 
ATOM     49  C   UNL A   1      44.926  29.958  31.069  1.00  0.00     0.049 A 
ATOM     50  C   UNL A   1      43.791  25.018  28.690  1.00  0.00     0.074 A 
ATOM     51  C   UNL A   1      46.203  30.127  31.575  1.00  0.00     0.029 A 
ATOM     52  N   UNL A   1      44.877  28.687  30.516  1.00  0.00    -0.354 N 
ATOM     53  N   UNL A   1      44.202  26.116  29.275  1.00  0.00    -0.248 NA
ATOM     54  C   UNL A   1      44.825  23.983  28.553  1.00  0.00     0.031 C 
ATOM     55  C   UNL A   1      46.938  28.970  31.297  1.00  0.00     0.029 A 
ATOM     56  C   UNL A   1      46.106  28.066  30.655  1.00  0.00     0.049 A 
ATOM     57  H   UNL A   1      44.086  28.287  30.088  1.00  0.00     0.167 HD
ATOM     58  C   UNL A   1      45.536  25.900  29.592  1.00  0.00     0.074 A 
ATOM     59  C   UNL A   1      45.862  24.560  29.147  1.00  0.00     0.031 C 
ATOM     60  C   UNL A   1      46.412  26.737  30.199  1.00  0.00     0.031 A 
BRANCH  47  61
ATOM     61  C   UNL A   1      44.043  32.243  31.681  1.00  0.00    -0.014 A 
ATOM     62  C   UNL A   1      44.472  33.317  30.885  1.00  0.00     0.009 A 
ATOM     63  C   UNL A   1      43.795  32.461  33.045  1.00  0.00     0.009 A 
ATOM     64  C   UNL A   1      44.679  34.576  31.451  1.00  0.00     0.001 A 
ATOM     65  C   UNL A   1      43.979  33.727  33.602  1.00  0.00     0.001 A 
ATOM     66  C   UNL A   1      44.429  34.781  32.807  1.00  0.00     0.000 A 
ENDBRANCH  47  61
BRANCH  48  67
ATOM     67  C   UNL A   1      42.149  23.360  27.552  1.00  0.00    -0.014 A 
ATOM     68  C   UNL A   1      42.463  23.117  26.206  1.00  0.00     0.009 A 
ATOM     69  C   UNL A   1      41.585  22.328  28.317  1.00  0.00     0.009 A 
ATOM     70  C   UNL A   1      42.206  21.869  25.634  1.00  0.00     0.001 A 
ATOM     71  C   UNL A   1      41.347  21.075  27.747  1.00  0.00     0.001 A 
ATOM     72  C   UNL A   1      41.653  20.848  26.406  1.00  0.00     0.000 A 
ENDBRANCH  48  67
BRANCH  60  73
ATOM     73  C   UNL A   1      47.804  26.225  30.429  1.00  0.00    -0.014 A 
ATOM     74  C   UNL A   1      48.765  26.266  29.407  1.00  0.00     0.009 A 
ATOM     75  C   UNL A   1      48.174  25.760  31.699  1.00  0.00     0.009 A 
ATOM     76  C   UNL A   1      50.069  25.830  29.650  1.00  0.00     0.001 A 
ATOM     77  C   UNL A   1      49.483  25.346  31.945  1.00  0.00     0.001 A 
ATOM     78  C   UNL A   1      50.427  25.375  30.920  1.00  0.00     0.000 A 
ENDBRANCH  60  73
ENDBRANCH  34  35
ENDBRANCH  26  29
ENDBRANCH  24  25
ENDBRANCH   1  24
TORSDOF 12
ENDMDL
MODEL 2
REMARK VINA RESULT:     -11.5      2.631      7.720
REMARK SMILES Cc1cc(Cl)cc2c1O[C@H](C(F)(F)F)C(C(=O)NCCCCNC(=O)c1ccc(-c3c4nc(c(-c5ccccc5)c5ccc([nH]5)c(-c5ccccc5)c5nc(c(-c6ccccc6)c6ccc3[nH]6)C=C5)C=C4)cc1)=C2
REMARK SMILES IDX 21 1 20 2 19 3 18 4 16 5 17 6 15 8 1 9 2 10 3 11 8 12 4 13
REMARK SMILES IDX 7 14 9 15 5 16 6 17 74 18 10 19 11 20 12 21 13 22 14 23
REMARK SMILES IDX 22 24 23 25 24 26 25 28 26 29 27 30 73 31 28 32 72 33 29 34
REMARK SMILES IDX 30 35 31 36 66 37 32 38 71 39 65 40 67 41 33 42 70 43 64 44
REMARK SMILES IDX 63 45 34 47 56 48 41 49 55 50 42 51 45 52 54 53 68 54 43 55
REMARK SMILES IDX 44 56 53 58 69 59 46 60 35 61 36 62 40 63 37 64 39 65 38 66
REMARK SMILES IDX 57 67 58 68 62 69 59 70 61 71 60 72 47 73 48 74 52 75 49 76
REMARK SMILES IDX 51 77 50 78
REMARK H PARENT 18 7 23 27 67 46 45 57
REMARK Flexibility Score: inf
ROOT
ATOM      1  C   UNL A   1      36.057  23.531  26.076  1.00  0.00     0.023 C 
ENDROOT
BRANCH   1   2
ATOM      2  C   UNL A   1      35.131  22.313  26.051  1.00  0.00     0.023 C 
BRANCH   2   3
ATOM      3  C   UNL A   1      33.799  22.560  25.349  1.00  0.00     0.116 C 
BRANCH   3   4
ATOM      4  N   UNL A   1      33.972  22.795  23.927  1.00  0.00    -0.352 N 
ATOM      5  C   UNL A   1      33.711  23.793  23.052  1.00  0.00     0.251 C 
ATOM      6  O   UNL A   1      34.025  23.557  21.880  1.00  0.00    -0.270 OA
ATOM      7  H   UNL A   1      34.392  22.023  23.481  1.00  0.00     0.163 HD
BRANCH   5   8
ATOM      8  C   UNL A   1      33.092  25.108  23.399  1.00  0.00     0.067 C 
ATOM      9  C   UNL A   1      30.337  29.476  23.731  1.00  0.00     0.048 C 
ATOM     10  C   UNL A   1      31.586  28.924  24.359  1.00  0.00    -0.007 A 
ATOM     11  C   UNL A   1      32.234  29.675  25.351  1.00  0.00     0.027 A 
ATOM     12  C   UNL A   1      32.118  27.675  24.007  1.00  0.00     0.131 A 
ATOM     13  C   UNL A   1      33.391  29.189  25.959  1.00  0.00     0.042 A 
ATOM     14  C   UNL A   1      33.281  27.188  24.616  1.00  0.00     0.019 A 
ATOM     15  O   UNL A   1      31.489  26.979  23.014  1.00  0.00    -0.475 OA
ATOM     16  Cl  UNL A   1      34.177  30.132  27.166  1.00  0.00    -0.084 Cl
ATOM     17  C   UNL A   1      33.919  27.952  25.596  1.00  0.00     0.032 A 
ATOM     18  C   UNL A   1      33.830  25.905  24.195  1.00  0.00     0.025 C 
ATOM     19  C   UNL A   1      31.725  25.546  22.964  1.00  0.00     0.314 C 
BRANCH  19  20
ATOM     20  C   UNL A   1      30.596  24.821  23.720  1.00  0.00     0.429 C 
ATOM     21  F   UNL A   1      30.993  24.513  24.980  1.00  0.00    -0.167 F 
ATOM     22  F   UNL A   1      29.484  25.584  23.848  1.00  0.00    -0.167 F 
ATOM     23  F   UNL A   1      30.219  23.671  23.120  1.00  0.00    -0.167 F 
ENDBRANCH  19  20
ENDBRANCH   5   8
ENDBRANCH   3   4
ENDBRANCH   2   3
ENDBRANCH   1   2
BRANCH   1  24
ATOM     24  C   UNL A   1      37.212  23.498  25.076  1.00  0.00     0.116 C 
BRANCH  24  25
ATOM     25  N   UNL A   1      38.288  22.591  25.449  1.00  0.00    -0.352 N 
ATOM     26  C   UNL A   1      39.398  22.860  26.213  1.00  0.00     0.251 C 
ATOM     27  H   UNL A   1      38.211  21.668  25.112  1.00  0.00     0.163 HD
ATOM     28  O   UNL A   1      40.266  22.013  26.386  1.00  0.00    -0.269 OA
BRANCH  26  29
ATOM     29  C   UNL A   1      39.549  24.210  26.786  1.00  0.00     0.039 A 
ATOM     30  C   UNL A   1      39.091  24.443  28.084  1.00  0.00     0.014 A 
ATOM     31  C   UNL A   1      40.204  25.212  26.066  1.00  0.00     0.014 A 
ATOM     32  C   UNL A   1      39.357  25.668  28.692  1.00  0.00     0.010 A 
ATOM     33  C   UNL A   1      40.518  26.412  26.694  1.00  0.00     0.010 A 
ATOM     34  C   UNL A   1      40.103  26.646  28.014  1.00  0.00    -0.014 A 
BRANCH  34  35
ATOM     35  C   UNL A   1      40.462  27.924  28.668  1.00  0.00     0.031 A 
ATOM     36  C   UNL A   1      41.836  28.109  29.243  1.00  0.00     0.074 A 
ATOM     37  C   UNL A   1      39.535  28.892  28.796  1.00  0.00     0.049 A 
ATOM     38  N   UNL A   1      42.318  29.122  29.915  1.00  0.00    -0.248 NA
ATOM     39  C   UNL A   1      42.784  26.998  29.059  1.00  0.00     0.031 C 
ATOM     40  C   UNL A   1      38.157  28.820  28.304  1.00  0.00     0.029 A 
ATOM     41  N   UNL A   1      39.614  30.128  29.386  1.00  0.00    -0.354 N 
ATOM     42  C   UNL A   1      43.617  28.766  30.247  1.00  0.00     0.074 A 
ATOM     43  C   UNL A   1      43.836  27.428  29.741  1.00  0.00     0.031 C 
ATOM     44  C   UNL A   1      37.531  29.973  28.588  1.00  0.00     0.029 A 
ATOM     45  C   UNL A   1      38.448  30.849  29.308  1.00  0.00     0.049 A 
ATOM     46  H   UNL A   1      40.428  30.466  29.823  1.00  0.00     0.167 HD
ATOM     47  C   UNL A   1      44.553  29.495  30.898  1.00  0.00     0.031 A 
ATOM     48  C   UNL A   1      38.152  32.079  29.769  1.00  0.00     0.031 A 
ATOM     49  C   UNL A   1      44.344  30.830  31.387  1.00  0.00     0.049 A 
ATOM     50  C   UNL A   1      39.205  32.865  30.497  1.00  0.00     0.074 A 
ATOM     51  C   UNL A   1      45.245  31.667  32.020  1.00  0.00     0.029 A 
ATOM     52  N   UNL A   1      43.147  31.523  31.292  1.00  0.00    -0.354 N 
ATOM     53  N   UNL A   1      40.441  32.529  30.771  1.00  0.00    -0.248 NA
ATOM     54  C   UNL A   1      38.820  34.200  30.977  1.00  0.00     0.031 C 
ATOM     55  C   UNL A   1      44.582  32.857  32.340  1.00  0.00     0.029 A 
ATOM     56  C   UNL A   1      43.281  32.774  31.869  1.00  0.00     0.049 A 
ATOM     57  H   UNL A   1      42.325  31.177  30.876  1.00  0.00     0.167 HD
ATOM     58  C   UNL A   1      40.989  33.615  31.440  1.00  0.00     0.074 A 
ATOM     59  C   UNL A   1      39.954  34.626  31.518  1.00  0.00     0.031 C 
ATOM     60  C   UNL A   1      42.238  33.761  31.943  1.00  0.00     0.031 A 
BRANCH  47  61
ATOM     61  C   UNL A   1      45.893  28.854  31.115  1.00  0.00    -0.014 A 
ATOM     62  C   UNL A   1      46.152  28.097  32.269  1.00  0.00     0.009 A 
ATOM     63  C   UNL A   1      46.900  28.989  30.148  1.00  0.00     0.009 A 
ATOM     64  C   UNL A   1      47.405  27.513  32.463  1.00  0.00     0.001 A 
ATOM     65  C   UNL A   1      48.144  28.384  30.333  1.00  0.00     0.001 A 
ATOM     66  C   UNL A   1      48.398  27.654  31.495  1.00  0.00     0.000 A 
ENDBRANCH  47  61
BRANCH  48  67
ATOM     67  C   UNL A   1      36.806  32.654  29.525  1.00  0.00    -0.014 A 
ATOM     68  C   UNL A   1      35.817  32.579  30.518  1.00  0.00     0.009 A 
ATOM     69  C   UNL A   1      36.506  33.292  28.312  1.00  0.00     0.009 A 
ATOM     70  C   UNL A   1      34.550  33.121  30.296  1.00  0.00     0.001 A 
ATOM     71  C   UNL A   1      35.243  33.850  28.101  1.00  0.00     0.001 A 
ATOM     72  C   UNL A   1      34.265  33.760  29.089  1.00  0.00     0.000 A 
ENDBRANCH  48  67
BRANCH  60  73
ATOM     73  C   UNL A   1      42.561  35.065  32.613  1.00  0.00    -0.014 A 
ATOM     74  C   UNL A   1      42.187  35.304  33.944  1.00  0.00     0.009 A 
ATOM     75  C   UNL A   1      43.304  36.036  31.925  1.00  0.00     0.009 A 
ATOM     76  C   UNL A   1      42.535  36.503  34.568  1.00  0.00     0.001 A 
ATOM     77  C   UNL A   1      43.669  37.224  32.559  1.00  0.00     0.001 A 
ATOM     78  C   UNL A   1      43.280  37.459  33.877  1.00  0.00     0.000 A 
ENDBRANCH  60  73
ENDBRANCH  34  35
ENDBRANCH  26  29
ENDBRANCH  24  25
ENDBRANCH   1  24
TORSDOF 12
ENDMDL
MODEL 3
REMARK VINA RESULT:     -11.4      5.551      8.152
REMARK SMILES Cc1cc(Cl)cc2c1O[C@H](C(F)(F)F)C(C(=O)NCCCCNC(=O)c1ccc(-c3c4nc(c(-c5ccccc5)c5ccc([nH]5)c(-c5ccccc5)c5nc(c(-c6ccccc6)c6ccc3[nH]6)C=C5)C=C4)cc1)=C2
REMARK SMILES IDX 21 1 20 2 19 3 18 4 16 5 17 6 15 8 1 9 2 10 3 11 8 12 4 13
REMARK SMILES IDX 7 14 9 15 5 16 6 17 74 18 10 19 11 20 12 21 13 22 14 23
REMARK SMILES IDX 22 24 23 25 24 26 25 28 26 29 27 30 73 31 28 32 72 33 29 34
REMARK SMILES IDX 30 35 31 36 66 37 32 38 71 39 65 40 67 41 33 42 70 43 64 44
REMARK SMILES IDX 63 45 34 47 56 48 41 49 55 50 42 51 45 52 54 53 68 54 43 55
REMARK SMILES IDX 44 56 53 58 69 59 46 60 35 61 36 62 40 63 37 64 39 65 38 66
REMARK SMILES IDX 57 67 58 68 62 69 59 70 61 71 60 72 47 73 48 74 52 75 49 76
REMARK SMILES IDX 51 77 50 78
REMARK H PARENT 18 7 23 27 67 46 45 57
REMARK Flexibility Score: inf
ROOT
ATOM      1  C   UNL A   1      33.397  35.575  31.546  1.00  0.00     0.023 C 
ENDROOT
BRANCH   1   2
ATOM      2  C   UNL A   1      34.575  36.068  32.389  1.00  0.00     0.023 C 
BRANCH   2   3
ATOM      3  C   UNL A   1      35.530  34.962  32.827  1.00  0.00     0.116 C 
BRANCH   3   4
ATOM      4  N   UNL A   1      35.406  34.671  34.244  1.00  0.00    -0.352 N 
ATOM      5  C   UNL A   1      36.023  33.873  35.147  1.00  0.00     0.251 C 
ATOM      6  O   UNL A   1      35.568  33.932  36.294  1.00  0.00    -0.270 OA
ATOM      7  H   UNL A   1      34.681  35.194  34.659  1.00  0.00     0.163 HD
BRANCH   5   8
ATOM      8  C   UNL A   1      37.171  32.964  34.854  1.00  0.00     0.067 C 
ATOM      9  C   UNL A   1      41.746  30.626  34.229  1.00  0.00     0.048 C 
ATOM     10  C   UNL A   1      40.331  30.393  33.777  1.00  0.00    -0.007 A 
ATOM     11  C   UNL A   1      40.040  29.242  33.030  1.00  0.00     0.027 A 
ATOM     12  C   UNL A   1      39.285  31.272  34.093  1.00  0.00     0.131 A 
ATOM     13  C   UNL A   1      38.737  28.991  32.602  1.00  0.00     0.042 A 
ATOM     14  C   UNL A   1      37.977  31.022  33.660  1.00  0.00     0.019 A 
ATOM     15  O   UNL A   1      39.601  32.404  34.790  1.00  0.00    -0.475 OA
ATOM     16  Cl  UNL A   1      38.403  27.579  31.677  1.00  0.00    -0.084 Cl
ATOM     17  C   UNL A   1      37.705  29.876  32.910  1.00  0.00     0.032 A 
ATOM     18  C   UNL A   1      36.922  31.979  33.970  1.00  0.00     0.025 C 
ATOM     19  C   UNL A   1      38.519  33.058  35.506  1.00  0.00     0.314 C 
BRANCH  19  20
ATOM     20  C   UNL A   1      38.512  32.569  36.967  1.00  0.00     0.429 C 
ATOM     21  F   UNL A   1      39.753  32.164  37.335  1.00  0.00    -0.167 F 
ATOM     22  F   UNL A   1      38.156  33.543  37.839  1.00  0.00    -0.167 F 
ATOM     23  F   UNL A   1      37.670  31.532  37.167  1.00  0.00    -0.167 F 
ENDBRANCH  19  20
ENDBRANCH   5   8
ENDBRANCH   3   4
ENDBRANCH   2   3
ENDBRANCH   1   2
BRANCH   1  24
ATOM     24  C   UNL A   1      33.353  36.097  30.110  1.00  0.00     0.116 C 
BRANCH  24  25
ATOM     25  N   UNL A   1      32.754  35.166  29.164  1.00  0.00    -0.352 N 
ATOM     26  C   UNL A   1      33.305  34.026  28.633  1.00  0.00     0.251 C 
ATOM     27  H   UNL A   1      31.839  35.381  28.869  1.00  0.00     0.163 HD
ATOM     28  O   UNL A   1      32.709  33.373  27.784  1.00  0.00    -0.269 OA
BRANCH  26  29
ATOM     29  C   UNL A   1      34.654  33.623  29.071  1.00  0.00     0.039 A 
ATOM     30  C   UNL A   1      34.775  32.650  30.065  1.00  0.00     0.014 A 
ATOM     31  C   UNL A   1      35.785  34.157  28.448  1.00  0.00     0.014 A 
ATOM     32  C   UNL A   1      36.037  32.155  30.386  1.00  0.00     0.010 A 
ATOM     33  C   UNL A   1      37.037  33.622  28.730  1.00  0.00     0.010 A 
ATOM     34  C   UNL A   1      37.171  32.612  29.694  1.00  0.00    -0.014 A 
BRANCH  34  35
ATOM     35  C   UNL A   1      38.512  32.046  29.965  1.00  0.00     0.031 A 
ATOM     36  C   UNL A   1      39.503  32.829  30.776  1.00  0.00     0.074 A 
ATOM     37  C   UNL A   1      38.855  30.858  29.433  1.00  0.00     0.049 A 
ATOM     38  N   UNL A   1      40.747  32.538  31.061  1.00  0.00    -0.248 NA
ATOM     39  C   UNL A   1      39.044  34.118  31.316  1.00  0.00     0.031 C 
ATOM     40  C   UNL A   1      37.989  30.016  28.604  1.00  0.00     0.029 A 
ATOM     41  N   UNL A   1      40.030  30.155  29.508  1.00  0.00    -0.354 N 
ATOM     42  C   UNL A   1      41.222  33.612  31.798  1.00  0.00     0.074 A 
ATOM     43  C   UNL A   1      40.150  34.580  31.882  1.00  0.00     0.031 C 
ATOM     44  C   UNL A   1      38.654  28.897  28.272  1.00  0.00     0.029 A 
ATOM     45  C   UNL A   1      39.998  28.959  28.834  1.00  0.00     0.049 A 
ATOM     46  H   UNL A   1      40.821  30.477  29.998  1.00  0.00     0.167 HD
ATOM     47  C   UNL A   1      42.436  33.772  32.373  1.00  0.00     0.031 A 
ATOM     48  C   UNL A   1      40.950  28.017  28.686  1.00  0.00     0.031 A 
ATOM     49  C   UNL A   1      43.497  32.805  32.305  1.00  0.00     0.049 A 
ATOM     50  C   UNL A   1      42.293  28.222  29.324  1.00  0.00     0.074 A 
ATOM     51  C   UNL A   1      44.749  32.856  32.892  1.00  0.00     0.029 A 
ATOM     52  N   UNL A   1      43.426  31.608  31.609  1.00  0.00    -0.354 N 
ATOM     53  N   UNL A   1      42.716  29.226  30.051  1.00  0.00    -0.248 NA
ATOM     54  C   UNL A   1      43.290  27.160  29.123  1.00  0.00     0.031 C 
ATOM     55  C   UNL A   1      45.450  31.703  32.522  1.00  0.00     0.029 A 
ATOM     56  C   UNL A   1      44.619  30.918  31.739  1.00  0.00     0.049 A 
ATOM     57  H   UNL A   1      42.645  31.296  31.099  1.00  0.00     0.167 HD
ATOM     58  C   UNL A   1      44.020  28.914  30.409  1.00  0.00     0.074 A 
ATOM     59  C   UNL A   1      44.315  27.617  29.831  1.00  0.00     0.031 C 
ATOM     60  C   UNL A   1      44.895  29.635  31.150  1.00  0.00     0.031 A 
BRANCH  47  61
ATOM     61  C   UNL A   1      42.676  35.047  33.128  1.00  0.00    -0.014 A 
ATOM     62  C   UNL A   1      43.330  36.132  32.522  1.00  0.00     0.009 A 
ATOM     63  C   UNL A   1      42.225  35.175  34.450  1.00  0.00     0.009 A 
ATOM     64  C   UNL A   1      43.554  37.309  33.238  1.00  0.00     0.001 A 
ATOM     65  C   UNL A   1      42.429  36.361  35.155  1.00  0.00     0.001 A 
ATOM     66  C   UNL A   1      43.102  37.425  34.551  1.00  0.00     0.000 A 
ENDBRANCH  47  61
BRANCH  48  67
ATOM     67  C   UNL A   1      40.650  26.780  27.922  1.00  0.00    -0.014 A 
ATOM     68  C   UNL A   1      41.006  26.684  26.568  1.00  0.00     0.009 A 
ATOM     69  C   UNL A   1      40.025  25.687  28.541  1.00  0.00     0.009 A 
ATOM     70  C   UNL A   1      40.730  25.522  25.845  1.00  0.00     0.001 A 
ATOM     71  C   UNL A   1      39.768  24.519  27.820  1.00  0.00     0.001 A 
ATOM     72  C   UNL A   1      40.115  24.439  26.473  1.00  0.00     0.000 A 
ENDBRANCH  48  67
BRANCH  60  73
ATOM     73  C   UNL A   1      46.249  29.035  31.392  1.00  0.00    -0.014 A 
ATOM     74  C   UNL A   1      46.476  28.183  32.483  1.00  0.00     0.009 A 
ATOM     75  C   UNL A   1      47.288  29.274  30.480  1.00  0.00     0.009 A 
ATOM     76  C   UNL A   1      47.730  27.597  32.668  1.00  0.00     0.001 A 
ATOM     77  C   UNL A   1      48.533  28.668  30.656  1.00  0.00     0.001 A 
ATOM     78  C   UNL A   1      48.754  27.835  31.751  1.00  0.00     0.000 A 
ENDBRANCH  60  73
ENDBRANCH  34  35
ENDBRANCH  26  29
ENDBRANCH  24  25
ENDBRANCH   1  24
TORSDOF 12
ENDMDL
