MODEL 1
REMARK VINA RESULT:     -10.3      0.000      0.000
REMARK SMILES CCC(CC)(CC)NC(=O)NC[C@@H]1CC[C@H](C(=O)NCCCCNC(=O)c2ccc(-c3c4nc(c(-c5ccccc5)c5ccc([nH]5)c(-c5ccccc5)c5nc(c(-c6ccccc6)c6ccc3[nH]6)C=C5)C=C4)cc2)O1
REMARK SMILES IDX 20 1 19 2 17 3 18 4 16 6 13 7 14 8 75 9 15 10 12 11 11 12
REMARK SMILES IDX 8 13 9 14 10 16 3 18 2 19 1 20 4 21 5 22 6 23 7 24 21 25
REMARK SMILES IDX 22 26 23 27 24 28 25 29 26 31 27 32 28 33 74 34 29 35 73 36
REMARK SMILES IDX 30 37 31 38 32 39 67 40 33 41 72 42 66 43 68 44 34 45 71 46
REMARK SMILES IDX 65 47 64 48 35 50 57 51 42 52 56 53 43 54 46 55 55 56 69 57
REMARK SMILES IDX 44 58 45 59 54 61 70 62 47 63 36 64 37 65 41 66 38 67 40 68
REMARK SMILES IDX 39 69 58 70 59 71 63 72 60 73 62 74 61 75 48 76 49 77 53 78
REMARK SMILES IDX 50 79 52 80 51 81
REMARK H PARENT 19 5 8 15 11 17 24 30 68 49 46 60
REMARK Flexibility Score: inf
ROOT
ATOM      1  C   UNL A   1      31.396  29.191  24.887  1.00  0.00     0.116 C 
ENDROOT
BRANCH   1   2
ATOM      2  N   UNL A   1      30.833  29.647  23.641  1.00  0.00    -0.354 N 
ATOM      3  C   UNL A   1      30.518  28.912  22.533  1.00  0.00     0.249 C 
ATOM      4  O   UNL A   1      29.942  29.501  21.612  1.00  0.00    -0.272 OA
ATOM      5  H   UNL A   1      30.650  30.612  23.582  1.00  0.00     0.163 HD
BRANCH   3   6
ATOM      6  C   UNL A   1      30.870  27.402  22.414  1.00  0.00     0.207 C 
ATOM      7  C   UNL A   1      31.394  25.649  23.894  1.00  0.00     0.138 C 
ATOM      8  C   UNL A   1      32.722  26.233  23.430  1.00  0.00     0.037 C 
ATOM      9  O   UNL A   1      30.402  26.584  23.483  1.00  0.00    -0.363 OA
ATOM     10  C   UNL A   1      32.345  27.093  22.232  1.00  0.00     0.045 C 
BRANCH   7  11
ATOM     11  C   UNL A   1      31.244  25.281  25.401  1.00  0.00     0.149 C 
BRANCH  11  12
ATOM     12  N   UNL A   1      30.559  24.025  25.717  1.00  0.00    -0.336 N 
ATOM     13  N   UNL A   1      31.890  22.015  25.622  1.00  0.00    -0.333 N 
ATOM     14  C   UNL A   1      30.802  22.730  25.880  1.00  0.00     0.315 C 
ATOM     15  H   UNL A   1      31.728  21.091  25.920  1.00  0.00     0.165 HD
ATOM     16  O   UNL A   1      29.839  22.082  26.320  1.00  0.00    -0.249 OA
ATOM     17  H   UNL A   1      29.600  24.201  25.855  1.00  0.00     0.165 HD
BRANCH  13  18
ATOM     18  C   UNL A   1      33.268  22.086  25.052  1.00  0.00     0.041 C 
BRANCH  18  19
ATOM     19  C   UNL A   1      34.167  23.095  25.786  1.00  0.00     0.025 C 
ATOM     20  C   UNL A   1      35.142  23.812  24.852  1.00  0.00     0.006 C 
ENDBRANCH  18  19
BRANCH  18  21
ATOM     21  C   UNL A   1      33.114  22.599  23.555  1.00  0.00     0.025 C 
ATOM     22  C   UNL A   1      32.096  21.844  22.690  1.00  0.00     0.006 C 
ENDBRANCH  18  21
BRANCH  18  23
ATOM     23  C   UNL A   1      33.913  20.666  24.949  1.00  0.00     0.025 C 
ATOM     24  C   UNL A   1      33.124  19.492  25.506  1.00  0.00     0.006 C 
ENDBRANCH  18  23
ENDBRANCH  13  18
ENDBRANCH  11  12
ENDBRANCH   7  11
ENDBRANCH   3   6
ENDBRANCH   1   2
BRANCH   1  25
ATOM     25  C   UNL A   1      32.857  29.596  25.052  1.00  0.00     0.023 C 
BRANCH  25  26
ATOM     26  C   UNL A   1      33.656  28.655  25.944  1.00  0.00     0.023 C 
BRANCH  26  27
ATOM     27  C   UNL A   1      33.442  28.858  27.442  1.00  0.00     0.116 C 
BRANCH  27  28
ATOM     28  N   UNL A   1      33.554  30.246  27.869  1.00  0.00    -0.352 N 
ATOM     29  C   UNL A   1      34.639  30.898  28.406  1.00  0.00     0.251 C 
ATOM     30  H   UNL A   1      32.743  30.792  27.758  1.00  0.00     0.163 HD
ATOM     31  O   UNL A   1      34.545  32.052  28.816  1.00  0.00    -0.269 OA
BRANCH  29  32
ATOM     32  C   UNL A   1      35.917  30.170  28.527  1.00  0.00     0.039 A 
ATOM     33  C   UNL A   1      36.798  30.159  27.444  1.00  0.00     0.014 A 
ATOM     34  C   UNL A   1      36.272  29.570  29.738  1.00  0.00     0.014 A 
ATOM     35  C   UNL A   1      38.079  29.631  27.608  1.00  0.00     0.010 A 
ATOM     36  C   UNL A   1      37.574  29.120  29.923  1.00  0.00     0.010 A 
ATOM     37  C   UNL A   1      38.494  29.158  28.865  1.00  0.00    -0.014 A 
BRANCH  37  38
ATOM     38  C   UNL A   1      39.893  28.725  29.102  1.00  0.00     0.031 A 
ATOM     39  C   UNL A   1      40.889  29.685  29.694  1.00  0.00     0.074 A 
ATOM     40  C   UNL A   1      40.289  27.499  28.707  1.00  0.00     0.049 A 
ATOM     41  N   UNL A   1      42.169  29.516  29.906  1.00  0.00    -0.248 NA
ATOM     42  C   UNL A   1      40.387  31.016  30.069  1.00  0.00     0.031 C 
ATOM     43  C   UNL A   1      39.433  26.491  28.075  1.00  0.00     0.029 A 
ATOM     44  N   UNL A   1      41.520  26.894  28.771  1.00  0.00    -0.354 N 
ATOM     45  C   UNL A   1      42.629  30.725  30.412  1.00  0.00     0.074 A 
ATOM     46  C   UNL A   1      41.501  31.631  30.437  1.00  0.00     0.031 C 
ATOM     47  C   UNL A   1      40.157  25.385  27.839  1.00  0.00     0.029 A 
ATOM     48  C   UNL A   1      41.534  25.617  28.261  1.00  0.00     0.049 A 
ATOM     49  H   UNL A   1      42.317  27.332  29.147  1.00  0.00     0.167 HD
ATOM     50  C   UNL A   1      43.873  31.047  30.834  1.00  0.00     0.031 A 
ATOM     51  C   UNL A   1      42.545  24.736  28.142  1.00  0.00     0.031 A 
ATOM     52  C   UNL A   1      44.988  30.139  30.836  1.00  0.00     0.049 A 
ATOM     53  C   UNL A   1      43.918  25.123  28.616  1.00  0.00     0.074 A 
ATOM     54  C   UNL A   1      46.266  30.348  31.323  1.00  0.00     0.029 A 
ATOM     55  N   UNL A   1      44.958  28.853  30.323  1.00  0.00    -0.354 N 
ATOM     56  N   UNL A   1      44.314  26.240  29.173  1.00  0.00    -0.248 NA
ATOM     57  C   UNL A   1      44.981  24.121  28.450  1.00  0.00     0.031 C 
ATOM     58  C   UNL A   1      47.025  29.203  31.060  1.00  0.00     0.029 A 
ATOM     59  C   UNL A   1      46.204  28.266  30.454  1.00  0.00     0.049 A 
ATOM     60  H   UNL A   1      44.168  28.422  29.924  1.00  0.00     0.167 HD
ATOM     61  C   UNL A   1      45.664  26.066  29.451  1.00  0.00     0.074 A 
ATOM     62  C   UNL A   1      46.014  24.731  29.014  1.00  0.00     0.031 C 
ATOM     63  C   UNL A   1      46.534  26.934  30.019  1.00  0.00     0.031 A 
BRANCH  50  64
ATOM     64  C   UNL A   1      44.098  32.449  31.326  1.00  0.00    -0.014 A 
ATOM     65  C   UNL A   1      44.590  33.449  30.473  1.00  0.00     0.009 A 
ATOM     66  C   UNL A   1      43.769  32.784  32.649  1.00  0.00     0.009 A 
ATOM     67  C   UNL A   1      44.779  34.750  30.945  1.00  0.00     0.001 A 
ATOM     68  C   UNL A   1      43.933  34.091  33.110  1.00  0.00     0.001 A 
ATOM     69  C   UNL A   1      44.446  35.071  32.261  1.00  0.00     0.000 A 
ENDBRANCH  50  64
BRANCH  51  70
ATOM     70  C   UNL A   1      42.303  23.390  27.559  1.00  0.00    -0.014 A 
ATOM     71  C   UNL A   1      42.421  23.186  26.175  1.00  0.00     0.009 A 
ATOM     72  C   UNL A   1      41.929  22.311  28.374  1.00  0.00     0.009 A 
ATOM     73  C   UNL A   1      42.139  21.938  25.616  1.00  0.00     0.001 A 
ATOM     74  C   UNL A   1      41.673  21.056  27.815  1.00  0.00     0.001 A 
ATOM     75  C   UNL A   1      41.768  20.874  26.437  1.00  0.00     0.000 A 
ENDBRANCH  51  70
BRANCH  63  76
ATOM     76  C   UNL A   1      47.941  26.454  30.233  1.00  0.00    -0.014 A 
ATOM     77  C   UNL A   1      48.925  26.622  29.247  1.00  0.00     0.009 A 
ATOM     78  C   UNL A   1      48.295  25.867  31.458  1.00  0.00     0.009 A 
ATOM     79  C   UNL A   1      50.231  26.184  29.475  1.00  0.00     0.001 A 
ATOM     80  C   UNL A   1      49.607  25.455  31.692  1.00  0.00     0.001 A 
ATOM     81  C   UNL A   1      50.572  25.606  30.697  1.00  0.00     0.000 A 
ENDBRANCH  63  76
ENDBRANCH  37  38
ENDBRANCH  29  32
ENDBRANCH  27  28
ENDBRANCH  26  27
ENDBRANCH  25  26
ENDBRANCH   1  25
TORSDOF 17
ENDMDL
MODEL 2
REMARK VINA RESULT:     -10.3      3.273      4.826
REMARK SMILES CCC(CC)(CC)NC(=O)NC[C@@H]1CC[C@H](C(=O)NCCCCNC(=O)c2ccc(-c3c4nc(c(-c5ccccc5)c5ccc([nH]5)c(-c5ccccc5)c5nc(c(-c6ccccc6)c6ccc3[nH]6)C=C5)C=C4)cc2)O1
REMARK SMILES IDX 20 1 19 2 17 3 18 4 16 6 13 7 14 8 75 9 15 10 12 11 11 12
REMARK SMILES IDX 8 13 9 14 10 16 3 18 2 19 1 20 4 21 5 22 6 23 7 24 21 25
REMARK SMILES IDX 22 26 23 27 24 28 25 29 26 31 27 32 28 33 74 34 29 35 73 36
REMARK SMILES IDX 30 37 31 38 32 39 67 40 33 41 72 42 66 43 68 44 34 45 71 46
REMARK SMILES IDX 65 47 64 48 35 50 57 51 42 52 56 53 43 54 46 55 55 56 69 57
REMARK SMILES IDX 44 58 45 59 54 61 70 62 47 63 36 64 37 65 41 66 38 67 40 68
REMARK SMILES IDX 39 69 58 70 59 71 63 72 60 73 62 74 61 75 48 76 49 77 53 78
REMARK SMILES IDX 50 79 52 80 51 81
REMARK H PARENT 19 5 8 15 11 17 24 30 68 49 46 60
REMARK Flexibility Score: inf
ROOT
ATOM      1  C   UNL A   1      31.845  29.595  25.522  1.00  0.00     0.116 C 
ENDROOT
BRANCH   1   2
ATOM      2  N   UNL A   1      30.944  30.169  24.555  1.00  0.00    -0.354 N 
ATOM      3  C   UNL A   1      30.184  29.529  23.619  1.00  0.00     0.249 C 
ATOM      4  O   UNL A   1      29.399  30.220  22.962  1.00  0.00    -0.272 OA
ATOM      5  H   UNL A   1      30.866  31.151  24.573  1.00  0.00     0.163 HD
BRANCH   3   6
ATOM      6  C   UNL A   1      30.295  27.998  23.369  1.00  0.00     0.207 C 
ATOM      7  C   UNL A   1      31.154  26.137  24.526  1.00  0.00     0.138 C 
ATOM      8  C   UNL A   1      32.255  26.605  23.583  1.00  0.00     0.037 C 
ATOM      9  O   UNL A   1      30.189  27.183  24.535  1.00  0.00    -0.363 OA
ATOM     10  C   UNL A   1      31.542  27.550  22.627  1.00  0.00     0.045 C 
BRANCH   7  11
ATOM     11  C   UNL A   1      31.558  25.719  25.971  1.00  0.00     0.149 C 
BRANCH  11  12
ATOM     12  N   UNL A   1      30.805  24.622  26.585  1.00  0.00    -0.336 N 
ATOM     13  N   UNL A   1      31.876  22.461  26.615  1.00  0.00    -0.333 N 
ATOM     14  C   UNL A   1      30.930  23.342  26.915  1.00  0.00     0.315 C 
ATOM     15  H   UNL A   1      31.668  21.617  27.078  1.00  0.00     0.165 HD
ATOM     16  O   UNL A   1      29.992  22.896  27.594  1.00  0.00    -0.249 OA
ATOM     17  H   UNL A   1      29.908  24.941  26.836  1.00  0.00     0.165 HD
BRANCH  13  18
ATOM     18  C   UNL A   1      33.137  22.267  25.839  1.00  0.00     0.041 C 
BRANCH  18  19
ATOM     19  C   UNL A   1      33.636  20.812  25.866  1.00  0.00     0.025 C 
ATOM     20  C   UNL A   1      34.835  20.577  24.946  1.00  0.00     0.006 C 
ENDBRANCH  18  19
BRANCH  18  21
ATOM     21  C   UNL A   1      34.248  23.157  26.547  1.00  0.00     0.025 C 
ATOM     22  C   UNL A   1      34.894  24.241  25.674  1.00  0.00     0.006 C 
ENDBRANCH  18  21
BRANCH  18  23
ATOM     23  C   UNL A   1      33.004  22.832  24.388  1.00  0.00     0.025 C 
ATOM     24  C   UNL A   1      31.836  22.341  23.546  1.00  0.00     0.006 C 
ENDBRANCH  18  23
ENDBRANCH  13  18
ENDBRANCH  11  12
ENDBRANCH   7  11
ENDBRANCH   3   6
ENDBRANCH   1   2
BRANCH   1  25
ATOM     25  C   UNL A   1      31.841  30.348  26.847  1.00  0.00     0.023 C 
BRANCH  25  26
ATOM     26  C   UNL A   1      31.672  31.854  26.696  1.00  0.00     0.023 C 
BRANCH  26  27
ATOM     27  C   UNL A   1      32.801  32.689  27.296  1.00  0.00     0.116 C 
BRANCH  27  28
ATOM     28  N   UNL A   1      32.415  34.057  27.615  1.00  0.00    -0.352 N 
ATOM     29  C   UNL A   1      32.972  34.918  28.531  1.00  0.00     0.251 C 
ATOM     30  H   UNL A   1      31.652  34.413  27.106  1.00  0.00     0.163 HD
ATOM     31  O   UNL A   1      32.463  36.012  28.761  1.00  0.00    -0.269 OA
BRANCH  29  32
ATOM     32  C   UNL A   1      34.171  34.486  29.275  1.00  0.00     0.039 A 
ATOM     33  C   UNL A   1      34.018  33.927  30.546  1.00  0.00     0.014 A 
ATOM     34  C   UNL A   1      35.432  34.562  28.679  1.00  0.00     0.014 A 
ATOM     35  C   UNL A   1      35.121  33.353  31.178  1.00  0.00     0.010 A 
ATOM     36  C   UNL A   1      36.510  33.917  29.274  1.00  0.00     0.010 A 
ATOM     37  C   UNL A   1      36.363  33.296  30.523  1.00  0.00    -0.014 A 
BRANCH  37  38
ATOM     38  C   UNL A   1      37.512  32.565  31.111  1.00  0.00     0.031 A 
ATOM     39  C   UNL A   1      38.146  33.054  32.384  1.00  0.00     0.074 A 
ATOM     40  C   UNL A   1      38.040  31.513  30.455  1.00  0.00     0.049 A 
ATOM     41  N   UNL A   1      39.200  32.595  33.009  1.00  0.00    -0.248 NA
ATOM     42  C   UNL A   1      37.532  34.229  33.023  1.00  0.00     0.031 C 
ATOM     43  C   UNL A   1      37.550  30.968  29.185  1.00  0.00     0.029 A 
ATOM     44  N   UNL A   1      39.115  30.716  30.763  1.00  0.00    -0.354 N 
ATOM     45  C   UNL A   1      39.391  33.440  34.095  1.00  0.00     0.074 A 
ATOM     46  C   UNL A   1      38.369  34.462  34.023  1.00  0.00     0.031 C 
ATOM     47  C   UNL A   1      38.303  29.911  28.841  1.00  0.00     0.029 A 
ATOM     48  C   UNL A   1      39.352  29.727  29.838  1.00  0.00     0.049 A 
ATOM     49  H   UNL A   1      39.665  30.841  31.569  1.00  0.00     0.167 HD
ATOM     50  C   UNL A   1      40.321  33.361  35.074  1.00  0.00     0.031 A 
ATOM     51  C   UNL A   1      40.310  28.782  29.795  1.00  0.00     0.031 A 
ATOM     52  C   UNL A   1      41.319  32.331  35.163  1.00  0.00     0.049 A 
ATOM     53  C   UNL A   1      41.333  28.722  30.895  1.00  0.00     0.074 A 
ATOM     54  C   UNL A   1      42.251  32.119  36.164  1.00  0.00     0.029 A 
ATOM     55  N   UNL A   1      41.517  31.342  34.213  1.00  0.00    -0.354 N 
ATOM     56  N   UNL A   1      41.444  29.475  31.961  1.00  0.00    -0.248 NA
ATOM     57  C   UNL A   1      42.359  27.675  30.787  1.00  0.00     0.031 C 
ATOM     58  C   UNL A   1      43.046  31.030  35.795  1.00  0.00     0.029 A 
ATOM     59  C   UNL A   1      42.576  30.534  34.590  1.00  0.00     0.049 A 
ATOM     60  H   UNL A   1      40.984  31.230  33.393  1.00  0.00     0.167 HD
ATOM     61  C   UNL A   1      42.531  28.975  32.665  1.00  0.00     0.074 A 
ATOM     62  C   UNL A   1      43.037  27.847  31.913  1.00  0.00     0.031 C 
ATOM     63  C   UNL A   1      43.063  29.412  33.832  1.00  0.00     0.031 A 
BRANCH  50  64
ATOM     64  C   UNL A   1      40.307  34.430  36.131  1.00  0.00    -0.014 A 
ATOM     65  C   UNL A   1      39.546  34.286  37.302  1.00  0.00     0.009 A 
ATOM     66  C   UNL A   1      41.103  35.575  35.974  1.00  0.00     0.009 A 
ATOM     67  C   UNL A   1      39.557  35.284  38.278  1.00  0.00     0.001 A 
ATOM     68  C   UNL A   1      41.133  36.558  36.964  1.00  0.00     0.001 A 
ATOM     69  C   UNL A   1      40.354  36.417  38.111  1.00  0.00     0.000 A 
ENDBRANCH  50  64
BRANCH  51  70
ATOM     70  C   UNL A   1      40.348  27.801  28.679  1.00  0.00    -0.014 A 
ATOM     71  C   UNL A   1      41.047  28.099  27.498  1.00  0.00     0.009 A 
ATOM     72  C   UNL A   1      39.671  26.577  28.775  1.00  0.00     0.009 A 
ATOM     73  C   UNL A   1      41.038  27.206  26.425  1.00  0.00     0.001 A 
ATOM     74  C   UNL A   1      39.686  25.673  27.709  1.00  0.00     0.001 A 
ATOM     75  C   UNL A   1      40.360  25.993  26.533  1.00  0.00     0.000 A 
ENDBRANCH  51  70
BRANCH  63  76
ATOM     76  C   UNL A   1      44.230  28.645  34.385  1.00  0.00    -0.014 A 
ATOM     77  C   UNL A   1      45.550  29.014  34.087  1.00  0.00     0.009 A 
ATOM     78  C   UNL A   1      44.002  27.566  35.253  1.00  0.00     0.009 A 
ATOM     79  C   UNL A   1      46.620  28.297  34.626  1.00  0.00     0.001 A 
ATOM     80  C   UNL A   1      45.073  26.868  35.811  1.00  0.00     0.001 A 
ATOM     81  C   UNL A   1      46.381  27.230  35.490  1.00  0.00     0.000 A 
ENDBRANCH  63  76
ENDBRANCH  37  38
ENDBRANCH  29  32
ENDBRANCH  27  28
ENDBRANCH  26  27
ENDBRANCH  25  26
ENDBRANCH   1  25
TORSDOF 17
ENDMDL
MODEL 3
REMARK VINA RESULT:     -10.1      2.513      7.734
REMARK SMILES CCC(CC)(CC)NC(=O)NC[C@@H]1CC[C@H](C(=O)NCCCCNC(=O)c2ccc(-c3c4nc(c(-c5ccccc5)c5ccc([nH]5)c(-c5ccccc5)c5nc(c(-c6ccccc6)c6ccc3[nH]6)C=C5)C=C4)cc2)O1
REMARK SMILES IDX 20 1 19 2 17 3 18 4 16 6 13 7 14 8 75 9 15 10 12 11 11 12
REMARK SMILES IDX 8 13 9 14 10 16 3 18 2 19 1 20 4 21 5 22 6 23 7 24 21 25
REMARK SMILES IDX 22 26 23 27 24 28 25 29 26 31 27 32 28 33 74 34 29 35 73 36
REMARK SMILES IDX 30 37 31 38 32 39 67 40 33 41 72 42 66 43 68 44 34 45 71 46
REMARK SMILES IDX 65 47 64 48 35 50 57 51 42 52 56 53 43 54 46 55 55 56 69 57
REMARK SMILES IDX 44 58 45 59 54 61 70 62 47 63 36 64 37 65 41 66 38 67 40 68
REMARK SMILES IDX 39 69 58 70 59 71 63 72 60 73 62 74 61 75 48 76 49 77 53 78
REMARK SMILES IDX 50 79 52 80 51 81
REMARK H PARENT 19 5 8 15 11 17 24 30 68 49 46 60
REMARK Flexibility Score: inf
ROOT
ATOM      1  C   UNL A   1      37.368  22.227  25.291  1.00  0.00     0.116 C 
ENDROOT
BRANCH   1   2
ATOM      2  N   UNL A   1      36.351  22.265  26.311  1.00  0.00    -0.354 N 
ATOM      3  C   UNL A   1      35.086  21.751  26.268  1.00  0.00     0.249 C 
ATOM      4  O   UNL A   1      34.420  21.808  27.307  1.00  0.00    -0.272 OA
ATOM      5  H   UNL A   1      36.601  22.720  27.148  1.00  0.00     0.163 HD
BRANCH   3   6
ATOM      6  C   UNL A   1      34.490  21.126  24.975  1.00  0.00     0.207 C 
ATOM      7  C   UNL A   1      32.721  21.613  23.502  1.00  0.00     0.138 C 
ATOM      8  C   UNL A   1      32.176  20.614  24.514  1.00  0.00     0.037 C 
ATOM      9  O   UNL A   1      33.962  22.060  24.036  1.00  0.00    -0.363 OA
ATOM     10  C   UNL A   1      33.422  20.070  25.199  1.00  0.00     0.045 C 
BRANCH   7  11
ATOM     11  C   UNL A   1      31.810  22.809  23.092  1.00  0.00     0.149 C 
BRANCH  11  12
ATOM     12  N   UNL A   1      32.339  23.740  22.093  1.00  0.00    -0.336 N 
ATOM     13  N   UNL A   1      32.836  25.974  22.855  1.00  0.00    -0.333 N 
ATOM     14  C   UNL A   1      32.817  24.974  21.983  1.00  0.00     0.315 C 
ATOM     15  H   UNL A   1      33.321  26.728  22.447  1.00  0.00     0.165 HD
ATOM     16  O   UNL A   1      33.300  25.237  20.870  1.00  0.00    -0.249 OA
ATOM     17  H   UNL A   1      32.341  23.306  21.208  1.00  0.00     0.165 HD
BRANCH  13  18
ATOM     18  C   UNL A   1      32.399  26.387  24.222  1.00  0.00     0.041 C 
BRANCH  18  19
ATOM     19  C   UNL A   1      32.627  27.884  24.495  1.00  0.00     0.025 C 
ATOM     20  C   UNL A   1      33.948  28.398  23.921  1.00  0.00     0.006 C 
ENDBRANCH  18  19
BRANCH  18  21
ATOM     21  C   UNL A   1      33.303  25.580  25.251  1.00  0.00     0.025 C 
ATOM     22  C   UNL A   1      32.566  24.573  26.144  1.00  0.00     0.006 C 
ENDBRANCH  18  21
BRANCH  18  23
ATOM     23  C   UNL A   1      30.930  25.939  24.508  1.00  0.00     0.025 C 
ATOM     24  C   UNL A   1      29.809  26.831  23.996  1.00  0.00     0.006 C 
ENDBRANCH  18  23
ENDBRANCH  13  18
ENDBRANCH  11  12
ENDBRANCH   7  11
ENDBRANCH   3   6
ENDBRANCH   1   2
BRANCH   1  25
ATOM     25  C   UNL A   1      38.703  21.709  25.812  1.00  0.00     0.023 C 
BRANCH  25  26
ATOM     26  C   UNL A   1      39.093  20.347  25.252  1.00  0.00     0.023 C 
BRANCH  26  27
ATOM     27  C   UNL A   1      39.756  19.407  26.257  1.00  0.00     0.116 C 
BRANCH  27  28
ATOM     28  N   UNL A   1      41.089  18.972  25.864  1.00  0.00    -0.352 N 
ATOM     29  C   UNL A   1      42.268  19.679  25.888  1.00  0.00     0.251 C 
ATOM     30  H   UNL A   1      41.155  18.046  25.536  1.00  0.00     0.163 HD
ATOM     31  O   UNL A   1      43.300  19.203  25.421  1.00  0.00    -0.269 OA
BRANCH  29  32
ATOM     32  C   UNL A   1      42.266  21.046  26.443  1.00  0.00     0.039 A 
ATOM     33  C   UNL A   1      42.206  21.216  27.828  1.00  0.00     0.014 A 
ATOM     34  C   UNL A   1      42.405  22.148  25.596  1.00  0.00     0.014 A 
ATOM     35  C   UNL A   1      42.386  22.490  28.369  1.00  0.00     0.010 A 
ATOM     36  C   UNL A   1      42.666  23.400  26.140  1.00  0.00     0.010 A 
ATOM     37  C   UNL A   1      42.671  23.581  27.531  1.00  0.00    -0.014 A 
BRANCH  37  38
ATOM     38  C   UNL A   1      43.008  24.914  28.089  1.00  0.00     0.031 A 
ATOM     39  C   UNL A   1      41.922  25.924  28.340  1.00  0.00     0.074 A 
ATOM     40  C   UNL A   1      44.299  25.247  28.289  1.00  0.00     0.049 A 
ATOM     41  N   UNL A   1      42.027  27.161  28.752  1.00  0.00    -0.248 NA
ATOM     42  C   UNL A   1      40.541  25.496  28.067  1.00  0.00     0.031 C 
ATOM     43  C   UNL A   1      45.451  24.376  28.038  1.00  0.00     0.029 A 
ATOM     44  N   UNL A   1      44.861  26.415  28.742  1.00  0.00    -0.354 N 
ATOM     45  C   UNL A   1      40.734  27.666  28.759  1.00  0.00     0.074 A 
ATOM     46  C   UNL A   1      39.865  26.616  28.273  1.00  0.00     0.031 C 
ATOM     47  C   UNL A   1      46.576  25.029  28.369  1.00  0.00     0.029 A 
ATOM     48  C   UNL A   1      46.233  26.376  28.815  1.00  0.00     0.049 A 
ATOM     49  H   UNL A   1      44.331  27.206  28.992  1.00  0.00     0.167 HD
ATOM     50  C   UNL A   1      40.305  28.888  29.152  1.00  0.00     0.031 A 
ATOM     51  C   UNL A   1      47.115  27.320  29.191  1.00  0.00     0.031 A 
ATOM     52  C   UNL A   1      41.163  29.923  29.661  1.00  0.00     0.049 A 
ATOM     53  C   UNL A   1      46.609  28.670  29.618  1.00  0.00     0.074 A 
ATOM     54  C   UNL A   1      40.810  31.163  30.163  1.00  0.00     0.029 A 
ATOM     55  N   UNL A   1      42.543  29.839  29.729  1.00  0.00    -0.354 N 
ATOM     56  N   UNL A   1      45.375  29.100  29.703  1.00  0.00    -0.248 NA
ATOM     57  C   UNL A   1      47.622  29.662  30.009  1.00  0.00     0.031 C 
ATOM     58  C   UNL A   1      41.983  31.850  30.490  1.00  0.00     0.029 A 
ATOM     59  C   UNL A   1      43.061  31.018  30.238  1.00  0.00     0.049 A 
ATOM     60  H   UNL A   1      43.077  29.057  29.457  1.00  0.00     0.167 HD
ATOM     61  C   UNL A   1      45.460  30.400  30.184  1.00  0.00     0.074 A 
ATOM     62  C   UNL A   1      46.865  30.683  30.386  1.00  0.00     0.031 C 
ATOM     63  C   UNL A   1      44.462  31.280  30.437  1.00  0.00     0.031 A 
BRANCH  50  64
ATOM     64  C   UNL A   1      38.834  29.176  29.038  1.00  0.00    -0.014 A 
ATOM     65  C   UNL A   1      37.977  29.034  30.141  1.00  0.00     0.009 A 
ATOM     66  C   UNL A   1      38.307  29.641  27.823  1.00  0.00     0.009 A 
ATOM     67  C   UNL A   1      36.616  29.319  30.019  1.00  0.00     0.001 A 
ATOM     68  C   UNL A   1      36.952  29.951  27.712  1.00  0.00     0.001 A 
ATOM     69  C   UNL A   1      36.105  29.783  28.806  1.00  0.00     0.000 A 
ENDBRANCH  50  64
BRANCH  51  70
ATOM     70  C   UNL A   1      48.572  27.028  29.197  1.00  0.00    -0.014 A 
ATOM     71  C   UNL A   1      49.358  27.323  28.071  1.00  0.00     0.009 A 
ATOM     72  C   UNL A   1      49.181  26.432  30.311  1.00  0.00     0.009 A 
ATOM     73  C   UNL A   1      50.716  26.997  28.050  1.00  0.00     0.001 A 
ATOM     74  C   UNL A   1      50.546  26.132  30.298  1.00  0.00     0.001 A 
ATOM     75  C   UNL A   1      51.308  26.405  29.164  1.00  0.00     0.000 A 
ENDBRANCH  51  70
BRANCH  63  76
ATOM     76  C   UNL A   1      44.852  32.619  30.994  1.00  0.00    -0.014 A 
ATOM     77  C   UNL A   1      45.096  33.714  30.152  1.00  0.00     0.009 A 
ATOM     78  C   UNL A   1      44.931  32.796  32.384  1.00  0.00     0.009 A 
ATOM     79  C   UNL A   1      45.441  34.955  30.693  1.00  0.00     0.001 A 
ATOM     80  C   UNL A   1      45.249  34.043  32.922  1.00  0.00     0.001 A 
ATOM     81  C   UNL A   1      45.512  35.119  32.076  1.00  0.00     0.000 A 
ENDBRANCH  63  76
ENDBRANCH  37  38
ENDBRANCH  29  32
ENDBRANCH  27  28
ENDBRANCH  26  27
ENDBRANCH  25  26
ENDBRANCH   1  25
TORSDOF 17
ENDMDL
