MODEL 1
REMARK VINA RESULT:     -11.3      0.000      0.000
REMARK SMILES CC[C@H]1CC[C@](C(=O)NCCCCNC(=O)c2ccc(-c3c4nc(c(-c5ccccc5)c5ccc([nH]5)c(-c5ccccc5)c5nc(c(-c6ccccc6)c6ccc3[nH]6)C=C5)C=C4)cc2)([C@H]2CCC[C@@H](S(C)(=O)=O)C2)CC1
REMARK SMILES IDX 11 1 10 2 9 3 7 4 8 5 6 7 3 8 76 9 4 10 75 11 5 12 2 13 1 14
REMARK SMILES IDX 65 15 66 16 74 17 67 18 69 19 68 20 70 21 71 22 72 23 73 24
REMARK SMILES IDX 12 25 13 26 14 27 15 28 16 30 17 31 18 32 64 33 19 34 63 35
REMARK SMILES IDX 20 36 21 37 22 38 57 39 23 40 62 41 56 42 58 43 24 44 61 45
REMARK SMILES IDX 55 46 54 47 25 49 47 50 32 51 46 52 33 53 36 54 45 55 59 56
REMARK SMILES IDX 34 57 35 58 44 60 60 61 37 62 26 63 27 64 31 65 28 66 30 67
REMARK SMILES IDX 29 68 48 69 49 70 53 71 50 72 52 73 51 74 38 75 39 76 43 77
REMARK SMILES IDX 40 78 42 79 41 80
REMARK H PARENT 9 6 14 29 58 48 36 59
REMARK Flexibility Score: inf
ROOT
ATOM      1  C   UNL A   1      37.416  22.785  24.813  1.00  0.00     0.023 C 
ENDROOT
BRANCH   1   2
ATOM      2  C   UNL A   1      37.156  23.690  26.006  1.00  0.00     0.116 C 
BRANCH   2   3
ATOM      3  N   UNL A   1      36.077  23.260  26.837  1.00  0.00    -0.356 N 
ATOM      4  C   UNL A   1      34.740  23.233  26.679  1.00  0.00     0.226 C 
ATOM      5  O   UNL A   1      34.184  22.691  27.640  1.00  0.00    -0.274 OA
ATOM      6  H   UNL A   1      36.373  22.909  27.708  1.00  0.00     0.163 HD
BRANCH   4   7
ATOM      7  C   UNL A   1      33.905  23.693  25.451  1.00  0.00     0.052 C 
ATOM      8  C   UNL A   1      32.434  26.403  25.885  1.00  0.00    -0.011 C 
ATOM      9  C   UNL A   1      33.959  26.278  25.766  1.00  0.00     0.005 C 
ATOM     10  C   UNL A   1      31.691  25.070  26.094  1.00  0.00     0.005 C 
ATOM     11  C   UNL A   1      34.426  25.069  24.963  1.00  0.00     0.017 C 
ATOM     12  C   UNL A   1      32.366  23.770  25.650  1.00  0.00     0.017 C 
BRANCH   8  13
ATOM     13  C   UNL A   1      31.997  27.386  27.005  1.00  0.00    -0.000 C 
ATOM     14  C   UNL A   1      32.948  28.540  27.274  1.00  0.00     0.004 C 
ENDBRANCH   8  13
BRANCH   7  15
ATOM     15  C   UNL A   1      34.146  22.615  24.248  1.00  0.00     0.006 C 
ATOM     16  C   UNL A   1      33.193  21.406  24.108  1.00  0.00     0.005 C 
ATOM     17  C   UNL A   1      34.498  23.173  22.849  1.00  0.00     0.024 C 
ATOM     18  C   UNL A   1      32.040  21.507  23.107  1.00  0.00     0.002 C 
ATOM     19  C   UNL A   1      33.363  23.375  21.841  1.00  0.00     0.108 C 
ATOM     20  C   UNL A   1      32.323  22.258  21.809  1.00  0.00     0.020 C 
BRANCH  19  21
ATOM     21  S   UNL A   1      32.783  25.088  21.722  1.00  0.00     0.150 S 
ATOM     22  C   UNL A   1      32.311  25.444  20.045  1.00  0.00     0.158 C 
ATOM     23  O   UNL A   1      31.600  25.254  22.547  1.00  0.00    -0.229 OA
ATOM     24  O   UNL A   1      33.932  25.940  21.993  1.00  0.00    -0.229 OA
ENDBRANCH  19  21
ENDBRANCH   7  15
ENDBRANCH   4   7
ENDBRANCH   2   3
ENDBRANCH   1   2
BRANCH   1  25
ATOM     25  C   UNL A   1      37.796  21.353  25.174  1.00  0.00     0.023 C 
BRANCH  25  26
ATOM     26  C   UNL A   1      39.009  21.210  26.087  1.00  0.00     0.116 C 
BRANCH  26  27
ATOM     27  N   UNL A   1      39.847  20.047  25.817  1.00  0.00    -0.352 N 
ATOM     28  C   UNL A   1      41.191  19.901  26.063  1.00  0.00     0.251 C 
ATOM     29  H   UNL A   1      39.394  19.273  25.408  1.00  0.00     0.163 HD
ATOM     30  O   UNL A   1      41.781  18.862  25.793  1.00  0.00    -0.269 OA
BRANCH  28  31
ATOM     31  C   UNL A   1      41.923  21.062  26.599  1.00  0.00     0.039 A 
ATOM     32  C   UNL A   1      42.356  22.042  25.705  1.00  0.00     0.014 A 
ATOM     33  C   UNL A   1      42.043  21.240  27.980  1.00  0.00     0.014 A 
ATOM     34  C   UNL A   1      42.822  23.257  26.203  1.00  0.00     0.010 A 
ATOM     35  C   UNL A   1      42.438  22.478  28.470  1.00  0.00     0.010 A 
ATOM     36  C   UNL A   1      42.813  23.501  27.585  1.00  0.00    -0.014 A 
BRANCH  36  37
ATOM     37  C   UNL A   1      43.165  24.833  28.130  1.00  0.00     0.031 A 
ATOM     38  C   UNL A   1      42.089  25.850  28.373  1.00  0.00     0.074 A 
ATOM     39  C   UNL A   1      44.460  25.152  28.324  1.00  0.00     0.049 A 
ATOM     40  N   UNL A   1      42.203  27.093  28.766  1.00  0.00    -0.248 NA
ATOM     41  C   UNL A   1      40.706  25.425  28.107  1.00  0.00     0.031 C 
ATOM     42  C   UNL A   1      45.602  24.270  28.075  1.00  0.00     0.029 A 
ATOM     43  N   UNL A   1      45.032  26.316  28.773  1.00  0.00    -0.354 N 
ATOM     44  C   UNL A   1      40.914  27.605  28.762  1.00  0.00     0.074 A 
ATOM     45  C   UNL A   1      40.039  26.554  28.290  1.00  0.00     0.031 C 
ATOM     46  C   UNL A   1      46.735  24.911  28.407  1.00  0.00     0.029 A 
ATOM     47  C   UNL A   1      46.401  26.258  28.860  1.00  0.00     0.049 A 
ATOM     48  H   UNL A   1      44.509  27.116  29.010  1.00  0.00     0.167 HD
ATOM     49  C   UNL A   1      40.491  28.837  29.134  1.00  0.00     0.031 A 
ATOM     50  C   UNL A   1      47.288  27.186  29.263  1.00  0.00     0.031 A 
ATOM     51  C   UNL A   1      41.354  29.869  29.636  1.00  0.00     0.049 A 
ATOM     52  C   UNL A   1      46.791  28.534  29.701  1.00  0.00     0.074 A 
ATOM     53  C   UNL A   1      41.014  31.124  30.110  1.00  0.00     0.029 A 
ATOM     54  N   UNL A   1      42.733  29.761  29.736  1.00  0.00    -0.354 N 
ATOM     55  N   UNL A   1      45.561  28.983  29.751  1.00  0.00    -0.248 NA
ATOM     56  C   UNL A   1      47.807  29.498  30.145  1.00  0.00     0.031 C 
ATOM     57  C   UNL A   1      42.193  31.787  30.472  1.00  0.00     0.029 A 
ATOM     58  C   UNL A   1      43.260  30.930  30.254  1.00  0.00     0.049 A 
ATOM     59  H   UNL A   1      43.258  28.970  29.478  1.00  0.00     0.167 HD
ATOM     60  C   UNL A   1      45.652  30.272  30.257  1.00  0.00     0.074 A 
ATOM     61  C   UNL A   1      47.056  30.530  30.505  1.00  0.00     0.031 C 
ATOM     62  C   UNL A   1      44.659  31.164  30.496  1.00  0.00     0.031 A 
BRANCH  49  63
ATOM     63  C   UNL A   1      39.023  29.121  29.004  1.00  0.00    -0.014 A 
ATOM     64  C   UNL A   1      38.473  29.557  27.789  1.00  0.00     0.009 A 
ATOM     65  C   UNL A   1      38.180  28.953  30.112  1.00  0.00     0.009 A 
ATOM     66  C   UNL A   1      37.114  29.859  27.696  1.00  0.00     0.001 A 
ATOM     67  C   UNL A   1      36.816  29.232  30.011  1.00  0.00     0.001 A 
ATOM     68  C   UNL A   1      36.286  29.695  28.806  1.00  0.00     0.000 A 
ENDBRANCH  49  63
BRANCH  50  69
ATOM     69  C   UNL A   1      48.735  26.862  29.310  1.00  0.00    -0.014 A 
ATOM     70  C   UNL A   1      49.552  27.127  28.200  1.00  0.00     0.009 A 
ATOM     71  C   UNL A   1      49.308  26.287  30.456  1.00  0.00     0.009 A 
ATOM     72  C   UNL A   1      50.909  26.802  28.226  1.00  0.00     0.001 A 
ATOM     73  C   UNL A   1      50.671  25.983  30.485  1.00  0.00     0.001 A 
ATOM     74  C   UNL A   1      51.469  26.233  29.370  1.00  0.00     0.000 A 
ENDBRANCH  50  69
BRANCH  62  75
ATOM     75  C   UNL A   1      45.057  32.484  31.086  1.00  0.00    -0.014 A 
ATOM     76  C   UNL A   1      45.341  33.586  30.266  1.00  0.00     0.009 A 
ATOM     77  C   UNL A   1      45.109  32.634  32.480  1.00  0.00     0.009 A 
ATOM     78  C   UNL A   1      45.695  34.811  30.835  1.00  0.00     0.001 A 
ATOM     79  C   UNL A   1      45.443  33.865  33.045  1.00  0.00     0.001 A 
ATOM     80  C   UNL A   1      45.742  34.950  32.222  1.00  0.00     0.000 A 
ENDBRANCH  62  75
ENDBRANCH  36  37
ENDBRANCH  28  31
ENDBRANCH  26  27
ENDBRANCH  25  26
ENDBRANCH   1  25
TORSDOF 14
ENDMDL
MODEL 2
REMARK VINA RESULT:     -11.3      3.489      8.523
REMARK SMILES CC[C@H]1CC[C@](C(=O)NCCCCNC(=O)c2ccc(-c3c4nc(c(-c5ccccc5)c5ccc([nH]5)c(-c5ccccc5)c5nc(c(-c6ccccc6)c6ccc3[nH]6)C=C5)C=C4)cc2)([C@H]2CCC[C@@H](S(C)(=O)=O)C2)CC1
REMARK SMILES IDX 11 1 10 2 9 3 7 4 8 5 6 7 3 8 76 9 4 10 75 11 5 12 2 13 1 14
REMARK SMILES IDX 65 15 66 16 74 17 67 18 69 19 68 20 70 21 71 22 72 23 73 24
REMARK SMILES IDX 12 25 13 26 14 27 15 28 16 30 17 31 18 32 64 33 19 34 63 35
REMARK SMILES IDX 20 36 21 37 22 38 57 39 23 40 62 41 56 42 58 43 24 44 61 45
REMARK SMILES IDX 55 46 54 47 25 49 47 50 32 51 46 52 33 53 36 54 45 55 59 56
REMARK SMILES IDX 34 57 35 58 44 60 60 61 37 62 26 63 27 64 31 65 28 66 30 67
REMARK SMILES IDX 29 68 48 69 49 70 53 71 50 72 52 73 51 74 38 75 39 76 43 77
REMARK SMILES IDX 40 78 42 79 41 80
REMARK H PARENT 9 6 14 29 58 48 36 59
REMARK Flexibility Score: inf
ROOT
ATOM      1  C   UNL A   1      32.632  29.571  27.240  1.00  0.00     0.023 C 
ENDROOT
BRANCH   1   2
ATOM      2  C   UNL A   1      34.032  29.097  26.886  1.00  0.00     0.116 C 
BRANCH   2   3
ATOM      3  N   UNL A   1      34.274  29.001  25.482  1.00  0.00    -0.356 N 
ATOM      4  C   UNL A   1      33.882  28.131  24.531  1.00  0.00     0.226 C 
ATOM      5  O   UNL A   1      34.266  28.484  23.412  1.00  0.00    -0.274 OA
ATOM      6  H   UNL A   1      34.848  29.722  25.136  1.00  0.00     0.163 HD
BRANCH   4   7
ATOM      7  C   UNL A   1      32.977  26.876  24.687  1.00  0.00     0.052 C 
ATOM      8  C   UNL A   1      34.483  24.187  24.252  1.00  0.00    -0.011 C 
ATOM      9  C   UNL A   1      34.725  25.106  25.457  1.00  0.00     0.005 C 
ATOM     10  C   UNL A   1      33.679  24.824  23.105  1.00  0.00     0.005 C 
ATOM     11  C   UNL A   1      33.532  25.982  25.825  1.00  0.00     0.017 C 
ATOM     12  C   UNL A   1      32.765  26.013  23.413  1.00  0.00     0.017 C 
BRANCH   8  13
ATOM     13  C   UNL A   1      35.800  23.609  23.664  1.00  0.00    -0.000 C 
ATOM     14  C   UNL A   1      36.908  23.346  24.669  1.00  0.00     0.004 C 
ENDBRANCH   8  13
BRANCH   7  15
ATOM     15  C   UNL A   1      31.491  27.383  25.134  1.00  0.00     0.006 C 
ATOM     16  C   UNL A   1      30.423  27.659  24.050  1.00  0.00     0.005 C 
ATOM     17  C   UNL A   1      30.837  26.692  26.354  1.00  0.00     0.024 C 
ATOM     18  C   UNL A   1      29.406  26.559  23.742  1.00  0.00     0.002 C 
ATOM     19  C   UNL A   1      29.877  25.526  26.099  1.00  0.00     0.108 C 
ATOM     20  C   UNL A   1      28.923  25.721  24.923  1.00  0.00     0.020 C 
BRANCH  19  21
ATOM     21  S   UNL A   1      30.629  23.893  26.329  1.00  0.00     0.150 S 
ATOM     22  C   UNL A   1      29.418  22.762  26.975  1.00  0.00     0.158 C 
ATOM     23  O   UNL A   1      31.059  23.375  25.042  1.00  0.00    -0.229 OA
ATOM     24  O   UNL A   1      31.628  24.035  27.378  1.00  0.00    -0.229 OA
ENDBRANCH  19  21
ENDBRANCH   7  15
ENDBRANCH   4   7
ENDBRANCH   2   3
ENDBRANCH   1   2
BRANCH   1  25
ATOM     25  C   UNL A   1      32.314  30.996  26.799  1.00  0.00     0.023 C 
BRANCH  25  26
ATOM     26  C   UNL A   1      33.314  32.056  27.247  1.00  0.00     0.116 C 
BRANCH  26  27
ATOM     27  N   UNL A   1      32.718  33.298  27.727  1.00  0.00    -0.352 N 
ATOM     28  C   UNL A   1      33.253  34.200  28.615  1.00  0.00     0.251 C 
ATOM     29  H   UNL A   1      31.825  33.515  27.373  1.00  0.00     0.163 HD
ATOM     30  O   UNL A   1      32.648  35.217  28.935  1.00  0.00    -0.269 OA
BRANCH  28  31
ATOM     31  C   UNL A   1      34.551  33.875  29.231  1.00  0.00     0.039 A 
ATOM     32  C   UNL A   1      34.560  33.068  30.369  1.00  0.00     0.014 A 
ATOM     33  C   UNL A   1      35.740  34.245  28.598  1.00  0.00     0.014 A 
ATOM     34  C   UNL A   1      35.770  32.542  30.819  1.00  0.00     0.010 A 
ATOM     35  C   UNL A   1      36.933  33.661  29.005  1.00  0.00     0.010 A 
ATOM     36  C   UNL A   1      36.954  32.791  30.107  1.00  0.00    -0.014 A 
BRANCH  36  37
ATOM     37  C   UNL A   1      38.225  32.129  30.479  1.00  0.00     0.031 A 
ATOM     38  C   UNL A   1      39.157  32.792  31.451  1.00  0.00     0.074 A 
ATOM     39  C   UNL A   1      38.578  30.976  29.877  1.00  0.00     0.049 A 
ATOM     40  N   UNL A   1      40.348  32.414  31.839  1.00  0.00    -0.248 NA
ATOM     41  C   UNL A   1      38.705  34.063  32.038  1.00  0.00     0.031 C 
ATOM     42  C   UNL A   1      37.783  30.261  28.876  1.00  0.00     0.029 A 
ATOM     43  N   UNL A   1      39.703  30.206  30.019  1.00  0.00    -0.354 N 
ATOM     44  C   UNL A   1      40.799  33.416  32.687  1.00  0.00     0.074 A 
ATOM     45  C   UNL A   1      39.773  34.435  32.726  1.00  0.00     0.031 C 
ATOM     46  C   UNL A   1      38.430  29.138  28.521  1.00  0.00     0.029 A 
ATOM     47  C   UNL A   1      39.697  29.074  29.242  1.00  0.00     0.049 A 
ATOM     48  H   UNL A   1      40.446  30.443  30.621  1.00  0.00     0.167 HD
ATOM     49  C   UNL A   1      41.958  33.475  33.386  1.00  0.00     0.031 A 
ATOM     50  C   UNL A   1      40.610  28.092  29.127  1.00  0.00     0.031 A 
ATOM     51  C   UNL A   1      42.960  32.447  33.376  1.00  0.00     0.049 A 
ATOM     52  C   UNL A   1      41.872  28.165  29.938  1.00  0.00     0.074 A 
ATOM     53  C   UNL A   1      44.133  32.379  34.107  1.00  0.00     0.029 A 
ATOM     54  N   UNL A   1      42.903  31.302  32.597  1.00  0.00    -0.354 N 
ATOM     55  N   UNL A   1      42.256  29.089  30.784  1.00  0.00    -0.248 NA
ATOM     56  C   UNL A   1      42.822  27.054  29.780  1.00  0.00     0.031 C 
ATOM     57  C   UNL A   1      44.801  31.201  33.749  1.00  0.00     0.029 A 
ATOM     58  C   UNL A   1      44.025  30.524  32.821  1.00  0.00     0.049 A 
ATOM     59  H   UNL A   1      42.172  31.075  31.978  1.00  0.00     0.167 HD
ATOM     60  C   UNL A   1      43.479  28.658  31.281  1.00  0.00     0.074 A 
ATOM     61  C   UNL A   1      43.768  27.388  30.647  1.00  0.00     0.031 C 
ATOM     62  C   UNL A   1      44.291  29.262  32.183  1.00  0.00     0.031 A 
BRANCH  49  63
ATOM     63  C   UNL A   1      42.189  34.703  34.218  1.00  0.00    -0.014 A 
ATOM     64  C   UNL A   1      42.772  35.854  33.665  1.00  0.00     0.009 A 
ATOM     65  C   UNL A   1      41.821  34.708  35.571  1.00  0.00     0.009 A 
ATOM     66  C   UNL A   1      43.021  36.972  34.462  1.00  0.00     0.001 A 
ATOM     67  C   UNL A   1      42.048  35.837  36.361  1.00  0.00     0.001 A 
ATOM     68  C   UNL A   1      42.658  36.963  35.809  1.00  0.00     0.000 A 
ENDBRANCH  49  63
BRANCH  50  69
ATOM     69  C   UNL A   1      40.348  26.932  28.240  1.00  0.00    -0.014 A 
ATOM     70  C   UNL A   1      40.866  26.914  26.935  1.00  0.00     0.009 A 
ATOM     71  C   UNL A   1      39.581  25.843  28.684  1.00  0.00     0.009 A 
ATOM     72  C   UNL A   1      40.603  25.839  26.085  1.00  0.00     0.001 A 
ATOM     73  C   UNL A   1      39.339  24.760  27.836  1.00  0.00     0.001 A 
ATOM     74  C   UNL A   1      39.842  24.761  26.536  1.00  0.00     0.000 A 
ENDBRANCH  50  69
BRANCH  62  75
ATOM     75  C   UNL A   1      45.548  28.537  32.561  1.00  0.00    -0.014 A 
ATOM     76  C   UNL A   1      45.560  27.610  33.613  1.00  0.00     0.009 A 
ATOM     77  C   UNL A   1      46.723  28.757  31.826  1.00  0.00     0.009 A 
ATOM     78  C   UNL A   1      46.737  26.934  33.940  1.00  0.00     0.001 A 
ATOM     79  C   UNL A   1      47.892  28.064  32.142  1.00  0.00     0.001 A 
ATOM     80  C   UNL A   1      47.900  27.158  33.202  1.00  0.00     0.000 A 
ENDBRANCH  62  75
ENDBRANCH  36  37
ENDBRANCH  28  31
ENDBRANCH  26  27
ENDBRANCH  25  26
ENDBRANCH   1  25
TORSDOF 14
ENDMDL
MODEL 3
REMARK VINA RESULT:     -11.1      1.598      6.554
REMARK SMILES CC[C@H]1CC[C@](C(=O)NCCCCNC(=O)c2ccc(-c3c4nc(c(-c5ccccc5)c5ccc([nH]5)c(-c5ccccc5)c5nc(c(-c6ccccc6)c6ccc3[nH]6)C=C5)C=C4)cc2)([C@H]2CCC[C@@H](S(C)(=O)=O)C2)CC1
REMARK SMILES IDX 11 1 10 2 9 3 7 4 8 5 6 7 3 8 76 9 4 10 75 11 5 12 2 13 1 14
REMARK SMILES IDX 65 15 66 16 74 17 67 18 69 19 68 20 70 21 71 22 72 23 73 24
REMARK SMILES IDX 12 25 13 26 14 27 15 28 16 30 17 31 18 32 64 33 19 34 63 35
REMARK SMILES IDX 20 36 21 37 22 38 57 39 23 40 62 41 56 42 58 43 24 44 61 45
REMARK SMILES IDX 55 46 54 47 25 49 47 50 32 51 46 52 33 53 36 54 45 55 59 56
REMARK SMILES IDX 34 57 35 58 44 60 60 61 37 62 26 63 27 64 31 65 28 66 30 67
REMARK SMILES IDX 29 68 48 69 49 70 53 71 50 72 52 73 51 74 38 75 39 76 43 77
REMARK SMILES IDX 40 78 42 79 41 80
REMARK H PARENT 9 6 14 29 58 48 36 59
REMARK Flexibility Score: inf
ROOT
ATOM      1  C   UNL A   1      38.867  23.199  26.534  1.00  0.00     0.023 C 
ENDROOT
BRANCH   1   2
ATOM      2  C   UNL A   1      37.711  23.940  25.883  1.00  0.00     0.116 C 
BRANCH   2   3
ATOM      3  N   UNL A   1      37.420  23.510  24.552  1.00  0.00    -0.356 N 
ATOM      4  C   UNL A   1      36.279  23.202  23.906  1.00  0.00     0.226 C 
ATOM      5  O   UNL A   1      36.490  22.953  22.715  1.00  0.00    -0.274 OA
ATOM      6  H   UNL A   1      38.223  23.420  23.989  1.00  0.00     0.163 HD
BRANCH   4   7
ATOM      7  C   UNL A   1      34.824  23.228  24.454  1.00  0.00     0.052 C 
ATOM      8  C   UNL A   1      33.624  20.397  24.944  1.00  0.00    -0.011 C 
ATOM      9  C   UNL A   1      34.765  20.989  25.783  1.00  0.00     0.005 C 
ATOM     10  C   UNL A   1      33.319  21.158  23.641  1.00  0.00     0.005 C 
ATOM     11  C   UNL A   1      34.782  22.513  25.829  1.00  0.00     0.017 C 
ATOM     12  C   UNL A   1      33.727  22.630  23.531  1.00  0.00     0.017 C 
BRANCH   8  13
ATOM     13  C   UNL A   1      33.850  18.901  24.594  1.00  0.00    -0.000 C 
ATOM     14  C   UNL A   1      32.619  18.142  24.129  1.00  0.00     0.004 C 
ENDBRANCH   8  13
BRANCH   7  15
ATOM     15  C   UNL A   1      34.406  24.788  24.691  1.00  0.00     0.006 C 
ATOM     16  C   UNL A   1      33.819  25.606  23.517  1.00  0.00     0.005 C 
ATOM     17  C   UNL A   1      33.659  25.136  26.001  1.00  0.00     0.024 C 
ATOM     18  C   UNL A   1      32.298  25.736  23.417  1.00  0.00     0.002 C 
ATOM     19  C   UNL A   1      32.129  25.192  25.971  1.00  0.00     0.108 C 
ATOM     20  C   UNL A   1      31.532  25.856  24.732  1.00  0.00     0.020 C 
BRANCH  19  21
ATOM     21  S   UNL A   1      31.327  23.698  26.611  1.00  0.00     0.150 S 
ATOM     22  C   UNL A   1      30.916  22.615  25.261  1.00  0.00     0.158 C 
ATOM     23  O   UNL A   1      32.254  22.984  27.469  1.00  0.00    -0.229 OA
ATOM     24  O   UNL A   1      30.052  24.115  27.177  1.00  0.00    -0.229 OA
ENDBRANCH  19  21
ENDBRANCH   7  15
ENDBRANCH   4   7
ENDBRANCH   2   3
ENDBRANCH   1   2
BRANCH   1  25
ATOM     25  C   UNL A   1      39.156  21.825  25.937  1.00  0.00     0.023 C 
BRANCH  25  26
ATOM     26  C   UNL A   1      40.016  20.907  26.799  1.00  0.00     0.116 C 
BRANCH  26  27
ATOM     27  N   UNL A   1      40.999  20.119  26.063  1.00  0.00    -0.352 N 
ATOM     28  C   UNL A   1      42.322  20.418  25.840  1.00  0.00     0.251 C 
ATOM     29  H   UNL A   1      40.675  19.271  25.681  1.00  0.00     0.163 HD
ATOM     30  O   UNL A   1      43.049  19.662  25.206  1.00  0.00    -0.269 OA
BRANCH  28  31
ATOM     31  C   UNL A   1      42.828  21.713  26.326  1.00  0.00     0.039 A 
ATOM     32  C   UNL A   1      42.993  22.747  25.404  1.00  0.00     0.014 A 
ATOM     33  C   UNL A   1      42.989  21.935  27.696  1.00  0.00     0.014 A 
ATOM     34  C   UNL A   1      43.226  24.041  25.867  1.00  0.00     0.010 A 
ATOM     35  C   UNL A   1      43.146  23.235  28.157  1.00  0.00     0.010 A 
ATOM     36  C   UNL A   1      43.248  24.300  27.247  1.00  0.00    -0.014 A 
BRANCH  36  37
ATOM     37  C   UNL A   1      43.347  25.684  27.764  1.00  0.00     0.031 A 
ATOM     38  C   UNL A   1      44.692  26.266  28.092  1.00  0.00     0.074 A 
ATOM     39  C   UNL A   1      42.224  26.383  28.019  1.00  0.00     0.049 A 
ATOM     40  N   UNL A   1      44.980  27.423  28.629  1.00  0.00    -0.248 NA
ATOM     41  C   UNL A   1      45.863  25.421  27.809  1.00  0.00     0.031 C 
ATOM     42  C   UNL A   1      40.856  25.909  27.794  1.00  0.00     0.029 A 
ATOM     43  N   UNL A   1      42.057  27.645  28.530  1.00  0.00    -0.354 N 
ATOM     44  C   UNL A   1      46.360  27.430  28.779  1.00  0.00     0.074 A 
ATOM     45  C   UNL A   1      46.846  26.150  28.314  1.00  0.00     0.031 C 
ATOM     46  C   UNL A   1      39.992  26.881  28.133  1.00  0.00     0.029 A 
ATOM     47  C   UNL A   1      40.743  28.030  28.629  1.00  0.00     0.049 A 
ATOM     48  H   UNL A   1      42.809  28.220  28.802  1.00  0.00     0.167 HD
ATOM     49  C   UNL A   1      47.155  28.422  29.246  1.00  0.00     0.031 A 
ATOM     50  C   UNL A   1      40.203  29.182  29.066  1.00  0.00     0.031 A 
ATOM     51  C   UNL A   1      46.676  29.707  29.674  1.00  0.00     0.049 A 
ATOM     52  C   UNL A   1      41.108  30.279  29.549  1.00  0.00     0.074 A 
ATOM     53  C   UNL A   1      47.408  30.804  30.093  1.00  0.00     0.029 A 
ATOM     54  N   UNL A   1      45.339  30.067  29.732  1.00  0.00    -0.354 N 
ATOM     55  N   UNL A   1      42.417  30.295  29.626  1.00  0.00    -0.248 NA
ATOM     56  C   UNL A   1      40.460  31.519  29.999  1.00  0.00     0.031 C 
ATOM     57  C   UNL A   1      46.508  31.823  30.431  1.00  0.00     0.029 A 
ATOM     58  C   UNL A   1      45.222  31.368  30.189  1.00  0.00     0.049 A 
ATOM     59  H   UNL A   1      44.585  29.486  29.483  1.00  0.00     0.167 HD
ATOM     60  C   UNL A   1      42.750  31.554  30.106  1.00  0.00     0.074 A 
ATOM     61  C   UNL A   1      41.508  32.275  30.296  1.00  0.00     0.031 C 
ATOM     62  C   UNL A   1      43.977  32.068  30.367  1.00  0.00     0.031 A 
BRANCH  49  63
ATOM     63  C   UNL A   1      48.628  28.140  29.313  1.00  0.00    -0.014 A 
ATOM     64  C   UNL A   1      49.472  28.426  28.229  1.00  0.00     0.009 A 
ATOM     65  C   UNL A   1      49.177  27.579  30.475  1.00  0.00     0.009 A 
ATOM     66  C   UNL A   1      50.831  28.117  28.291  1.00  0.00     0.001 A 
ATOM     67  C   UNL A   1      50.542  27.293  30.544  1.00  0.00     0.001 A 
ATOM     68  C   UNL A   1      51.365  27.552  29.449  1.00  0.00     0.000 A 
ENDBRANCH  49  63
BRANCH  50  69
ATOM     69  C   UNL A   1      38.733  29.377  29.031  1.00  0.00    -0.014 A 
ATOM     70  C   UNL A   1      37.971  29.194  30.196  1.00  0.00     0.009 A 
ATOM     71  C   UNL A   1      38.082  29.741  27.842  1.00  0.00     0.009 A 
ATOM     72  C   UNL A   1      36.585  29.349  30.166  1.00  0.00     0.001 A 
ATOM     73  C   UNL A   1      36.697  29.916  27.821  1.00  0.00     0.001 A 
ATOM     74  C   UNL A   1      35.948  29.714  28.980  1.00  0.00     0.000 A 
ENDBRANCH  50  69
BRANCH  62  75
ATOM     75  C   UNL A   1      44.033  33.486  30.851  1.00  0.00    -0.014 A 
ATOM     76  C   UNL A   1      44.086  34.557  29.947  1.00  0.00     0.009 A 
ATOM     77  C   UNL A   1      43.992  33.751  32.228  1.00  0.00     0.009 A 
ATOM     78  C   UNL A   1      44.122  35.871  30.417  1.00  0.00     0.001 A 
ATOM     79  C   UNL A   1      44.007  35.066  32.693  1.00  0.00     0.001 A 
ATOM     80  C   UNL A   1      44.079  36.124  31.788  1.00  0.00     0.000 A 
ENDBRANCH  62  75
ENDBRANCH  36  37
ENDBRANCH  28  31
ENDBRANCH  26  27
ENDBRANCH  25  26
ENDBRANCH   1  25
TORSDOF 14
ENDMDL
