MODEL 1
REMARK VINA RESULT:      -9.9      0.000      0.000
REMARK SMILES C[NH2+][C@]1(C(=O)NCCCCNC(=O)c2ccc(-c3c4nc(c(-c5ccccc5)c5ccc([nH]5)c(-c5ccccc5)c5nc(c(-c6ccccc6)c6ccc3[nH]6)C=C5)C=C4)cc2)CCC[C@H]([N@H+](C)C2CC2)C1
REMARK SMILES IDX 8 1 7 2 6 3 4 4 5 5 3 7 62 8 71 9 63 10 65 11 64 12 2 13
REMARK SMILES IDX 1 14 66 17 67 18 68 20 69 21 70 22 9 23 10 24 11 25 12 26
REMARK SMILES IDX 13 28 14 29 15 30 61 31 16 32 60 33 17 34 18 35 19 36 54 37
REMARK SMILES IDX 20 38 59 39 53 40 55 41 21 42 58 43 52 44 51 45 22 47 44 48
REMARK SMILES IDX 29 49 43 50 30 51 33 52 42 53 56 54 31 55 32 56 41 58 57 59
REMARK SMILES IDX 34 60 23 61 24 62 28 63 25 64 27 65 26 66 45 67 46 68 50 69
REMARK SMILES IDX 47 70 49 71 48 72 35 73 36 74 40 75 37 76 39 77 38 78
REMARK H PARENT 6 6 2 15 2 16 66 19 11 27 55 46 33 57
REMARK Flexibility Score: inf
ROOT
ATOM      1  C   UNL A   1      32.761  29.286  24.824  1.00  0.00     0.023 C 
ENDROOT
BRANCH   1   2
ATOM      2  C   UNL A   1      31.506  28.414  24.805  1.00  0.00     0.116 C 
BRANCH   2   3
ATOM      3  N   UNL A   1      31.203  27.923  23.474  1.00  0.00    -0.351 N 
ATOM      4  C   UNL A   1      31.480  26.743  22.852  1.00  0.00     0.281 C 
ATOM      5  O   UNL A   1      31.160  26.679  21.655  1.00  0.00    -0.268 OA
ATOM      6  H   UNL A   1      30.705  28.563  22.916  1.00  0.00     0.163 HD
BRANCH   4   7
ATOM      7  C   UNL A   1      32.174  25.516  23.571  1.00  0.00     0.181 C 
ATOM      8  C   UNL A   1      33.694  25.795  23.626  1.00  0.00     0.079 C 
ATOM      9  C   UNL A   1      31.523  25.343  24.975  1.00  0.00     0.144 C 
ATOM     10  C   UNL A   1      34.467  25.098  24.736  1.00  0.00     0.013 C 
ATOM     11  C   UNL A   1      32.318  24.487  25.997  1.00  0.00     0.190 C 
ATOM     12  C   UNL A   1      33.734  25.094  26.071  1.00  0.00     0.065 C 
BRANCH   7  13
ATOM     13  N   UNL A   1      31.770  24.316  22.773  1.00  0.00    -0.336 N 
ATOM     14  C   UNL A   1      32.801  23.505  22.158  1.00  0.00     0.331 C 
ATOM     15  H   UNL A   1      31.240  23.706  23.396  1.00  0.00     0.346 HD
ATOM     16  H   UNL A   1      31.261  24.708  21.981  1.00  0.00     0.346 HD
ENDBRANCH   7  13
BRANCH  11  17
ATOM     17  N   UNL A   1      32.287  23.031  25.717  1.00  0.00    -0.332 N 
ATOM     18  C   UNL A   1      30.895  22.558  25.580  1.00  0.00     0.333 C 
ATOM     19  H   UNL A   1      32.809  22.941  24.847  1.00  0.00     0.348 HD
BRANCH  17  20
ATOM     20  C   UNL A   1      32.975  22.169  26.706  1.00  0.00     0.184 C 
ATOM     21  C   UNL A   1      33.664  20.945  26.139  1.00  0.00     0.071 C 
ATOM     22  C   UNL A   1      34.470  22.016  26.795  1.00  0.00     0.071 C 
ENDBRANCH  17  20
ENDBRANCH  11  17
ENDBRANCH   4   7
ENDBRANCH   2   3
ENDBRANCH   1   2
BRANCH   1  23
ATOM     23  C   UNL A   1      33.897  28.753  25.691  1.00  0.00     0.023 C 
BRANCH  23  24
ATOM     24  C   UNL A   1      33.639  28.811  27.188  1.00  0.00     0.116 C 
BRANCH  24  25
ATOM     25  N   UNL A   1      33.634  30.169  27.714  1.00  0.00    -0.352 N 
ATOM     26  C   UNL A   1      34.635  30.839  28.372  1.00  0.00     0.251 C 
ATOM     27  H   UNL A   1      32.799  30.675  27.578  1.00  0.00     0.163 HD
ATOM     28  O   UNL A   1      34.432  31.946  28.861  1.00  0.00    -0.269 OA
BRANCH  26  29
ATOM     29  C   UNL A   1      35.953  30.190  28.517  1.00  0.00     0.039 A 
ATOM     30  C   UNL A   1      36.859  30.259  27.458  1.00  0.00     0.014 A 
ATOM     31  C   UNL A   1      36.307  29.571  29.718  1.00  0.00     0.014 A 
ATOM     32  C   UNL A   1      38.153  29.769  27.631  1.00  0.00     0.010 A 
ATOM     33  C   UNL A   1      37.618  29.159  29.916  1.00  0.00     0.010 A 
ATOM     34  C   UNL A   1      38.553  29.252  28.874  1.00  0.00    -0.014 A 
BRANCH  34  35
ATOM     35  C   UNL A   1      39.947  28.800  29.108  1.00  0.00     0.031 A 
ATOM     36  C   UNL A   1      40.942  29.735  29.736  1.00  0.00     0.074 A 
ATOM     37  C   UNL A   1      40.331  27.577  28.694  1.00  0.00     0.049 A 
ATOM     38  N   UNL A   1      42.217  29.549  29.964  1.00  0.00    -0.248 NA
ATOM     39  C   UNL A   1      40.447  31.061  30.136  1.00  0.00     0.031 C 
ATOM     40  C   UNL A   1      39.470  26.593  28.034  1.00  0.00     0.029 A 
ATOM     41  N   UNL A   1      41.551  26.955  28.765  1.00  0.00    -0.354 N 
ATOM     42  C   UNL A   1      42.677  30.738  30.516  1.00  0.00     0.074 A 
ATOM     43  C   UNL A   1      41.559  31.655  30.539  1.00  0.00     0.031 C 
ATOM     44  C   UNL A   1      40.181  25.480  27.791  1.00  0.00     0.029 A 
ATOM     45  C   UNL A   1      41.555  25.686  28.240  1.00  0.00     0.049 A 
ATOM     46  H   UNL A   1      42.350  27.379  29.156  1.00  0.00     0.167 HD
ATOM     47  C   UNL A   1      43.912  31.033  30.984  1.00  0.00     0.031 A 
ATOM     48  C   UNL A   1      42.553  24.790  28.129  1.00  0.00     0.031 A 
ATOM     49  C   UNL A   1      45.020  30.117  30.973  1.00  0.00     0.049 A 
ATOM     50  C   UNL A   1      43.920  25.148  28.643  1.00  0.00     0.074 A 
ATOM     51  C   UNL A   1      46.297  30.303  31.471  1.00  0.00     0.029 A 
ATOM     52  N   UNL A   1      44.980  28.839  30.436  1.00  0.00    -0.354 N 
ATOM     53  N   UNL A   1      44.322  26.254  29.220  1.00  0.00    -0.248 NA
ATOM     54  C   UNL A   1      44.967  24.127  28.499  1.00  0.00     0.031 C 
ATOM     55  C   UNL A   1      47.044  29.154  31.194  1.00  0.00     0.029 A 
ATOM     56  C   UNL A   1      46.217  28.233  30.572  1.00  0.00     0.049 A 
ATOM     57  H   UNL A   1      44.189  28.426  30.019  1.00  0.00     0.167 HD
ATOM     58  C   UNL A   1      45.660  26.052  29.534  1.00  0.00     0.074 A 
ATOM     59  C   UNL A   1      45.996  24.712  29.096  1.00  0.00     0.031 C 
ATOM     60  C   UNL A   1      46.532  26.898  30.132  1.00  0.00     0.031 A 
BRANCH  47  61
ATOM     61  C   UNL A   1      44.125  32.411  31.545  1.00  0.00    -0.014 A 
ATOM     62  C   UNL A   1      44.003  32.662  32.921  1.00  0.00     0.009 A 
ATOM     63  C   UNL A   1      44.480  33.467  30.691  1.00  0.00     0.009 A 
ATOM     64  C   UNL A   1      44.193  33.950  33.425  1.00  0.00     0.001 A 
ATOM     65  C   UNL A   1      44.700  34.747  31.202  1.00  0.00     0.001 A 
ATOM     66  C   UNL A   1      44.547  34.989  32.566  1.00  0.00     0.000 A 
ENDBRANCH  47  61
BRANCH  48  67
ATOM     67  C   UNL A   1      42.295  23.457  27.527  1.00  0.00    -0.014 A 
ATOM     68  C   UNL A   1      41.807  22.404  28.318  1.00  0.00     0.009 A 
ATOM     69  C   UNL A   1      42.544  23.222  26.166  1.00  0.00     0.009 A 
ATOM     70  C   UNL A   1      41.599  21.139  27.764  1.00  0.00     0.001 A 
ATOM     71  C   UNL A   1      42.309  21.963  25.608  1.00  0.00     0.001 A 
ATOM     72  C   UNL A   1      41.846  20.921  26.409  1.00  0.00     0.000 A 
ENDBRANCH  48  67
BRANCH  60  73
ATOM     73  C   UNL A   1      47.922  26.388  30.383  1.00  0.00    -0.014 A 
ATOM     74  C   UNL A   1      48.267  25.773  31.595  1.00  0.00     0.009 A 
ATOM     75  C   UNL A   1      48.889  26.487  29.369  1.00  0.00     0.009 A 
ATOM     76  C   UNL A   1      49.564  25.298  31.801  1.00  0.00     0.001 A 
ATOM     77  C   UNL A   1      50.175  25.984  29.566  1.00  0.00     0.001 A 
ATOM     78  C   UNL A   1      50.514  25.398  30.785  1.00  0.00     0.000 A 
ENDBRANCH  60  73
ENDBRANCH  34  35
ENDBRANCH  26  29
ENDBRANCH  24  25
ENDBRANCH  23  24
ENDBRANCH   1  23
TORSDOF 14
ENDMDL
MODEL 2
REMARK VINA RESULT:      -9.8      3.608      7.658
REMARK SMILES C[NH2+][C@]1(C(=O)NCCCCNC(=O)c2ccc(-c3c4nc(c(-c5ccccc5)c5ccc([nH]5)c(-c5ccccc5)c5nc(c(-c6ccccc6)c6ccc3[nH]6)C=C5)C=C4)cc2)CCC[C@H]([N@H+](C)C2CC2)C1
REMARK SMILES IDX 8 1 7 2 6 3 4 4 5 5 3 7 62 8 71 9 63 10 65 11 64 12 2 13
REMARK SMILES IDX 1 14 66 17 67 18 68 20 69 21 70 22 9 23 10 24 11 25 12 26
REMARK SMILES IDX 13 28 14 29 15 30 61 31 16 32 60 33 17 34 18 35 19 36 54 37
REMARK SMILES IDX 20 38 59 39 53 40 55 41 21 42 58 43 52 44 51 45 22 47 44 48
REMARK SMILES IDX 29 49 43 50 30 51 33 52 42 53 56 54 31 55 32 56 41 58 57 59
REMARK SMILES IDX 34 60 23 61 24 62 28 63 25 64 27 65 26 66 45 67 46 68 50 69
REMARK SMILES IDX 47 70 49 71 48 72 35 73 36 74 40 75 37 76 39 77 38 78
REMARK H PARENT 6 6 2 15 2 16 66 19 11 27 55 46 33 57
REMARK Flexibility Score: inf
ROOT
ATOM      1  C   UNL A   1      31.949  30.368  26.735  1.00  0.00     0.023 C 
ENDROOT
BRANCH   1   2
ATOM      2  C   UNL A   1      32.521  29.954  25.380  1.00  0.00     0.116 C 
BRANCH   2   3
ATOM      3  N   UNL A   1      31.478  29.668  24.412  1.00  0.00    -0.351 N 
ATOM      4  C   UNL A   1      31.063  28.505  23.835  1.00  0.00     0.281 C 
ATOM      5  O   UNL A   1      30.195  28.622  22.957  1.00  0.00    -0.268 OA
ATOM      6  H   UNL A   1      30.977  30.463  24.117  1.00  0.00     0.163 HD
BRANCH   4   7
ATOM      7  C   UNL A   1      31.636  27.082  24.223  1.00  0.00     0.181 C 
ATOM      8  C   UNL A   1      33.115  27.027  23.774  1.00  0.00     0.079 C 
ATOM      9  C   UNL A   1      31.444  26.882  25.756  1.00  0.00     0.144 C 
ATOM     10  C   UNL A   1      34.011  26.053  24.526  1.00  0.00     0.013 C 
ATOM     11  C   UNL A   1      32.295  25.762  26.412  1.00  0.00     0.190 C 
ATOM     12  C   UNL A   1      33.763  26.043  26.029  1.00  0.00     0.065 C 
BRANCH   7  13
ATOM     13  N   UNL A   1      30.725  26.100  23.557  1.00  0.00    -0.336 N 
ATOM     14  C   UNL A   1      31.265  25.226  22.535  1.00  0.00     0.331 C 
ATOM     15  H   UNL A   1      30.341  25.503  24.290  1.00  0.00     0.346 HD
ATOM     16  H   UNL A   1      30.059  26.685  23.053  1.00  0.00     0.346 HD
ENDBRANCH   7  13
BRANCH  11  17
ATOM     17  N   UNL A   1      31.830  24.389  26.095  1.00  0.00    -0.332 N 
ATOM     18  C   UNL A   1      30.372  24.276  26.294  1.00  0.00     0.333 C 
ATOM     19  H   UNL A   1      32.094  24.263  25.118  1.00  0.00     0.348 HD
BRANCH  17  20
ATOM     20  C   UNL A   1      32.488  23.296  26.847  1.00  0.00     0.184 C 
ATOM     21  C   UNL A   1      32.936  22.109  26.018  1.00  0.00     0.071 C 
ATOM     22  C   UNL A   1      33.947  22.948  26.726  1.00  0.00     0.071 C 
ENDBRANCH  17  20
ENDBRANCH  11  17
ENDBRANCH   4   7
ENDBRANCH   2   3
ENDBRANCH   1   2
BRANCH   1  23
ATOM     23  C   UNL A   1      31.634  31.854  26.869  1.00  0.00     0.023 C 
BRANCH  23  24
ATOM     24  C   UNL A   1      32.808  32.719  27.298  1.00  0.00     0.116 C 
BRANCH  24  25
ATOM     25  N   UNL A   1      32.425  34.090  27.602  1.00  0.00    -0.352 N 
ATOM     26  C   UNL A   1      32.962  34.946  28.532  1.00  0.00     0.251 C 
ATOM     27  H   UNL A   1      31.680  34.453  27.069  1.00  0.00     0.163 HD
ATOM     28  O   UNL A   1      32.446  36.037  28.751  1.00  0.00    -0.269 OA
BRANCH  26  29
ATOM     29  C   UNL A   1      34.152  34.518  29.293  1.00  0.00     0.039 A 
ATOM     30  C   UNL A   1      33.975  33.928  30.546  1.00  0.00     0.014 A 
ATOM     31  C   UNL A   1      35.428  34.647  28.740  1.00  0.00     0.014 A 
ATOM     32  C   UNL A   1      35.078  33.398  31.215  1.00  0.00     0.010 A 
ATOM     33  C   UNL A   1      36.511  34.046  29.368  1.00  0.00     0.010 A 
ATOM     34  C   UNL A   1      36.347  33.418  30.612  1.00  0.00    -0.014 A 
BRANCH  34  35
ATOM     35  C   UNL A   1      37.519  32.788  31.267  1.00  0.00     0.031 A 
ATOM     36  C   UNL A   1      38.181  31.596  30.634  1.00  0.00     0.074 A 
ATOM     37  C   UNL A   1      37.945  33.246  32.460  1.00  0.00     0.049 A 
ATOM     38  N   UNL A   1      39.174  30.870  31.081  1.00  0.00    -0.248 NA
ATOM     39  C   UNL A   1      37.639  31.144  29.343  1.00  0.00     0.031 C 
ATOM     40  C   UNL A   1      37.361  34.369  33.198  1.00  0.00     0.029 A 
ATOM     41  N   UNL A   1      38.968  32.817  33.266  1.00  0.00    -0.354 N 
ATOM     42  C   UNL A   1      39.362  29.869  30.136  1.00  0.00     0.074 A 
ATOM     43  C   UNL A   1      38.348  30.048  29.120  1.00  0.00     0.031 C 
ATOM     44  C   UNL A   1      38.057  34.560  34.331  1.00  0.00     0.029 A 
ATOM     45  C   UNL A   1      39.107  33.550  34.419  1.00  0.00     0.049 A 
ATOM     46  H   UNL A   1      39.550  32.054  33.039  1.00  0.00     0.167 HD
ATOM     47  C   UNL A   1      40.308  28.902  30.104  1.00  0.00     0.031 A 
ATOM     48  C   UNL A   1      39.980  33.421  35.436  1.00  0.00     0.031 A 
ATOM     49  C   UNL A   1      41.323  28.732  31.106  1.00  0.00     0.049 A 
ATOM     50  C   UNL A   1      41.011  32.329  35.383  1.00  0.00     0.074 A 
ATOM     51  C   UNL A   1      42.359  27.815  31.137  1.00  0.00     0.029 A 
ATOM     52  N   UNL A   1      41.431  29.499  32.257  1.00  0.00    -0.354 N 
ATOM     53  N   UNL A   1      41.215  31.430  34.452  1.00  0.00    -0.248 NA
ATOM     54  C   UNL A   1      41.939  32.243  36.519  1.00  0.00     0.031 C 
ATOM     55  C   UNL A   1      43.066  27.996  32.330  1.00  0.00     0.029 A 
ATOM     56  C   UNL A   1      42.504  29.062  33.015  1.00  0.00     0.049 A 
ATOM     57  H   UNL A   1      40.833  30.243  32.498  1.00  0.00     0.167 HD
ATOM     58  C   UNL A   1      42.311  30.690  34.874  1.00  0.00     0.074 A 
ATOM     59  C   UNL A   1      42.737  31.255  36.138  1.00  0.00     0.031 C 
ATOM     60  C   UNL A   1      42.914  29.638  34.269  1.00  0.00     0.031 A 
BRANCH  47  61
ATOM     61  C   UNL A   1      40.280  27.950  28.941  1.00  0.00    -0.014 A 
ATOM     62  C   UNL A   1      40.959  28.242  27.746  1.00  0.00     0.009 A 
ATOM     63  C   UNL A   1      39.589  26.733  29.048  1.00  0.00     0.009 A 
ATOM     64  C   UNL A   1      40.915  27.353  26.672  1.00  0.00     0.001 A 
ATOM     65  C   UNL A   1      39.572  25.832  27.983  1.00  0.00     0.001 A 
ATOM     66  C   UNL A   1      40.226  26.147  26.792  1.00  0.00     0.000 A 
ENDBRANCH  47  61
BRANCH  48  67
ATOM     67  C   UNL A   1      39.934  34.366  36.582  1.00  0.00    -0.014 A 
ATOM     68  C   UNL A   1      39.183  34.057  37.727  1.00  0.00     0.009 A 
ATOM     69  C   UNL A   1      40.630  35.584  36.536  1.00  0.00     0.009 A 
ATOM     70  C   UNL A   1      39.109  34.960  38.790  1.00  0.00     0.001 A 
ATOM     71  C   UNL A   1      40.576  36.472  37.613  1.00  0.00     0.001 A 
ATOM     72  C   UNL A   1      39.808  36.164  38.734  1.00  0.00     0.000 A 
ENDBRANCH  48  67
BRANCH  60  73
ATOM     73  C   UNL A   1      44.120  29.053  34.948  1.00  0.00    -0.014 A 
ATOM     74  C   UNL A   1      44.003  27.995  35.860  1.00  0.00     0.009 A 
ATOM     75  C   UNL A   1      45.396  29.545  34.634  1.00  0.00     0.009 A 
ATOM     76  C   UNL A   1      45.139  27.462  36.472  1.00  0.00     0.001 A 
ATOM     77  C   UNL A   1      46.533  28.991  35.223  1.00  0.00     0.001 A 
ATOM     78  C   UNL A   1      46.402  27.956  36.148  1.00  0.00     0.000 A 
ENDBRANCH  60  73
ENDBRANCH  34  35
ENDBRANCH  26  29
ENDBRANCH  24  25
ENDBRANCH  23  24
ENDBRANCH   1  23
TORSDOF 14
ENDMDL
MODEL 3
REMARK VINA RESULT:      -9.7      3.395      4.868
REMARK SMILES C[NH2+][C@]1(C(=O)NCCCCNC(=O)c2ccc(-c3c4nc(c(-c5ccccc5)c5ccc([nH]5)c(-c5ccccc5)c5nc(c(-c6ccccc6)c6ccc3[nH]6)C=C5)C=C4)cc2)CCC[C@H]([N@H+](C)C2CC2)C1
REMARK SMILES IDX 8 1 7 2 6 3 4 4 5 5 3 7 62 8 71 9 63 10 65 11 64 12 2 13
REMARK SMILES IDX 1 14 66 17 67 18 68 20 69 21 70 22 9 23 10 24 11 25 12 26
REMARK SMILES IDX 13 28 14 29 15 30 61 31 16 32 60 33 17 34 18 35 19 36 54 37
REMARK SMILES IDX 20 38 59 39 53 40 55 41 21 42 58 43 52 44 51 45 22 47 44 48
REMARK SMILES IDX 29 49 43 50 30 51 33 52 42 53 56 54 31 55 32 56 41 58 57 59
REMARK SMILES IDX 34 60 23 61 24 62 28 63 25 64 27 65 26 66 45 67 46 68 50 69
REMARK SMILES IDX 47 70 49 71 48 72 35 73 36 74 40 75 37 76 39 77 38 78
REMARK H PARENT 6 6 2 15 2 16 66 19 11 27 55 46 33 57
REMARK Flexibility Score: inf
ROOT
ATOM      1  C   UNL A   1      31.615  30.502  26.639  1.00  0.00     0.023 C 
ENDROOT
BRANCH   1   2
ATOM      2  C   UNL A   1      32.119  29.996  25.288  1.00  0.00     0.116 C 
BRANCH   2   3
ATOM      3  N   UNL A   1      31.029  29.669  24.387  1.00  0.00    -0.351 N 
ATOM      4  C   UNL A   1      30.732  28.537  23.688  1.00  0.00     0.281 C 
ATOM      5  O   UNL A   1      29.763  28.621  22.919  1.00  0.00    -0.268 OA
ATOM      6  H   UNL A   1      30.383  30.401  24.258  1.00  0.00     0.163 HD
BRANCH   4   7
ATOM      7  C   UNL A   1      31.554  27.191  23.812  1.00  0.00     0.181 C 
ATOM      8  C   UNL A   1      33.055  27.536  23.669  1.00  0.00     0.079 C 
ATOM      9  C   UNL A   1      31.196  26.526  25.173  1.00  0.00     0.144 C 
ATOM     10  C   UNL A   1      34.033  26.565  24.315  1.00  0.00     0.013 C 
ATOM     11  C   UNL A   1      32.178  25.437  25.682  1.00  0.00     0.190 C 
ATOM     12  C   UNL A   1      33.581  26.077  25.686  1.00  0.00     0.065 C 
BRANCH   7  13
ATOM     13  N   UNL A   1      30.997  26.295  22.750  1.00  0.00    -0.336 N 
ATOM     14  C   UNL A   1      31.827  25.961  21.610  1.00  0.00     0.331 C 
ATOM     15  H   UNL A   1      30.743  25.417  23.203  1.00  0.00     0.346 HD
ATOM     16  H   UNL A   1      30.233  26.837  22.348  1.00  0.00     0.346 HD
ENDBRANCH   7  13
BRANCH  11  17
ATOM     17  N   UNL A   1      32.090  24.153  24.943  1.00  0.00    -0.332 N 
ATOM     18  C   UNL A   1      30.819  23.466  25.246  1.00  0.00     0.333 C 
ATOM     19  H   UNL A   1      32.150  24.433  23.965  1.00  0.00     0.348 HD
BRANCH  17  20
ATOM     20  C   UNL A   1      33.200  23.200  25.172  1.00  0.00     0.184 C 
ATOM     21  C   UNL A   1      33.181  21.956  24.307  1.00  0.00     0.071 C 
ATOM     22  C   UNL A   1      34.301  22.935  24.181  1.00  0.00     0.071 C 
ENDBRANCH  17  20
ENDBRANCH  11  17
ENDBRANCH   4   7
ENDBRANCH   2   3
ENDBRANCH   1   2
BRANCH   1  23
ATOM     23  C   UNL A   1      31.442  32.015  26.731  1.00  0.00     0.023 C 
BRANCH  23  24
ATOM     24  C   UNL A   1      32.655  32.765  27.257  1.00  0.00     0.116 C 
BRANCH  24  25
ATOM     25  N   UNL A   1      32.360  34.143  27.621  1.00  0.00    -0.352 N 
ATOM     26  C   UNL A   1      32.978  34.936  28.556  1.00  0.00     0.251 C 
ATOM     27  H   UNL A   1      31.617  34.564  27.129  1.00  0.00     0.163 HD
ATOM     28  O   UNL A   1      32.531  36.045  28.830  1.00  0.00    -0.269 OA
BRANCH  26  29
ATOM     29  C   UNL A   1      34.169  34.418  29.256  1.00  0.00     0.039 A 
ATOM     30  C   UNL A   1      34.003  33.765  30.478  1.00  0.00     0.014 A 
ATOM     31  C   UNL A   1      35.434  34.529  28.674  1.00  0.00     0.014 A 
ATOM     32  C   UNL A   1      35.101  33.154  31.083  1.00  0.00     0.010 A 
ATOM     33  C   UNL A   1      36.508  33.850  29.235  1.00  0.00     0.010 A 
ATOM     34  C   UNL A   1      36.353  33.158  30.445  1.00  0.00    -0.014 A 
BRANCH  34  35
ATOM     35  C   UNL A   1      37.516  32.446  31.028  1.00  0.00     0.031 A 
ATOM     36  C   UNL A   1      38.136  32.942  32.304  1.00  0.00     0.074 A 
ATOM     37  C   UNL A   1      38.053  31.397  30.376  1.00  0.00     0.049 A 
ATOM     38  N   UNL A   1      39.192  32.496  32.936  1.00  0.00    -0.248 NA
ATOM     39  C   UNL A   1      37.503  34.108  32.940  1.00  0.00     0.031 C 
ATOM     40  C   UNL A   1      37.568  30.845  29.108  1.00  0.00     0.029 A 
ATOM     41  N   UNL A   1      39.130  30.609  30.690  1.00  0.00    -0.354 N 
ATOM     42  C   UNL A   1      39.358  33.336  34.029  1.00  0.00     0.074 A 
ATOM     43  C   UNL A   1      38.329  34.349  33.946  1.00  0.00     0.031 C 
ATOM     44  C   UNL A   1      38.326  29.788  28.771  1.00  0.00     0.029 A 
ATOM     45  C   UNL A   1      39.372  29.614  29.774  1.00  0.00     0.049 A 
ATOM     46  H   UNL A   1      39.680  30.744  31.496  1.00  0.00     0.167 HD
ATOM     47  C   UNL A   1      40.270  33.258  35.026  1.00  0.00     0.031 A 
ATOM     48  C   UNL A   1      40.331  28.669  29.744  1.00  0.00     0.031 A 
ATOM     49  C   UNL A   1      41.284  32.244  35.116  1.00  0.00     0.049 A 
ATOM     50  C   UNL A   1      41.340  28.614  30.855  1.00  0.00     0.074 A 
ATOM     51  C   UNL A   1      42.222  32.048  36.114  1.00  0.00     0.029 A 
ATOM     52  N   UNL A   1      41.492  31.252  34.169  1.00  0.00    -0.354 N 
ATOM     53  N   UNL A   1      41.446  29.377  31.915  1.00  0.00    -0.248 NA
ATOM     54  C   UNL A   1      42.359  27.558  30.770  1.00  0.00     0.031 C 
ATOM     55  C   UNL A   1      43.028  30.965  35.748  1.00  0.00     0.029 A 
ATOM     56  C   UNL A   1      42.556  30.454  34.550  1.00  0.00     0.049 A 
ATOM     57  H   UNL A   1      40.960  31.134  33.349  1.00  0.00     0.167 HD
ATOM     58  C   UNL A   1      42.521  28.877  32.637  1.00  0.00     0.074 A 
ATOM     59  C   UNL A   1      43.026  27.736  31.901  1.00  0.00     0.031 C 
ATOM     60  C   UNL A   1      43.044  29.321  33.806  1.00  0.00     0.031 A 
BRANCH  47  61
ATOM     61  C   UNL A   1      40.208  34.309  36.100  1.00  0.00    -0.014 A 
ATOM     62  C   UNL A   1      40.959  35.492  36.004  1.00  0.00     0.009 A 
ATOM     63  C   UNL A   1      39.367  34.127  37.208  1.00  0.00     0.009 A 
ATOM     64  C   UNL A   1      40.898  36.452  37.014  1.00  0.00     0.001 A 
ATOM     65  C   UNL A   1      39.284  35.103  38.202  1.00  0.00     0.001 A 
ATOM     66  C   UNL A   1      40.057  36.260  38.109  1.00  0.00     0.000 A 
ENDBRANCH  47  61
BRANCH  48  67
ATOM     67  C   UNL A   1      40.369  27.681  28.635  1.00  0.00    -0.014 A 
ATOM     68  C   UNL A   1      39.681  26.463  28.747  1.00  0.00     0.009 A 
ATOM     69  C   UNL A   1      41.099  27.942  27.465  1.00  0.00     0.009 A 
ATOM     70  C   UNL A   1      39.746  25.516  27.722  1.00  0.00     0.001 A 
ATOM     71  C   UNL A   1      41.140  27.005  26.430  1.00  0.00     0.001 A 
ATOM     72  C   UNL A   1      40.472  25.789  26.564  1.00  0.00     0.000 A 
ENDBRANCH  48  67
BRANCH  60  73
ATOM     73  C   UNL A   1      44.197  28.548  34.380  1.00  0.00    -0.014 A 
ATOM     74  C   UNL A   1      45.524  28.880  34.070  1.00  0.00     0.009 A 
ATOM     75  C   UNL A   1      43.948  27.499  35.278  1.00  0.00     0.009 A 
ATOM     76  C   UNL A   1      46.580  28.154  34.623  1.00  0.00     0.001 A 
ATOM     77  C   UNL A   1      45.006  26.794  35.853  1.00  0.00     0.001 A 
ATOM     78  C   UNL A   1      46.320  27.116  35.518  1.00  0.00     0.000 A 
ENDBRANCH  60  73
ENDBRANCH  34  35
ENDBRANCH  26  29
ENDBRANCH  24  25
ENDBRANCH  23  24
ENDBRANCH   1  23
TORSDOF 14
ENDMDL
