MODEL 1
REMARK VINA RESULT:      -9.8      0.000      0.000
REMARK SMILES C#CCN(CC(=O)NCCCCNC(=O)c1ccc(-c2c3nc(c(-c4ccccc4)c4ccc([nH]4)c(-c4ccccc4)c4nc(c(-c5ccccc5)c5ccc2[nH]5)C=C4)C=C3)cc1)C(=O)[C@H]1C[NH2+]C[C@H]1C
REMARK SMILES IDX 10 1 9 2 8 3 6 4 7 5 5 7 4 8 3 9 2 10 1 11 64 12 65 13 66 14
REMARK SMILES IDX 67 15 70 16 68 17 69 18 71 19 11 22 12 23 13 24 14 25 15 27
REMARK SMILES IDX 16 28 17 29 63 30 18 31 62 32 19 33 20 34 21 35 56 36 22 37
REMARK SMILES IDX 61 38 55 39 57 40 23 41 60 42 54 43 53 44 24 46 46 47 31 48
REMARK SMILES IDX 45 49 32 50 35 51 44 52 58 53 33 54 34 55 43 57 59 58 36 59
REMARK SMILES IDX 25 60 26 61 30 62 27 63 29 64 28 65 47 66 48 67 52 68 49 69
REMARK SMILES IDX 51 70 50 71 37 72 38 73 42 74 39 75 41 76 40 77
REMARK H PARENT 8 6 68 20 68 21 13 26 57 45 35 56
REMARK Flexibility Score: inf
ROOT
ATOM      1  C   UNL A   1      31.720  30.618  26.311  1.00  0.00     0.023 C 
ENDROOT
BRANCH   1   2
ATOM      2  C   UNL A   1      33.177  30.166  26.379  1.00  0.00     0.116 C 
BRANCH   2   3
ATOM      3  N   UNL A   1      33.585  29.468  25.181  1.00  0.00    -0.355 N 
ATOM      4  C   UNL A   1      33.746  28.131  24.979  1.00  0.00     0.239 C 
ATOM      5  O   UNL A   1      34.024  27.749  23.840  1.00  0.00    -0.273 OA
ATOM      6  H   UNL A   1      33.770  30.040  24.402  1.00  0.00     0.163 HD
BRANCH   4   7
ATOM      7  C   UNL A   1      33.508  27.120  26.110  1.00  0.00     0.220 C 
BRANCH   7   8
ATOM      8  N   UNL A   1      32.317  26.279  25.945  1.00  0.00    -0.322 N 
BRANCH   8   9
ATOM      9  C   UNL A   1      31.007  26.928  25.961  1.00  0.00     0.209 C 
BRANCH   9  10
ATOM     10  C   UNL A   1      30.562  27.281  24.551  1.00  0.00    -0.085 C 
ATOM     11  C   UNL A   1      30.180  27.585  23.342  1.00  0.00     0.006 C 
ENDBRANCH   9  10
ENDBRANCH   8   9
BRANCH   8  12
ATOM     12  C   UNL A   1      32.347  24.896  25.773  1.00  0.00     0.233 C 
ATOM     13  O   UNL A   1      31.879  24.148  26.634  1.00  0.00    -0.274 OA
BRANCH  12  14
ATOM     14  C   UNL A   1      33.026  24.310  24.536  1.00  0.00     0.142 C 
ATOM     15  C   UNL A   1      33.661  22.956  24.848  1.00  0.00     0.274 C 
ATOM     16  C   UNL A   1      32.170  23.997  23.295  1.00  0.00     0.059 C 
ATOM     17  N   UNL A   1      33.956  22.397  23.521  1.00  0.00    -0.345 N 
ATOM     18  C   UNL A   1      32.747  22.682  22.743  1.00  0.00     0.264 C 
ATOM     19  C   UNL A   1      30.667  23.848  23.528  1.00  0.00     0.015 C 
ATOM     20  H   UNL A   1      34.121  21.393  23.580  1.00  0.00     0.346 HD
ATOM     21  H   UNL A   1      34.796  22.798  23.104  1.00  0.00     0.346 HD
ENDBRANCH  12  14
ENDBRANCH   8  12
ENDBRANCH   7   8
ENDBRANCH   4   7
ENDBRANCH   2   3
ENDBRANCH   1   2
BRANCH   1  22
ATOM     22  C   UNL A   1      31.495  32.108  26.566  1.00  0.00     0.023 C 
BRANCH  22  23
ATOM     23  C   UNL A   1      32.651  32.829  27.245  1.00  0.00     0.116 C 
BRANCH  23  24
ATOM     24  N   UNL A   1      32.335  34.197  27.630  1.00  0.00    -0.352 N 
ATOM     25  C   UNL A   1      32.960  34.980  28.570  1.00  0.00     0.251 C 
ATOM     26  H   UNL A   1      31.578  34.612  27.157  1.00  0.00     0.163 HD
ATOM     27  O   UNL A   1      32.520  36.090  28.851  1.00  0.00    -0.269 OA
BRANCH  25  28
ATOM     28  C   UNL A   1      34.144  34.448  29.272  1.00  0.00     0.039 A 
ATOM     29  C   UNL A   1      33.964  33.779  30.484  1.00  0.00     0.014 A 
ATOM     30  C   UNL A   1      35.417  34.564  28.705  1.00  0.00     0.014 A 
ATOM     31  C   UNL A   1      35.055  33.164  31.097  1.00  0.00     0.010 A 
ATOM     32  C   UNL A   1      36.488  33.891  29.281  1.00  0.00     0.010 A 
ATOM     33  C   UNL A   1      36.316  33.184  30.481  1.00  0.00    -0.014 A 
BRANCH  33  34
ATOM     34  C   UNL A   1      37.472  32.467  31.074  1.00  0.00     0.031 A 
ATOM     35  C   UNL A   1      38.083  32.954  32.356  1.00  0.00     0.074 A 
ATOM     36  C   UNL A   1      38.011  31.419  30.422  1.00  0.00     0.049 A 
ATOM     37  N   UNL A   1      39.129  32.499  32.997  1.00  0.00    -0.248 NA
ATOM     38  C   UNL A   1      37.451  34.123  32.990  1.00  0.00     0.031 C 
ATOM     39  C   UNL A   1      37.538  30.875  29.146  1.00  0.00     0.029 A 
ATOM     40  N   UNL A   1      39.086  30.627  30.741  1.00  0.00    -0.354 N 
ATOM     41  C   UNL A   1      39.290  33.335  34.094  1.00  0.00     0.074 A 
ATOM     42  C   UNL A   1      38.267  34.353  34.008  1.00  0.00     0.031 C 
ATOM     43  C   UNL A   1      38.302  29.823  28.807  1.00  0.00     0.029 A 
ATOM     44  C   UNL A   1      39.339  29.642  29.818  1.00  0.00     0.049 A 
ATOM     45  H   UNL A   1      39.625  30.754  31.556  1.00  0.00     0.167 HD
ATOM     46  C   UNL A   1      40.198  33.252  35.096  1.00  0.00     0.031 A 
ATOM     47  C   UNL A   1      40.299  28.701  29.787  1.00  0.00     0.031 A 
ATOM     48  C   UNL A   1      41.207  32.232  35.191  1.00  0.00     0.049 A 
ATOM     49  C   UNL A   1      41.298  28.634  30.908  1.00  0.00     0.074 A 
ATOM     50  C   UNL A   1      42.135  32.028  36.198  1.00  0.00     0.029 A 
ATOM     51  N   UNL A   1      41.423  31.246  34.240  1.00  0.00    -0.354 N 
ATOM     52  N   UNL A   1      41.394  29.389  31.974  1.00  0.00    -0.248 NA
ATOM     53  C   UNL A   1      42.314  27.575  30.824  1.00  0.00     0.031 C 
ATOM     54  C   UNL A   1      42.941  30.944  35.834  1.00  0.00     0.029 A 
ATOM     55  C   UNL A   1      42.482  30.443  34.627  1.00  0.00     0.049 A 
ATOM     56  H   UNL A   1      40.898  31.133  33.414  1.00  0.00     0.167 HD
ATOM     57  C   UNL A   1      42.463  28.882  32.702  1.00  0.00     0.074 A 
ATOM     58  C   UNL A   1      42.972  27.745  31.962  1.00  0.00     0.031 C 
ATOM     59  C   UNL A   1      42.976  29.317  33.879  1.00  0.00     0.031 A 
BRANCH  46  60
ATOM     60  C   UNL A   1      40.138  34.303  36.169  1.00  0.00    -0.014 A 
ATOM     61  C   UNL A   1      39.355  34.121  37.321  1.00  0.00     0.009 A 
ATOM     62  C   UNL A   1      40.897  35.476  36.042  1.00  0.00     0.009 A 
ATOM     63  C   UNL A   1      39.302  35.112  38.304  1.00  0.00     0.001 A 
ATOM     64  C   UNL A   1      40.865  36.451  37.040  1.00  0.00     0.001 A 
ATOM     65  C   UNL A   1      40.061  36.273  38.165  1.00  0.00     0.000 A 
ENDBRANCH  46  60
BRANCH  47  66
ATOM     66  C   UNL A   1      40.354  27.729  28.664  1.00  0.00    -0.014 A 
ATOM     67  C   UNL A   1      41.092  28.023  27.507  1.00  0.00     0.009 A 
ATOM     68  C   UNL A   1      39.664  26.509  28.739  1.00  0.00     0.009 A 
ATOM     69  C   UNL A   1      41.117  27.126  26.437  1.00  0.00     0.001 A 
ATOM     70  C   UNL A   1      39.714  25.601  27.678  1.00  0.00     0.001 A 
ATOM     71  C   UNL A   1      40.433  25.915  26.525  1.00  0.00     0.000 A 
ENDBRANCH  47  66
BRANCH  59  72
ATOM     72  C   UNL A   1      44.126  28.541  34.455  1.00  0.00    -0.014 A 
ATOM     73  C   UNL A   1      45.455  28.889  34.168  1.00  0.00     0.009 A 
ATOM     74  C   UNL A   1      43.873  27.472  35.328  1.00  0.00     0.009 A 
ATOM     75  C   UNL A   1      46.509  28.160  34.723  1.00  0.00     0.001 A 
ATOM     76  C   UNL A   1      44.929  26.764  35.902  1.00  0.00     0.001 A 
ATOM     77  C   UNL A   1      46.246  27.102  35.592  1.00  0.00     0.000 A 
ENDBRANCH  59  72
ENDBRANCH  33  34
ENDBRANCH  25  28
ENDBRANCH  23  24
ENDBRANCH  22  23
ENDBRANCH   1  22
TORSDOF 16
ENDMDL
MODEL 2
REMARK VINA RESULT:      -9.8      1.309      2.495
REMARK SMILES C#CCN(CC(=O)NCCCCNC(=O)c1ccc(-c2c3nc(c(-c4ccccc4)c4ccc([nH]4)c(-c4ccccc4)c4nc(c(-c5ccccc5)c5ccc2[nH]5)C=C4)C=C3)cc1)C(=O)[C@H]1C[NH2+]C[C@H]1C
REMARK SMILES IDX 10 1 9 2 8 3 6 4 7 5 5 7 4 8 3 9 2 10 1 11 64 12 65 13 66 14
REMARK SMILES IDX 67 15 70 16 68 17 69 18 71 19 11 22 12 23 13 24 14 25 15 27
REMARK SMILES IDX 16 28 17 29 63 30 18 31 62 32 19 33 20 34 21 35 56 36 22 37
REMARK SMILES IDX 61 38 55 39 57 40 23 41 60 42 54 43 53 44 24 46 46 47 31 48
REMARK SMILES IDX 45 49 32 50 35 51 44 52 58 53 33 54 34 55 43 57 59 58 36 59
REMARK SMILES IDX 25 60 26 61 30 62 27 63 29 64 28 65 47 66 48 67 52 68 49 69
REMARK SMILES IDX 51 70 50 71 37 72 38 73 42 74 39 75 41 76 40 77
REMARK H PARENT 8 6 68 20 68 21 13 26 57 45 35 56
REMARK Flexibility Score: inf
ROOT
ATOM      1  C   UNL A   1      31.803  30.388  26.143  1.00  0.00     0.023 C 
ENDROOT
BRANCH   1   2
ATOM      2  C   UNL A   1      32.255  29.448  27.258  1.00  0.00     0.116 C 
BRANCH   2   3
ATOM      3  N   UNL A   1      31.538  28.193  27.233  1.00  0.00    -0.355 N 
ATOM      4  C   UNL A   1      31.948  26.979  26.770  1.00  0.00     0.239 C 
ATOM      5  O   UNL A   1      31.192  26.017  26.926  1.00  0.00    -0.273 OA
ATOM      6  H   UNL A   1      30.627  28.220  27.604  1.00  0.00     0.163 HD
BRANCH   4   7
ATOM      7  C   UNL A   1      33.340  26.791  26.149  1.00  0.00     0.220 C 
BRANCH   7   8
ATOM      8  N   UNL A   1      33.356  26.037  24.890  1.00  0.00    -0.322 N 
BRANCH   8   9
ATOM      9  C   UNL A   1      33.606  24.598  24.950  1.00  0.00     0.209 C 
BRANCH   9  10
ATOM     10  C   UNL A   1      35.057  24.315  25.306  1.00  0.00    -0.085 C 
ATOM     11  C   UNL A   1      36.301  24.073  25.611  1.00  0.00     0.006 C 
ENDBRANCH   9  10
ENDBRANCH   8   9
BRANCH   8  12
ATOM     12  C   UNL A   1      33.149  26.601  23.632  1.00  0.00     0.233 C 
ATOM     13  O   UNL A   1      33.594  26.053  22.620  1.00  0.00    -0.274 OA
BRANCH  12  14
ATOM     14  C   UNL A   1      32.423  27.940  23.522  1.00  0.00     0.142 C 
ATOM     15  C   UNL A   1      32.716  28.616  22.183  1.00  0.00     0.274 C 
ATOM     16  C   UNL A   1      30.884  27.959  23.573  1.00  0.00     0.059 C 
ATOM     17  N   UNL A   1      31.707  29.681  22.104  1.00  0.00    -0.345 N 
ATOM     18  C   UNL A   1      30.472  29.029  22.547  1.00  0.00     0.264 C 
ATOM     19  C   UNL A   1      30.180  26.640  23.261  1.00  0.00     0.015 C 
ATOM     20  H   UNL A   1      31.614  30.021  21.147  1.00  0.00     0.346 HD
ATOM     21  H   UNL A   1      31.948  30.494  22.671  1.00  0.00     0.346 HD
ENDBRANCH  12  14
ENDBRANCH   8  12
ENDBRANCH   7   8
ENDBRANCH   4   7
ENDBRANCH   2   3
ENDBRANCH   1   2
BRANCH   1  22
ATOM     22  C   UNL A   1      31.545  31.829  26.581  1.00  0.00     0.023 C 
BRANCH  22  23
ATOM     23  C   UNL A   1      32.726  32.525  27.242  1.00  0.00     0.116 C 
BRANCH  23  24
ATOM     24  N   UNL A   1      32.449  33.903  27.620  1.00  0.00    -0.352 N 
ATOM     25  C   UNL A   1      33.152  34.702  28.489  1.00  0.00     0.251 C 
ATOM     26  H   UNL A   1      31.659  34.313  27.200  1.00  0.00     0.163 HD
ATOM     27  O   UNL A   1      32.742  35.821  28.780  1.00  0.00    -0.269 OA
BRANCH  25  28
ATOM     28  C   UNL A   1      34.386  34.178  29.105  1.00  0.00     0.039 A 
ATOM     29  C   UNL A   1      34.285  33.418  30.272  1.00  0.00     0.014 A 
ATOM     30  C   UNL A   1      35.628  34.392  28.501  1.00  0.00     0.014 A 
ATOM     31  C   UNL A   1      35.426  32.811  30.798  1.00  0.00     0.010 A 
ATOM     32  C   UNL A   1      36.750  33.729  28.985  1.00  0.00     0.010 A 
ATOM     33  C   UNL A   1      36.659  32.933  30.137  1.00  0.00    -0.014 A 
BRANCH  33  34
ATOM     34  C   UNL A   1      37.867  32.230  30.632  1.00  0.00     0.031 A 
ATOM     35  C   UNL A   1      38.675  32.820  31.753  1.00  0.00     0.074 A 
ATOM     36  C   UNL A   1      38.274  31.097  30.028  1.00  0.00     0.049 A 
ATOM     37  N   UNL A   1      39.791  32.387  32.283  1.00  0.00    -0.248 NA
ATOM     38  C   UNL A   1      38.178  34.076  32.340  1.00  0.00     0.031 C 
ATOM     39  C   UNL A   1      37.602  30.446  28.900  1.00  0.00     0.029 A 
ATOM     40  N   UNL A   1      39.360  30.296  30.274  1.00  0.00    -0.354 N 
ATOM     41  C   UNL A   1      40.136  33.324  33.248  1.00  0.00     0.074 A 
ATOM     42  C   UNL A   1      39.142  34.373  33.198  1.00  0.00     0.031 C 
ATOM     43  C   UNL A   1      38.276  29.331  28.572  1.00  0.00     0.029 A 
ATOM     44  C   UNL A   1      39.445  29.210  29.437  1.00  0.00     0.049 A 
ATOM     45  H   UNL A   1      40.017  30.481  30.984  1.00  0.00     0.167 HD
ATOM     46  C   UNL A   1      41.179  33.305  34.112  1.00  0.00     0.031 A 
ATOM     47  C   UNL A   1      40.363  28.228  29.371  1.00  0.00     0.031 A 
ATOM     48  C   UNL A   1      42.161  32.256  34.171  1.00  0.00     0.049 A 
ATOM     49  C   UNL A   1      41.513  28.233  30.337  1.00  0.00     0.074 A 
ATOM     50  C   UNL A   1      43.221  32.116  35.051  1.00  0.00     0.029 A 
ATOM     51  N   UNL A   1      42.205  31.168  33.313  1.00  0.00    -0.354 N 
ATOM     52  N   UNL A   1      41.788  29.089  31.291  1.00  0.00    -0.248 NA
ATOM     53  C   UNL A   1      42.475  27.127  30.225  1.00  0.00     0.031 C 
ATOM     54  C   UNL A   1      43.933  30.965  34.695  1.00  0.00     0.029 A 
ATOM     55  C   UNL A   1      43.286  30.363  33.629  1.00  0.00     0.049 A 
ATOM     56  H   UNL A   1      41.561  30.994  32.588  1.00  0.00     0.167 HD
ATOM     57  C   UNL A   1      42.937  28.613  31.908  1.00  0.00     0.074 A 
ATOM     58  C   UNL A   1      43.298  27.384  31.231  1.00  0.00     0.031 C 
ATOM     59  C   UNL A   1      43.631  29.144  32.944  1.00  0.00     0.031 A 
BRANCH  46  60
ATOM     60  C   UNL A   1      41.309  34.463  35.061  1.00  0.00    -0.014 A 
ATOM     61  C   UNL A   1      42.087  35.586  34.736  1.00  0.00     0.009 A 
ATOM     62  C   UNL A   1      40.622  34.444  36.284  1.00  0.00     0.009 A 
ATOM     63  C   UNL A   1      42.205  36.649  35.634  1.00  0.00     0.001 A 
ATOM     64  C   UNL A   1      40.718  35.520  37.167  1.00  0.00     0.001 A 
ATOM     65  C   UNL A   1      41.516  36.617  36.846  1.00  0.00     0.000 A 
ENDBRANCH  46  60
BRANCH  47  66
ATOM     66  C   UNL A   1      40.223  27.144  28.365  1.00  0.00    -0.014 A 
ATOM     67  C   UNL A   1      40.829  27.263  27.104  1.00  0.00     0.009 A 
ATOM     68  C   UNL A   1      39.478  25.990  28.654  1.00  0.00     0.009 A 
ATOM     69  C   UNL A   1      40.670  26.260  26.146  1.00  0.00     0.001 A 
ATOM     70  C   UNL A   1      39.344  24.976  27.703  1.00  0.00     0.001 A 
ATOM     71  C   UNL A   1      39.933  25.117  26.446  1.00  0.00     0.000 A 
ENDBRANCH  47  66
BRANCH  59  72
ATOM     72  C   UNL A   1      44.830  28.381  33.430  1.00  0.00    -0.014 A 
ATOM     73  C   UNL A   1      46.114  28.648  32.929  1.00  0.00     0.009 A 
ATOM     74  C   UNL A   1      44.676  27.411  34.432  1.00  0.00     0.009 A 
ATOM     75  C   UNL A   1      47.216  27.933  33.403  1.00  0.00     0.001 A 
ATOM     76  C   UNL A   1      45.783  26.719  34.922  1.00  0.00     0.001 A 
ATOM     77  C   UNL A   1      47.051  26.974  34.401  1.00  0.00     0.000 A 
ENDBRANCH  59  72
ENDBRANCH  33  34
ENDBRANCH  25  28
ENDBRANCH  23  24
ENDBRANCH  22  23
ENDBRANCH   1  22
TORSDOF 16
ENDMDL
MODEL 3
REMARK VINA RESULT:      -9.7      3.420      5.285
REMARK SMILES C#CCN(CC(=O)NCCCCNC(=O)c1ccc(-c2c3nc(c(-c4ccccc4)c4ccc([nH]4)c(-c4ccccc4)c4nc(c(-c5ccccc5)c5ccc2[nH]5)C=C4)C=C3)cc1)C(=O)[C@H]1C[NH2+]C[C@H]1C
REMARK SMILES IDX 10 1 9 2 8 3 6 4 7 5 5 7 4 8 3 9 2 10 1 11 64 12 65 13 66 14
REMARK SMILES IDX 67 15 70 16 68 17 69 18 71 19 11 22 12 23 13 24 14 25 15 27
REMARK SMILES IDX 16 28 17 29 63 30 18 31 62 32 19 33 20 34 21 35 56 36 22 37
REMARK SMILES IDX 61 38 55 39 57 40 23 41 60 42 54 43 53 44 24 46 46 47 31 48
REMARK SMILES IDX 45 49 32 50 35 51 44 52 58 53 33 54 34 55 43 57 59 58 36 59
REMARK SMILES IDX 25 60 26 61 30 62 27 63 29 64 28 65 47 66 48 67 52 68 49 69
REMARK SMILES IDX 51 70 50 71 37 72 38 73 42 74 39 75 41 76 40 77
REMARK H PARENT 8 6 68 20 68 21 13 26 57 45 35 56
REMARK Flexibility Score: inf
ROOT
ATOM      1  C   UNL A   1      33.566  27.053  25.492  1.00  0.00     0.023 C 
ENDROOT
BRANCH   1   2
ATOM      2  C   UNL A   1      32.278  26.474  26.073  1.00  0.00     0.116 C 
BRANCH   2   3
ATOM      3  N   UNL A   1      31.305  26.179  25.046  1.00  0.00    -0.355 N 
ATOM      4  C   UNL A   1      30.931  24.972  24.538  1.00  0.00     0.239 C 
ATOM      5  O   UNL A   1      30.012  24.951  23.716  1.00  0.00    -0.273 OA
ATOM      6  H   UNL A   1      30.847  26.961  24.661  1.00  0.00     0.163 HD
BRANCH   4   7
ATOM      7  C   UNL A   1      31.573  23.666  25.030  1.00  0.00     0.220 C 
BRANCH   7   8
ATOM      8  N   UNL A   1      32.936  23.428  24.545  1.00  0.00    -0.322 N 
BRANCH   8   9
ATOM      9  C   UNL A   1      33.138  23.267  23.105  1.00  0.00     0.209 C 
BRANCH   9  10
ATOM     10  C   UNL A   1      32.520  21.968  22.614  1.00  0.00    -0.085 C 
ATOM     11  C   UNL A   1      31.989  20.854  22.193  1.00  0.00     0.006 C 
ENDBRANCH   9  10
ENDBRANCH   8   9
BRANCH   8  12
ATOM     12  C   UNL A   1      34.060  23.343  25.364  1.00  0.00     0.233 C 
ATOM     13  O   UNL A   1      33.949  23.432  26.590  1.00  0.00    -0.274 OA
BRANCH  12  14
ATOM     14  C   UNL A   1      35.442  23.203  24.729  1.00  0.00     0.142 C 
ATOM     15  C   UNL A   1      36.535  23.692  25.677  1.00  0.00     0.274 C 
ATOM     16  C   UNL A   1      35.944  21.800  24.339  1.00  0.00     0.059 C 
ATOM     17  N   UNL A   1      37.774  23.186  25.071  1.00  0.00    -0.345 N 
ATOM     18  C   UNL A   1      37.442  21.810  24.691  1.00  0.00     0.264 C 
ATOM     19  C   UNL A   1      35.257  20.620  25.024  1.00  0.00     0.015 C 
ATOM     20  H   UNL A   1      38.540  23.201  25.744  1.00  0.00     0.346 HD
ATOM     21  H   UNL A   1      38.082  23.749  24.278  1.00  0.00     0.346 HD
ENDBRANCH  12  14
ENDBRANCH   8  12
ENDBRANCH   7   8
ENDBRANCH   4   7
ENDBRANCH   2   3
ENDBRANCH   1   2
BRANCH   1  22
ATOM     22  C   UNL A   1      33.911  28.463  25.969  1.00  0.00     0.023 C 
BRANCH  22  23
ATOM     23  C   UNL A   1      33.570  28.754  27.423  1.00  0.00     0.116 C 
BRANCH  23  24
ATOM     24  N   UNL A   1      33.613  30.171  27.755  1.00  0.00    -0.352 N 
ATOM     25  C   UNL A   1      34.667  30.893  28.257  1.00  0.00     0.251 C 
ATOM     26  H   UNL A   1      32.781  30.673  27.601  1.00  0.00     0.163 HD
ATOM     27  O   UNL A   1      34.525  32.069  28.576  1.00  0.00    -0.269 OA
BRANCH  25  28
ATOM     28  C   UNL A   1      35.967  30.222  28.452  1.00  0.00     0.039 A 
ATOM     29  C   UNL A   1      36.894  30.234  27.407  1.00  0.00     0.014 A 
ATOM     30  C   UNL A   1      36.286  29.633  29.679  1.00  0.00     0.014 A 
ATOM     31  C   UNL A   1      38.171  29.713  27.616  1.00  0.00     0.010 A 
ATOM     32  C   UNL A   1      37.580  29.180  29.907  1.00  0.00     0.010 A 
ATOM     33  C   UNL A   1      38.534  29.217  28.879  1.00  0.00    -0.014 A 
BRANCH  33  34
ATOM     34  C   UNL A   1      39.911  28.735  29.147  1.00  0.00     0.031 A 
ATOM     35  C   UNL A   1      40.911  29.642  29.806  1.00  0.00     0.074 A 
ATOM     36  C   UNL A   1      40.279  27.507  28.735  1.00  0.00     0.049 A 
ATOM     37  N   UNL A   1      42.174  29.424  30.069  1.00  0.00    -0.248 NA
ATOM     38  C   UNL A   1      40.436  30.979  30.199  1.00  0.00     0.031 C 
ATOM     39  C   UNL A   1      39.414  26.547  28.043  1.00  0.00     0.029 A 
ATOM     40  N   UNL A   1      41.484  26.858  28.831  1.00  0.00    -0.354 N 
ATOM     41  C   UNL A   1      42.647  30.599  30.639  1.00  0.00     0.074 A 
ATOM     42  C   UNL A   1      41.551  31.542  30.639  1.00  0.00     0.031 C 
ATOM     43  C   UNL A   1      40.110  25.423  27.804  1.00  0.00     0.029 A 
ATOM     44  C   UNL A   1      41.476  25.596  28.287  1.00  0.00     0.049 A 
ATOM     45  H   UNL A   1      42.280  27.259  29.250  1.00  0.00     0.167 HD
ATOM     46  C   UNL A   1      43.879  30.864  31.135  1.00  0.00     0.031 A 
ATOM     47  C   UNL A   1      42.459  24.682  28.188  1.00  0.00     0.031 A 
ATOM     48  C   UNL A   1      44.965  29.922  31.148  1.00  0.00     0.049 A 
ATOM     49  C   UNL A   1      43.818  25.003  28.741  1.00  0.00     0.074 A 
ATOM     50  C   UNL A   1      46.233  30.075  31.682  1.00  0.00     0.029 A 
ATOM     51  N   UNL A   1      44.913  28.651  30.597  1.00  0.00    -0.354 N 
ATOM     52  N   UNL A   1      44.230  26.094  29.340  1.00  0.00    -0.248 NA
ATOM     53  C   UNL A   1      44.846  23.960  28.614  1.00  0.00     0.031 C 
ATOM     54  C   UNL A   1      46.962  28.912  31.415  1.00  0.00     0.029 A 
ATOM     55  C   UNL A   1      46.132  28.016  30.760  1.00  0.00     0.049 A 
ATOM     56  H   UNL A   1      44.124  28.258  30.158  1.00  0.00     0.167 HD
ATOM     57  C   UNL A   1      45.555  25.859  29.684  1.00  0.00     0.074 A 
ATOM     58  C   UNL A   1      45.872  24.516  29.241  1.00  0.00     0.031 C 
ATOM     59  C   UNL A   1      46.430  26.680  30.313  1.00  0.00     0.031 A 
BRANCH  46  60
ATOM     60  C   UNL A   1      44.113  32.236  31.702  1.00  0.00    -0.014 A 
ATOM     61  C   UNL A   1      44.578  33.286  30.894  1.00  0.00     0.009 A 
ATOM     62  C   UNL A   1      43.838  32.489  33.054  1.00  0.00     0.009 A 
ATOM     63  C   UNL A   1      44.801  34.553  31.440  1.00  0.00     0.001 A 
ATOM     64  C   UNL A   1      44.033  33.763  33.590  1.00  0.00     0.001 A 
ATOM     65  C   UNL A   1      44.523  34.791  32.785  1.00  0.00     0.000 A 
ENDBRANCH  46  60
BRANCH  47  66
ATOM     66  C   UNL A   1      42.189  23.366  27.553  1.00  0.00    -0.014 A 
ATOM     67  C   UNL A   1      41.592  22.332  28.291  1.00  0.00     0.009 A 
ATOM     68  C   UNL A   1      42.534  23.133  26.213  1.00  0.00     0.009 A 
ATOM     69  C   UNL A   1      41.369  21.084  27.705  1.00  0.00     0.001 A 
ATOM     70  C   UNL A   1      42.284  21.892  25.622  1.00  0.00     0.001 A 
ATOM     71  C   UNL A   1      41.711  20.866  26.372  1.00  0.00     0.000 A 
ENDBRANCH  47  66
BRANCH  59  72
ATOM     72  C   UNL A   1      47.804  26.138  30.589  1.00  0.00    -0.014 A 
ATOM     73  C   UNL A   1      48.795  26.126  29.595  1.00  0.00     0.009 A 
ATOM     74  C   UNL A   1      48.120  25.670  31.873  1.00  0.00     0.009 A 
ATOM     75  C   UNL A   1      50.068  25.626  29.876  1.00  0.00     0.001 A 
ATOM     76  C   UNL A   1      49.401  25.197  32.158  1.00  0.00     0.001 A 
ATOM     77  C   UNL A   1      50.371  25.167  31.158  1.00  0.00     0.000 A 
ENDBRANCH  59  72
ENDBRANCH  33  34
ENDBRANCH  25  28
ENDBRANCH  23  24
ENDBRANCH  22  23
ENDBRANCH   1  22
TORSDOF 16
ENDMDL
