MODEL 1
REMARK VINA RESULT:     -13.1      0.000      0.000
REMARK SMILES Cc1ccc(NC(=O)CN2C(=O)S/C(=C\c3cc(Cl)c(OCC(=O)NCCCCNC(=O)c4ccc(-c5c6nc(c(-c7ccccc7)c7ccc([nH]7)c(-c7ccccc7)c7nc(c(-c8ccccc8)c8ccc5[nH]8)C=C7)C=C6)cc4)c(Cl)c3)C2=O)cc1
REMARK SMILES IDX 23 1 24 2 25 3 22 5 21 6 20 7 16 8 17 9 83 10 18 11 81 12
REMARK SMILES IDX 19 13 82 14 15 15 10 16 11 17 84 18 12 19 13 20 14 21 85 22
REMARK SMILES IDX 9 23 7 24 6 25 8 27 5 28 1 29 2 30 3 31 87 32 4 33 86 34
REMARK SMILES IDX 26 35 27 36 28 37 29 38 30 39 31 40 32 42 33 43 34 44 80 45
REMARK SMILES IDX 35 46 79 47 36 48 37 49 38 50 73 51 39 52 78 53 72 54 74 55
REMARK SMILES IDX 40 56 77 57 71 58 70 59 41 61 63 62 48 63 62 64 49 65 52 66
REMARK SMILES IDX 61 67 75 68 50 69 51 70 60 72 76 73 53 74 42 75 43 76 47 77
REMARK SMILES IDX 44 78 46 79 45 80 64 81 65 82 69 83 66 84 68 85 67 86 54 87
REMARK SMILES IDX 55 88 59 89 56 90 58 91 57 92
REMARK H PARENT 25 4 6 26 30 41 74 60 52 71
REMARK Flexibility Score: inf
ROOT
ATOM      1  C   UNL A   1      34.370  33.080  29.602  1.00  0.00     0.257 C 
ATOM      2  O   UNL A   1      34.759  32.151  30.311  1.00  0.00    -0.271 OA
ATOM      3  N   UNL A   1      33.775  34.138  30.226  1.00  0.00    -0.353 N 
ATOM      4  H   UNL A   1      33.589  34.014  31.185  1.00  0.00     0.163 HD
ENDROOT
BRANCH   1   5
ATOM      5  C   UNL A   1      34.587  33.105  28.078  1.00  0.00     0.329 C 
BRANCH   5   6
ATOM      6  O   UNL A   1      34.821  31.880  27.412  1.00  0.00    -0.481 OA
BRANCH   6   7
ATOM      7  C   UNL A   1      33.859  30.921  27.242  1.00  0.00     0.157 A 
ATOM      8  C   UNL A   1      32.143  28.647  26.932  1.00  0.00    -0.021 A 
ATOM      9  C   UNL A   1      33.469  28.470  27.301  1.00  0.00     0.032 A 
ATOM     10  C   UNL A   1      31.703  29.955  26.692  1.00  0.00     0.032 A 
ATOM     11  C   UNL A   1      34.311  29.591  27.449  1.00  0.00     0.085 A 
ATOM     12  C   UNL A   1      32.512  31.080  26.908  1.00  0.00     0.085 A 
ATOM     13  Cl  UNL A   1      35.951  29.269  27.925  1.00  0.00    -0.080 Cl
ATOM     14  Cl  UNL A   1      31.639  32.565  26.834  1.00  0.00    -0.080 Cl
BRANCH   8  15
ATOM     15  C   UNL A   1      31.203  27.525  26.728  1.00  0.00     0.029 C 
ATOM     16  N   UNL A   1      31.536  24.355  25.148  1.00  0.00    -0.259 N 
ATOM     17  C   UNL A   1      32.631  24.905  24.536  1.00  0.00     0.294 C 
ATOM     18  C   UNL A   1      30.748  25.234  25.866  1.00  0.00     0.268 C 
ATOM     19  O   UNL A   1      33.651  24.345  24.177  1.00  0.00    -0.261 OA
ATOM     20  S   UNL A   1      32.427  26.636  24.426  1.00  0.00    -0.022 SA
ATOM     21  C   UNL A   1      31.323  26.610  25.749  1.00  0.00     0.083 C 
ATOM     22  O   UNL A   1      29.830  24.938  26.619  1.00  0.00    -0.268 OA
BRANCH  16  23
ATOM     23  C   UNL A   1      31.509  22.925  25.419  1.00  0.00     0.230 C 
BRANCH  23  24
ATOM     24  C   UNL A   1      32.336  22.529  26.646  1.00  0.00     0.244 C 
ATOM     25  N   UNL A   1      33.330  21.596  26.559  1.00  0.00    -0.325 N 
ATOM     26  H   UNL A   1      34.072  21.732  27.190  1.00  0.00     0.169 HD
ATOM     27  O   UNL A   1      32.134  23.073  27.735  1.00  0.00    -0.273 OA
BRANCH  25  28
ATOM     28  C   UNL A   1      33.475  20.479  25.725  1.00  0.00     0.041 A 
ATOM     29  C   UNL A   1      34.221  16.902  23.429  1.00  0.00     0.044 C 
ATOM     30  C   UNL A   1      33.974  18.153  24.218  1.00  0.00    -0.051 A 
ATOM     31  C   UNL A   1      32.720  18.375  24.796  1.00  0.00     0.005 A 
ATOM     32  C   UNL A   1      34.981  19.106  24.402  1.00  0.00     0.005 A 
ATOM     33  C   UNL A   1      32.473  19.528  25.545  1.00  0.00     0.026 A 
ATOM     34  C   UNL A   1      34.735  20.252  25.163  1.00  0.00     0.026 A 
ENDBRANCH  25  28
ENDBRANCH  23  24
ENDBRANCH  16  23
ENDBRANCH   8  15
ENDBRANCH   6   7
ENDBRANCH   5   6
ENDBRANCH   1   5
BRANCH   3  35
ATOM     35  C   UNL A   1      33.377  35.418  29.675  1.00  0.00     0.116 C 
BRANCH  35  36
ATOM     36  C   UNL A   1      32.688  36.329  30.689  1.00  0.00     0.023 C 
BRANCH  36  37
ATOM     37  C   UNL A   1      33.609  37.174  31.563  1.00  0.00     0.023 C 
BRANCH  37  38
ATOM     38  C   UNL A   1      33.827  36.652  32.974  1.00  0.00     0.116 C 
BRANCH  38  39
ATOM     39  N   UNL A   1      33.421  35.269  33.191  1.00  0.00    -0.352 N 
ATOM     40  C   UNL A   1      34.191  34.123  33.327  1.00  0.00     0.251 C 
ATOM     41  H   UNL A   1      32.449  35.125  33.249  1.00  0.00     0.163 HD
ATOM     42  O   UNL A   1      33.638  33.032  33.442  1.00  0.00    -0.269 OA
BRANCH  40  43
ATOM     43  C   UNL A   1      35.662  34.222  33.523  1.00  0.00     0.039 A 
ATOM     44  C   UNL A   1      36.422  34.679  32.437  1.00  0.00     0.014 A 
ATOM     45  C   UNL A   1      36.285  33.564  34.573  1.00  0.00     0.014 A 
ATOM     46  C   UNL A   1      37.700  34.169  32.244  1.00  0.00     0.010 A 
ATOM     47  C   UNL A   1      37.471  32.927  34.312  1.00  0.00     0.010 A 
ATOM     48  C   UNL A   1      38.136  33.177  33.110  1.00  0.00    -0.014 A 
BRANCH  48  49
ATOM     49  C   UNL A   1      39.255  32.295  32.850  1.00  0.00     0.031 A 
ATOM     50  C   UNL A   1      39.015  31.063  32.089  1.00  0.00     0.074 A 
ATOM     51  C   UNL A   1      40.502  32.710  33.161  1.00  0.00     0.049 A 
ATOM     52  N   UNL A   1      39.815  30.057  32.081  1.00  0.00    -0.248 NA
ATOM     53  C   UNL A   1      37.801  30.840  31.308  1.00  0.00     0.031 C 
ATOM     54  C   UNL A   1      41.773  32.189  32.671  1.00  0.00     0.029 A 
ATOM     55  N   UNL A   1      40.867  33.598  34.167  1.00  0.00    -0.354 N 
ATOM     56  C   UNL A   1      39.407  29.225  31.066  1.00  0.00     0.074 A 
ATOM     57  C   UNL A   1      38.091  29.688  30.700  1.00  0.00     0.031 C 
ATOM     58  C   UNL A   1      42.754  32.565  33.509  1.00  0.00     0.029 A 
ATOM     59  C   UNL A   1      42.121  33.197  34.656  1.00  0.00     0.049 A 
ATOM     60  H   UNL A   1      40.340  34.369  34.480  1.00  0.00     0.167 HD
ATOM     61  C   UNL A   1      40.307  28.350  30.544  1.00  0.00     0.031 A 
ATOM     62  C   UNL A   1      42.252  32.764  35.946  1.00  0.00     0.031 A 
ATOM     63  C   UNL A   1      41.571  28.400  31.277  1.00  0.00     0.049 A 
ATOM     64  C   UNL A   1      42.672  31.311  36.043  1.00  0.00     0.074 A 
ATOM     65  C   UNL A   1      42.781  29.021  31.018  1.00  0.00     0.029 A 
ATOM     66  N   UNL A   1      41.587  28.043  32.618  1.00  0.00    -0.354 N 
ATOM     67  N   UNL A   1      42.505  30.440  35.085  1.00  0.00    -0.248 NA
ATOM     68  C   UNL A   1      43.315  30.726  37.214  1.00  0.00     0.031 C 
ATOM     69  C   UNL A   1      43.512  29.077  32.234  1.00  0.00     0.029 A 
ATOM     70  C   UNL A   1      42.757  28.463  33.217  1.00  0.00     0.049 A 
ATOM     71  H   UNL A   1      40.865  27.556  33.078  1.00  0.00     0.167 HD
ATOM     72  C   UNL A   1      43.025  29.228  35.461  1.00  0.00     0.074 A 
ATOM     73  C   UNL A   1      43.509  29.456  36.811  1.00  0.00     0.031 C 
ATOM     74  C   UNL A   1      43.014  28.152  34.619  1.00  0.00     0.031 A 
BRANCH  61  75
ATOM     75  C   UNL A   1      40.155  27.667  29.207  1.00  0.00    -0.014 A 
ATOM     76  C   UNL A   1      39.514  26.416  29.151  1.00  0.00     0.009 A 
ATOM     77  C   UNL A   1      40.655  28.155  27.989  1.00  0.00     0.009 A 
ATOM     78  C   UNL A   1      39.443  25.665  27.971  1.00  0.00     0.001 A 
ATOM     79  C   UNL A   1      40.610  27.401  26.807  1.00  0.00     0.001 A 
ATOM     80  C   UNL A   1      40.010  26.151  26.801  1.00  0.00     0.000 A 
ENDBRANCH  61  75
BRANCH  62  81
ATOM     81  C   UNL A   1      41.312  33.458  36.878  1.00  0.00    -0.014 A 
ATOM     82  C   UNL A   1      41.378  34.867  36.938  1.00  0.00     0.009 A 
ATOM     83  C   UNL A   1      40.134  32.826  37.301  1.00  0.00     0.009 A 
ATOM     84  C   UNL A   1      40.243  35.624  37.247  1.00  0.00     0.001 A 
ATOM     85  C   UNL A   1      39.007  33.590  37.635  1.00  0.00     0.001 A 
ATOM     86  C   UNL A   1      39.046  34.984  37.556  1.00  0.00     0.000 A 
ENDBRANCH  62  81
BRANCH  74  87
ATOM     87  C   UNL A   1      43.296  26.703  34.964  1.00  0.00    -0.014 A 
ATOM     88  C   UNL A   1      42.326  25.742  35.265  1.00  0.00     0.009 A 
ATOM     89  C   UNL A   1      44.629  26.228  34.861  1.00  0.00     0.009 A 
ATOM     90  C   UNL A   1      42.668  24.397  35.474  1.00  0.00     0.001 A 
ATOM     91  C   UNL A   1      44.968  24.883  35.014  1.00  0.00     0.001 A 
ATOM     92  C   UNL A   1      43.983  23.965  35.333  1.00  0.00     0.000 A 
ENDBRANCH  74  87
ENDBRANCH  48  49
ENDBRANCH  40  43
ENDBRANCH  38  39
ENDBRANCH  37  38
ENDBRANCH  36  37
ENDBRANCH  35  36
ENDBRANCH   3  35
TORSDOF 17
ENDMDL
MODEL 2
REMARK VINA RESULT:     -13.0      1.407      2.137
REMARK SMILES Cc1ccc(NC(=O)CN2C(=O)S/C(=C\c3cc(Cl)c(OCC(=O)NCCCCNC(=O)c4ccc(-c5c6nc(c(-c7ccccc7)c7ccc([nH]7)c(-c7ccccc7)c7nc(c(-c8ccccc8)c8ccc5[nH]8)C=C7)C=C6)cc4)c(Cl)c3)C2=O)cc1
REMARK SMILES IDX 23 1 24 2 25 3 22 5 21 6 20 7 16 8 17 9 83 10 18 11 81 12
REMARK SMILES IDX 19 13 82 14 15 15 10 16 11 17 84 18 12 19 13 20 14 21 85 22
REMARK SMILES IDX 9 23 7 24 6 25 8 27 5 28 1 29 2 30 3 31 87 32 4 33 86 34
REMARK SMILES IDX 26 35 27 36 28 37 29 38 30 39 31 40 32 42 33 43 34 44 80 45
REMARK SMILES IDX 35 46 79 47 36 48 37 49 38 50 73 51 39 52 78 53 72 54 74 55
REMARK SMILES IDX 40 56 77 57 71 58 70 59 41 61 63 62 48 63 62 64 49 65 52 66
REMARK SMILES IDX 61 67 75 68 50 69 51 70 60 72 76 73 53 74 42 75 43 76 47 77
REMARK SMILES IDX 44 78 46 79 45 80 64 81 65 82 69 83 66 84 68 85 67 86 54 87
REMARK SMILES IDX 55 88 59 89 56 90 58 91 57 92
REMARK H PARENT 25 4 6 26 30 41 74 60 52 71
REMARK Flexibility Score: inf
ROOT
ATOM      1  C   UNL A   1      34.919  34.162  29.108  1.00  0.00     0.257 C 
ATOM      2  O   UNL A   1      36.145  34.056  29.057  1.00  0.00    -0.271 OA
ATOM      3  N   UNL A   1      34.407  35.408  29.327  1.00  0.00    -0.353 N 
ATOM      4  H   UNL A   1      35.067  36.103  29.555  1.00  0.00     0.163 HD
ENDROOT
BRANCH   1   5
ATOM      5  C   UNL A   1      33.974  32.969  28.877  1.00  0.00     0.329 C 
BRANCH   5   6
ATOM      6  O   UNL A   1      33.820  32.479  27.559  1.00  0.00    -0.481 OA
BRANCH   6   7
ATOM      7  C   UNL A   1      33.689  31.149  27.262  1.00  0.00     0.157 A 
ATOM      8  C   UNL A   1      33.026  28.445  26.586  1.00  0.00    -0.021 A 
ATOM      9  C   UNL A   1      32.071  29.445  26.462  1.00  0.00     0.032 A 
ATOM     10  C   UNL A   1      34.287  28.806  27.076  1.00  0.00     0.032 A 
ATOM     11  C   UNL A   1      32.401  30.773  26.799  1.00  0.00     0.085 A 
ATOM     12  C   UNL A   1      34.646  30.134  27.343  1.00  0.00     0.085 A 
ATOM     13  Cl  UNL A   1      31.143  31.956  26.600  1.00  0.00    -0.080 Cl
ATOM     14  Cl  UNL A   1      36.334  30.334  27.636  1.00  0.00    -0.080 Cl
BRANCH   8  15
ATOM     15  C   UNL A   1      32.753  27.024  26.281  1.00  0.00     0.029 C 
ATOM     16  N   UNL A   1      33.273  25.035  23.377  1.00  0.00    -0.259 N 
ATOM     17  C   UNL A   1      33.361  26.232  22.716  1.00  0.00     0.294 C 
ATOM     18  C   UNL A   1      32.858  25.109  24.693  1.00  0.00     0.268 C 
ATOM     19  O   UNL A   1      34.023  26.497  21.729  1.00  0.00    -0.261 OA
ATOM     20  S   UNL A   1      32.441  27.441  23.576  1.00  0.00    -0.022 SA
ATOM     21  C   UNL A   1      32.584  26.539  25.038  1.00  0.00     0.083 C 
ATOM     22  O   UNL A   1      32.870  24.199  25.511  1.00  0.00    -0.268 OA
BRANCH  16  23
ATOM     23  C   UNL A   1      34.022  23.889  22.887  1.00  0.00     0.230 C 
BRANCH  23  24
ATOM     24  C   UNL A   1      33.563  22.562  23.500  1.00  0.00     0.244 C 
ATOM     25  N   UNL A   1      34.255  21.977  24.522  1.00  0.00    -0.325 N 
ATOM     26  H   UNL A   1      33.700  21.448  25.139  1.00  0.00     0.169 HD
ATOM     27  O   UNL A   1      32.534  22.013  23.096  1.00  0.00    -0.273 OA
BRANCH  25  28
ATOM     28  C   UNL A   1      35.619  22.000  24.843  1.00  0.00     0.041 A 
ATOM     29  C   UNL A   1      39.701  22.126  26.236  1.00  0.00     0.044 C 
ATOM     30  C   UNL A   1      38.283  22.099  25.751  1.00  0.00    -0.051 A 
ATOM     31  C   UNL A   1      37.776  20.943  25.149  1.00  0.00     0.005 A 
ATOM     32  C   UNL A   1      37.445  23.208  25.897  1.00  0.00     0.005 A 
ATOM     33  C   UNL A   1      36.454  20.893  24.700  1.00  0.00     0.026 A 
ATOM     34  C   UNL A   1      36.118  23.152  25.459  1.00  0.00     0.026 A 
ENDBRANCH  25  28
ENDBRANCH  23  24
ENDBRANCH  16  23
ENDBRANCH   8  15
ENDBRANCH   6   7
ENDBRANCH   5   6
ENDBRANCH   1   5
BRANCH   3  35
ATOM     35  C   UNL A   1      33.029  35.852  29.273  1.00  0.00     0.116 C 
BRANCH  35  36
ATOM     36  C   UNL A   1      32.528  36.442  30.590  1.00  0.00     0.023 C 
BRANCH  36  37
ATOM     37  C   UNL A   1      33.574  37.142  31.450  1.00  0.00     0.023 C 
BRANCH  37  38
ATOM     38  C   UNL A   1      33.738  36.589  32.857  1.00  0.00     0.116 C 
BRANCH  38  39
ATOM     39  N   UNL A   1      33.305  35.208  33.032  1.00  0.00    -0.352 N 
ATOM     40  C   UNL A   1      34.053  34.050  33.181  1.00  0.00     0.251 C 
ATOM     41  H   UNL A   1      32.329  35.077  33.044  1.00  0.00     0.163 HD
ATOM     42  O   UNL A   1      33.481  32.965  33.253  1.00  0.00    -0.269 OA
BRANCH  40  43
ATOM     43  C   UNL A   1      35.515  34.125  33.444  1.00  0.00     0.039 A 
ATOM     44  C   UNL A   1      36.323  34.628  32.414  1.00  0.00     0.014 A 
ATOM     45  C   UNL A   1      36.088  33.410  34.485  1.00  0.00     0.014 A 
ATOM     46  C   UNL A   1      37.604  34.116  32.249  1.00  0.00     0.010 A 
ATOM     47  C   UNL A   1      37.279  32.776  34.242  1.00  0.00     0.010 A 
ATOM     48  C   UNL A   1      37.996  33.078  33.083  1.00  0.00    -0.014 A 
BRANCH  48  49
ATOM     49  C   UNL A   1      39.118  32.200  32.826  1.00  0.00     0.031 A 
ATOM     50  C   UNL A   1      38.892  30.984  32.035  1.00  0.00     0.074 A 
ATOM     51  C   UNL A   1      40.360  32.606  33.169  1.00  0.00     0.049 A 
ATOM     52  N   UNL A   1      39.690  29.978  32.022  1.00  0.00    -0.248 NA
ATOM     53  C   UNL A   1      37.693  30.780  31.226  1.00  0.00     0.031 C 
ATOM     54  C   UNL A   1      41.639  32.093  32.693  1.00  0.00     0.029 A 
ATOM     55  N   UNL A   1      40.707  33.473  34.200  1.00  0.00    -0.354 N 
ATOM     56  C   UNL A   1      39.301  29.168  30.982  1.00  0.00     0.074 A 
ATOM     57  C   UNL A   1      37.993  29.640  30.600  1.00  0.00     0.031 C 
ATOM     58  C   UNL A   1      42.605  32.449  33.558  1.00  0.00     0.029 A 
ATOM     59  C   UNL A   1      41.950  33.059  34.705  1.00  0.00     0.049 A 
ATOM     60  H   UNL A   1      40.175  34.238  34.519  1.00  0.00     0.167 HD
ATOM     61  C   UNL A   1      40.209  28.302  30.459  1.00  0.00     0.031 A 
ATOM     62  C   UNL A   1      42.056  32.599  35.988  1.00  0.00     0.031 A 
ATOM     63  C   UNL A   1      41.458  28.334  31.217  1.00  0.00     0.049 A 
ATOM     64  C   UNL A   1      42.472  31.144  36.063  1.00  0.00     0.074 A 
ATOM     65  C   UNL A   1      42.674  28.958  30.994  1.00  0.00     0.029 A 
ATOM     66  N   UNL A   1      41.448  27.949  32.551  1.00  0.00    -0.354 N 
ATOM     67  N   UNL A   1      42.322  30.293  35.084  1.00  0.00    -0.248 NA
ATOM     68  C   UNL A   1      43.092  30.533  37.234  1.00  0.00     0.031 C 
ATOM     69  C   UNL A   1      43.382  28.988  32.225  1.00  0.00     0.029 A 
ATOM     70  C   UNL A   1      42.607  28.355  33.181  1.00  0.00     0.049 A 
ATOM     71  H   UNL A   1      40.717  27.454  32.986  1.00  0.00     0.167 HD
ATOM     72  C   UNL A   1      42.833  29.073  35.444  1.00  0.00     0.074 A 
ATOM     73  C   UNL A   1      43.291  29.272  36.808  1.00  0.00     0.031 C 
ATOM     74  C   UNL A   1      42.836  28.014  34.580  1.00  0.00     0.031 A 
BRANCH  61  75
ATOM     75  C   UNL A   1      40.082  27.647  29.106  1.00  0.00    -0.014 A 
ATOM     76  C   UNL A   1      39.648  26.310  29.034  1.00  0.00     0.009 A 
ATOM     77  C   UNL A   1      40.416  28.249  27.882  1.00  0.00     0.009 A 
ATOM     78  C   UNL A   1      39.622  25.597  27.830  1.00  0.00     0.001 A 
ATOM     79  C   UNL A   1      40.416  27.537  26.674  1.00  0.00     0.001 A 
ATOM     80  C   UNL A   1      40.026  26.206  26.650  1.00  0.00     0.000 A 
ENDBRANCH  61  75
BRANCH  62  81
ATOM     81  C   UNL A   1      41.099  33.275  36.916  1.00  0.00    -0.014 A 
ATOM     82  C   UNL A   1      41.263  34.662  37.121  1.00  0.00     0.009 A 
ATOM     83  C   UNL A   1      39.849  32.703  37.189  1.00  0.00     0.009 A 
ATOM     84  C   UNL A   1      40.166  35.476  37.423  1.00  0.00     0.001 A 
ATOM     85  C   UNL A   1      38.758  33.521  37.517  1.00  0.00     0.001 A 
ATOM     86  C   UNL A   1      38.905  34.908  37.581  1.00  0.00     0.000 A 
ENDBRANCH  62  81
BRANCH  74  87
ATOM     87  C   UNL A   1      43.110  26.558  34.901  1.00  0.00    -0.014 A 
ATOM     88  C   UNL A   1      42.322  25.752  35.728  1.00  0.00     0.009 A 
ATOM     89  C   UNL A   1      44.173  25.902  34.226  1.00  0.00     0.009 A 
ATOM     90  C   UNL A   1      42.591  24.384  35.890  1.00  0.00     0.001 A 
ATOM     91  C   UNL A   1      44.412  24.532  34.341  1.00  0.00     0.001 A 
ATOM     92  C   UNL A   1      43.623  23.772  35.185  1.00  0.00     0.000 A 
ENDBRANCH  74  87
ENDBRANCH  48  49
ENDBRANCH  40  43
ENDBRANCH  38  39
ENDBRANCH  37  38
ENDBRANCH  36  37
ENDBRANCH  35  36
ENDBRANCH   3  35
TORSDOF 17
ENDMDL
MODEL 3
REMARK VINA RESULT:     -12.9      4.016     10.996
REMARK SMILES Cc1ccc(NC(=O)CN2C(=O)S/C(=C\c3cc(Cl)c(OCC(=O)NCCCCNC(=O)c4ccc(-c5c6nc(c(-c7ccccc7)c7ccc([nH]7)c(-c7ccccc7)c7nc(c(-c8ccccc8)c8ccc5[nH]8)C=C7)C=C6)cc4)c(Cl)c3)C2=O)cc1
REMARK SMILES IDX 23 1 24 2 25 3 22 5 21 6 20 7 16 8 17 9 83 10 18 11 81 12
REMARK SMILES IDX 19 13 82 14 15 15 10 16 11 17 84 18 12 19 13 20 14 21 85 22
REMARK SMILES IDX 9 23 7 24 6 25 8 27 5 28 1 29 2 30 3 31 87 32 4 33 86 34
REMARK SMILES IDX 26 35 27 36 28 37 29 38 30 39 31 40 32 42 33 43 34 44 80 45
REMARK SMILES IDX 35 46 79 47 36 48 37 49 38 50 73 51 39 52 78 53 72 54 74 55
REMARK SMILES IDX 40 56 77 57 71 58 70 59 41 61 63 62 48 63 62 64 49 65 52 66
REMARK SMILES IDX 61 67 75 68 50 69 51 70 60 72 76 73 53 74 42 75 43 76 47 77
REMARK SMILES IDX 44 78 46 79 45 80 64 81 65 82 69 83 66 84 68 85 67 86 54 87
REMARK SMILES IDX 55 88 59 89 56 90 58 91 57 92
REMARK H PARENT 25 4 6 26 30 41 74 60 52 71
REMARK Flexibility Score: inf
ROOT
ATOM      1  C   UNL A   1      32.870  23.613  23.039  1.00  0.00     0.257 C 
ATOM      2  O   UNL A   1      31.774  23.055  23.110  1.00  0.00    -0.271 OA
ATOM      3  N   UNL A   1      33.926  22.997  23.645  1.00  0.00    -0.353 N 
ATOM      4  H   UNL A   1      33.700  22.218  24.201  1.00  0.00     0.163 HD
ENDROOT
BRANCH   1   5
ATOM      5  C   UNL A   1      33.084  24.920  22.254  1.00  0.00     0.329 C 
BRANCH   5   6
ATOM      6  O   UNL A   1      32.022  25.853  22.197  1.00  0.00    -0.481 OA
BRANCH   6   7
ATOM      7  C   UNL A   1      31.972  26.982  22.969  1.00  0.00     0.157 A 
ATOM      8  C   UNL A   1      31.529  29.192  24.738  1.00  0.00    -0.021 A 
ATOM      9  C   UNL A   1      30.724  28.065  24.822  1.00  0.00     0.032 A 
ATOM     10  C   UNL A   1      32.521  29.212  23.750  1.00  0.00     0.032 A 
ATOM     11  C   UNL A   1      30.943  26.981  23.947  1.00  0.00     0.085 A 
ATOM     12  C   UNL A   1      32.795  28.111  22.926  1.00  0.00     0.085 A 
ATOM     13  Cl  UNL A   1      29.893  25.610  24.137  1.00  0.00    -0.080 Cl
ATOM     14  Cl  UNL A   1      34.251  28.287  22.020  1.00  0.00    -0.080 Cl
BRANCH   8  15
ATOM     15  C   UNL A   1      31.348  30.381  25.596  1.00  0.00     0.029 C 
ATOM     16  N   UNL A   1      33.578  32.230  27.663  1.00  0.00    -0.259 N 
ATOM     17  C   UNL A   1      34.373  31.115  27.601  1.00  0.00     0.294 C 
ATOM     18  C   UNL A   1      32.309  32.088  27.134  1.00  0.00     0.268 C 
ATOM     19  O   UNL A   1      35.589  31.058  27.639  1.00  0.00    -0.261 OA
ATOM     20  S   UNL A   1      33.379  29.706  27.330  1.00  0.00    -0.022 SA
ATOM     21  C   UNL A   1      32.142  30.686  26.639  1.00  0.00     0.083 C 
ATOM     22  O   UNL A   1      31.502  32.985  26.933  1.00  0.00    -0.268 OA
BRANCH  16  23
ATOM     23  C   UNL A   1      34.191  33.541  27.810  1.00  0.00     0.230 C 
BRANCH  23  24
ATOM     24  C   UNL A   1      33.932  34.176  29.180  1.00  0.00     0.244 C 
ATOM     25  N   UNL A   1      34.962  34.492  30.020  1.00  0.00    -0.325 N 
ATOM     26  H   UNL A   1      34.789  35.265  30.603  1.00  0.00     0.169 HD
ATOM     27  O   UNL A   1      32.780  34.440  29.536  1.00  0.00    -0.273 OA
BRANCH  25  28
ATOM     28  C   UNL A   1      36.223  33.905  30.193  1.00  0.00     0.041 A 
ATOM     29  C   UNL A   1      40.271  32.459  30.575  1.00  0.00     0.044 C 
ATOM     30  C   UNL A   1      38.864  32.955  30.426  1.00  0.00    -0.051 A 
ATOM     31  C   UNL A   1      38.061  33.117  31.559  1.00  0.00     0.005 A 
ATOM     32  C   UNL A   1      38.336  33.275  29.172  1.00  0.00     0.005 A 
ATOM     33  C   UNL A   1      36.751  33.590  31.444  1.00  0.00     0.026 A 
ATOM     34  C   UNL A   1      37.029  33.760  29.060  1.00  0.00     0.026 A 
ENDBRANCH  25  28
ENDBRANCH  23  24
ENDBRANCH  16  23
ENDBRANCH   8  15
ENDBRANCH   6   7
ENDBRANCH   5   6
ENDBRANCH   1   5
BRANCH   3  35
ATOM     35  C   UNL A   1      35.335  23.332  23.585  1.00  0.00     0.116 C 
BRANCH  35  36
ATOM     36  C   UNL A   1      36.159  22.695  24.703  1.00  0.00     0.023 C 
BRANCH  36  37
ATOM     37  C   UNL A   1      37.464  23.401  25.056  1.00  0.00     0.023 C 
BRANCH  37  38
ATOM     38  C   UNL A   1      38.316  22.708  26.108  1.00  0.00     0.116 C 
BRANCH  38  39
ATOM     39  N   UNL A   1      38.634  21.314  25.824  1.00  0.00    -0.352 N 
ATOM     40  C   UNL A   1      39.854  20.653  25.850  1.00  0.00     0.251 C 
ATOM     41  H   UNL A   1      37.864  20.755  25.573  1.00  0.00     0.163 HD
ATOM     42  O   UNL A   1      39.910  19.474  25.511  1.00  0.00    -0.269 OA
BRANCH  40  43
ATOM     43  C   UNL A   1      41.048  21.298  26.459  1.00  0.00     0.039 A 
ATOM     44  C   UNL A   1      41.194  21.185  27.849  1.00  0.00     0.014 A 
ATOM     45  C   UNL A   1      41.772  22.255  25.764  1.00  0.00     0.014 A 
ATOM     46  C   UNL A   1      41.767  22.235  28.556  1.00  0.00     0.010 A 
ATOM     47  C   UNL A   1      42.185  23.366  26.454  1.00  0.00     0.010 A 
ATOM     48  C   UNL A   1      42.109  23.378  27.848  1.00  0.00    -0.014 A 
BRANCH  48  49
ATOM     49  C   UNL A   1      42.367  24.669  28.450  1.00  0.00     0.031 A 
ATOM     50  C   UNL A   1      41.265  25.635  28.539  1.00  0.00     0.074 A 
ATOM     51  C   UNL A   1      43.552  24.881  29.062  1.00  0.00     0.049 A 
ATOM     52  N   UNL A   1      41.430  26.896  28.728  1.00  0.00    -0.248 NA
ATOM     53  C   UNL A   1      39.866  25.257  28.358  1.00  0.00     0.031 C 
ATOM     54  C   UNL A   1      43.893  25.917  30.031  1.00  0.00     0.029 A 
ATOM     55  N   UNL A   1      44.772  24.284  28.764  1.00  0.00    -0.354 N 
ATOM     56  C   UNL A   1      40.196  27.423  29.024  1.00  0.00     0.074 A 
ATOM     57  C   UNL A   1      39.247  26.399  28.663  1.00  0.00     0.031 C 
ATOM     58  C   UNL A   1      45.229  26.054  30.076  1.00  0.00     0.029 A 
ATOM     59  C   UNL A   1      45.782  25.228  29.013  1.00  0.00     0.049 A 
ATOM     60  H   UNL A   1      44.904  23.365  28.437  1.00  0.00     0.167 HD
ATOM     61  C   UNL A   1      40.139  28.602  29.699  1.00  0.00     0.031 A 
ATOM     62  C   UNL A   1      46.551  25.702  27.987  1.00  0.00     0.031 A 
ATOM     63  C   UNL A   1      41.477  29.156  29.897  1.00  0.00     0.049 A 
ATOM     64  C   UNL A   1      46.368  27.188  27.748  1.00  0.00     0.074 A 
ATOM     65  C   UNL A   1      42.342  29.155  30.978  1.00  0.00     0.029 A 
ATOM     66  N   UNL A   1      42.231  29.511  28.787  1.00  0.00    -0.354 N 
ATOM     67  N   UNL A   1      45.317  27.862  28.131  1.00  0.00    -0.248 NA
ATOM     68  C   UNL A   1      47.346  28.030  27.069  1.00  0.00     0.031 C 
ATOM     69  C   UNL A   1      43.641  29.469  30.499  1.00  0.00     0.029 A 
ATOM     70  C   UNL A   1      43.554  29.690  29.136  1.00  0.00     0.049 A 
ATOM     71  H   UNL A   1      41.871  29.622  27.877  1.00  0.00     0.167 HD
ATOM     72  C   UNL A   1      45.469  29.186  27.806  1.00  0.00     0.074 A 
ATOM     73  C   UNL A   1      46.753  29.237  27.129  1.00  0.00     0.031 C 
ATOM     74  C   UNL A   1      44.524  30.116  28.134  1.00  0.00     0.031 A 
BRANCH  61  75
ATOM     75  C   UNL A   1      38.922  29.107  30.432  1.00  0.00    -0.014 A 
ATOM     76  C   UNL A   1      38.948  29.165  31.838  1.00  0.00     0.009 A 
ATOM     77  C   UNL A   1      37.713  29.487  29.826  1.00  0.00     0.009 A 
ATOM     78  C   UNL A   1      37.819  29.505  32.594  1.00  0.00     0.001 A 
ATOM     79  C   UNL A   1      36.570  29.806  30.574  1.00  0.00     0.001 A 
ATOM     80  C   UNL A   1      36.622  29.808  31.960  1.00  0.00     0.000 A 
ENDBRANCH  61  75
BRANCH  62  81
ATOM     81  C   UNL A   1      46.781  24.676  26.926  1.00  0.00    -0.014 A 
ATOM     82  C   UNL A   1      46.067  23.463  27.029  1.00  0.00     0.009 A 
ATOM     83  C   UNL A   1      47.285  25.050  25.672  1.00  0.00     0.009 A 
ATOM     84  C   UNL A   1      45.720  22.737  25.885  1.00  0.00     0.001 A 
ATOM     85  C   UNL A   1      46.955  24.304  24.532  1.00  0.00     0.001 A 
ATOM     86  C   UNL A   1      46.131  23.182  24.631  1.00  0.00     0.000 A 
ENDBRANCH  62  81
BRANCH  74  87
ATOM     87  C   UNL A   1      44.411  31.540  27.627  1.00  0.00    -0.014 A 
ATOM     88  C   UNL A   1      44.571  31.937  26.296  1.00  0.00     0.009 A 
ATOM     89  C   UNL A   1      43.992  32.552  28.529  1.00  0.00     0.009 A 
ATOM     90  C   UNL A   1      44.349  33.264  25.896  1.00  0.00     0.001 A 
ATOM     91  C   UNL A   1      43.717  33.860  28.128  1.00  0.00     0.001 A 
ATOM     92  C   UNL A   1      43.907  34.220  26.806  1.00  0.00     0.000 A 
ENDBRANCH  74  87
ENDBRANCH  48  49
ENDBRANCH  40  43
ENDBRANCH  38  39
ENDBRANCH  37  38
ENDBRANCH  36  37
ENDBRANCH  35  36
ENDBRANCH   3  35
TORSDOF 17
ENDMDL
