MODEL 1
REMARK VINA RESULT:     -12.2      0.000      0.000
REMARK SMILES C[C@H](NS(=O)(=O)c1ccc(-c2cc(-c3ccccc3)c3cc([N+](=O)[O-])ccc3n2)cc1)C(=O)NCCCCNC(=O)c1ccc(-c2c3nc(c(-c4ccccc4)c4ccc([nH]4)c(-c4ccccc4)c4nc(c(-c5ccccc5)c5ccc2[nH]5)C=C4)C=C3)cc1
REMARK SMILES IDX 35 1 34 2 32 3 33 4 2 6 1 7 3 8 4 10 5 11 6 12 7 13 8 14
REMARK SMILES IDX 31 15 9 16 30 17 10 18 11 19 12 20 29 21 13 22 28 23 20 24
REMARK SMILES IDX 27 25 21 26 26 27 22 28 14 29 15 30 19 31 16 32 18 33 17 34
REMARK SMILES IDX 23 35 24 36 25 37 36 38 37 39 38 40 39 41 40 42 41 44 42 45
REMARK SMILES IDX 43 46 89 47 44 48 88 49 45 50 46 51 47 52 82 53 48 54 87 55
REMARK SMILES IDX 81 56 83 57 49 58 86 59 80 60 79 61 50 63 72 64 57 65 71 66
REMARK SMILES IDX 58 67 61 68 70 69 84 70 59 71 60 72 69 74 85 75 62 76 51 77
REMARK SMILES IDX 52 78 56 79 53 80 55 81 54 82 73 83 74 84 78 85 75 86 77 87
REMARK SMILES IDX 76 88 63 89 64 90 68 91 65 92 67 93 66 94
REMARK H PARENT 34 5 3 9 39 43 83 62 61 73
REMARK Flexibility Score: inf
ROOT
ATOM      1  C   UNL A   1      31.757  28.587  26.392  1.00  0.00     0.116 C 
ENDROOT
BRANCH   1   2
ATOM      2  N   UNL A   1      31.071  29.053  25.204  1.00  0.00    -0.355 N 
ATOM      3  C   UNL A   1      31.532  29.129  23.923  1.00  0.00     0.237 C 
ATOM      4  O   UNL A   1      30.845  29.750  23.108  1.00  0.00    -0.273 OA
ATOM      5  H   UNL A   1      30.145  29.357  25.339  1.00  0.00     0.163 HD
BRANCH   3   6
ATOM      6  C   UNL A   1      32.839  28.435  23.495  1.00  0.00     0.155 C 
ATOM      7  C   UNL A   1      34.008  29.387  23.704  1.00  0.00     0.036 C 
BRANCH   6   8
ATOM      8  N   UNL A   1      32.714  27.867  22.143  1.00  0.00    -0.199 NA
ATOM      9  H   UNL A   1      33.550  28.163  21.639  1.00  0.00     0.142 HD
BRANCH   8  10
ATOM     10  S   UNL A   1      32.552  26.225  21.828  1.00  0.00     0.241 S 
ATOM     11  O   UNL A   1      31.497  26.121  20.855  1.00  0.00    -0.207 OA
ATOM     12  O   UNL A   1      33.876  25.689  21.569  1.00  0.00    -0.207 OA
BRANCH  10  13
ATOM     13  C   UNL A   1      31.959  25.515  23.350  1.00  0.00     0.082 A 
ATOM     14  C   UNL A   1      32.771  25.532  24.488  1.00  0.00     0.022 A 
ATOM     15  C   UNL A   1      30.694  24.931  23.407  1.00  0.00     0.022 A 
ATOM     16  C   UNL A   1      32.413  24.764  25.606  1.00  0.00     0.012 A 
ATOM     17  C   UNL A   1      30.332  24.180  24.531  1.00  0.00     0.012 A 
ATOM     18  C   UNL A   1      31.259  23.956  25.578  1.00  0.00     0.000 A 
BRANCH  18  19
ATOM     19  C   UNL A   1      31.355  22.558  26.140  1.00  0.00     0.072 A 
ATOM     20  C   UNL A   1      31.271  21.421  25.339  1.00  0.00     0.038 A 
ATOM     21  N   UNL A   1      32.331  22.608  27.085  1.00  0.00    -0.248 NA
ATOM     22  C   UNL A   1      32.449  20.691  25.172  1.00  0.00    -0.007 A 
ATOM     23  C   UNL A   1      33.529  22.193  26.677  1.00  0.00     0.072 A 
ATOM     24  C   UNL A   1      33.629  21.344  25.579  1.00  0.00     0.015 A 
ATOM     25  C   UNL A   1      34.690  22.709  27.230  1.00  0.00     0.036 A 
ATOM     26  C   UNL A   1      34.851  21.229  24.884  1.00  0.00     0.096 A 
ATOM     27  C   UNL A   1      35.915  22.586  26.562  1.00  0.00     0.088 A 
ATOM     28  C   UNL A   1      35.965  21.924  25.338  1.00  0.00     0.270 A 
BRANCH  22  29
ATOM     29  C   UNL A   1      32.579  19.302  24.682  1.00  0.00    -0.018 A 
ATOM     30  C   UNL A   1      32.854  18.302  25.653  1.00  0.00     0.009 A 
ATOM     31  C   UNL A   1      32.545  18.909  23.345  1.00  0.00     0.009 A 
ATOM     32  C   UNL A   1      33.214  17.004  25.307  1.00  0.00     0.001 A 
ATOM     33  C   UNL A   1      32.877  17.589  22.995  1.00  0.00     0.001 A 
ATOM     34  C   UNL A   1      33.240  16.652  23.969  1.00  0.00     0.000 A 
ENDBRANCH  22  29
BRANCH  28  35
ATOM     35  N   UNL A   1      37.139  22.055  24.471  1.00  0.00     0.062 N 
ATOM     36  O   UNL A   1      36.959  22.491  23.324  1.00  0.00    -0.258 OA
ATOM     37  O   UNL A   1      38.245  21.780  24.956  1.00  0.00    -0.258 OA
ENDBRANCH  28  35
ENDBRANCH  18  19
ENDBRANCH  10  13
ENDBRANCH   8  10
ENDBRANCH   6   8
ENDBRANCH   3   6
ENDBRANCH   1   2
BRANCH   1  38
ATOM     38  C   UNL A   1      32.401  29.754  27.133  1.00  0.00     0.023 C 
BRANCH  38  39
ATOM     39  C   UNL A   1      31.630  31.073  27.036  1.00  0.00     0.023 C 
BRANCH  39  40
ATOM     40  C   UNL A   1      32.422  32.247  26.467  1.00  0.00     0.116 C 
BRANCH  40  41
ATOM     41  N   UNL A   1      32.216  33.481  27.210  1.00  0.00    -0.352 N 
ATOM     42  C   UNL A   1      32.969  34.026  28.220  1.00  0.00     0.251 C 
ATOM     43  H   UNL A   1      31.420  34.002  26.950  1.00  0.00     0.163 HD
ATOM     44  O   UNL A   1      32.572  35.010  28.833  1.00  0.00    -0.269 OA
BRANCH  42  45
ATOM     45  C   UNL A   1      34.252  33.396  28.585  1.00  0.00     0.039 A 
ATOM     46  C   UNL A   1      35.418  33.817  27.941  1.00  0.00     0.014 A 
ATOM     47  C   UNL A   1      34.303  32.414  29.578  1.00  0.00     0.014 A 
ATOM     48  C   UNL A   1      36.649  33.303  28.347  1.00  0.00     0.010 A 
ATOM     49  C   UNL A   1      35.537  31.959  30.030  1.00  0.00     0.010 A 
ATOM     50  C   UNL A   1      36.721  32.399  29.418  1.00  0.00    -0.014 A 
BRANCH  50  51
ATOM     51  C   UNL A   1      38.026  31.904  29.921  1.00  0.00     0.031 A 
ATOM     52  C   UNL A   1      38.579  30.598  29.424  1.00  0.00     0.074 A 
ATOM     53  C   UNL A   1      38.681  32.598  30.871  1.00  0.00     0.049 A 
ATOM     54  N   UNL A   1      39.670  29.972  29.787  1.00  0.00    -0.248 NA
ATOM     55  C   UNL A   1      37.788  29.887  28.405  1.00  0.00     0.031 C 
ATOM     56  C   UNL A   1      38.229  33.858  31.467  1.00  0.00     0.029 A 
ATOM     57  N   UNL A   1      39.866  32.336  31.510  1.00  0.00    -0.354 N 
ATOM     58  C   UNL A   1      39.686  28.791  29.057  1.00  0.00     0.074 A 
ATOM     59  C   UNL A   1      38.472  28.762  28.270  1.00  0.00     0.031 C 
ATOM     60  C   UNL A   1      39.140  34.272  32.362  1.00  0.00     0.029 A 
ATOM     61  C   UNL A   1      40.217  33.292  32.433  1.00  0.00     0.049 A 
ATOM     62  H   UNL A   1      40.414  31.540  31.325  1.00  0.00     0.167 HD
ATOM     63  C   UNL A   1      40.635  27.825  29.028  1.00  0.00     0.031 A 
ATOM     64  C   UNL A   1      41.286  33.367  33.249  1.00  0.00     0.031 A 
ATOM     65  C   UNL A   1      41.847  27.861  29.801  1.00  0.00     0.049 A 
ATOM     66  C   UNL A   1      42.321  32.278  33.205  1.00  0.00     0.074 A 
ATOM     67  C   UNL A   1      42.897  26.959  29.798  1.00  0.00     0.029 A 
ATOM     68  N   UNL A   1      42.169  28.850  30.716  1.00  0.00    -0.354 N 
ATOM     69  N   UNL A   1      42.355  31.201  32.457  1.00  0.00    -0.248 NA
ATOM     70  C   UNL A   1      43.471  32.422  34.108  1.00  0.00     0.031 C 
ATOM     71  C   UNL A   1      43.834  27.380  30.748  1.00  0.00     0.029 A 
ATOM     72  C   UNL A   1      43.392  28.571  31.301  1.00  0.00     0.049 A 
ATOM     73  H   UNL A   1      41.611  29.635  30.919  1.00  0.00     0.167 HD
ATOM     74  C   UNL A   1      43.541  30.555  32.780  1.00  0.00     0.074 A 
ATOM     75  C   UNL A   1      44.204  31.369  33.778  1.00  0.00     0.031 C 
ATOM     76  C   UNL A   1      44.038  29.392  32.293  1.00  0.00     0.031 A 
BRANCH  63  77
ATOM     77  C   UNL A   1      40.391  26.643  28.131  1.00  0.00    -0.014 A 
ATOM     78  C   UNL A   1      39.621  25.551  28.561  1.00  0.00     0.009 A 
ATOM     79  C   UNL A   1      40.915  26.634  26.829  1.00  0.00     0.009 A 
ATOM     80  C   UNL A   1      39.412  24.456  27.719  1.00  0.00     0.001 A 
ATOM     81  C   UNL A   1      40.680  25.552  25.979  1.00  0.00     0.001 A 
ATOM     82  C   UNL A   1      39.938  24.460  26.428  1.00  0.00     0.000 A 
ENDBRANCH  63  77
BRANCH  64  83
ATOM     83  C   UNL A   1      41.443  34.525  34.166  1.00  0.00    -0.014 A 
ATOM     84  C   UNL A   1      42.151  35.666  33.756  1.00  0.00     0.009 A 
ATOM     85  C   UNL A   1      40.894  34.497  35.457  1.00  0.00     0.009 A 
ATOM     86  C   UNL A   1      42.329  36.741  34.629  1.00  0.00     0.001 A 
ATOM     87  C   UNL A   1      41.049  35.585  36.319  1.00  0.00     0.001 A 
ATOM     88  C   UNL A   1      41.775  36.701  35.907  1.00  0.00     0.000 A 
ENDBRANCH  64  83
BRANCH  76  89
ATOM     89  C   UNL A   1      45.378  28.949  32.805  1.00  0.00    -0.014 A 
ATOM     90  C   UNL A   1      45.492  28.139  33.946  1.00  0.00     0.009 A 
ATOM     91  C   UNL A   1      46.542  29.316  32.111  1.00  0.00     0.009 A 
ATOM     92  C   UNL A   1      46.747  27.731  34.398  1.00  0.00     0.001 A 
ATOM     93  C   UNL A   1      47.793  28.882  32.548  1.00  0.00     0.001 A 
ATOM     94  C   UNL A   1      47.896  28.098  33.697  1.00  0.00     0.000 A 
ENDBRANCH  76  89
ENDBRANCH  50  51
ENDBRANCH  42  45
ENDBRANCH  40  41
ENDBRANCH  39  40
ENDBRANCH  38  39
ENDBRANCH   1  38
TORSDOF 17
ENDMDL
MODEL 2
REMARK VINA RESULT:     -11.6      5.796     10.770
REMARK SMILES C[C@H](NS(=O)(=O)c1ccc(-c2cc(-c3ccccc3)c3cc([N+](=O)[O-])ccc3n2)cc1)C(=O)NCCCCNC(=O)c1ccc(-c2c3nc(c(-c4ccccc4)c4ccc([nH]4)c(-c4ccccc4)c4nc(c(-c5ccccc5)c5ccc2[nH]5)C=C4)C=C3)cc1
REMARK SMILES IDX 35 1 34 2 32 3 33 4 2 6 1 7 3 8 4 10 5 11 6 12 7 13 8 14
REMARK SMILES IDX 31 15 9 16 30 17 10 18 11 19 12 20 29 21 13 22 28 23 20 24
REMARK SMILES IDX 27 25 21 26 26 27 22 28 14 29 15 30 19 31 16 32 18 33 17 34
REMARK SMILES IDX 23 35 24 36 25 37 36 38 37 39 38 40 39 41 40 42 41 44 42 45
REMARK SMILES IDX 43 46 89 47 44 48 88 49 45 50 46 51 47 52 82 53 48 54 87 55
REMARK SMILES IDX 81 56 83 57 49 58 86 59 80 60 79 61 50 63 72 64 57 65 71 66
REMARK SMILES IDX 58 67 61 68 70 69 84 70 59 71 60 72 69 74 85 75 62 76 51 77
REMARK SMILES IDX 52 78 56 79 53 80 55 81 54 82 73 83 74 84 78 85 75 86 77 87
REMARK SMILES IDX 76 88 63 89 64 90 68 91 65 92 67 93 66 94
REMARK H PARENT 34 5 3 9 39 43 83 62 61 73
REMARK Flexibility Score: inf
ROOT
ATOM      1  C   UNL A   1      39.497  27.346  29.278  1.00  0.00     0.116 C 
ENDROOT
BRANCH   1   2
ATOM      2  N   UNL A   1      38.939  27.019  30.574  1.00  0.00    -0.355 N 
ATOM      3  C   UNL A   1      38.629  27.852  31.607  1.00  0.00     0.237 C 
ATOM      4  O   UNL A   1      38.357  27.332  32.693  1.00  0.00    -0.273 OA
ATOM      5  H   UNL A   1      38.759  26.064  30.731  1.00  0.00     0.163 HD
BRANCH   3   6
ATOM      6  C   UNL A   1      38.579  29.380  31.423  1.00  0.00     0.155 C 
ATOM      7  C   UNL A   1      39.254  30.053  32.609  1.00  0.00     0.036 C 
BRANCH   6   8
ATOM      8  N   UNL A   1      37.207  29.830  31.133  1.00  0.00    -0.199 NA
ATOM      9  H   UNL A   1      36.721  29.835  32.029  1.00  0.00     0.142 HD
BRANCH   8  10
ATOM     10  S   UNL A   1      36.839  31.300  30.407  1.00  0.00     0.241 S 
ATOM     11  O   UNL A   1      35.989  31.989  31.342  1.00  0.00    -0.207 OA
ATOM     12  O   UNL A   1      38.080  31.887  29.936  1.00  0.00    -0.207 OA
BRANCH  10  13
ATOM     13  C   UNL A   1      35.853  30.882  28.984  1.00  0.00     0.082 A 
ATOM     14  C   UNL A   1      35.161  31.885  28.298  1.00  0.00     0.022 A 
ATOM     15  C   UNL A   1      35.759  29.557  28.559  1.00  0.00     0.022 A 
ATOM     16  C   UNL A   1      34.198  31.532  27.341  1.00  0.00     0.012 A 
ATOM     17  C   UNL A   1      34.810  29.211  27.590  1.00  0.00     0.012 A 
ATOM     18  C   UNL A   1      33.906  30.178  27.087  1.00  0.00     0.000 A 
BRANCH  18  19
ATOM     19  C   UNL A   1      32.457  29.776  26.950  1.00  0.00     0.072 A 
ATOM     20  C   UNL A   1      31.629  30.283  25.950  1.00  0.00     0.038 A 
ATOM     21  N   UNL A   1      32.422  28.439  27.196  1.00  0.00    -0.248 NA
ATOM     22  C   UNL A   1      31.254  29.392  24.944  1.00  0.00    -0.007 A 
ATOM     23  C   UNL A   1      32.418  27.669  26.111  1.00  0.00     0.072 A 
ATOM     24  C   UNL A   1      31.987  28.191  24.894  1.00  0.00     0.015 A 
ATOM     25  C   UNL A   1      32.975  26.400  26.132  1.00  0.00     0.036 A 
ATOM     26  C   UNL A   1      32.354  27.561  23.686  1.00  0.00     0.096 A 
ATOM     27  C   UNL A   1      33.327  25.753  24.941  1.00  0.00     0.088 A 
ATOM     28  C   UNL A   1      33.097  26.389  23.723  1.00  0.00     0.270 A 
BRANCH  22  29
ATOM     29  C   UNL A   1      30.143  29.547  23.980  1.00  0.00    -0.018 A 
ATOM     30  C   UNL A   1      29.647  30.864  23.780  1.00  0.00     0.009 A 
ATOM     31  C   UNL A   1      29.487  28.506  23.326  1.00  0.00     0.009 A 
ATOM     32  C   UNL A   1      28.476  31.121  23.077  1.00  0.00     0.001 A 
ATOM     33  C   UNL A   1      28.320  28.769  22.588  1.00  0.00     0.001 A 
ATOM     34  C   UNL A   1      27.802  30.064  22.491  1.00  0.00     0.000 A 
ENDBRANCH  22  29
BRANCH  28  35
ATOM     35  N   UNL A   1      33.734  25.898  22.499  1.00  0.00     0.062 N 
ATOM     36  O   UNL A   1      34.430  24.875  22.585  1.00  0.00    -0.258 OA
ATOM     37  O   UNL A   1      33.491  26.497  21.443  1.00  0.00    -0.258 OA
ENDBRANCH  28  35
ENDBRANCH  18  19
ENDBRANCH  10  13
ENDBRANCH   8  10
ENDBRANCH   6   8
ENDBRANCH   3   6
ENDBRANCH   1   2
BRANCH   1  38
ATOM     38  C   UNL A   1      40.143  26.117  28.646  1.00  0.00     0.023 C 
BRANCH  38  39
ATOM     39  C   UNL A   1      39.238  25.346  27.683  1.00  0.00     0.023 C 
BRANCH  39  40
ATOM     40  C   UNL A   1      39.867  25.001  26.337  1.00  0.00     0.116 C 
BRANCH  40  41
ATOM     41  N   UNL A   1      40.616  23.754  26.365  1.00  0.00    -0.352 N 
ATOM     42  C   UNL A   1      41.973  23.553  26.328  1.00  0.00     0.251 C 
ATOM     43  H   UNL A   1      40.071  22.935  26.417  1.00  0.00     0.163 HD
ATOM     44  O   UNL A   1      42.434  22.422  26.219  1.00  0.00    -0.269 OA
BRANCH  42  45
ATOM     45  C   UNL A   1      42.878  24.716  26.389  1.00  0.00     0.039 A 
ATOM     46  C   UNL A   1      43.470  25.047  27.610  1.00  0.00     0.014 A 
ATOM     47  C   UNL A   1      43.159  25.458  25.239  1.00  0.00     0.014 A 
ATOM     48  C   UNL A   1      44.405  26.082  27.662  1.00  0.00     0.010 A 
ATOM     49  C   UNL A   1      44.144  26.439  25.277  1.00  0.00     0.010 A 
ATOM     50  C   UNL A   1      44.776  26.760  26.489  1.00  0.00    -0.014 A 
BRANCH  50  51
ATOM     51  C   UNL A   1      45.828  27.805  26.507  1.00  0.00     0.031 A 
ATOM     52  C   UNL A   1      45.451  29.251  26.663  1.00  0.00     0.074 A 
ATOM     53  C   UNL A   1      47.115  27.458  26.316  1.00  0.00     0.049 A 
ATOM     54  N   UNL A   1      46.218  30.311  26.642  1.00  0.00    -0.248 NA
ATOM     55  C   UNL A   1      44.019  29.549  26.838  1.00  0.00     0.031 C 
ATOM     56  C   UNL A   1      47.606  26.093  26.110  1.00  0.00     0.029 A 
ATOM     57  N   UNL A   1      48.248  28.230  26.257  1.00  0.00    -0.354 N 
ATOM     58  C   UNL A   1      45.364  31.397  26.783  1.00  0.00     0.074 A 
ATOM     59  C   UNL A   1      44.017  30.873  26.836  1.00  0.00     0.031 C 
ATOM     60  C   UNL A   1      48.942  26.123  25.976  1.00  0.00     0.029 A 
ATOM     61  C   UNL A   1      49.397  27.506  26.047  1.00  0.00     0.049 A 
ATOM     62  H   UNL A   1      48.239  29.209  26.356  1.00  0.00     0.167 HD
ATOM     63  C   UNL A   1      45.673  32.712  26.878  1.00  0.00     0.031 A 
ATOM     64  C   UNL A   1      50.674  27.914  25.921  1.00  0.00     0.031 A 
ATOM     65  C   UNL A   1      47.014  33.232  26.838  1.00  0.00     0.049 A 
ATOM     66  C   UNL A   1      50.991  29.380  26.022  1.00  0.00     0.074 A 
ATOM     67  C   UNL A   1      47.435  34.542  26.985  1.00  0.00     0.029 A 
ATOM     68  N   UNL A   1      48.150  32.465  26.634  1.00  0.00    -0.354 N 
ATOM     69  N   UNL A   1      50.177  30.388  26.225  1.00  0.00    -0.248 NA
ATOM     70  C   UNL A   1      52.404  29.761  25.891  1.00  0.00     0.031 C 
ATOM     71  C   UNL A   1      48.823  34.573  26.822  1.00  0.00     0.029 A 
ATOM     72  C   UNL A   1      49.271  33.276  26.629  1.00  0.00     0.049 A 
ATOM     73  H   UNL A   1      48.158  31.489  26.511  1.00  0.00     0.167 HD
ATOM     74  C   UNL A   1      50.982  31.519  26.272  1.00  0.00     0.074 A 
ATOM     75  C   UNL A   1      52.348  31.069  26.093  1.00  0.00     0.031 C 
ATOM     76  C   UNL A   1      50.623  32.813  26.450  1.00  0.00     0.031 A 
BRANCH  63  77
ATOM     77  C   UNL A   1      44.533  33.680  27.032  1.00  0.00    -0.014 A 
ATOM     78  C   UNL A   1      44.032  34.019  28.299  1.00  0.00     0.009 A 
ATOM     79  C   UNL A   1      43.970  34.283  25.896  1.00  0.00     0.009 A 
ATOM     80  C   UNL A   1      42.966  34.912  28.423  1.00  0.00     0.001 A 
ATOM     81  C   UNL A   1      42.924  35.198  26.025  1.00  0.00     0.001 A 
ATOM     82  C   UNL A   1      42.417  35.504  27.287  1.00  0.00     0.000 A 
ENDBRANCH  63  77
BRANCH  64  83
ATOM     83  C   UNL A   1      51.756  26.918  25.702  1.00  0.00    -0.014 A 
ATOM     84  C   UNL A   1      52.190  26.614  24.402  1.00  0.00     0.009 A 
ATOM     85  C   UNL A   1      52.356  26.262  26.787  1.00  0.00     0.009 A 
ATOM     86  C   UNL A   1      53.181  25.653  24.193  1.00  0.00     0.001 A 
ATOM     87  C   UNL A   1      53.368  25.323  26.577  1.00  0.00     0.001 A 
ATOM     88  C   UNL A   1      53.772  25.012  25.280  1.00  0.00     0.000 A 
ENDBRANCH  64  83
BRANCH  76  89
ATOM     89  C   UNL A   1      51.726  33.832  26.494  1.00  0.00    -0.014 A 
ATOM     90  C   UNL A   1      52.131  34.520  25.340  1.00  0.00     0.009 A 
ATOM     91  C   UNL A   1      52.339  34.137  27.720  1.00  0.00     0.009 A 
ATOM     92  C   UNL A   1      53.151  35.470  25.407  1.00  0.00     0.001 A 
ATOM     93  C   UNL A   1      53.338  35.108  27.790  1.00  0.00     0.001 A 
ATOM     94  C   UNL A   1      53.750  35.767  26.632  1.00  0.00     0.000 A 
ENDBRANCH  76  89
ENDBRANCH  50  51
ENDBRANCH  42  45
ENDBRANCH  40  41
ENDBRANCH  39  40
ENDBRANCH  38  39
ENDBRANCH   1  38
TORSDOF 17
ENDMDL
MODEL 3
REMARK VINA RESULT:     -11.6      5.795     10.845
REMARK SMILES C[C@H](NS(=O)(=O)c1ccc(-c2cc(-c3ccccc3)c3cc([N+](=O)[O-])ccc3n2)cc1)C(=O)NCCCCNC(=O)c1ccc(-c2c3nc(c(-c4ccccc4)c4ccc([nH]4)c(-c4ccccc4)c4nc(c(-c5ccccc5)c5ccc2[nH]5)C=C4)C=C3)cc1
REMARK SMILES IDX 35 1 34 2 32 3 33 4 2 6 1 7 3 8 4 10 5 11 6 12 7 13 8 14
REMARK SMILES IDX 31 15 9 16 30 17 10 18 11 19 12 20 29 21 13 22 28 23 20 24
REMARK SMILES IDX 27 25 21 26 26 27 22 28 14 29 15 30 19 31 16 32 18 33 17 34
REMARK SMILES IDX 23 35 24 36 25 37 36 38 37 39 38 40 39 41 40 42 41 44 42 45
REMARK SMILES IDX 43 46 89 47 44 48 88 49 45 50 46 51 47 52 82 53 48 54 87 55
REMARK SMILES IDX 81 56 83 57 49 58 86 59 80 60 79 61 50 63 72 64 57 65 71 66
REMARK SMILES IDX 58 67 61 68 70 69 84 70 59 71 60 72 69 74 85 75 62 76 51 77
REMARK SMILES IDX 52 78 56 79 53 80 55 81 54 82 73 83 74 84 78 85 75 86 77 87
REMARK SMILES IDX 76 88 63 89 64 90 68 91 65 92 67 93 66 94
REMARK H PARENT 34 5 3 9 39 43 83 62 61 73
REMARK Flexibility Score: inf
ROOT
ATOM      1  C   UNL A   1      44.095  22.785  24.251  1.00  0.00     0.116 C 
ENDROOT
BRANCH   1   2
ATOM      2  N   UNL A   1      43.937  21.375  24.545  1.00  0.00    -0.355 N 
ATOM      3  C   UNL A   1      43.388  20.787  25.645  1.00  0.00     0.237 C 
ATOM      4  O   UNL A   1      43.545  19.570  25.776  1.00  0.00    -0.273 OA
ATOM      5  H   UNL A   1      44.272  20.757  23.856  1.00  0.00     0.163 HD
BRANCH   3   6
ATOM      6  C   UNL A   1      42.570  21.596  26.668  1.00  0.00     0.155 C 
ATOM      7  C   UNL A   1      41.165  21.821  26.127  1.00  0.00     0.036 C 
BRANCH   6   8
ATOM      8  N   UNL A   1      43.295  22.810  27.080  1.00  0.00    -0.199 NA
ATOM      9  H   UNL A   1      43.298  23.422  26.264  1.00  0.00     0.142 HD
BRANCH   8  10
ATOM     10  S   UNL A   1      42.838  23.780  28.373  1.00  0.00     0.241 S 
ATOM     11  O   UNL A   1      42.102  22.918  29.260  1.00  0.00    -0.207 OA
ATOM     12  O   UNL A   1      44.013  24.504  28.823  1.00  0.00    -0.207 OA
BRANCH  10  13
ATOM     13  C   UNL A   1      41.694  24.960  27.688  1.00  0.00     0.082 A 
ATOM     14  C   UNL A   1      41.988  25.593  26.477  1.00  0.00     0.022 A 
ATOM     15  C   UNL A   1      40.511  25.265  28.363  1.00  0.00     0.022 A 
ATOM     16  C   UNL A   1      41.220  26.691  26.064  1.00  0.00     0.012 A 
ATOM     17  C   UNL A   1      39.736  26.351  27.937  1.00  0.00     0.012 A 
ATOM     18  C   UNL A   1      40.174  27.177  26.873  1.00  0.00     0.000 A 
BRANCH  18  19
ATOM     19  C   UNL A   1      40.045  28.671  27.050  1.00  0.00     0.072 A 
ATOM     20  C   UNL A   1      38.823  29.334  26.948  1.00  0.00     0.038 A 
ATOM     21  N   UNL A   1      40.865  28.991  28.085  1.00  0.00    -0.248 NA
ATOM     22  C   UNL A   1      38.293  29.845  28.134  1.00  0.00    -0.007 A 
ATOM     23  C   UNL A   1      40.260  29.111  29.265  1.00  0.00     0.072 A 
ATOM     24  C   UNL A   1      38.894  29.374  29.317  1.00  0.00     0.015 A 
ATOM     25  C   UNL A   1      40.930  28.829  30.444  1.00  0.00     0.036 A 
ATOM     26  C   UNL A   1      38.166  29.096  30.493  1.00  0.00     0.096 A 
ATOM     27  C   UNL A   1      40.223  28.570  31.625  1.00  0.00     0.088 A 
ATOM     28  C   UNL A   1      38.831  28.613  31.613  1.00  0.00     0.270 A 
BRANCH  22  29
ATOM     29  C   UNL A   1      37.227  30.859  28.273  1.00  0.00    -0.018 A 
ATOM     30  C   UNL A   1      35.937  30.505  27.792  1.00  0.00     0.009 A 
ATOM     31  C   UNL A   1      37.401  32.157  28.750  1.00  0.00     0.009 A 
ATOM     32  C   UNL A   1      34.909  31.430  27.662  1.00  0.00     0.001 A 
ATOM     33  C   UNL A   1      36.352  33.087  28.649  1.00  0.00     0.001 A 
ATOM     34  C   UNL A   1      35.124  32.732  28.080  1.00  0.00     0.000 A 
ENDBRANCH  22  29
BRANCH  28  35
ATOM     35  N   UNL A   1      38.061  28.042  32.721  1.00  0.00     0.062 N 
ATOM     36  O   UNL A   1      38.500  27.011  33.252  1.00  0.00    -0.258 OA
ATOM     37  O   UNL A   1      37.055  28.657  33.099  1.00  0.00    -0.258 OA
ENDBRANCH  28  35
ENDBRANCH  18  19
ENDBRANCH  10  13
ENDBRANCH   8  10
ENDBRANCH   6   8
ENDBRANCH   3   6
ENDBRANCH   1   2
BRANCH   1  38
ATOM     38  C   UNL A   1      45.567  23.127  24.039  1.00  0.00     0.023 C 
BRANCH  38  39
ATOM     39  C   UNL A   1      46.413  23.115  25.314  1.00  0.00     0.023 C 
BRANCH  39  40
ATOM     40  C   UNL A   1      46.778  24.490  25.863  1.00  0.00     0.116 C 
BRANCH  40  41
ATOM     41  N   UNL A   1      47.235  25.410  24.831  1.00  0.00    -0.352 N 
ATOM     42  C   UNL A   1      47.041  26.764  24.725  1.00  0.00     0.251 C 
ATOM     43  H   UNL A   1      47.758  25.001  24.104  1.00  0.00     0.163 HD
ATOM     44  O   UNL A   1      47.378  27.365  23.712  1.00  0.00    -0.269 OA
BRANCH  42  45
ATOM     45  C   UNL A   1      46.391  27.491  25.833  1.00  0.00     0.039 A 
ATOM     46  C   UNL A   1      44.996  27.520  25.894  1.00  0.00     0.014 A 
ATOM     47  C   UNL A   1      47.159  28.116  26.818  1.00  0.00     0.014 A 
ATOM     48  C   UNL A   1      44.370  28.117  26.989  1.00  0.00     0.010 A 
ATOM     49  C   UNL A   1      46.536  28.645  27.943  1.00  0.00     0.010 A 
ATOM     50  C   UNL A   1      45.135  28.650  28.038  1.00  0.00    -0.014 A 
BRANCH  50  51
ATOM     51  C   UNL A   1      44.491  29.213  29.250  1.00  0.00     0.031 A 
ATOM     52  C   UNL A   1      44.038  30.646  29.265  1.00  0.00     0.074 A 
ATOM     53  C   UNL A   1      44.373  28.455  30.356  1.00  0.00     0.049 A 
ATOM     54  N   UNL A   1      43.511  31.335  30.246  1.00  0.00    -0.248 NA
ATOM     55  C   UNL A   1      44.228  31.416  28.024  1.00  0.00     0.031 C 
ATOM     56  C   UNL A   1      44.812  27.062  30.483  1.00  0.00     0.029 A 
ATOM     57  N   UNL A   1      43.854  28.752  31.591  1.00  0.00    -0.354 N 
ATOM     58  C   UNL A   1      43.324  32.617  29.747  1.00  0.00     0.074 A 
ATOM     59  C   UNL A   1      43.841  32.626  28.396  1.00  0.00     0.031 C 
ATOM     60  C   UNL A   1      44.518  26.620  31.715  1.00  0.00     0.029 A 
ATOM     61  C   UNL A   1      43.907  27.703  32.477  1.00  0.00     0.049 A 
ATOM     62  H   UNL A   1      43.479  29.632  31.820  1.00  0.00     0.167 HD
ATOM     63  C   UNL A   1      42.755  33.687  30.351  1.00  0.00     0.031 A 
ATOM     64  C   UNL A   1      43.512  27.626  33.762  1.00  0.00     0.031 A 
ATOM     65  C   UNL A   1      42.230  33.674  31.690  1.00  0.00     0.049 A 
ATOM     66  C   UNL A   1      42.892  28.830  34.413  1.00  0.00     0.074 A 
ATOM     67  C   UNL A   1      41.583  34.690  32.371  1.00  0.00     0.029 A 
ATOM     68  N   UNL A   1      42.295  32.590  32.551  1.00  0.00    -0.354 N 
ATOM     69  N   UNL A   1      42.659  30.016  33.904  1.00  0.00    -0.248 NA
ATOM     70  C   UNL A   1      42.468  28.680  35.813  1.00  0.00     0.031 C 
ATOM     71  C   UNL A   1      41.298  34.234  33.663  1.00  0.00     0.029 A 
ATOM     72  C   UNL A   1      41.719  32.918  33.766  1.00  0.00     0.049 A 
ATOM     73  H   UNL A   1      42.691  31.716  32.331  1.00  0.00     0.167 HD
ATOM     74  C   UNL A   1      42.038  30.743  34.911  1.00  0.00     0.074 A 
ATOM     75  C   UNL A   1      41.916  29.860  36.053  1.00  0.00     0.031 C 
ATOM     76  C   UNL A   1      41.605  32.028  34.891  1.00  0.00     0.031 A 
BRANCH  63  77
ATOM     77  C   UNL A   1      42.679  34.966  29.563  1.00  0.00    -0.014 A 
ATOM     78  C   UNL A   1      41.573  35.251  28.746  1.00  0.00     0.009 A 
ATOM     79  C   UNL A   1      43.713  35.909  29.660  1.00  0.00     0.009 A 
ATOM     80  C   UNL A   1      41.523  36.439  28.013  1.00  0.00     0.001 A 
ATOM     81  C   UNL A   1      43.646  37.109  28.949  1.00  0.00     0.001 A 
ATOM     82  C   UNL A   1      42.556  37.368  28.119  1.00  0.00     0.000 A 
ENDBRANCH  63  77
BRANCH  64  83
ATOM     83  C   UNL A   1      43.674  26.355  34.516  1.00  0.00    -0.014 A 
ATOM     84  C   UNL A   1      44.870  26.081  35.199  1.00  0.00     0.009 A 
ATOM     85  C   UNL A   1      42.640  25.408  34.554  1.00  0.00     0.009 A 
ATOM     86  C   UNL A   1      45.036  24.873  35.879  1.00  0.00     0.001 A 
ATOM     87  C   UNL A   1      42.798  24.212  35.258  1.00  0.00     0.001 A 
ATOM     88  C   UNL A   1      44.000  23.942  35.912  1.00  0.00     0.000 A 
ENDBRANCH  64  83
BRANCH  76  89
ATOM     89  C   UNL A   1      40.928  32.544  36.129  1.00  0.00    -0.014 A 
ATOM     90  C   UNL A   1      41.649  33.217  37.128  1.00  0.00     0.009 A 
ATOM     91  C   UNL A   1      39.541  32.387  36.277  1.00  0.00     0.009 A 
ATOM     92  C   UNL A   1      40.996  33.697  38.264  1.00  0.00     0.001 A 
ATOM     93  C   UNL A   1      38.887  32.894  37.400  1.00  0.00     0.001 A 
ATOM     94  C   UNL A   1      39.617  33.540  38.398  1.00  0.00     0.000 A 
ENDBRANCH  76  89
ENDBRANCH  50  51
ENDBRANCH  42  45
ENDBRANCH  40  41
ENDBRANCH  39  40
ENDBRANCH  38  39
ENDBRANCH   1  38
TORSDOF 17
ENDMDL
