MODEL 1
REMARK VINA RESULT:     -13.4      0.000      0.000
REMARK SMILES Cc1c(NC(=O)[C@@H]2CC=CC[C@@H]2C(=O)NCCCCNC(=O)c2ccc(-c3c4nc(c(-c5ccccc5)c5ccc([nH]5)c(-c5ccccc5)c5nc(c(-c6ccccc6)c6ccc3[nH]6)C=C5)C=C4)cc2)cccc1C(=O)N1CCOCC1
REMARK SMILES IDX 17 1 16 2 15 3 13 4 14 5 12 7 7 8 8 9 9 10 11 11 10 12 5 13
REMARK SMILES IDX 4 14 6 16 3 17 1 18 2 19 74 20 71 21 73 22 72 23 75 24 76 25
REMARK SMILES IDX 77 26 78 27 82 28 79 29 81 30 80 31 18 32 19 33 20 34 21 35
REMARK SMILES IDX 22 37 23 38 24 39 70 40 25 41 69 42 26 43 27 44 28 45 63 46
REMARK SMILES IDX 29 47 68 48 62 49 64 50 30 51 67 52 61 53 60 54 31 56 53 57
REMARK SMILES IDX 38 58 52 59 39 60 42 61 51 62 65 63 40 64 41 65 50 67 66 68
REMARK SMILES IDX 43 69 32 70 33 71 37 72 34 73 36 74 35 75 54 76 55 77 59 78
REMARK SMILES IDX 56 79 58 80 57 81 44 82 45 83 49 84 46 85 48 86 47 87
REMARK H PARENT 15 6 4 15 20 36 64 55 42 66
REMARK Flexibility Score: inf
ROOT
ATOM      1  C   UNL A   1      37.958  22.194  25.899  1.00  0.00     0.023 C 
ENDROOT
BRANCH   1   2
ATOM      2  C   UNL A   1      37.016  23.406  26.043  1.00  0.00     0.116 C 
BRANCH   2   3
ATOM      3  N   UNL A   1      35.792  23.104  26.768  1.00  0.00    -0.356 N 
ATOM      4  C   UNL A   1      34.471  23.352  26.660  1.00  0.00     0.224 C 
ATOM      5  O   UNL A   1      33.802  22.697  27.481  1.00  0.00    -0.275 OA
ATOM      6  H   UNL A   1      35.983  22.561  27.568  1.00  0.00     0.163 HD
BRANCH   4   7
ATOM      7  C   UNL A   1      33.701  24.262  25.672  1.00  0.00     0.095 C 
ATOM      8  C   UNL A   1      32.208  24.086  25.310  1.00  0.00     0.095 C 
ATOM      9  C   UNL A   1      31.966  22.697  24.722  1.00  0.00     0.041 C 
ATOM     10  C   UNL A   1      32.976  22.356  23.659  1.00  0.00    -0.030 C 
ATOM     11  C   UNL A   1      34.481  24.242  24.326  1.00  0.00     0.041 C 
ATOM     12  C   UNL A   1      34.090  23.075  23.457  1.00  0.00    -0.030 C 
BRANCH   8  13
ATOM     13  C   UNL A   1      31.318  24.563  26.436  1.00  0.00     0.228 C 
ATOM     14  N   UNL A   1      31.085  25.859  26.741  1.00  0.00    -0.326 N 
ATOM     15  H   UNL A   1      30.406  25.938  27.450  1.00  0.00     0.169 HD
ATOM     16  O   UNL A   1      30.722  23.751  27.156  1.00  0.00    -0.274 OA
BRANCH  14  17
ATOM     17  C   UNL A   1      31.537  27.129  26.335  1.00  0.00     0.044 A 
ATOM     18  C   UNL A   1      30.470  26.569  24.146  1.00  0.00     0.047 C 
ATOM     19  C   UNL A   1      31.099  27.580  25.057  1.00  0.00    -0.015 A 
ATOM     20  C   UNL A   1      31.374  28.888  24.615  1.00  0.00     0.045 A 
ATOM     21  C   UNL A   1      32.347  27.956  27.104  1.00  0.00     0.026 A 
ATOM     22  C   UNL A   1      32.218  29.683  25.402  1.00  0.00     0.014 A 
ATOM     23  C   UNL A   1      32.714  29.216  26.622  1.00  0.00     0.003 A 
BRANCH  20  24
ATOM     24  C   UNL A   1      31.030  29.403  23.248  1.00  0.00     0.254 C 
ATOM     25  O   UNL A   1      31.778  29.073  22.326  1.00  0.00    -0.269 OA
ATOM     26  N   UNL A   1      29.867  30.136  23.011  1.00  0.00    -0.334 N 
ATOM     27  C   UNL A   1      29.246  31.124  23.904  1.00  0.00     0.148 C 
ATOM     28  C   UNL A   1      29.331  30.154  21.646  1.00  0.00     0.148 C 
ATOM     29  C   UNL A   1      27.706  31.117  23.793  1.00  0.00     0.181 C 
ATOM     30  C   UNL A   1      27.803  30.066  21.679  1.00  0.00     0.181 C 
ATOM     31  O   UNL A   1      27.257  31.162  22.431  1.00  0.00    -0.378 OA
ENDBRANCH  20  24
ENDBRANCH  14  17
ENDBRANCH   8  13
ENDBRANCH   4   7
ENDBRANCH   2   3
ENDBRANCH   1   2
BRANCH   1  32
ATOM     32  C   UNL A   1      39.447  22.466  26.113  1.00  0.00     0.023 C 
BRANCH  32  33
ATOM     33  C   UNL A   1      40.179  21.371  26.873  1.00  0.00     0.116 C 
BRANCH  33  34
ATOM     34  N   UNL A   1      41.143  20.604  26.090  1.00  0.00    -0.352 N 
ATOM     35  C   UNL A   1      42.508  20.817  25.966  1.00  0.00     0.251 C 
ATOM     36  H   UNL A   1      40.780  19.841  25.586  1.00  0.00     0.163 HD
ATOM     37  O   UNL A   1      43.192  20.089  25.248  1.00  0.00    -0.269 OA
BRANCH  35  38
ATOM     38  C   UNL A   1      43.156  21.837  26.827  1.00  0.00     0.039 A 
ATOM     39  C   UNL A   1      42.970  21.726  28.206  1.00  0.00     0.014 A 
ATOM     40  C   UNL A   1      43.646  23.017  26.276  1.00  0.00     0.014 A 
ATOM     41  C   UNL A   1      42.969  22.882  28.981  1.00  0.00     0.010 A 
ATOM     42  C   UNL A   1      43.545  24.178  27.016  1.00  0.00     0.010 A 
ATOM     43  C   UNL A   1      43.128  24.117  28.348  1.00  0.00    -0.014 A 
BRANCH  43  44
ATOM     44  C   UNL A   1      42.796  25.375  29.003  1.00  0.00     0.031 A 
ATOM     45  C   UNL A   1      41.626  26.141  28.559  1.00  0.00     0.074 A 
ATOM     46  C   UNL A   1      43.577  25.880  29.982  1.00  0.00     0.049 A 
ATOM     47  N   UNL A   1      41.574  27.430  28.513  1.00  0.00    -0.248 NA
ATOM     48  C   UNL A   1      40.417  25.482  28.086  1.00  0.00     0.031 C 
ATOM     49  C   UNL A   1      43.335  27.069  30.795  1.00  0.00     0.029 A 
ATOM     50  N   UNL A   1      44.906  25.548  30.243  1.00  0.00    -0.354 N 
ATOM     51  C   UNL A   1      40.257  27.765  28.318  1.00  0.00     0.074 A 
ATOM     52  C   UNL A   1      39.600  26.529  27.952  1.00  0.00     0.031 C 
ATOM     53  C   UNL A   1      44.520  27.560  31.197  1.00  0.00     0.029 A 
ATOM     54  C   UNL A   1      45.553  26.757  30.568  1.00  0.00     0.049 A 
ATOM     55  H   UNL A   1      45.310  24.652  30.206  1.00  0.00     0.167 HD
ATOM     56  C   UNL A   1      39.814  29.008  28.659  1.00  0.00     0.031 A 
ATOM     57  C   UNL A   1      46.597  27.221  29.821  1.00  0.00     0.031 A 
ATOM     58  C   UNL A   1      40.893  29.871  29.140  1.00  0.00     0.049 A 
ATOM     59  C   UNL A   1      46.377  28.598  29.258  1.00  0.00     0.074 A 
ATOM     60  C   UNL A   1      41.298  30.241  30.412  1.00  0.00     0.029 A 
ATOM     61  N   UNL A   1      41.920  30.242  28.279  1.00  0.00    -0.354 N 
ATOM     62  N   UNL A   1      45.201  29.155  29.184  1.00  0.00    -0.248 NA
ATOM     63  C   UNL A   1      47.432  29.436  28.694  1.00  0.00     0.031 C 
ATOM     64  C   UNL A   1      42.610  30.772  30.321  1.00  0.00     0.029 A 
ATOM     65  C   UNL A   1      42.992  30.747  28.992  1.00  0.00     0.049 A 
ATOM     66  H   UNL A   1      41.889  30.157  27.298  1.00  0.00     0.167 HD
ATOM     67  C   UNL A   1      45.312  30.368  28.565  1.00  0.00     0.074 A 
ATOM     68  C   UNL A   1      46.730  30.512  28.292  1.00  0.00     0.031 C 
ATOM     69  C   UNL A   1      44.218  31.142  28.314  1.00  0.00     0.031 A 
BRANCH  56  70
ATOM     70  C   UNL A   1      38.347  29.286  28.882  1.00  0.00    -0.014 A 
ATOM     71  C   UNL A   1      37.533  29.662  27.799  1.00  0.00     0.009 A 
ATOM     72  C   UNL A   1      37.725  29.270  30.143  1.00  0.00     0.009 A 
ATOM     73  C   UNL A   1      36.219  30.114  27.980  1.00  0.00     0.001 A 
ATOM     74  C   UNL A   1      36.431  29.770  30.339  1.00  0.00     0.001 A 
ATOM     75  C   UNL A   1      35.681  30.205  29.257  1.00  0.00     0.000 A 
ENDBRANCH  56  70
BRANCH  57  76
ATOM     76  C   UNL A   1      47.388  26.132  29.185  1.00  0.00    -0.014 A 
ATOM     77  C   UNL A   1      46.964  25.724  27.905  1.00  0.00     0.009 A 
ATOM     78  C   UNL A   1      48.679  25.789  29.589  1.00  0.00     0.009 A 
ATOM     79  C   UNL A   1      47.838  25.128  26.996  1.00  0.00     0.001 A 
ATOM     80  C   UNL A   1      49.549  25.158  28.685  1.00  0.00     0.001 A 
ATOM     81  C   UNL A   1      49.144  24.871  27.380  1.00  0.00     0.000 A 
ENDBRANCH  57  76
BRANCH  69  82
ATOM     82  C   UNL A   1      44.220  32.389  27.475  1.00  0.00    -0.014 A 
ATOM     83  C   UNL A   1      44.521  32.408  26.107  1.00  0.00     0.009 A 
ATOM     84  C   UNL A   1      43.776  33.598  28.051  1.00  0.00     0.009 A 
ATOM     85  C   UNL A   1      44.440  33.591  25.362  1.00  0.00     0.001 A 
ATOM     86  C   UNL A   1      43.654  34.771  27.302  1.00  0.00     0.001 A 
ATOM     87  C   UNL A   1      44.002  34.769  25.958  1.00  0.00     0.000 A 
ENDBRANCH  69  82
ENDBRANCH  43  44
ENDBRANCH  35  38
ENDBRANCH  33  34
ENDBRANCH  32  33
ENDBRANCH   1  32
TORSDOF 14
ENDMDL
MODEL 2
REMARK VINA RESULT:     -13.4      2.333      3.952
REMARK SMILES Cc1c(NC(=O)[C@@H]2CC=CC[C@@H]2C(=O)NCCCCNC(=O)c2ccc(-c3c4nc(c(-c5ccccc5)c5ccc([nH]5)c(-c5ccccc5)c5nc(c(-c6ccccc6)c6ccc3[nH]6)C=C5)C=C4)cc2)cccc1C(=O)N1CCOCC1
REMARK SMILES IDX 17 1 16 2 15 3 13 4 14 5 12 7 7 8 8 9 9 10 11 11 10 12 5 13
REMARK SMILES IDX 4 14 6 16 3 17 1 18 2 19 74 20 71 21 73 22 72 23 75 24 76 25
REMARK SMILES IDX 77 26 78 27 82 28 79 29 81 30 80 31 18 32 19 33 20 34 21 35
REMARK SMILES IDX 22 37 23 38 24 39 70 40 25 41 69 42 26 43 27 44 28 45 63 46
REMARK SMILES IDX 29 47 68 48 62 49 64 50 30 51 67 52 61 53 60 54 31 56 53 57
REMARK SMILES IDX 38 58 52 59 39 60 42 61 51 62 65 63 40 64 41 65 50 67 66 68
REMARK SMILES IDX 43 69 32 70 33 71 37 72 34 73 36 74 35 75 54 76 55 77 59 78
REMARK SMILES IDX 56 79 58 80 57 81 44 82 45 83 49 84 46 85 48 86 47 87
REMARK H PARENT 15 6 4 15 20 36 64 55 42 66
REMARK Flexibility Score: inf
ROOT
ATOM      1  C   UNL A   1      37.202  21.849  25.716  1.00  0.00     0.023 C 
ENDROOT
BRANCH   1   2
ATOM      2  C   UNL A   1      36.521  23.173  26.117  1.00  0.00     0.116 C 
BRANCH   2   3
ATOM      3  N   UNL A   1      35.291  22.986  26.868  1.00  0.00    -0.356 N 
ATOM      4  C   UNL A   1      33.978  23.269  26.737  1.00  0.00     0.224 C 
ATOM      5  O   UNL A   1      33.290  22.721  27.619  1.00  0.00    -0.275 OA
ATOM      6  H   UNL A   1      35.466  22.519  27.717  1.00  0.00     0.163 HD
BRANCH   4   7
ATOM      7  C   UNL A   1      33.236  24.103  25.665  1.00  0.00     0.095 C 
ATOM      8  C   UNL A   1      31.749  23.908  25.286  1.00  0.00     0.095 C 
ATOM      9  C   UNL A   1      31.509  22.479  24.803  1.00  0.00     0.041 C 
ATOM     10  C   UNL A   1      32.538  22.051  23.791  1.00  0.00    -0.030 C 
ATOM     11  C   UNL A   1      34.044  23.973  24.341  1.00  0.00     0.041 C 
ATOM     12  C   UNL A   1      33.662  22.745  23.558  1.00  0.00    -0.030 C 
BRANCH   8  13
ATOM     13  C   UNL A   1      30.840  24.477  26.352  1.00  0.00     0.228 C 
ATOM     14  N   UNL A   1      30.693  25.794  26.621  1.00  0.00    -0.326 N 
ATOM     15  H   UNL A   1      29.985  25.941  27.289  1.00  0.00     0.169 HD
ATOM     16  O   UNL A   1      30.144  23.729  27.052  1.00  0.00    -0.274 OA
BRANCH  14  17
ATOM     17  C   UNL A   1      31.265  27.016  26.219  1.00  0.00     0.044 A 
ATOM     18  C   UNL A   1      30.105  26.594  24.046  1.00  0.00     0.047 C 
ATOM     19  C   UNL A   1      30.851  27.524  24.954  1.00  0.00    -0.015 A 
ATOM     20  C   UNL A   1      31.250  28.803  24.520  1.00  0.00     0.045 A 
ATOM     21  C   UNL A   1      32.169  27.747  26.980  1.00  0.00     0.026 A 
ATOM     22  C   UNL A   1      32.185  29.498  25.298  1.00  0.00     0.014 A 
ATOM     23  C   UNL A   1      32.653  28.968  26.503  1.00  0.00     0.003 A 
BRANCH  20  24
ATOM     24  C   UNL A   1      30.935  29.366  23.165  1.00  0.00     0.254 C 
ATOM     25  O   UNL A   1      31.667  29.022  22.237  1.00  0.00    -0.269 OA
ATOM     26  N   UNL A   1      29.810  30.160  22.944  1.00  0.00    -0.334 N 
ATOM     27  C   UNL A   1      29.235  31.156  23.860  1.00  0.00     0.148 C 
ATOM     28  C   UNL A   1      29.278  30.238  21.580  1.00  0.00     0.148 C 
ATOM     29  C   UNL A   1      27.697  31.228  23.747  1.00  0.00     0.181 C 
ATOM     30  C   UNL A   1      27.748  30.223  21.609  1.00  0.00     0.181 C 
ATOM     31  O   UNL A   1      27.254  31.327  22.386  1.00  0.00    -0.378 OA
ENDBRANCH  20  24
ENDBRANCH  14  17
ENDBRANCH   8  13
ENDBRANCH   4   7
ENDBRANCH   2   3
ENDBRANCH   1   2
BRANCH   1  32
ATOM     32  C   UNL A   1      38.712  21.772  25.936  1.00  0.00     0.023 C 
BRANCH  32  33
ATOM     33  C   UNL A   1      39.390  23.125  26.086  1.00  0.00     0.116 C 
BRANCH  33  34
ATOM     34  N   UNL A   1      40.479  23.174  27.057  1.00  0.00    -0.352 N 
ATOM     35  C   UNL A   1      40.859  24.237  27.865  1.00  0.00     0.251 C 
ATOM     36  H   UNL A   1      41.011  22.352  27.151  1.00  0.00     0.163 HD
ATOM     37  O   UNL A   1      41.819  24.131  28.627  1.00  0.00    -0.269 OA
BRANCH  35  38
ATOM     38  C   UNL A   1      40.003  25.448  27.907  1.00  0.00     0.039 A 
ATOM     39  C   UNL A   1      40.448  26.574  27.213  1.00  0.00     0.014 A 
ATOM     40  C   UNL A   1      38.984  25.559  28.849  1.00  0.00     0.014 A 
ATOM     41  C   UNL A   1      40.101  27.837  27.685  1.00  0.00     0.010 A 
ATOM     42  C   UNL A   1      38.719  26.803  29.386  1.00  0.00     0.010 A 
ATOM     43  C   UNL A   1      39.343  27.934  28.853  1.00  0.00    -0.014 A 
BRANCH  43  44
ATOM     44  C   UNL A   1      39.231  29.176  29.606  1.00  0.00     0.031 A 
ATOM     45  C   UNL A   1      38.296  30.216  29.161  1.00  0.00     0.074 A 
ATOM     46  C   UNL A   1      40.012  29.413  30.682  1.00  0.00     0.049 A 
ATOM     47  N   UNL A   1      38.526  31.484  29.242  1.00  0.00    -0.248 NA
ATOM     48  C   UNL A   1      37.021  29.883  28.543  1.00  0.00     0.031 C 
ATOM     49  C   UNL A   1      39.959  30.555  31.592  1.00  0.00     0.029 A 
ATOM     50  N   UNL A   1      41.210  28.775  30.999  1.00  0.00    -0.354 N 
ATOM     51  C   UNL A   1      37.333  32.117  28.991  1.00  0.00     0.074 A 
ATOM     52  C   UNL A   1      36.463  31.092  28.459  1.00  0.00     0.031 C 
ATOM     53  C   UNL A   1      41.181  30.736  32.121  1.00  0.00     0.029 A 
ATOM     54  C   UNL A   1      42.070  29.779  31.487  1.00  0.00     0.049 A 
ATOM     55  H   UNL A   1      41.414  27.818  30.901  1.00  0.00     0.167 HD
ATOM     56  C   UNL A   1      37.139  33.396  29.423  1.00  0.00     0.031 A 
ATOM     57  C   UNL A   1      43.251  30.061  30.864  1.00  0.00     0.031 A 
ATOM     58  C   UNL A   1      38.330  33.955  30.061  1.00  0.00     0.049 A 
ATOM     59  C   UNL A   1      43.382  31.493  30.428  1.00  0.00     0.074 A 
ATOM     60  C   UNL A   1      38.691  34.120  31.388  1.00  0.00     0.029 A 
ATOM     61  N   UNL A   1      39.486  34.159  29.313  1.00  0.00    -0.354 N 
ATOM     62  N   UNL A   1      42.364  32.301  30.329  1.00  0.00    -0.248 NA
ATOM     63  C   UNL A   1      44.638  32.120  30.023  1.00  0.00     0.031 C 
ATOM     64  C   UNL A   1      40.089  34.353  31.441  1.00  0.00     0.029 A 
ATOM     65  C   UNL A   1      40.573  34.353  30.146  1.00  0.00     0.049 A 
ATOM     66  H   UNL A   1      39.524  34.165  28.329  1.00  0.00     0.167 HD
ATOM     67  C   UNL A   1      42.787  33.507  29.843  1.00  0.00     0.074 A 
ATOM     68  C   UNL A   1      44.221  33.355  29.684  1.00  0.00     0.031 C 
ATOM     69  C   UNL A   1      41.911  34.522  29.596  1.00  0.00     0.031 A 
BRANCH  56  70
ATOM     70  C   UNL A   1      35.751  33.972  29.572  1.00  0.00    -0.014 A 
ATOM     71  C   UNL A   1      35.081  34.484  28.446  1.00  0.00     0.009 A 
ATOM     72  C   UNL A   1      35.083  34.110  30.801  1.00  0.00     0.009 A 
ATOM     73  C   UNL A   1      33.882  35.198  28.558  1.00  0.00     0.001 A 
ATOM     74  C   UNL A   1      33.912  34.867  30.928  1.00  0.00     0.001 A 
ATOM     75  C   UNL A   1      33.317  35.425  29.806  1.00  0.00     0.000 A 
ENDBRANCH  56  70
BRANCH  57  76
ATOM     76  C   UNL A   1      43.843  28.879  30.177  1.00  0.00    -0.014 A 
ATOM     77  C   UNL A   1      44.253  27.819  31.009  1.00  0.00     0.009 A 
ATOM     78  C   UNL A   1      43.662  28.616  28.819  1.00  0.00     0.009 A 
ATOM     79  C   UNL A   1      44.335  26.508  30.542  1.00  0.00     0.001 A 
ATOM     80  C   UNL A   1      43.778  27.300  28.342  1.00  0.00     0.001 A 
ATOM     81  C   UNL A   1      44.068  26.245  29.208  1.00  0.00     0.000 A 
ENDBRANCH  57  76
BRANCH  69  82
ATOM     82  C   UNL A   1      42.254  35.802  28.888  1.00  0.00    -0.014 A 
ATOM     83  C   UNL A   1      43.180  36.736  29.371  1.00  0.00     0.009 A 
ATOM     84  C   UNL A   1      41.718  36.035  27.605  1.00  0.00     0.009 A 
ATOM     85  C   UNL A   1      43.509  37.880  28.632  1.00  0.00     0.001 A 
ATOM     86  C   UNL A   1      42.074  37.153  26.847  1.00  0.00     0.001 A 
ATOM     87  C   UNL A   1      42.961  38.085  27.370  1.00  0.00     0.000 A 
ENDBRANCH  69  82
ENDBRANCH  43  44
ENDBRANCH  35  38
ENDBRANCH  33  34
ENDBRANCH  32  33
ENDBRANCH   1  32
TORSDOF 14
ENDMDL
MODEL 3
REMARK VINA RESULT:     -13.1      3.079      8.760
REMARK SMILES Cc1c(NC(=O)[C@@H]2CC=CC[C@@H]2C(=O)NCCCCNC(=O)c2ccc(-c3c4nc(c(-c5ccccc5)c5ccc([nH]5)c(-c5ccccc5)c5nc(c(-c6ccccc6)c6ccc3[nH]6)C=C5)C=C4)cc2)cccc1C(=O)N1CCOCC1
REMARK SMILES IDX 17 1 16 2 15 3 13 4 14 5 12 7 7 8 8 9 9 10 11 11 10 12 5 13
REMARK SMILES IDX 4 14 6 16 3 17 1 18 2 19 74 20 71 21 73 22 72 23 75 24 76 25
REMARK SMILES IDX 77 26 78 27 82 28 79 29 81 30 80 31 18 32 19 33 20 34 21 35
REMARK SMILES IDX 22 37 23 38 24 39 70 40 25 41 69 42 26 43 27 44 28 45 63 46
REMARK SMILES IDX 29 47 68 48 62 49 64 50 30 51 67 52 61 53 60 54 31 56 53 57
REMARK SMILES IDX 38 58 52 59 39 60 42 61 51 62 65 63 40 64 41 65 50 67 66 68
REMARK SMILES IDX 43 69 32 70 33 71 37 72 34 73 36 74 35 75 54 76 55 77 59 78
REMARK SMILES IDX 56 79 58 80 57 81 44 82 45 83 49 84 46 85 48 86 47 87
REMARK H PARENT 15 6 4 15 20 36 64 55 42 66
REMARK Flexibility Score: inf
ROOT
ATOM      1  C   UNL A   1      33.085  30.215  26.406  1.00  0.00     0.023 C 
ENDROOT
BRANCH   1   2
ATOM      2  C   UNL A   1      34.045  29.055  26.074  1.00  0.00     0.116 C 
BRANCH   2   3
ATOM      3  N   UNL A   1      34.031  28.677  24.671  1.00  0.00    -0.356 N 
ATOM      4  C   UNL A   1      33.653  27.625  23.915  1.00  0.00     0.224 C 
ATOM      5  O   UNL A   1      33.700  27.883  22.697  1.00  0.00    -0.275 OA
ATOM      6  H   UNL A   1      34.406  29.395  24.110  1.00  0.00     0.163 HD
BRANCH   4   7
ATOM      7  C   UNL A   1      33.148  26.222  24.332  1.00  0.00     0.095 C 
ATOM      8  C   UNL A   1      32.110  25.398  23.535  1.00  0.00     0.095 C 
ATOM      9  C   UNL A   1      30.806  26.182  23.398  1.00  0.00     0.041 C 
ATOM     10  C   UNL A   1      30.360  26.760  24.714  1.00  0.00    -0.030 C 
ATOM     11  C   UNL A   1      32.587  26.348  25.778  1.00  0.00     0.041 C 
ATOM     12  C   UNL A   1      31.151  26.801  25.796  1.00  0.00    -0.030 C 
BRANCH   8  13
ATOM     13  C   UNL A   1      32.733  24.800  22.293  1.00  0.00     0.228 C 
ATOM     14  N   UNL A   1      33.662  23.819  22.290  1.00  0.00    -0.326 N 
ATOM     15  H   UNL A   1      33.858  23.521  21.372  1.00  0.00     0.169 HD
ATOM     16  O   UNL A   1      32.394  25.190  21.168  1.00  0.00    -0.274 OA
BRANCH  14  17
ATOM     17  C   UNL A   1      34.431  23.101  23.226  1.00  0.00     0.044 A 
ATOM     18  C   UNL A   1      32.280  21.963  23.794  1.00  0.00     0.047 C 
ATOM     19  C   UNL A   1      33.773  22.032  23.901  1.00  0.00    -0.015 A 
ATOM     20  C   UNL A   1      34.485  21.162  24.749  1.00  0.00     0.045 A 
ATOM     21  C   UNL A   1      35.769  23.355  23.502  1.00  0.00     0.026 A 
ATOM     22  C   UNL A   1      35.825  21.466  25.027  1.00  0.00     0.014 A 
ATOM     23  C   UNL A   1      36.453  22.561  24.426  1.00  0.00     0.003 A 
BRANCH  20  24
ATOM     24  C   UNL A   1      33.848  20.077  25.566  1.00  0.00     0.254 C 
ATOM     25  O   UNL A   1      33.311  20.420  26.621  1.00  0.00    -0.269 OA
ATOM     26  N   UNL A   1      33.775  18.761  25.111  1.00  0.00    -0.334 N 
ATOM     27  C   UNL A   1      34.790  18.038  24.332  1.00  0.00     0.148 C 
ATOM     28  C   UNL A   1      32.730  17.896  25.666  1.00  0.00     0.148 C 
ATOM     29  C   UNL A   1      34.156  17.039  23.341  1.00  0.00     0.181 C 
ATOM     30  C   UNL A   1      32.135  17.016  24.565  1.00  0.00     0.181 C 
ATOM     31  O   UNL A   1      33.161  16.211  23.961  1.00  0.00    -0.378 OA
ENDBRANCH  20  24
ENDBRANCH  14  17
ENDBRANCH   8  13
ENDBRANCH   4   7
ENDBRANCH   2   3
ENDBRANCH   1   2
BRANCH   1  32
ATOM     32  C   UNL A   1      33.583  31.231  27.434  1.00  0.00     0.023 C 
BRANCH  32  33
ATOM     33  C   UNL A   1      34.664  30.701  28.362  1.00  0.00     0.116 C 
BRANCH  33  34
ATOM     34  N   UNL A   1      35.742  31.637  28.666  1.00  0.00    -0.352 N 
ATOM     35  C   UNL A   1      37.094  31.367  28.817  1.00  0.00     0.251 C 
ATOM     36  H   UNL A   1      35.477  32.579  28.779  1.00  0.00     0.163 HD
ATOM     37  O   UNL A   1      37.885  32.268  29.093  1.00  0.00    -0.269 OA
BRANCH  35  38
ATOM     38  C   UNL A   1      37.595  30.009  28.492  1.00  0.00     0.039 A 
ATOM     39  C   UNL A   1      37.804  29.130  29.557  1.00  0.00     0.014 A 
ATOM     40  C   UNL A   1      38.135  29.737  27.239  1.00  0.00     0.014 A 
ATOM     41  C   UNL A   1      38.801  28.165  29.448  1.00  0.00     0.010 A 
ATOM     42  C   UNL A   1      39.194  28.854  27.158  1.00  0.00     0.010 A 
ATOM     43  C   UNL A   1      39.577  28.127  28.288  1.00  0.00    -0.014 A 
BRANCH  43  44
ATOM     44  C   UNL A   1      40.842  27.408  28.223  1.00  0.00     0.031 A 
ATOM     45  C   UNL A   1      40.844  25.945  28.106  1.00  0.00     0.074 A 
ATOM     46  C   UNL A   1      42.021  28.059  28.321  1.00  0.00     0.049 A 
ATOM     47  N   UNL A   1      41.705  25.170  28.676  1.00  0.00    -0.248 NA
ATOM     48  C   UNL A   1      39.822  25.238  27.348  1.00  0.00     0.031 C 
ATOM     49  C   UNL A   1      43.365  27.502  28.183  1.00  0.00     0.029 A 
ATOM     50  N   UNL A   1      42.229  29.332  28.849  1.00  0.00    -0.354 N 
ATOM     51  C   UNL A   1      41.547  23.926  28.115  1.00  0.00     0.074 A 
ATOM     52  C   UNL A   1      40.302  23.994  27.382  1.00  0.00     0.031 C 
ATOM     53  C   UNL A   1      44.216  28.259  28.895  1.00  0.00     0.029 A 
ATOM     54  C   UNL A   1      43.425  29.258  29.590  1.00  0.00     0.049 A 
ATOM     55  H   UNL A   1      41.655  30.123  28.728  1.00  0.00     0.167 HD
ATOM     56  C   UNL A   1      42.564  23.020  28.173  1.00  0.00     0.031 A 
ATOM     57  C   UNL A   1      43.441  29.516  30.930  1.00  0.00     0.031 A 
ATOM     58  C   UNL A   1      43.710  23.518  28.935  1.00  0.00     0.049 A 
ATOM     59  C   UNL A   1      43.975  28.382  31.761  1.00  0.00     0.074 A 
ATOM     60  C   UNL A   1      44.922  24.067  28.549  1.00  0.00     0.029 A 
ATOM     61  N   UNL A   1      43.579  23.775  30.296  1.00  0.00    -0.354 N 
ATOM     62  N   UNL A   1      44.083  27.163  31.313  1.00  0.00    -0.248 NA
ATOM     63  C   UNL A   1      44.380  28.504  33.159  1.00  0.00     0.031 C 
ATOM     64  C   UNL A   1      45.488  24.721  29.673  1.00  0.00     0.029 A 
ATOM     65  C   UNL A   1      44.632  24.550  30.746  1.00  0.00     0.049 A 
ATOM     66  H   UNL A   1      42.840  23.450  30.860  1.00  0.00     0.167 HD
ATOM     67  C   UNL A   1      44.528  26.348  32.315  1.00  0.00     0.074 A 
ATOM     68  C   UNL A   1      44.719  27.234  33.449  1.00  0.00     0.031 C 
ATOM     69  C   UNL A   1      44.684  25.007  32.128  1.00  0.00     0.031 A 
BRANCH  56  70
ATOM     70  C   UNL A   1      42.625  21.845  27.228  1.00  0.00    -0.014 A 
ATOM     71  C   UNL A   1      41.857  20.696  27.489  1.00  0.00     0.009 A 
ATOM     72  C   UNL A   1      43.473  21.777  26.109  1.00  0.00     0.009 A 
ATOM     73  C   UNL A   1      42.019  19.513  26.757  1.00  0.00     0.001 A 
ATOM     74  C   UNL A   1      43.680  20.583  25.405  1.00  0.00     0.001 A 
ATOM     75  C   UNL A   1      42.960  19.445  25.738  1.00  0.00     0.000 A 
ENDBRANCH  56  70
BRANCH  57  76
ATOM     76  C   UNL A   1      42.396  30.491  31.349  1.00  0.00    -0.014 A 
ATOM     77  C   UNL A   1      42.696  31.851  31.136  1.00  0.00     0.009 A 
ATOM     78  C   UNL A   1      41.062  30.137  31.558  1.00  0.00     0.009 A 
ATOM     79  C   UNL A   1      41.694  32.809  30.987  1.00  0.00     0.001 A 
ATOM     80  C   UNL A   1      40.056  31.109  31.441  1.00  0.00     0.001 A 
ATOM     81  C   UNL A   1      40.368  32.430  31.111  1.00  0.00     0.000 A 
ENDBRANCH  57  76
BRANCH  69  82
ATOM     82  C   UNL A   1      44.980  24.014  33.216  1.00  0.00    -0.014 A 
ATOM     83  C   UNL A   1      46.208  23.935  33.886  1.00  0.00     0.009 A 
ATOM     84  C   UNL A   1      43.937  23.190  33.688  1.00  0.00     0.009 A 
ATOM     85  C   UNL A   1      46.403  23.032  34.939  1.00  0.00     0.001 A 
ATOM     86  C   UNL A   1      44.115  22.318  34.764  1.00  0.00     0.001 A 
ATOM     87  C   UNL A   1      45.356  22.229  35.381  1.00  0.00     0.000 A 
ENDBRANCH  69  82
ENDBRANCH  43  44
ENDBRANCH  35  38
ENDBRANCH  33  34
ENDBRANCH  32  33
ENDBRANCH   1  32
TORSDOF 14
ENDMDL
