MODEL 1
REMARK VINA RESULT:     -11.5      0.000      0.000
REMARK SMILES C[C@@H]1C(=O)NC(=O)CN1C(=O)NC1(CC(=O)NCCCCNC(=O)c2ccc(-c3c4nc(c(-c5ccccc5)c5ccc([nH]5)c(-c5ccccc5)c5nc(c(-c6ccccc6)c6ccc3[nH]6)C=C5)C=C4)cc2)CCC1
REMARK SMILES IDX 19 1 18 2 17 3 15 4 16 5 14 7 13 8 73 9 75 10 74 11 12 12
REMARK SMILES IDX 10 13 11 14 9 16 1 17 2 18 3 19 4 20 5 21 8 22 6 23 7 25
REMARK SMILES IDX 20 26 21 27 22 28 23 29 24 31 25 32 26 33 72 34 27 35 71 36
REMARK SMILES IDX 28 37 29 38 30 39 65 40 31 41 70 42 64 43 66 44 32 45 69 46
REMARK SMILES IDX 63 47 62 48 33 50 55 51 40 52 54 53 41 54 44 55 53 56 67 57
REMARK SMILES IDX 42 58 43 59 52 61 68 62 45 63 34 64 35 65 39 66 36 67 38 68
REMARK SMILES IDX 37 69 56 70 57 71 61 72 58 73 60 74 59 75 46 76 47 77 51 78
REMARK SMILES IDX 48 79 50 80 49 81
REMARK H PARENT 17 6 12 15 5 24 22 30 66 49 44 60
REMARK Flexibility Score: inf
ROOT
ATOM      1  C   UNL A   1      35.281  22.907  23.907  1.00  0.00     0.023 C 
ENDROOT
BRANCH   1   2
ATOM      2  C   UNL A   1      34.482  23.994  23.177  1.00  0.00     0.116 C 
BRANCH   2   3
ATOM      3  N   UNL A   1      33.278  23.411  22.670  1.00  0.00    -0.356 N 
ATOM      4  C   UNL A   1      32.050  23.993  22.876  1.00  0.00     0.222 C 
ATOM      5  O   UNL A   1      31.613  24.923  22.211  1.00  0.00    -0.275 OA
ATOM      6  H   UNL A   1      33.330  22.569  22.161  1.00  0.00     0.163 HD
BRANCH   4   7
ATOM      7  C   UNL A   1      31.272  23.359  23.982  1.00  0.00     0.128 C 
BRANCH   7   8
ATOM      8  C   UNL A   1      30.734  24.287  25.061  1.00  0.00     0.051 C 
ATOM      9  C   UNL A   1      31.955  24.899  25.903  1.00  0.00     0.029 C 
ATOM     10  C   UNL A   1      30.372  23.632  26.470  1.00  0.00     0.029 C 
ATOM     11  C   UNL A   1      31.853  23.701  26.861  1.00  0.00     0.005 C 
BRANCH   8  12
ATOM     12  N   UNL A   1      29.819  25.408  24.634  1.00  0.00    -0.332 N 
ATOM     13  C   UNL A   1      29.506  26.638  24.211  1.00  0.00     0.318 C 
ATOM     14  O   UNL A   1      28.273  26.656  24.029  1.00  0.00    -0.249 OA
ATOM     15  H   UNL A   1      28.932  24.989  24.713  1.00  0.00     0.165 HD
BRANCH  13  16
ATOM     16  N   UNL A   1      30.209  27.770  23.927  1.00  0.00    -0.304 N 
ATOM     17  C   UNL A   1      31.570  29.371  25.342  1.00  0.00     0.042 C 
ATOM     18  C   UNL A   1      31.566  28.304  24.241  1.00  0.00     0.174 C 
ATOM     19  C   UNL A   1      32.248  28.915  22.984  1.00  0.00     0.249 C 
ATOM     20  O   UNL A   1      33.457  29.124  22.894  1.00  0.00    -0.272 OA
ATOM     21  N   UNL A   1      31.417  29.420  22.013  1.00  0.00    -0.293 N 
ATOM     22  C   UNL A   1      29.392  28.828  23.276  1.00  0.00     0.222 C 
ATOM     23  C   UNL A   1      30.051  29.466  22.058  1.00  0.00     0.246 C 
ATOM     24  H   UNL A   1      31.847  29.786  21.206  1.00  0.00     0.173 HD
ATOM     25  O   UNL A   1      29.424  30.124  21.232  1.00  0.00    -0.273 OA
ENDBRANCH  13  16
ENDBRANCH   8  12
ENDBRANCH   7   8
ENDBRANCH   4   7
ENDBRANCH   2   3
ENDBRANCH   1   2
BRANCH   1  26
ATOM     26  C   UNL A   1      36.792  23.048  23.842  1.00  0.00     0.023 C 
BRANCH  26  27
ATOM     27  C   UNL A   1      37.424  23.449  25.157  1.00  0.00     0.116 C 
BRANCH  27  28
ATOM     28  N   UNL A   1      38.518  22.566  25.539  1.00  0.00    -0.352 N 
ATOM     29  C   UNL A   1      39.651  22.842  26.252  1.00  0.00     0.251 C 
ATOM     30  H   UNL A   1      38.429  21.633  25.239  1.00  0.00     0.163 HD
ATOM     31  O   UNL A   1      40.538  21.995  26.358  1.00  0.00    -0.269 OA
BRANCH  29  32
ATOM     32  C   UNL A   1      39.812  24.172  26.859  1.00  0.00     0.039 A 
ATOM     33  C   UNL A   1      39.292  24.400  28.134  1.00  0.00     0.014 A 
ATOM     34  C   UNL A   1      40.512  25.175  26.186  1.00  0.00     0.014 A 
ATOM     35  C   UNL A   1      39.532  25.620  28.762  1.00  0.00     0.010 A 
ATOM     36  C   UNL A   1      40.834  26.347  26.851  1.00  0.00     0.010 A 
ATOM     37  C   UNL A   1      40.337  26.587  28.141  1.00  0.00    -0.014 A 
BRANCH  37  38
ATOM     38  C   UNL A   1      40.652  27.878  28.794  1.00  0.00     0.031 A 
ATOM     39  C   UNL A   1      41.992  28.066  29.449  1.00  0.00     0.074 A 
ATOM     40  C   UNL A   1      39.714  28.842  28.869  1.00  0.00     0.049 A 
ATOM     41  N   UNL A   1      42.421  29.061  30.180  1.00  0.00    -0.248 NA
ATOM     42  C   UNL A   1      42.968  26.974  29.288  1.00  0.00     0.031 C 
ATOM     43  C   UNL A   1      38.369  28.769  28.294  1.00  0.00     0.029 A 
ATOM     44  N   UNL A   1      39.749  30.070  29.478  1.00  0.00    -0.354 N 
ATOM     45  C   UNL A   1      43.701  28.706  30.583  1.00  0.00     0.074 A 
ATOM     46  C   UNL A   1      43.960  27.382  30.064  1.00  0.00     0.031 C 
ATOM     47  C   UNL A   1      37.717  29.913  28.558  1.00  0.00     0.029 A 
ATOM     48  C   UNL A   1      38.575  30.775  29.364  1.00  0.00     0.049 A 
ATOM     49  H   UNL A   1      40.540  30.415  29.952  1.00  0.00     0.167 HD
ATOM     50  C   UNL A   1      44.592  29.425  31.303  1.00  0.00     0.031 A 
ATOM     51  C   UNL A   1      38.226  31.974  29.866  1.00  0.00     0.031 A 
ATOM     52  C   UNL A   1      44.337  30.747  31.807  1.00  0.00     0.049 A 
ATOM     53  C   UNL A   1      39.222  32.740  30.694  1.00  0.00     0.074 A 
ATOM     54  C   UNL A   1      45.190  31.579  32.510  1.00  0.00     0.029 A 
ATOM     55  N   UNL A   1      43.139  31.428  31.661  1.00  0.00    -0.354 N 
ATOM     56  N   UNL A   1      40.450  32.414  31.021  1.00  0.00    -0.248 NA
ATOM     57  C   UNL A   1      38.789  34.044  31.216  1.00  0.00     0.031 C 
ATOM     58  C   UNL A   1      44.489  32.743  32.837  1.00  0.00     0.029 A 
ATOM     59  C   UNL A   1      43.223  32.663  32.277  1.00  0.00     0.049 A 
ATOM     60  H   UNL A   1      42.348  31.084  31.188  1.00  0.00     0.167 HD
ATOM     61  C   UNL A   1      40.946  33.488  31.748  1.00  0.00     0.074 A 
ATOM     62  C   UNL A   1      39.891  34.477  31.809  1.00  0.00     0.031 C 
ATOM     63  C   UNL A   1      42.170  33.643  32.311  1.00  0.00     0.031 A 
BRANCH  50  64
ATOM     64  C   UNL A   1      45.925  28.791  31.593  1.00  0.00    -0.014 A 
ATOM     65  C   UNL A   1      47.015  28.958  30.724  1.00  0.00     0.009 A 
ATOM     66  C   UNL A   1      46.103  28.048  32.770  1.00  0.00     0.009 A 
ATOM     67  C   UNL A   1      48.244  28.361  31.009  1.00  0.00     0.001 A 
ATOM     68  C   UNL A   1      47.342  27.481  33.069  1.00  0.00     0.001 A 
ATOM     69  C   UNL A   1      48.409  27.629  32.184  1.00  0.00     0.000 A 
ENDBRANCH  50  64
BRANCH  51  70
ATOM     70  C   UNL A   1      36.875  32.536  29.599  1.00  0.00    -0.014 A 
ATOM     71  C   UNL A   1      36.624  33.256  28.421  1.00  0.00     0.009 A 
ATOM     72  C   UNL A   1      35.835  32.376  30.528  1.00  0.00     0.009 A 
ATOM     73  C   UNL A   1      35.372  33.833  28.196  1.00  0.00     0.001 A 
ATOM     74  C   UNL A   1      34.575  32.926  30.286  1.00  0.00     0.001 A 
ATOM     75  C   UNL A   1      34.347  33.666  29.126  1.00  0.00     0.000 A 
ENDBRANCH  51  70
BRANCH  63  76
ATOM     76  C   UNL A   1      42.465  34.954  32.984  1.00  0.00    -0.014 A 
ATOM     77  C   UNL A   1      43.191  35.966  32.340  1.00  0.00     0.009 A 
ATOM     78  C   UNL A   1      41.938  35.202  34.263  1.00  0.00     0.009 A 
ATOM     79  C   UNL A   1      43.405  37.192  32.974  1.00  0.00     0.001 A 
ATOM     80  C   UNL A   1      42.126  36.438  34.880  1.00  0.00     0.001 A 
ATOM     81  C   UNL A   1      42.866  37.430  34.239  1.00  0.00     0.000 A 
ENDBRANCH  63  76
ENDBRANCH  37  38
ENDBRANCH  29  32
ENDBRANCH  27  28
ENDBRANCH  26  27
ENDBRANCH   1  26
TORSDOF 14
ENDMDL
MODEL 2
REMARK VINA RESULT:     -11.5      2.813      8.014
REMARK SMILES C[C@@H]1C(=O)NC(=O)CN1C(=O)NC1(CC(=O)NCCCCNC(=O)c2ccc(-c3c4nc(c(-c5ccccc5)c5ccc([nH]5)c(-c5ccccc5)c5nc(c(-c6ccccc6)c6ccc3[nH]6)C=C5)C=C4)cc2)CCC1
REMARK SMILES IDX 19 1 18 2 17 3 15 4 16 5 14 7 13 8 73 9 75 10 74 11 12 12
REMARK SMILES IDX 10 13 11 14 9 16 1 17 2 18 3 19 4 20 5 21 8 22 6 23 7 25
REMARK SMILES IDX 20 26 21 27 22 28 23 29 24 31 25 32 26 33 72 34 27 35 71 36
REMARK SMILES IDX 28 37 29 38 30 39 65 40 31 41 70 42 64 43 66 44 32 45 69 46
REMARK SMILES IDX 63 47 62 48 33 50 55 51 40 52 54 53 41 54 44 55 53 56 67 57
REMARK SMILES IDX 42 58 43 59 52 61 68 62 45 63 34 64 35 65 39 66 36 67 38 68
REMARK SMILES IDX 37 69 56 70 57 71 61 72 58 73 60 74 59 75 46 76 47 77 51 78
REMARK SMILES IDX 48 79 50 80 49 81
REMARK H PARENT 17 6 12 15 5 24 22 30 66 49 44 60
REMARK Flexibility Score: inf
ROOT
ATOM      1  C   UNL A   1      31.518  30.794  26.210  1.00  0.00     0.023 C 
ENDROOT
BRANCH   1   2
ATOM      2  C   UNL A   1      32.694  30.070  26.876  1.00  0.00     0.116 C 
BRANCH   2   3
ATOM      3  N   UNL A   1      32.238  28.799  27.348  1.00  0.00    -0.356 N 
ATOM      4  C   UNL A   1      32.361  27.659  26.590  1.00  0.00     0.222 C 
ATOM      5  O   UNL A   1      33.392  27.004  26.501  1.00  0.00    -0.275 OA
ATOM      6  H   UNL A   1      31.823  28.739  28.239  1.00  0.00     0.163 HD
BRANCH   4   7
ATOM      7  C   UNL A   1      31.097  27.269  25.897  1.00  0.00     0.128 C 
BRANCH   7   8
ATOM      8  C   UNL A   1      31.194  26.975  24.408  1.00  0.00     0.051 C 
ATOM      9  C   UNL A   1      31.647  28.300  23.625  1.00  0.00     0.029 C 
ATOM     10  C   UNL A   1      29.871  27.173  23.538  1.00  0.00     0.029 C 
ATOM     11  C   UNL A   1      30.165  28.676  23.469  1.00  0.00     0.005 C 
BRANCH   8  12
ATOM     12  N   UNL A   1      32.067  25.823  23.973  1.00  0.00    -0.332 N 
ATOM     13  C   UNL A   1      32.579  24.589  24.024  1.00  0.00     0.318 C 
ATOM     14  O   UNL A   1      33.325  24.464  23.032  1.00  0.00    -0.249 OA
ATOM     15  H   UNL A   1      32.535  26.205  23.195  1.00  0.00     0.165 HD
BRANCH  13  16
ATOM     16  N   UNL A   1      32.434  23.517  24.850  1.00  0.00    -0.304 N 
ATOM     17  C   UNL A   1      32.905  21.041  24.584  1.00  0.00     0.042 C 
ATOM     18  C   UNL A   1      33.276  22.360  25.274  1.00  0.00     0.174 C 
ATOM     19  C   UNL A   1      33.206  22.130  26.810  1.00  0.00     0.249 C 
ATOM     20  O   UNL A   1      34.029  21.469  27.442  1.00  0.00    -0.272 OA
ATOM     21  N   UNL A   1      32.054  22.527  27.444  1.00  0.00    -0.293 N 
ATOM     22  C   UNL A   1      31.046  23.335  25.352  1.00  0.00     0.222 C 
ATOM     23  C   UNL A   1      30.951  23.078  26.850  1.00  0.00     0.246 C 
ATOM     24  H   UNL A   1      32.017  22.404  28.419  1.00  0.00     0.173 HD
ATOM     25  O   UNL A   1      29.904  23.202  27.481  1.00  0.00    -0.273 OA
ENDBRANCH  13  16
ENDBRANCH   8  12
ENDBRANCH   7   8
ENDBRANCH   4   7
ENDBRANCH   2   3
ENDBRANCH   1   2
BRANCH   1  26
ATOM     26  C   UNL A   1      31.378  32.268  26.547  1.00  0.00     0.023 C 
BRANCH  26  27
ATOM     27  C   UNL A   1      32.595  32.856  27.230  1.00  0.00     0.116 C 
BRANCH  27  28
ATOM     28  N   UNL A   1      32.384  34.236  27.646  1.00  0.00    -0.352 N 
ATOM     29  C   UNL A   1      33.016  34.957  28.619  1.00  0.00     0.251 C 
ATOM     30  H   UNL A   1      31.685  34.722  27.152  1.00  0.00     0.163 HD
ATOM     31  O   UNL A   1      32.606  36.078  28.925  1.00  0.00    -0.269 OA
BRANCH  29  32
ATOM     32  C   UNL A   1      34.166  34.366  29.320  1.00  0.00     0.039 A 
ATOM     33  C   UNL A   1      33.939  33.604  30.467  1.00  0.00     0.014 A 
ATOM     34  C   UNL A   1      35.459  34.532  28.819  1.00  0.00     0.014 A 
ATOM     35  C   UNL A   1      35.009  32.952  31.077  1.00  0.00     0.010 A 
ATOM     36  C   UNL A   1      36.502  33.803  29.366  1.00  0.00     0.010 A 
ATOM     37  C   UNL A   1      36.290  33.016  30.508  1.00  0.00    -0.014 A 
BRANCH  37  38
ATOM     38  C   UNL A   1      37.444  32.300  31.101  1.00  0.00     0.031 A 
ATOM     39  C   UNL A   1      38.061  32.818  32.370  1.00  0.00     0.074 A 
ATOM     40  C   UNL A   1      37.982  31.244  30.461  1.00  0.00     0.049 A 
ATOM     41  N   UNL A   1      39.145  32.421  32.983  1.00  0.00    -0.248 NA
ATOM     42  C   UNL A   1      37.386  33.955  33.019  1.00  0.00     0.031 C 
ATOM     43  C   UNL A   1      37.489  30.663  29.211  1.00  0.00     0.029 A 
ATOM     44  N   UNL A   1      39.079  30.481  30.773  1.00  0.00    -0.354 N 
ATOM     45  C   UNL A   1      39.294  33.271  34.070  1.00  0.00     0.074 A 
ATOM     46  C   UNL A   1      38.223  34.240  34.004  1.00  0.00     0.031 C 
ATOM     47  C   UNL A   1      38.266  29.619  28.875  1.00  0.00     0.029 A 
ATOM     48  C   UNL A   1      39.341  29.492  29.855  1.00  0.00     0.049 A 
ATOM     49  H   UNL A   1      39.626  30.627  31.578  1.00  0.00     0.167 HD
ATOM     50  C   UNL A   1      40.227  33.236  35.050  1.00  0.00     0.031 A 
ATOM     51  C   UNL A   1      40.343  28.596  29.801  1.00  0.00     0.031 A 
ATOM     52  C   UNL A   1      41.283  32.264  35.120  1.00  0.00     0.049 A 
ATOM     53  C   UNL A   1      41.389  28.601  30.884  1.00  0.00     0.074 A 
ATOM     54  C   UNL A   1      42.252  32.115  36.095  1.00  0.00     0.029 A 
ATOM     55  N   UNL A   1      41.506  31.275  34.175  1.00  0.00    -0.354 N 
ATOM     56  N   UNL A   1      41.485  29.378  31.936  1.00  0.00    -0.248 NA
ATOM     57  C   UNL A   1      42.459  27.600  30.776  1.00  0.00     0.031 C 
ATOM     58  C   UNL A   1      43.096  31.070  35.713  1.00  0.00     0.029 A 
ATOM     59  C   UNL A   1      42.610  30.524  34.535  1.00  0.00     0.049 A 
ATOM     60  H   UNL A   1      40.960  31.129  33.370  1.00  0.00     0.167 HD
ATOM     61  C   UNL A   1      42.599  28.931  32.635  1.00  0.00     0.074 A 
ATOM     62  C   UNL A   1      43.141  27.813  31.892  1.00  0.00     0.031 C 
ATOM     63  C   UNL A   1      43.123  29.402  33.794  1.00  0.00     0.031 A 
BRANCH  50  64
ATOM     64  C   UNL A   1      40.147  34.288  36.122  1.00  0.00    -0.014 A 
ATOM     65  C   UNL A   1      39.382  34.088  37.282  1.00  0.00     0.009 A 
ATOM     66  C   UNL A   1      40.876  35.479  35.986  1.00  0.00     0.009 A 
ATOM     67  C   UNL A   1      39.320  35.076  38.267  1.00  0.00     0.001 A 
ATOM     68  C   UNL A   1      40.839  36.451  36.987  1.00  0.00     0.001 A 
ATOM     69  C   UNL A   1      40.053  36.253  38.122  1.00  0.00     0.000 A 
ENDBRANCH  50  64
BRANCH  51  70
ATOM     70  C   UNL A   1      40.411  27.611  28.690  1.00  0.00    -0.014 A 
ATOM     71  C   UNL A   1      41.114  27.913  27.513  1.00  0.00     0.009 A 
ATOM     72  C   UNL A   1      39.759  26.372  28.788  1.00  0.00     0.009 A 
ATOM     73  C   UNL A   1      41.130  27.012  26.445  1.00  0.00     0.001 A 
ATOM     74  C   UNL A   1      39.804  25.459  27.732  1.00  0.00     0.001 A 
ATOM     75  C   UNL A   1      40.478  25.785  26.556  1.00  0.00     0.000 A 
ENDBRANCH  51  70
BRANCH  63  76
ATOM     76  C   UNL A   1      44.304  28.673  34.370  1.00  0.00    -0.014 A 
ATOM     77  C   UNL A   1      45.621  29.056  34.075  1.00  0.00     0.009 A 
ATOM     78  C   UNL A   1      44.087  27.629  35.284  1.00  0.00     0.009 A 
ATOM     79  C   UNL A   1      46.697  28.390  34.667  1.00  0.00     0.001 A 
ATOM     80  C   UNL A   1      45.163  26.988  35.897  1.00  0.00     0.001 A 
ATOM     81  C   UNL A   1      46.467  27.363  35.583  1.00  0.00     0.000 A 
ENDBRANCH  63  76
ENDBRANCH  37  38
ENDBRANCH  29  32
ENDBRANCH  27  28
ENDBRANCH  26  27
ENDBRANCH   1  26
TORSDOF 14
ENDMDL
MODEL 3
REMARK VINA RESULT:     -11.3      3.264      7.441
REMARK SMILES C[C@@H]1C(=O)NC(=O)CN1C(=O)NC1(CC(=O)NCCCCNC(=O)c2ccc(-c3c4nc(c(-c5ccccc5)c5ccc([nH]5)c(-c5ccccc5)c5nc(c(-c6ccccc6)c6ccc3[nH]6)C=C5)C=C4)cc2)CCC1
REMARK SMILES IDX 19 1 18 2 17 3 15 4 16 5 14 7 13 8 73 9 75 10 74 11 12 12
REMARK SMILES IDX 10 13 11 14 9 16 1 17 2 18 3 19 4 20 5 21 8 22 6 23 7 25
REMARK SMILES IDX 20 26 21 27 22 28 23 29 24 31 25 32 26 33 72 34 27 35 71 36
REMARK SMILES IDX 28 37 29 38 30 39 65 40 31 41 70 42 64 43 66 44 32 45 69 46
REMARK SMILES IDX 63 47 62 48 33 50 55 51 40 52 54 53 41 54 44 55 53 56 67 57
REMARK SMILES IDX 42 58 43 59 52 61 68 62 45 63 34 64 35 65 39 66 36 67 38 68
REMARK SMILES IDX 37 69 56 70 57 71 61 72 58 73 60 74 59 75 46 76 47 77 51 78
REMARK SMILES IDX 48 79 50 80 49 81
REMARK H PARENT 17 6 12 15 5 24 22 30 66 49 44 60
REMARK Flexibility Score: inf
ROOT
ATOM      1  C   UNL A   1      36.961  20.863  25.089  1.00  0.00     0.023 C 
ENDROOT
BRANCH   1   2
ATOM      2  C   UNL A   1      37.303  22.269  25.598  1.00  0.00     0.116 C 
BRANCH   2   3
ATOM      3  N   UNL A   1      37.056  23.206  24.545  1.00  0.00    -0.356 N 
ATOM      4  C   UNL A   1      35.814  23.757  24.345  1.00  0.00     0.222 C 
ATOM      5  O   UNL A   1      35.372  24.702  24.986  1.00  0.00    -0.275 OA
ATOM      6  H   UNL A   1      37.796  23.463  23.948  1.00  0.00     0.163 HD
BRANCH   4   7
ATOM      7  C   UNL A   1      35.049  23.109  23.238  1.00  0.00     0.128 C 
BRANCH   7   8
ATOM      8  C   UNL A   1      33.669  23.672  22.935  1.00  0.00     0.051 C 
ATOM      9  C   UNL A   1      32.716  23.477  24.211  1.00  0.00     0.029 C 
ATOM     10  C   UNL A   1      32.611  22.685  22.263  1.00  0.00     0.029 C 
ATOM     11  C   UNL A   1      32.297  22.109  23.649  1.00  0.00     0.005 C 
BRANCH   8  12
ATOM     12  N   UNL A   1      33.580  25.104  22.468  1.00  0.00    -0.332 N 
ATOM     13  C   UNL A   1      33.118  26.359  22.452  1.00  0.00     0.318 C 
ATOM     14  O   UNL A   1      33.810  26.990  21.629  1.00  0.00    -0.249 OA
ATOM     15  H   UNL A   1      34.261  25.129  21.758  1.00  0.00     0.165 HD
BRANCH  13  16
ATOM     16  N   UNL A   1      32.150  27.040  23.125  1.00  0.00    -0.304 N 
ATOM     17  C   UNL A   1      30.744  26.504  25.164  1.00  0.00     0.042 C 
ATOM     18  C   UNL A   1      31.853  27.367  24.550  1.00  0.00     0.174 C 
ATOM     19  C   UNL A   1      31.447  28.858  24.726  1.00  0.00     0.249 C 
ATOM     20  O   UNL A   1      31.465  29.451  25.803  1.00  0.00    -0.272 OA
ATOM     21  N   UNL A   1      30.855  29.470  23.647  1.00  0.00    -0.293 N 
ATOM     22  C   UNL A   1      30.999  27.438  22.270  1.00  0.00     0.222 C 
ATOM     23  C   UNL A   1      30.561  28.887  22.445  1.00  0.00     0.246 C 
ATOM     24  H   UNL A   1      30.619  30.420  23.748  1.00  0.00     0.173 HD
ATOM     25  O   UNL A   1      29.848  29.468  21.631  1.00  0.00    -0.273 OA
ENDBRANCH  13  16
ENDBRANCH   8  12
ENDBRANCH   7   8
ENDBRANCH   4   7
ENDBRANCH   2   3
ENDBRANCH   1   2
BRANCH   1  26
ATOM     26  C   UNL A   1      38.140  19.918  24.929  1.00  0.00     0.023 C 
BRANCH  26  27
ATOM     27  C   UNL A   1      39.313  20.249  25.826  1.00  0.00     0.116 C 
BRANCH  27  28
ATOM     28  N   UNL A   1      40.279  19.160  25.899  1.00  0.00    -0.352 N 
ATOM     29  C   UNL A   1      41.625  19.205  26.131  1.00  0.00     0.251 C 
ATOM     30  H   UNL A   1      39.908  18.259  25.762  1.00  0.00     0.163 HD
ATOM     31  O   UNL A   1      42.308  18.187  26.017  1.00  0.00    -0.269 OA
BRANCH  29  32
ATOM     32  C   UNL A   1      42.251  20.489  26.482  1.00  0.00     0.039 A 
ATOM     33  C   UNL A   1      42.764  21.292  25.462  1.00  0.00     0.014 A 
ATOM     34  C   UNL A   1      42.293  20.914  27.811  1.00  0.00     0.014 A 
ATOM     35  C   UNL A   1      43.263  22.555  25.771  1.00  0.00     0.010 A 
ATOM     36  C   UNL A   1      42.694  22.208  28.103  1.00  0.00     0.010 A 
ATOM     37  C   UNL A   1      43.195  23.037  27.088  1.00  0.00    -0.014 A 
BRANCH  37  38
ATOM     38  C   UNL A   1      43.673  24.391  27.449  1.00  0.00     0.031 A 
ATOM     39  C   UNL A   1      42.679  25.434  27.879  1.00  0.00     0.074 A 
ATOM     40  C   UNL A   1      44.976  24.704  27.314  1.00  0.00     0.049 A 
ATOM     41  N   UNL A   1      42.868  26.706  28.115  1.00  0.00    -0.248 NA
ATOM     42  C   UNL A   1      41.282  24.994  28.032  1.00  0.00     0.031 C 
ATOM     43  C   UNL A   1      46.033  23.786  26.884  1.00  0.00     0.029 A 
ATOM     44  N   UNL A   1      45.629  25.894  27.514  1.00  0.00    -0.354 N 
ATOM     45  C   UNL A   1      41.614  27.220  28.419  1.00  0.00     0.074 A 
ATOM     46  C   UNL A   1      40.665  26.138  28.285  1.00  0.00     0.031 C 
ATOM     47  C   UNL A   1      47.206  24.441  26.874  1.00  0.00     0.029 A 
ATOM     48  C   UNL A   1      46.976  25.834  27.246  1.00  0.00     0.049 A 
ATOM     49  H   UNL A   1      45.177  26.712  27.821  1.00  0.00     0.167 HD
ATOM     50  C   UNL A   1      41.284  28.476  28.798  1.00  0.00     0.031 A 
ATOM     51  C   UNL A   1      47.915  26.798  27.279  1.00  0.00     0.031 A 
ATOM     52  C   UNL A   1      42.232  29.547  28.943  1.00  0.00     0.049 A 
ATOM     53  C   UNL A   1      47.516  28.195  27.669  1.00  0.00     0.074 A 
ATOM     54  C   UNL A   1      42.006  30.844  29.365  1.00  0.00     0.029 A 
ATOM     55  N   UNL A   1      43.587  29.441  28.671  1.00  0.00    -0.354 N 
ATOM     56  N   UNL A   1      46.335  28.654  28.007  1.00  0.00    -0.248 NA
ATOM     57  C   UNL A   1      48.582  29.207  27.691  1.00  0.00     0.031 C 
ATOM     58  C   UNL A   1      43.216  31.540  29.295  1.00  0.00     0.029 A 
ATOM     59  C   UNL A   1      44.206  30.657  28.897  1.00  0.00     0.049 A 
ATOM     60  H   UNL A   1      44.040  28.623  28.363  1.00  0.00     0.167 HD
ATOM     61  C   UNL A   1      46.525  29.994  28.322  1.00  0.00     0.074 A 
ATOM     62  C   UNL A   1      47.934  30.272  28.141  1.00  0.00     0.031 C 
ATOM     63  C   UNL A   1      45.614  30.910  28.731  1.00  0.00     0.031 A 
BRANCH  50  64
ATOM     64  C   UNL A   1      39.834  28.759  29.075  1.00  0.00    -0.014 A 
ATOM     65  C   UNL A   1      38.981  29.240  28.069  1.00  0.00     0.009 A 
ATOM     66  C   UNL A   1      39.304  28.506  30.350  1.00  0.00     0.009 A 
ATOM     67  C   UNL A   1      37.636  29.498  28.345  1.00  0.00     0.001 A 
ATOM     68  C   UNL A   1      37.953  28.732  30.613  1.00  0.00     0.001 A 
ATOM     69  C   UNL A   1      37.122  29.237  29.614  1.00  0.00     0.000 A 
ENDBRANCH  50  64
BRANCH  51  70
ATOM     70  C   UNL A   1      49.328  26.482  26.942  1.00  0.00    -0.014 A 
ATOM     71  C   UNL A   1      49.789  26.605  25.622  1.00  0.00     0.009 A 
ATOM     72  C   UNL A   1      50.220  26.035  27.930  1.00  0.00     0.009 A 
ATOM     73  C   UNL A   1      51.100  26.253  25.293  1.00  0.00     0.001 A 
ATOM     74  C   UNL A   1      51.540  25.715  27.604  1.00  0.00     0.001 A 
ATOM     75  C   UNL A   1      51.976  25.812  26.284  1.00  0.00     0.000 A 
ENDBRANCH  51  70
BRANCH  63  76
ATOM     76  C   UNL A   1      46.115  32.284  29.076  1.00  0.00    -0.014 A 
ATOM     77  C   UNL A   1      46.143  33.318  28.128  1.00  0.00     0.009 A 
ATOM     78  C   UNL A   1      46.498  32.562  30.399  1.00  0.00     0.009 A 
ATOM     79  C   UNL A   1      46.568  34.597  28.494  1.00  0.00     0.001 A 
ATOM     80  C   UNL A   1      46.890  33.848  30.768  1.00  0.00     0.001 A 
ATOM     81  C   UNL A   1      46.933  34.863  29.814  1.00  0.00     0.000 A 
ENDBRANCH  63  76
ENDBRANCH  37  38
ENDBRANCH  29  32
ENDBRANCH  27  28
ENDBRANCH  26  27
ENDBRANCH   1  26
TORSDOF 14
ENDMDL
