MODEL 1
REMARK VINA RESULT:     -10.2      0.000      0.000
REMARK SMILES C[C@@](O)(CSc1ccc(N)c(F)c1)C(=O)NCCCCNC(=O)c1ccc(-c2c3nc(c(-c4ccccc4)c4ccc([nH]4)c(-c4ccccc4)c4nc(c(-c5ccccc5)c5ccc2[nH]5)C=C4)C=C3)cc1
REMARK SMILES IDX 17 1 16 2 14 3 15 4 2 6 1 7 3 8 4 10 5 11 6 12 7 13 13 14
REMARK SMILES IDX 8 15 11 16 9 17 12 18 10 19 18 22 19 23 20 24 21 25 22 26
REMARK SMILES IDX 23 28 24 29 25 30 71 31 26 32 70 33 27 34 28 35 29 36 64 37
REMARK SMILES IDX 30 38 69 39 63 40 65 41 31 42 68 43 62 44 61 45 32 47 54 48
REMARK SMILES IDX 39 49 53 50 40 51 43 52 52 53 66 54 41 55 42 56 51 58 67 59
REMARK SMILES IDX 44 60 33 61 34 62 38 63 35 64 37 65 36 66 55 67 56 68 60 69
REMARK SMILES IDX 57 70 59 71 58 72 45 73 46 74 50 75 47 76 49 77 48 78
REMARK H PARENT 16 5 3 9 10 20 10 21 21 27 65 46 43 57
REMARK Flexibility Score: inf
ROOT
ATOM      1  C   UNL A   1      36.705  23.027  25.353  1.00  0.00     0.116 C 
ENDROOT
BRANCH   1   2
ATOM      2  N   UNL A   1      35.893  22.670  26.502  1.00  0.00    -0.354 N 
ATOM      3  C   UNL A   1      34.605  22.990  26.813  1.00  0.00     0.252 C 
ATOM      4  O   UNL A   1      34.164  22.534  27.871  1.00  0.00    -0.272 OA
ATOM      5  H   UNL A   1      36.348  22.104  27.165  1.00  0.00     0.163 HD
BRANCH   3   6
ATOM      6  C   UNL A   1      33.726  23.841  25.855  1.00  0.00     0.149 C 
ATOM      7  C   UNL A   1      34.468  25.134  25.490  1.00  0.00     0.054 C 
BRANCH   6   8
ATOM      8  O   UNL A   1      32.535  24.271  26.549  1.00  0.00    -0.379 OA
ATOM      9  H   UNL A   1      32.088  23.499  26.931  1.00  0.00     0.212 HD
ENDBRANCH   6   8
BRANCH   6  10
ATOM     10  C   UNL A   1      33.265  23.056  24.606  1.00  0.00     0.120 C 
BRANCH  10  11
ATOM     11  S   UNL A   1      31.897  21.842  24.775  1.00  0.00    -0.122 SA
BRANCH  11  12
ATOM     12  C   UNL A   1      32.663  20.309  24.289  1.00  0.00     0.010 A 
ATOM     13  C   UNL A   1      33.786  19.778  24.934  1.00  0.00     0.017 A 
ATOM     14  C   UNL A   1      32.099  19.603  23.225  1.00  0.00     0.056 A 
ATOM     15  C   UNL A   1      34.287  18.521  24.577  1.00  0.00     0.030 A 
ATOM     16  C   UNL A   1      32.616  18.361  22.868  1.00  0.00     0.147 A 
ATOM     17  C   UNL A   1      33.709  17.795  23.536  1.00  0.00     0.068 A 
ATOM     18  F   UNL A   1      32.038  17.686  21.860  1.00  0.00    -0.205 F 
BRANCH  17  19
ATOM     19  N   UNL A   1      34.145  16.512  23.244  1.00  0.00    -0.396 N 
ATOM     20  H   UNL A   1      33.492  15.806  23.035  1.00  0.00     0.156 HD
ATOM     21  H   UNL A   1      35.109  16.307  23.245  1.00  0.00     0.156 HD
ENDBRANCH  17  19
ENDBRANCH  11  12
ENDBRANCH  10  11
ENDBRANCH   6  10
ENDBRANCH   3   6
ENDBRANCH   1   2
BRANCH   1  22
ATOM     22  C   UNL A   1      36.838  21.859  24.378  1.00  0.00     0.023 C 
BRANCH  22  23
ATOM     23  C   UNL A   1      37.544  20.626  24.948  1.00  0.00     0.023 C 
BRANCH  23  24
ATOM     24  C   UNL A   1      38.834  20.912  25.707  1.00  0.00     0.116 C 
BRANCH  24  25
ATOM     25  N   UNL A   1      39.781  19.809  25.666  1.00  0.00    -0.352 N 
ATOM     26  C   UNL A   1      41.111  19.821  26.016  1.00  0.00     0.251 C 
ATOM     27  H   UNL A   1      39.427  18.947  25.348  1.00  0.00     0.163 HD
ATOM     28  O   UNL A   1      41.822  18.839  25.829  1.00  0.00    -0.269 OA
BRANCH  26  29
ATOM     29  C   UNL A   1      41.684  21.055  26.592  1.00  0.00     0.039 A 
ATOM     30  C   UNL A   1      42.163  22.045  25.733  1.00  0.00     0.014 A 
ATOM     31  C   UNL A   1      41.688  21.247  27.976  1.00  0.00     0.014 A 
ATOM     32  C   UNL A   1      42.586  23.268  26.261  1.00  0.00     0.010 A 
ATOM     33  C   UNL A   1      42.049  22.485  28.493  1.00  0.00     0.010 A 
ATOM     34  C   UNL A   1      42.497  23.508  27.641  1.00  0.00    -0.014 A 
BRANCH  34  35
ATOM     35  C   UNL A   1      42.881  24.811  28.236  1.00  0.00     0.031 A 
ATOM     36  C   UNL A   1      41.827  25.859  28.462  1.00  0.00     0.074 A 
ATOM     37  C   UNL A   1      44.175  25.089  28.485  1.00  0.00     0.049 A 
ATOM     38  N   UNL A   1      41.968  27.114  28.802  1.00  0.00    -0.248 NA
ATOM     39  C   UNL A   1      40.431  25.445  28.246  1.00  0.00     0.031 C 
ATOM     40  C   UNL A   1      45.296  24.165  28.300  1.00  0.00     0.029 A 
ATOM     41  N   UNL A   1      44.767  26.244  28.932  1.00  0.00    -0.354 N 
ATOM     42  C   UNL A   1      40.685  27.646  28.813  1.00  0.00     0.074 A 
ATOM     43  C   UNL A   1      39.783  26.589  28.409  1.00  0.00     0.031 C 
ATOM     44  C   UNL A   1      46.437  24.785  28.645  1.00  0.00     0.029 A 
ATOM     45  C   UNL A   1      46.136  26.161  29.028  1.00  0.00     0.049 A 
ATOM     46  H   UNL A   1      44.259  27.056  29.163  1.00  0.00     0.167 HD
ATOM     47  C   UNL A   1      40.289  28.897  29.144  1.00  0.00     0.031 A 
ATOM     48  C   UNL A   1      47.043  27.094  29.370  1.00  0.00     0.031 A 
ATOM     49  C   UNL A   1      41.180  29.942  29.565  1.00  0.00     0.049 A 
ATOM     50  C   UNL A   1      46.580  28.483  29.713  1.00  0.00     0.074 A 
ATOM     51  C   UNL A   1      40.873  31.237  29.945  1.00  0.00     0.029 A 
ATOM     52  N   UNL A   1      42.555  29.807  29.670  1.00  0.00    -0.354 N 
ATOM     53  N   UNL A   1      45.361  28.965  29.738  1.00  0.00    -0.248 NA
ATOM     54  C   UNL A   1      47.619  29.456  30.080  1.00  0.00     0.031 C 
ATOM     55  C   UNL A   1      42.068  31.895  30.255  1.00  0.00     0.029 A 
ATOM     56  C   UNL A   1      43.112  30.995  30.110  1.00  0.00     0.049 A 
ATOM     57  H   UNL A   1      43.061  28.988  29.464  1.00  0.00     0.167 HD
ATOM     58  C   UNL A   1      45.483  30.282  30.161  1.00  0.00     0.074 A 
ATOM     59  C   UNL A   1      46.894  30.523  30.384  1.00  0.00     0.031 C 
ATOM     60  C   UNL A   1      44.513  31.207  30.351  1.00  0.00     0.031 A 
BRANCH  47  61
ATOM     61  C   UNL A   1      38.820  29.199  29.060  1.00  0.00    -0.014 A 
ATOM     62  C   UNL A   1      37.991  29.073  30.185  1.00  0.00     0.009 A 
ATOM     63  C   UNL A   1      38.264  29.642  27.850  1.00  0.00     0.009 A 
ATOM     64  C   UNL A   1      36.626  29.350  30.091  1.00  0.00     0.001 A 
ATOM     65  C   UNL A   1      36.904  29.945  27.766  1.00  0.00     0.001 A 
ATOM     66  C   UNL A   1      36.085  29.790  28.884  1.00  0.00     0.000 A 
ENDBRANCH  47  61
BRANCH  48  67
ATOM     67  C   UNL A   1      48.489  26.754  29.416  1.00  0.00    -0.014 A 
ATOM     68  C   UNL A   1      49.056  26.237  30.593  1.00  0.00     0.009 A 
ATOM     69  C   UNL A   1      49.315  26.965  28.302  1.00  0.00     0.009 A 
ATOM     70  C   UNL A   1      50.425  25.970  30.662  1.00  0.00     0.001 A 
ATOM     71  C   UNL A   1      50.679  26.672  28.366  1.00  0.00     0.001 A 
ATOM     72  C   UNL A   1      51.235  26.185  29.547  1.00  0.00     0.000 A 
ENDBRANCH  48  67
BRANCH  60  73
ATOM     73  C   UNL A   1      44.932  32.545  30.890  1.00  0.00    -0.014 A 
ATOM     74  C   UNL A   1      45.023  32.783  32.268  1.00  0.00     0.009 A 
ATOM     75  C   UNL A   1      45.295  33.563  29.994  1.00  0.00     0.009 A 
ATOM     76  C   UNL A   1      45.450  34.025  32.740  1.00  0.00     0.001 A 
ATOM     77  C   UNL A   1      45.744  34.796  30.469  1.00  0.00     0.001 A 
ATOM     78  C   UNL A   1      45.815  35.028  31.841  1.00  0.00     0.000 A 
ENDBRANCH  60  73
ENDBRANCH  34  35
ENDBRANCH  26  29
ENDBRANCH  24  25
ENDBRANCH  23  24
ENDBRANCH  22  23
ENDBRANCH   1  22
TORSDOF 16
ENDMDL
MODEL 2
REMARK VINA RESULT:     -10.1      5.200      9.684
REMARK SMILES C[C@@](O)(CSc1ccc(N)c(F)c1)C(=O)NCCCCNC(=O)c1ccc(-c2c3nc(c(-c4ccccc4)c4ccc([nH]4)c(-c4ccccc4)c4nc(c(-c5ccccc5)c5ccc2[nH]5)C=C4)C=C3)cc1
REMARK SMILES IDX 17 1 16 2 14 3 15 4 2 6 1 7 3 8 4 10 5 11 6 12 7 13 13 14
REMARK SMILES IDX 8 15 11 16 9 17 12 18 10 19 18 22 19 23 20 24 21 25 22 26
REMARK SMILES IDX 23 28 24 29 25 30 71 31 26 32 70 33 27 34 28 35 29 36 64 37
REMARK SMILES IDX 30 38 69 39 63 40 65 41 31 42 68 43 62 44 61 45 32 47 54 48
REMARK SMILES IDX 39 49 53 50 40 51 43 52 52 53 66 54 41 55 42 56 51 58 67 59
REMARK SMILES IDX 44 60 33 61 34 62 38 63 35 64 37 65 36 66 55 67 56 68 60 69
REMARK SMILES IDX 57 70 59 71 58 72 45 73 46 74 50 75 47 76 49 77 48 78
REMARK H PARENT 16 5 3 9 10 20 10 21 21 27 65 46 43 57
REMARK Flexibility Score: inf
ROOT
ATOM      1  C   UNL A   1      32.199  29.497  26.071  1.00  0.00     0.116 C 
ENDROOT
BRANCH   1   2
ATOM      2  N   UNL A   1      31.418  28.371  26.545  1.00  0.00    -0.354 N 
ATOM      3  C   UNL A   1      31.605  27.030  26.385  1.00  0.00     0.252 C 
ATOM      4  O   UNL A   1      30.771  26.290  26.913  1.00  0.00    -0.272 OA
ATOM      5  H   UNL A   1      30.622  28.615  27.069  1.00  0.00     0.163 HD
BRANCH   3   6
ATOM      6  C   UNL A   1      32.836  26.468  25.622  1.00  0.00     0.149 C 
ATOM      7  C   UNL A   1      33.064  25.004  26.021  1.00  0.00     0.054 C 
BRANCH   6   8
ATOM      8  O   UNL A   1      34.026  27.166  26.048  1.00  0.00    -0.379 OA
ATOM      9  H   UNL A   1      34.621  26.545  26.497  1.00  0.00     0.212 HD
ENDBRANCH   6   8
BRANCH   6  10
ATOM     10  C   UNL A   1      32.729  26.649  24.091  1.00  0.00     0.120 C 
BRANCH  10  11
ATOM     11  S   UNL A   1      31.284  25.934  23.212  1.00  0.00    -0.122 SA
BRANCH  11  12
ATOM     12  C   UNL A   1      30.205  27.338  23.009  1.00  0.00     0.010 A 
ATOM     13  C   UNL A   1      30.613  28.533  22.405  1.00  0.00     0.017 A 
ATOM     14  C   UNL A   1      28.890  27.225  23.463  1.00  0.00     0.056 A 
ATOM     15  C   UNL A   1      29.698  29.568  22.181  1.00  0.00     0.030 A 
ATOM     16  C   UNL A   1      27.993  28.268  23.249  1.00  0.00     0.147 A 
ATOM     17  C   UNL A   1      28.375  29.450  22.602  1.00  0.00     0.068 A 
ATOM     18  F   UNL A   1      26.724  28.124  23.667  1.00  0.00    -0.205 F 
BRANCH  17  19
ATOM     19  N   UNL A   1      27.447  30.435  22.298  1.00  0.00    -0.396 N 
ATOM     20  H   UNL A   1      27.744  31.281  21.891  1.00  0.00     0.156 HD
ATOM     21  H   UNL A   1      26.492  30.289  22.489  1.00  0.00     0.156 HD
ENDBRANCH  17  19
ENDBRANCH  11  12
ENDBRANCH  10  11
ENDBRANCH   6  10
ENDBRANCH   3   6
ENDBRANCH   1   2
BRANCH   1  22
ATOM     22  C   UNL A   1      31.306  30.597  25.499  1.00  0.00     0.023 C 
BRANCH  22  23
ATOM     23  C   UNL A   1      31.114  31.807  26.416  1.00  0.00     0.023 C 
BRANCH  23  24
ATOM     24  C   UNL A   1      32.401  32.456  26.909  1.00  0.00     0.116 C 
BRANCH  24  25
ATOM     25  N   UNL A   1      32.201  33.791  27.452  1.00  0.00    -0.352 N 
ATOM     26  C   UNL A   1      32.982  34.460  28.364  1.00  0.00     0.251 C 
ATOM     27  H   UNL A   1      31.406  34.274  27.128  1.00  0.00     0.163 HD
ATOM     28  O   UNL A   1      32.634  35.545  28.817  1.00  0.00    -0.269 OA
BRANCH  26  29
ATOM     29  C   UNL A   1      34.240  33.834  28.819  1.00  0.00     0.039 A 
ATOM     30  C   UNL A   1      35.452  34.288  28.295  1.00  0.00     0.014 A 
ATOM     31  C   UNL A   1      34.214  32.842  29.802  1.00  0.00     0.014 A 
ATOM     32  C   UNL A   1      36.653  33.795  28.813  1.00  0.00     0.010 A 
ATOM     33  C   UNL A   1      35.408  32.399  30.357  1.00  0.00     0.010 A 
ATOM     34  C   UNL A   1      36.638  32.874  29.872  1.00  0.00    -0.014 A 
BRANCH  34  35
ATOM     35  C   UNL A   1      37.889  32.368  30.489  1.00  0.00     0.031 A 
ATOM     36  C   UNL A   1      38.567  31.163  29.901  1.00  0.00     0.074 A 
ATOM     37  C   UNL A   1      38.361  32.925  31.621  1.00  0.00     0.049 A 
ATOM     38  N   UNL A   1      39.558  30.456  30.378  1.00  0.00    -0.248 NA
ATOM     39  C   UNL A   1      38.037  30.670  28.618  1.00  0.00     0.031 C 
ATOM     40  C   UNL A   1      37.791  34.091  32.299  1.00  0.00     0.029 A 
ATOM     41  N   UNL A   1      39.424  32.568  32.411  1.00  0.00    -0.354 N 
ATOM     42  C   UNL A   1      39.753  29.422  29.471  1.00  0.00     0.074 A 
ATOM     43  C   UNL A   1      38.752  29.571  28.437  1.00  0.00     0.031 C 
ATOM     44  C   UNL A   1      38.520  34.361  33.396  1.00  0.00     0.029 A 
ATOM     45  C   UNL A   1      39.576  33.361  33.523  1.00  0.00     0.049 A 
ATOM     46  H   UNL A   1      40.023  31.814  32.201  1.00  0.00     0.167 HD
ATOM     47  C   UNL A   1      40.688  28.444  29.489  1.00  0.00     0.031 A 
ATOM     48  C   UNL A   1      40.456  33.279  34.538  1.00  0.00     0.031 A 
ATOM     49  C   UNL A   1      41.695  28.307  30.505  1.00  0.00     0.049 A 
ATOM     50  C   UNL A   1      41.473  32.171  34.546  1.00  0.00     0.074 A 
ATOM     51  C   UNL A   1      42.703  27.364  30.599  1.00  0.00     0.029 A 
ATOM     52  N   UNL A   1      41.826  29.146  31.600  1.00  0.00    -0.354 N 
ATOM     53  N   UNL A   1      41.656  31.212  33.671  1.00  0.00    -0.248 NA
ATOM     54  C   UNL A   1      42.408  32.138  35.680  1.00  0.00     0.031 C 
ATOM     55  C   UNL A   1      43.429  27.616  31.768  1.00  0.00     0.029 A 
ATOM     56  C   UNL A   1      42.898  28.743  32.376  1.00  0.00     0.049 A 
ATOM     57  H   UNL A   1      41.244  29.915  31.797  1.00  0.00     0.167 HD
ATOM     58  C   UNL A   1      42.749  30.488  34.128  1.00  0.00     0.074 A 
ATOM     59  C   UNL A   1      43.190  31.118  35.355  1.00  0.00     0.031 C 
ATOM     60  C   UNL A   1      43.337  29.399  33.577  1.00  0.00     0.031 A 
BRANCH  47  61
ATOM     61  C   UNL A   1      40.660  27.444  28.370  1.00  0.00    -0.014 A 
ATOM     62  C   UNL A   1      39.915  26.259  28.478  1.00  0.00     0.009 A 
ATOM     63  C   UNL A   1      41.362  27.701  27.183  1.00  0.00     0.009 A 
ATOM     64  C   UNL A   1      39.903  25.334  27.433  1.00  0.00     0.001 A 
ATOM     65  C   UNL A   1      41.326  26.786  26.128  1.00  0.00     0.001 A 
ATOM     66  C   UNL A   1      40.605  25.600  26.258  1.00  0.00     0.000 A 
ENDBRANCH  47  61
BRANCH  48  67
ATOM     67  C   UNL A   1      40.430  34.280  35.637  1.00  0.00    -0.014 A 
ATOM     68  C   UNL A   1      39.675  34.039  36.796  1.00  0.00     0.009 A 
ATOM     69  C   UNL A   1      41.135  35.489  35.526  1.00  0.00     0.009 A 
ATOM     70  C   UNL A   1      39.600  35.000  37.806  1.00  0.00     0.001 A 
ATOM     71  C   UNL A   1      41.079  36.437  36.550  1.00  0.00     0.001 A 
ATOM     72  C   UNL A   1      40.305  36.197  37.683  1.00  0.00     0.000 A 
ENDBRANCH  48  67
BRANCH  60  73
ATOM     73  C   UNL A   1      44.564  28.859  34.257  1.00  0.00    -0.014 A 
ATOM     74  C   UNL A   1      44.479  27.848  35.224  1.00  0.00     0.009 A 
ATOM     75  C   UNL A   1      45.827  29.336  33.873  1.00  0.00     0.009 A 
ATOM     76  C   UNL A   1      45.638  27.340  35.812  1.00  0.00     0.001 A 
ATOM     77  C   UNL A   1      46.985  28.809  34.446  1.00  0.00     0.001 A 
ATOM     78  C   UNL A   1      46.889  27.816  35.419  1.00  0.00     0.000 A 
ENDBRANCH  60  73
ENDBRANCH  34  35
ENDBRANCH  26  29
ENDBRANCH  24  25
ENDBRANCH  23  24
ENDBRANCH  22  23
ENDBRANCH   1  22
TORSDOF 16
ENDMDL
MODEL 3
REMARK VINA RESULT:     -10.1      2.651      7.454
REMARK SMILES C[C@@](O)(CSc1ccc(N)c(F)c1)C(=O)NCCCCNC(=O)c1ccc(-c2c3nc(c(-c4ccccc4)c4ccc([nH]4)c(-c4ccccc4)c4nc(c(-c5ccccc5)c5ccc2[nH]5)C=C4)C=C3)cc1
REMARK SMILES IDX 17 1 16 2 14 3 15 4 2 6 1 7 3 8 4 10 5 11 6 12 7 13 13 14
REMARK SMILES IDX 8 15 11 16 9 17 12 18 10 19 18 22 19 23 20 24 21 25 22 26
REMARK SMILES IDX 23 28 24 29 25 30 71 31 26 32 70 33 27 34 28 35 29 36 64 37
REMARK SMILES IDX 30 38 69 39 63 40 65 41 31 42 68 43 62 44 61 45 32 47 54 48
REMARK SMILES IDX 39 49 53 50 40 51 43 52 52 53 66 54 41 55 42 56 51 58 67 59
REMARK SMILES IDX 44 60 33 61 34 62 38 63 35 64 37 65 36 66 55 67 56 68 60 69
REMARK SMILES IDX 57 70 59 71 58 72 45 73 46 74 50 75 47 76 49 77 48 78
REMARK H PARENT 16 5 3 9 10 20 10 21 21 27 65 46 43 57
REMARK Flexibility Score: inf
ROOT
ATOM      1  C   UNL A   1      32.219  28.098  25.043  1.00  0.00     0.116 C 
ENDROOT
BRANCH   1   2
ATOM      2  N   UNL A   1      31.361  27.874  23.895  1.00  0.00    -0.354 N 
ATOM      3  C   UNL A   1      31.653  27.423  22.642  1.00  0.00     0.252 C 
ATOM      4  O   UNL A   1      30.706  27.324  21.857  1.00  0.00    -0.272 OA
ATOM      5  H   UNL A   1      30.412  28.083  24.046  1.00  0.00     0.163 HD
BRANCH   3   6
ATOM      6  C   UNL A   1      33.096  27.007  22.246  1.00  0.00     0.149 C 
ATOM      7  C   UNL A   1      34.041  28.203  22.417  1.00  0.00     0.054 C 
BRANCH   6   8
ATOM      8  O   UNL A   1      33.136  26.691  20.837  1.00  0.00    -0.379 OA
ATOM      9  H   UNL A   1      33.977  26.995  20.462  1.00  0.00     0.212 HD
ENDBRANCH   6   8
BRANCH   6  10
ATOM     10  C   UNL A   1      33.591  25.755  23.004  1.00  0.00     0.120 C 
BRANCH  10  11
ATOM     11  S   UNL A   1      32.522  24.262  23.047  1.00  0.00    -0.122 SA
BRANCH  11  12
ATOM     12  C   UNL A   1      33.587  23.029  23.770  1.00  0.00     0.010 A 
ATOM     13  C   UNL A   1      33.108  21.839  24.328  1.00  0.00     0.017 A 
ATOM     14  C   UNL A   1      34.963  23.265  23.759  1.00  0.00     0.056 A 
ATOM     15  C   UNL A   1      33.995  20.860  24.791  1.00  0.00     0.030 A 
ATOM     16  C   UNL A   1      35.835  22.291  24.238  1.00  0.00     0.147 A 
ATOM     17  C   UNL A   1      35.371  21.074  24.754  1.00  0.00     0.068 A 
ATOM     18  F   UNL A   1      37.156  22.527  24.190  1.00  0.00    -0.205 F 
BRANCH  17  19
ATOM     19  N   UNL A   1      36.251  20.069  25.127  1.00  0.00    -0.396 N 
ATOM     20  H   UNL A   1      36.315  19.796  26.071  1.00  0.00     0.156 HD
ATOM     21  H   UNL A   1      36.812  19.628  24.448  1.00  0.00     0.156 HD
ENDBRANCH  17  19
ENDBRANCH  11  12
ENDBRANCH  10  11
ENDBRANCH   6  10
ENDBRANCH   3   6
ENDBRANCH   1   2
BRANCH   1  22
ATOM     22  C   UNL A   1      31.472  27.865  26.355  1.00  0.00     0.023 C 
BRANCH  22  23
ATOM     23  C   UNL A   1      32.260  28.233  27.614  1.00  0.00     0.023 C 
BRANCH  23  24
ATOM     24  C   UNL A   1      33.586  28.940  27.364  1.00  0.00     0.116 C 
BRANCH  24  25
ATOM     25  N   UNL A   1      33.607  30.311  27.848  1.00  0.00    -0.352 N 
ATOM     26  C   UNL A   1      34.639  30.975  28.470  1.00  0.00     0.251 C 
ATOM     27  H   UNL A   1      32.780  30.828  27.716  1.00  0.00     0.163 HD
ATOM     28  O   UNL A   1      34.482  32.103  28.924  1.00  0.00    -0.269 OA
BRANCH  26  29
ATOM     29  C   UNL A   1      35.940  30.290  28.613  1.00  0.00     0.039 A 
ATOM     30  C   UNL A   1      36.834  30.300  27.540  1.00  0.00     0.014 A 
ATOM     31  C   UNL A   1      36.290  29.696  29.828  1.00  0.00     0.014 A 
ATOM     32  C   UNL A   1      38.116  29.771  27.708  1.00  0.00     0.010 A 
ATOM     33  C   UNL A   1      37.585  29.227  30.012  1.00  0.00     0.010 A 
ATOM     34  C   UNL A   1      38.512  29.264  28.956  1.00  0.00    -0.014 A 
BRANCH  34  35
ATOM     35  C   UNL A   1      39.880  28.746  29.194  1.00  0.00     0.031 A 
ATOM     36  C   UNL A   1      40.926  29.659  29.770  1.00  0.00     0.074 A 
ATOM     37  C   UNL A   1      40.210  27.497  28.809  1.00  0.00     0.049 A 
ATOM     38  N   UNL A   1      42.214  29.467  29.894  1.00  0.00    -0.248 NA
ATOM     39  C   UNL A   1      40.463  30.973  30.243  1.00  0.00     0.031 C 
ATOM     40  C   UNL A   1      39.293  26.515  28.227  1.00  0.00     0.029 A 
ATOM     41  N   UNL A   1      41.419  26.849  28.835  1.00  0.00    -0.354 N 
ATOM     42  C   UNL A   1      42.718  30.645  30.431  1.00  0.00     0.074 A 
ATOM     43  C   UNL A   1      41.605  31.558  30.573  1.00  0.00     0.031 C 
ATOM     44  C   UNL A   1      39.970  25.384  27.964  1.00  0.00     0.029 A 
ATOM     45  C   UNL A   1      41.374  25.578  28.314  1.00  0.00     0.049 A 
ATOM     46  H   UNL A   1      42.241  27.255  29.193  1.00  0.00     0.167 HD
ATOM     47  C   UNL A   1      43.990  30.937  30.788  1.00  0.00     0.031 A 
ATOM     48  C   UNL A   1      42.358  24.679  28.125  1.00  0.00     0.031 A 
ATOM     49  C   UNL A   1      45.094  30.025  30.666  1.00  0.00     0.049 A 
ATOM     50  C   UNL A   1      43.767  25.034  28.510  1.00  0.00     0.074 A 
ATOM     51  C   UNL A   1      46.417  30.218  31.023  1.00  0.00     0.029 A 
ATOM     52  N   UNL A   1      44.999  28.740  30.156  1.00  0.00    -0.354 N 
ATOM     53  N   UNL A   1      44.224  26.145  29.035  1.00  0.00    -0.248 NA
ATOM     54  C   UNL A   1      44.795  24.009  28.281  1.00  0.00     0.031 C 
ATOM     55  C   UNL A   1      47.129  29.058  30.702  1.00  0.00     0.029 A 
ATOM     56  C   UNL A   1      46.239  28.128  30.187  1.00  0.00     0.049 A 
ATOM     57  H   UNL A   1      44.172  28.324  29.821  1.00  0.00     0.167 HD
ATOM     58  C   UNL A   1      45.583  25.938  29.235  1.00  0.00     0.074 A 
ATOM     59  C   UNL A   1      45.876  24.595  28.778  1.00  0.00     0.031 C 
ATOM     60  C   UNL A   1      46.505  26.783  29.754  1.00  0.00     0.031 A 
BRANCH  47  61
ATOM     61  C   UNL A   1      44.252  32.307  31.344  1.00  0.00    -0.014 A 
ATOM     62  C   UNL A   1      44.574  33.380  30.499  1.00  0.00     0.009 A 
ATOM     63  C   UNL A   1      44.149  32.534  32.725  1.00  0.00     0.009 A 
ATOM     64  C   UNL A   1      44.823  34.647  31.030  1.00  0.00     0.001 A 
ATOM     65  C   UNL A   1      44.371  33.808  33.250  1.00  0.00     0.001 A 
ATOM     66  C   UNL A   1      44.717  34.861  32.404  1.00  0.00     0.000 A 
ENDBRANCH  47  61
BRANCH  48  67
ATOM     67  C   UNL A   1      42.053  23.342  27.549  1.00  0.00    -0.014 A 
ATOM     68  C   UNL A   1      41.541  22.321  28.365  1.00  0.00     0.009 A 
ATOM     69  C   UNL A   1      42.295  23.071  26.194  1.00  0.00     0.009 A 
ATOM     70  C   UNL A   1      41.308  21.047  27.843  1.00  0.00     0.001 A 
ATOM     71  C   UNL A   1      42.036  21.803  25.669  1.00  0.00     0.001 A 
ATOM     72  C   UNL A   1      41.552  20.790  26.495  1.00  0.00     0.000 A 
ENDBRANCH  48  67
BRANCH  60  73
ATOM     73  C   UNL A   1      47.903  26.261  29.922  1.00  0.00    -0.014 A 
ATOM     74  C   UNL A   1      48.827  26.290  28.868  1.00  0.00     0.009 A 
ATOM     75  C   UNL A   1      48.313  25.787  31.178  1.00  0.00     0.009 A 
ATOM     76  C   UNL A   1      50.130  25.832  29.064  1.00  0.00     0.001 A 
ATOM     77  C   UNL A   1      49.623  25.352  31.377  1.00  0.00     0.001 A 
ATOM     78  C   UNL A   1      50.529  25.370  30.319  1.00  0.00     0.000 A 
ENDBRANCH  60  73
ENDBRANCH  34  35
ENDBRANCH  26  29
ENDBRANCH  24  25
ENDBRANCH  23  24
ENDBRANCH  22  23
ENDBRANCH   1  22
TORSDOF 16
ENDMDL
