MODEL 1
REMARK VINA RESULT:     -11.1      0.000      0.000
REMARK SMILES O=C(NCCCCNC(=O)[C@H]1CC[N@@H+]1CCc1ccccc1)c1ccc(-c2c3nc(c(-c4ccccc4)c4ccc([nH]4)c(-c4ccccc4)c4nc(c(-c5ccccc5)c5ccc2[nH]5)C=C4)C=C3)cc1
REMARK SMILES IDX 6 1 5 2 4 3 3 4 1 5 2 6 23 8 24 9 70 10 25 11 69 12 26 13
REMARK SMILES IDX 27 14 28 15 63 16 29 17 68 18 62 19 64 20 30 21 67 22 61 23
REMARK SMILES IDX 60 24 31 26 53 27 38 28 52 29 39 30 42 31 51 32 65 33 40 34
REMARK SMILES IDX 41 35 50 37 66 38 43 39 32 40 33 41 37 42 34 43 36 44 35 45
REMARK SMILES IDX 54 46 55 47 59 48 56 49 58 50 57 51 44 52 45 53 49 54 46 55
REMARK SMILES IDX 48 56 47 57 7 58 8 59 9 60 10 62 11 63 12 64 14 65 13 66
REMARK SMILES IDX 15 68 16 69 17 70 18 71 22 72 19 73 21 74 20 75
REMARK H PARENT 3 7 64 25 42 36 8 61 14 67
REMARK Flexibility Score: inf
ROOT
ATOM      1  C   UNL A   1      32.098  30.581  26.607  1.00  0.00     0.023 C 
ENDROOT
BRANCH   1   2
ATOM      2  C   UNL A   1      31.691  32.023  26.877  1.00  0.00     0.023 C 
BRANCH   2   3
ATOM      3  C   UNL A   1      32.832  32.950  27.253  1.00  0.00     0.116 C 
BRANCH   3   4
ATOM      4  N   UNL A   1      32.429  34.284  27.672  1.00  0.00    -0.352 N 
ATOM      5  O   UNL A   1      32.558  36.104  29.027  1.00  0.00    -0.269 OA
ATOM      6  C   UNL A   1      33.002  35.030  28.686  1.00  0.00     0.251 C 
ATOM      7  H   UNL A   1      31.676  34.696  27.188  1.00  0.00     0.163 HD
BRANCH   6   8
ATOM      8  C   UNL A   1      34.170  34.435  29.377  1.00  0.00     0.039 A 
ATOM      9  C   UNL A   1      35.446  34.581  28.826  1.00  0.00     0.014 A 
ATOM     10  C   UNL A   1      33.964  33.645  30.509  1.00  0.00     0.014 A 
ATOM     11  C   UNL A   1      36.496  33.829  29.329  1.00  0.00     0.010 A 
ATOM     12  C   UNL A   1      35.044  32.956  31.067  1.00  0.00     0.010 A 
ATOM     13  C   UNL A   1      36.312  33.029  30.467  1.00  0.00    -0.014 A 
BRANCH  13  14
ATOM     14  C   UNL A   1      37.491  32.382  31.086  1.00  0.00     0.031 A 
ATOM     15  C   UNL A   1      38.092  32.885  32.365  1.00  0.00     0.074 A 
ATOM     16  C   UNL A   1      38.012  31.309  30.458  1.00  0.00     0.049 A 
ATOM     17  N   UNL A   1      39.133  32.427  33.013  1.00  0.00    -0.248 NA
ATOM     18  C   UNL A   1      37.454  34.049  33.000  1.00  0.00     0.031 C 
ATOM     19  C   UNL A   1      37.508  30.742  29.203  1.00  0.00     0.029 A 
ATOM     20  N   UNL A   1      39.066  30.499  30.788  1.00  0.00    -0.354 N 
ATOM     21  C   UNL A   1      39.292  33.258  34.115  1.00  0.00     0.074 A 
ATOM     22  C   UNL A   1      38.244  34.253  34.048  1.00  0.00     0.031 C 
ATOM     23  C   UNL A   1      38.231  29.659  28.887  1.00  0.00     0.029 A 
ATOM     24  C   UNL A   1      39.287  29.498  29.877  1.00  0.00     0.049 A 
ATOM     25  H   UNL A   1      39.609  30.623  31.599  1.00  0.00     0.167 HD
ATOM     26  C   UNL A   1      40.234  33.192  35.086  1.00  0.00     0.031 A 
ATOM     27  C   UNL A   1      40.257  28.568  29.819  1.00  0.00     0.031 A 
ATOM     28  C   UNL A   1      41.266  32.189  35.149  1.00  0.00     0.049 A 
ATOM     29  C   UNL A   1      41.302  28.546  30.892  1.00  0.00     0.074 A 
ATOM     30  C   UNL A   1      42.227  32.002  36.129  1.00  0.00     0.029 A 
ATOM     31  N   UNL A   1      41.482  31.215  34.187  1.00  0.00    -0.354 N 
ATOM     32  N   UNL A   1      41.405  29.307  31.954  1.00  0.00    -0.248 NA
ATOM     33  C   UNL A   1      42.368  27.549  30.751  1.00  0.00     0.031 C 
ATOM     34  C   UNL A   1      43.057  30.949  35.732  1.00  0.00     0.029 A 
ATOM     35  C   UNL A   1      42.585  30.451  34.529  1.00  0.00     0.049 A 
ATOM     36  H   UNL A   1      40.933  31.085  33.380  1.00  0.00     0.167 HD
ATOM     37  C   UNL A   1      42.548  28.880  32.611  1.00  0.00     0.074 A 
ATOM     38  C   UNL A   1      43.084  27.774  31.844  1.00  0.00     0.031 C 
ATOM     39  C   UNL A   1      43.111  29.367  33.741  1.00  0.00     0.031 A 
BRANCH  26  40
ATOM     40  C   UNL A   1      40.222  34.244  36.159  1.00  0.00    -0.014 A 
ATOM     41  C   UNL A   1      40.929  35.446  36.011  1.00  0.00     0.009 A 
ATOM     42  C   UNL A   1      39.408  34.068  37.291  1.00  0.00     0.009 A 
ATOM     43  C   UNL A   1      40.830  36.446  36.983  1.00  0.00     0.001 A 
ATOM     44  C   UNL A   1      39.298  35.076  38.250  1.00  0.00     0.001 A 
ATOM     45  C   UNL A   1      40.011  36.263  38.097  1.00  0.00     0.000 A 
ENDBRANCH  26  40
BRANCH  27  46
ATOM     46  C   UNL A   1      40.307  27.625  28.674  1.00  0.00    -0.014 A 
ATOM     47  C   UNL A   1      41.018  27.947  27.510  1.00  0.00     0.009 A 
ATOM     48  C   UNL A   1      39.649  26.387  28.751  1.00  0.00     0.009 A 
ATOM     49  C   UNL A   1      41.050  27.055  26.436  1.00  0.00     0.001 A 
ATOM     50  C   UNL A   1      39.709  25.484  27.689  1.00  0.00     0.001 A 
ATOM     51  C   UNL A   1      40.402  25.823  26.529  1.00  0.00     0.000 A 
ENDBRANCH  27  46
BRANCH  39  52
ATOM     52  C   UNL A   1      44.371  28.701  34.206  1.00  0.00    -0.014 A 
ATOM     53  C   UNL A   1      45.627  29.176  33.796  1.00  0.00     0.009 A 
ATOM     54  C   UNL A   1      44.304  27.599  35.070  1.00  0.00     0.009 A 
ATOM     55  C   UNL A   1      46.793  28.538  34.220  1.00  0.00     0.001 A 
ATOM     56  C   UNL A   1      45.473  26.979  35.513  1.00  0.00     0.001 A 
ATOM     57  C   UNL A   1      46.715  27.443  35.080  1.00  0.00     0.000 A 
ENDBRANCH  39  52
ENDBRANCH  13  14
ENDBRANCH   6   8
ENDBRANCH   3   4
ENDBRANCH   2   3
ENDBRANCH   1   2
BRANCH   1  58
ATOM     58  C   UNL A   1      31.498  29.937  25.350  1.00  0.00     0.116 C 
BRANCH  58  59
ATOM     59  N   UNL A   1      32.476  29.509  24.357  1.00  0.00    -0.351 N 
ATOM     60  C   UNL A   1      32.394  28.860  23.130  1.00  0.00     0.278 C 
ATOM     61  H   UNL A   1      33.402  29.728  24.612  1.00  0.00     0.163 HD
ATOM     62  O   UNL A   1      33.466  28.838  22.502  1.00  0.00    -0.268 OA
BRANCH  60  63
ATOM     63  C   UNL A   1      31.086  28.123  22.611  1.00  0.00     0.279 C 
ATOM     64  C   UNL A   1      31.178  26.653  22.235  1.00  0.00     0.137 C 
ATOM     65  N   UNL A   1      30.086  27.699  23.683  1.00  0.00    -0.324 N 
ATOM     66  C   UNL A   1      30.756  26.395  23.716  1.00  0.00     0.269 C 
ATOM     67  H   UNL A   1      29.949  28.308  24.490  1.00  0.00     0.348 HD
BRANCH  65  68
ATOM     68  C   UNL A   1      28.672  27.512  23.242  1.00  0.00     0.267 C 
BRANCH  68  69
ATOM     69  C   UNL A   1      27.540  28.611  23.126  1.00  0.00     0.097 C 
BRANCH  69  70
ATOM     70  C   UNL A   1      27.811  30.040  22.639  1.00  0.00    -0.042 A 
ATOM     71  C   UNL A   1      27.967  31.082  23.565  1.00  0.00     0.004 A 
ATOM     72  C   UNL A   1      28.027  30.379  21.289  1.00  0.00     0.004 A 
ATOM     73  C   UNL A   1      28.280  32.387  23.151  1.00  0.00     0.000 A 
ATOM     74  C   UNL A   1      28.275  31.687  20.863  1.00  0.00     0.000 A 
ATOM     75  C   UNL A   1      28.410  32.695  21.799  1.00  0.00     0.000 A 
ENDBRANCH  69  70
ENDBRANCH  68  69
ENDBRANCH  65  68
ENDBRANCH  60  63
ENDBRANCH  58  59
ENDBRANCH   1  58
TORSDOF 14
ENDMDL
MODEL 2
REMARK VINA RESULT:     -11.1      6.390     10.599
REMARK SMILES O=C(NCCCCNC(=O)[C@H]1CC[N@@H+]1CCc1ccccc1)c1ccc(-c2c3nc(c(-c4ccccc4)c4ccc([nH]4)c(-c4ccccc4)c4nc(c(-c5ccccc5)c5ccc2[nH]5)C=C4)C=C3)cc1
REMARK SMILES IDX 6 1 5 2 4 3 3 4 1 5 2 6 23 8 24 9 70 10 25 11 69 12 26 13
REMARK SMILES IDX 27 14 28 15 63 16 29 17 68 18 62 19 64 20 30 21 67 22 61 23
REMARK SMILES IDX 60 24 31 26 53 27 38 28 52 29 39 30 42 31 51 32 65 33 40 34
REMARK SMILES IDX 41 35 50 37 66 38 43 39 32 40 33 41 37 42 34 43 36 44 35 45
REMARK SMILES IDX 54 46 55 47 59 48 56 49 58 50 57 51 44 52 45 53 49 54 46 55
REMARK SMILES IDX 48 56 47 57 7 58 8 59 9 60 10 62 11 63 12 64 14 65 13 66
REMARK SMILES IDX 15 68 16 69 17 70 18 71 22 72 19 73 21 74 20 75
REMARK H PARENT 3 7 64 25 42 36 8 61 14 67
REMARK Flexibility Score: inf
ROOT
ATOM      1  C   UNL A   1      37.420  21.113  24.626  1.00  0.00     0.023 C 
ENDROOT
BRANCH   1   2
ATOM      2  C   UNL A   1      38.118  19.814  25.001  1.00  0.00     0.023 C 
BRANCH   2   3
ATOM      3  C   UNL A   1      39.312  19.972  25.926  1.00  0.00     0.116 C 
BRANCH   3   4
ATOM      4  N   UNL A   1      40.309  18.917  25.830  1.00  0.00    -0.352 N 
ATOM      5  O   UNL A   1      42.449  18.152  25.816  1.00  0.00    -0.269 OA
ATOM      6  C   UNL A   1      41.675  19.067  25.989  1.00  0.00     0.251 C 
ATOM      7  H   UNL A   1      39.982  18.009  25.633  1.00  0.00     0.163 HD
BRANCH   6   8
ATOM      8  C   UNL A   1      42.163  20.421  26.341  1.00  0.00     0.039 A 
ATOM      9  C   UNL A   1      42.217  20.808  27.682  1.00  0.00     0.014 A 
ATOM     10  C   UNL A   1      42.459  21.327  25.321  1.00  0.00     0.014 A 
ATOM     11  C   UNL A   1      42.437  22.139  28.001  1.00  0.00     0.010 A 
ATOM     12  C   UNL A   1      42.766  22.649  25.650  1.00  0.00     0.010 A 
ATOM     13  C   UNL A   1      42.737  23.067  26.991  1.00  0.00    -0.014 A 
BRANCH  13  14
ATOM     14  C   UNL A   1      43.144  24.438  27.376  1.00  0.00     0.031 A 
ATOM     15  C   UNL A   1      42.144  25.468  27.813  1.00  0.00     0.074 A 
ATOM     16  C   UNL A   1      44.457  24.734  27.327  1.00  0.00     0.049 A 
ATOM     17  N   UNL A   1      42.354  26.711  28.164  1.00  0.00    -0.248 NA
ATOM     18  C   UNL A   1      40.730  25.061  27.860  1.00  0.00     0.031 C 
ATOM     19  C   UNL A   1      45.513  23.806  26.907  1.00  0.00     0.029 A 
ATOM     20  N   UNL A   1      45.131  25.884  27.638  1.00  0.00    -0.354 N 
ATOM     21  C   UNL A   1      41.103  27.244  28.449  1.00  0.00     0.074 A 
ATOM     22  C   UNL A   1      40.136  26.191  28.225  1.00  0.00     0.031 C 
ATOM     23  C   UNL A   1      46.702  24.413  27.020  1.00  0.00     0.029 A 
ATOM     24  C   UNL A   1      46.487  25.788  27.450  1.00  0.00     0.049 A 
ATOM     25  H   UNL A   1      44.686  26.699  27.965  1.00  0.00     0.167 HD
ATOM     26  C   UNL A   1      40.799  28.499  28.855  1.00  0.00     0.031 A 
ATOM     27  C   UNL A   1      47.454  26.713  27.574  1.00  0.00     0.031 A 
ATOM     28  C   UNL A   1      41.772  29.536  29.085  1.00  0.00     0.049 A 
ATOM     29  C   UNL A   1      47.076  28.101  27.991  1.00  0.00     0.074 A 
ATOM     30  C   UNL A   1      41.565  30.822  29.559  1.00  0.00     0.029 A 
ATOM     31  N   UNL A   1      43.132  29.412  28.847  1.00  0.00    -0.354 N 
ATOM     32  N   UNL A   1      45.895  28.571  28.306  1.00  0.00    -0.248 NA
ATOM     33  C   UNL A   1      48.162  29.086  28.057  1.00  0.00     0.031 C 
ATOM     34  C   UNL A   1      42.793  31.491  29.554  1.00  0.00     0.029 A 
ATOM     35  C   UNL A   1      43.770  30.609  29.122  1.00  0.00     0.049 A 
ATOM     36  H   UNL A   1      43.577  28.594  28.528  1.00  0.00     0.167 HD
ATOM     37  C   UNL A   1      46.093  29.909  28.609  1.00  0.00     0.074 A 
ATOM     38  C   UNL A   1      47.512  30.165  28.470  1.00  0.00     0.031 C 
ATOM     39  C   UNL A   1      45.180  30.846  28.959  1.00  0.00     0.031 A 
BRANCH  26  40
ATOM     40  C   UNL A   1      39.351  28.849  29.055  1.00  0.00    -0.014 A 
ATOM     41  C   UNL A   1      38.728  28.697  30.302  1.00  0.00     0.009 A 
ATOM     42  C   UNL A   1      38.629  29.433  28.001  1.00  0.00     0.009 A 
ATOM     43  C   UNL A   1      37.406  29.112  30.485  1.00  0.00     0.001 A 
ATOM     44  C   UNL A   1      37.315  29.863  28.192  1.00  0.00     0.001 A 
ATOM     45  C   UNL A   1      36.704  29.700  29.434  1.00  0.00     0.000 A 
ENDBRANCH  26  40
BRANCH  27  46
ATOM     46  C   UNL A   1      48.857  26.362  27.244  1.00  0.00    -0.014 A 
ATOM     47  C   UNL A   1      49.733  25.897  28.234  1.00  0.00     0.009 A 
ATOM     48  C   UNL A   1      49.322  26.480  25.924  1.00  0.00     0.009 A 
ATOM     49  C   UNL A   1      51.054  25.578  27.912  1.00  0.00     0.001 A 
ATOM     50  C   UNL A   1      50.633  26.131  25.599  1.00  0.00     0.001 A 
ATOM     51  C   UNL A   1      51.501  25.689  26.596  1.00  0.00     0.000 A 
ENDBRANCH  27  46
BRANCH  39  52
ATOM     52  C   UNL A   1      45.700  32.230  29.212  1.00  0.00    -0.014 A 
ATOM     53  C   UNL A   1      45.745  33.179  28.179  1.00  0.00     0.009 A 
ATOM     54  C   UNL A   1      46.135  32.591  30.495  1.00  0.00     0.009 A 
ATOM     55  C   UNL A   1      46.247  34.458  28.421  1.00  0.00     0.001 A 
ATOM     56  C   UNL A   1      46.612  33.879  30.740  1.00  0.00     0.001 A 
ATOM     57  C   UNL A   1      46.676  34.808  29.701  1.00  0.00     0.000 A 
ENDBRANCH  39  52
ENDBRANCH  13  14
ENDBRANCH   6   8
ENDBRANCH   3   4
ENDBRANCH   2   3
ENDBRANCH   1   2
BRANCH   1  58
ATOM     58  C   UNL A   1      37.776  22.338  25.480  1.00  0.00     0.116 C 
BRANCH  58  59
ATOM     59  N   UNL A   1      36.854  23.461  25.351  1.00  0.00    -0.351 N 
ATOM     60  C   UNL A   1      35.500  23.641  25.611  1.00  0.00     0.278 C 
ATOM     61  H   UNL A   1      37.287  24.274  25.000  1.00  0.00     0.163 HD
ATOM     62  O   UNL A   1      35.127  24.823  25.531  1.00  0.00    -0.268 OA
BRANCH  60  63
ATOM     63  C   UNL A   1      34.492  22.445  25.886  1.00  0.00     0.279 C 
ATOM     64  C   UNL A   1      34.038  22.187  27.313  1.00  0.00     0.137 C 
ATOM     65  N   UNL A   1      33.026  22.716  25.559  1.00  0.00    -0.324 N 
ATOM     66  C   UNL A   1      32.847  23.130  26.954  1.00  0.00     0.269 C 
ATOM     67  H   UNL A   1      32.806  23.290  24.744  1.00  0.00     0.348 HD
BRANCH  65  68
ATOM     68  C   UNL A   1      32.170  21.523  25.288  1.00  0.00     0.267 C 
BRANCH  68  69
ATOM     69  C   UNL A   1      32.150  20.618  23.991  1.00  0.00     0.097 C 
BRANCH  69  70
ATOM     70  C   UNL A   1      32.923  19.296  23.884  1.00  0.00    -0.042 A 
ATOM     71  C   UNL A   1      32.550  18.339  22.929  1.00  0.00     0.004 A 
ATOM     72  C   UNL A   1      34.084  19.006  24.626  1.00  0.00     0.004 A 
ATOM     73  C   UNL A   1      33.279  17.149  22.764  1.00  0.00     0.000 A 
ATOM     74  C   UNL A   1      34.776  17.797  24.514  1.00  0.00     0.000 A 
ATOM     75  C   UNL A   1      34.377  16.867  23.573  1.00  0.00     0.000 A 
ENDBRANCH  69  70
ENDBRANCH  68  69
ENDBRANCH  65  68
ENDBRANCH  60  63
ENDBRANCH  58  59
ENDBRANCH   1  58
TORSDOF 14
ENDMDL
MODEL 3
REMARK VINA RESULT:     -11.1      0.367      6.201
REMARK SMILES O=C(NCCCCNC(=O)[C@H]1CC[N@@H+]1CCc1ccccc1)c1ccc(-c2c3nc(c(-c4ccccc4)c4ccc([nH]4)c(-c4ccccc4)c4nc(c(-c5ccccc5)c5ccc2[nH]5)C=C4)C=C3)cc1
REMARK SMILES IDX 6 1 5 2 4 3 3 4 1 5 2 6 23 8 24 9 70 10 25 11 69 12 26 13
REMARK SMILES IDX 27 14 28 15 63 16 29 17 68 18 62 19 64 20 30 21 67 22 61 23
REMARK SMILES IDX 60 24 31 26 53 27 38 28 52 29 39 30 42 31 51 32 65 33 40 34
REMARK SMILES IDX 41 35 50 37 66 38 43 39 32 40 33 41 37 42 34 43 36 44 35 45
REMARK SMILES IDX 54 46 55 47 59 48 56 49 58 50 57 51 44 52 45 53 49 54 46 55
REMARK SMILES IDX 48 56 47 57 7 58 8 59 9 60 10 62 11 63 12 64 14 65 13 66
REMARK SMILES IDX 15 68 16 69 17 70 18 71 22 72 19 73 21 74 20 75
REMARK H PARENT 3 7 64 25 42 36 8 61 14 67
REMARK Flexibility Score: inf
ROOT
ATOM      1  C   UNL A   1      31.874  30.766  26.607  1.00  0.00     0.023 C 
ENDROOT
BRANCH   1   2
ATOM      2  C   UNL A   1      31.529  32.230  26.839  1.00  0.00     0.023 C 
BRANCH   2   3
ATOM      3  C   UNL A   1      32.714  33.126  27.149  1.00  0.00     0.116 C 
BRANCH   3   4
ATOM      4  N   UNL A   1      32.379  34.394  27.780  1.00  0.00    -0.352 N 
ATOM      5  O   UNL A   1      32.662  36.006  29.356  1.00  0.00    -0.269 OA
ATOM      6  C   UNL A   1      33.051  34.984  28.835  1.00  0.00     0.251 C 
ATOM      7  H   UNL A   1      31.601  34.879  27.421  1.00  0.00     0.163 HD
BRANCH   6   8
ATOM      8  C   UNL A   1      34.255  34.283  29.338  1.00  0.00     0.039 A 
ATOM      9  C   UNL A   1      34.148  33.427  30.436  1.00  0.00     0.014 A 
ATOM     10  C   UNL A   1      35.499  34.574  28.775  1.00  0.00     0.014 A 
ATOM     11  C   UNL A   1      35.298  32.965  31.058  1.00  0.00     0.010 A 
ATOM     12  C   UNL A   1      36.652  34.035  29.351  1.00  0.00     0.010 A 
ATOM     13  C   UNL A   1      36.559  33.244  30.507  1.00  0.00    -0.014 A 
BRANCH  13  14
ATOM     14  C   UNL A   1      37.754  32.589  31.088  1.00  0.00     0.031 A 
ATOM     15  C   UNL A   1      38.383  31.383  30.454  1.00  0.00     0.074 A 
ATOM     16  C   UNL A   1      38.268  33.120  32.214  1.00  0.00     0.049 A 
ATOM     17  N   UNL A   1      39.421  30.697  30.860  1.00  0.00    -0.248 NA
ATOM     18  C   UNL A   1      37.774  30.875  29.214  1.00  0.00     0.031 C 
ATOM     19  C   UNL A   1      37.728  34.289  32.917  1.00  0.00     0.029 A 
ATOM     20  N   UNL A   1      39.359  32.760  32.960  1.00  0.00    -0.354 N 
ATOM     21  C   UNL A   1      39.576  29.664  29.944  1.00  0.00     0.074 A 
ATOM     22  C   UNL A   1      38.523  29.808  28.962  1.00  0.00     0.031 C 
ATOM     23  C   UNL A   1      38.507  34.569  33.970  1.00  0.00     0.029 A 
ATOM     24  C   UNL A   1      39.556  33.562  34.056  1.00  0.00     0.049 A 
ATOM     25  H   UNL A   1      39.943  32.002  32.731  1.00  0.00     0.167 HD
ATOM     26  C   UNL A   1      40.513  28.686  29.934  1.00  0.00     0.031 A 
ATOM     27  C   UNL A   1      40.461  33.480  35.047  1.00  0.00     0.031 A 
ATOM     28  C   UNL A   1      41.564  28.559  30.911  1.00  0.00     0.049 A 
ATOM     29  C   UNL A   1      41.459  32.364  35.022  1.00  0.00     0.074 A 
ATOM     30  C   UNL A   1      42.599  27.638  30.948  1.00  0.00     0.029 A 
ATOM     31  N   UNL A   1      41.708  29.367  32.028  1.00  0.00    -0.354 N 
ATOM     32  N   UNL A   1      41.623  31.428  34.120  1.00  0.00    -0.248 NA
ATOM     33  C   UNL A   1      42.388  32.287  36.156  1.00  0.00     0.031 C 
ATOM     34  C   UNL A   1      43.335  27.856  32.117  1.00  0.00     0.029 A 
ATOM     35  C   UNL A   1      42.787  28.940  32.783  1.00  0.00     0.049 A 
ATOM     36  H   UNL A   1      41.129  30.131  32.251  1.00  0.00     0.167 HD
ATOM     37  C   UNL A   1      42.675  30.648  34.576  1.00  0.00     0.074 A 
ATOM     38  C   UNL A   1      43.129  31.241  35.818  1.00  0.00     0.031 C 
ATOM     39  C   UNL A   1      43.209  29.534  34.023  1.00  0.00     0.031 A 
BRANCH  26  40
ATOM     40  C   UNL A   1      40.442  27.646  28.851  1.00  0.00    -0.014 A 
ATOM     41  C   UNL A   1      39.657  26.493  28.995  1.00  0.00     0.009 A 
ATOM     42  C   UNL A   1      41.095  27.877  27.629  1.00  0.00     0.009 A 
ATOM     43  C   UNL A   1      39.537  25.586  27.938  1.00  0.00     0.001 A 
ATOM     44  C   UNL A   1      40.959  26.978  26.570  1.00  0.00     0.001 A 
ATOM     45  C   UNL A   1      40.182  25.832  26.726  1.00  0.00     0.000 A 
ENDBRANCH  26  40
BRANCH  27  46
ATOM     46  C   UNL A   1      40.418  34.452  36.167  1.00  0.00    -0.014 A 
ATOM     47  C   UNL A   1      41.165  35.637  36.118  1.00  0.00     0.009 A 
ATOM     48  C   UNL A   1      39.612  34.199  37.289  1.00  0.00     0.009 A 
ATOM     49  C   UNL A   1      41.122  36.540  37.182  1.00  0.00     0.001 A 
ATOM     50  C   UNL A   1      39.548  35.118  38.337  1.00  0.00     0.001 A 
ATOM     51  C   UNL A   1      40.311  36.283  38.287  1.00  0.00     0.000 A 
ENDBRANCH  27  46
BRANCH  39  52
ATOM     52  C   UNL A   1      44.342  28.892  34.767  1.00  0.00    -0.014 A 
ATOM     53  C   UNL A   1      44.100  27.887  35.716  1.00  0.00     0.009 A 
ATOM     54  C   UNL A   1      45.663  29.285  34.507  1.00  0.00     0.009 A 
ATOM     55  C   UNL A   1      45.159  27.309  36.415  1.00  0.00     0.001 A 
ATOM     56  C   UNL A   1      46.723  28.686  35.189  1.00  0.00     0.001 A 
ATOM     57  C   UNL A   1      46.469  27.706  36.148  1.00  0.00     0.000 A 
ENDBRANCH  39  52
ENDBRANCH  13  14
ENDBRANCH   6   8
ENDBRANCH   3   4
ENDBRANCH   2   3
ENDBRANCH   1   2
BRANCH   1  58
ATOM     58  C   UNL A   1      31.323  30.141  25.317  1.00  0.00     0.116 C 
BRANCH  58  59
ATOM     59  N   UNL A   1      32.337  29.608  24.415  1.00  0.00    -0.351 N 
ATOM     60  C   UNL A   1      32.297  28.877  23.233  1.00  0.00     0.278 C 
ATOM     61  H   UNL A   1      33.256  29.810  24.709  1.00  0.00     0.163 HD
ATOM     62  O   UNL A   1      33.401  28.771  22.672  1.00  0.00    -0.268 OA
BRANCH  60  63
ATOM     63  C   UNL A   1      30.991  28.154  22.690  1.00  0.00     0.279 C 
ATOM     64  C   UNL A   1      31.109  26.731  22.171  1.00  0.00     0.137 C 
ATOM     65  N   UNL A   1      30.043  27.600  23.750  1.00  0.00    -0.324 N 
ATOM     66  C   UNL A   1      30.748  26.320  23.633  1.00  0.00     0.269 C 
ATOM     67  H   UNL A   1      29.920  28.124  24.616  1.00  0.00     0.348 HD
BRANCH  65  68
ATOM     68  C   UNL A   1      28.619  27.414  23.341  1.00  0.00     0.267 C 
BRANCH  68  69
ATOM     69  C   UNL A   1      27.519  28.530  23.126  1.00  0.00     0.097 C 
BRANCH  69  70
ATOM     70  C   UNL A   1      27.857  29.963  22.694  1.00  0.00    -0.042 A 
ATOM     71  C   UNL A   1      27.986  30.276  21.332  1.00  0.00     0.004 A 
ATOM     72  C   UNL A   1      27.947  31.049  23.586  1.00  0.00     0.004 A 
ATOM     73  C   UNL A   1      28.229  31.592  20.905  1.00  0.00     0.000 A 
ATOM     74  C   UNL A   1      28.254  32.349  23.174  1.00  0.00     0.000 A 
ATOM     75  C   UNL A   1      28.388  32.624  21.826  1.00  0.00     0.000 A 
ENDBRANCH  69  70
ENDBRANCH  68  69
ENDBRANCH  65  68
ENDBRANCH  60  63
ENDBRANCH  58  59
ENDBRANCH   1  58
TORSDOF 14
ENDMDL
