MODEL 1
REMARK VINA RESULT:     -11.5      0.000      0.000
REMARK SMILES [NH3+]Cc1ccc(C(=O)N2[C@@H](C(=O)NCCCCNC(=O)c3ccc(-c4c5nc(c(-c6ccccc6)c6ccc([nH]6)c(-c6ccccc6)c6nc(c(-c7ccccc7)c7ccc4[nH]7)C=C6)C=C5)cc3)C[C@H]3CCCC[C@@H]32)o1
REMARK SMILES IDX 14 1 13 2 11 3 12 4 10 6 9 7 75 8 69 9 70 10 74 11 71 12
REMARK SMILES IDX 73 13 72 14 7 15 8 16 6 17 3 18 4 19 76 20 5 21 2 22 1 23
REMARK SMILES IDX 15 27 16 28 17 29 18 30 19 31 20 33 21 34 22 35 68 36 23 37
REMARK SMILES IDX 67 38 24 39 25 40 26 41 61 42 27 43 66 44 60 45 62 46 28 47
REMARK SMILES IDX 65 48 59 49 58 50 29 52 51 53 36 54 50 55 37 56 40 57 49 58
REMARK SMILES IDX 63 59 38 60 39 61 48 63 64 64 41 65 30 66 31 67 35 68 32 69
REMARK SMILES IDX 34 70 33 71 52 72 53 73 57 74 54 75 56 76 55 77 42 78 43 79
REMARK SMILES IDX 47 80 44 81 46 82 45 83
REMARK H PARENT 13 5 1 24 1 25 1 26 18 32 62 51 40 62
REMARK Flexibility Score: inf
ROOT
ATOM      1  C   UNL A   1      37.046  21.845  24.882  1.00  0.00     0.116 C 
ENDROOT
BRANCH   1   2
ATOM      2  N   UNL A   1      36.334  22.446  23.770  1.00  0.00    -0.354 N 
ATOM      3  C   UNL A   1      35.357  23.403  23.773  1.00  0.00     0.242 C 
ATOM      4  O   UNL A   1      34.923  23.775  22.683  1.00  0.00    -0.273 OA
ATOM      5  H   UNL A   1      36.593  22.115  22.880  1.00  0.00     0.163 HD
BRANCH   3   6
ATOM      6  C   UNL A   1      34.896  24.017  25.116  1.00  0.00     0.175 C 
ATOM      7  N   UNL A   1      33.724  23.307  25.676  1.00  0.00    -0.321 N 
ATOM      8  C   UNL A   1      32.525  24.099  25.466  1.00  0.00     0.089 C 
ATOM      9  C   UNL A   1      34.384  25.450  24.841  1.00  0.00     0.041 C 
ATOM     10  C   UNL A   1      33.089  25.512  25.637  1.00  0.00     0.014 C 
ATOM     11  C   UNL A   1      31.333  23.930  26.408  1.00  0.00     0.025 C 
ATOM     12  C   UNL A   1      32.076  26.570  25.242  1.00  0.00     0.006 C 
ATOM     13  C   UNL A   1      30.270  24.997  26.110  1.00  0.00     0.002 C 
ATOM     14  C   UNL A   1      30.831  26.424  26.121  1.00  0.00     0.000 C 
BRANCH   7  15
ATOM     15  C   UNL A   1      33.689  21.988  26.118  1.00  0.00     0.290 C 
ATOM     16  O   UNL A   1      34.208  21.678  27.190  1.00  0.00    -0.265 OA
BRANCH  15  17
ATOM     17  C   UNL A   1      33.122  20.979  25.235  1.00  0.00     0.192 A 
ATOM     18  C   UNL A   1      32.579  18.899  24.711  1.00  0.00     0.159 A 
ATOM     19  C   UNL A   1      32.413  19.641  23.563  1.00  0.00     0.052 A 
ATOM     20  O   UNL A   1      33.001  19.703  25.727  1.00  0.00    -0.450 OA
ATOM     21  C   UNL A   1      32.782  20.967  23.892  1.00  0.00     0.057 A 
BRANCH  18  22
ATOM     22  C   UNL A   1      32.452  17.452  25.018  1.00  0.00     0.335 C 
BRANCH  22  23
ATOM     23  N   UNL A   1      33.359  17.072  26.099  1.00  0.00    -0.351 N 
ATOM     24  H   UNL A   1      34.254  17.547  25.975  1.00  0.00     0.344 HD
ATOM     25  H   UNL A   1      33.505  16.063  26.084  1.00  0.00     0.344 HD
ATOM     26  H   UNL A   1      32.953  17.342  26.995  1.00  0.00     0.344 HD
ENDBRANCH  22  23
ENDBRANCH  18  22
ENDBRANCH  15  17
ENDBRANCH   7  15
ENDBRANCH   3   6
ENDBRANCH   1   2
BRANCH   1  27
ATOM     27  C   UNL A   1      36.837  20.333  24.939  1.00  0.00     0.023 C 
BRANCH  27  28
ATOM     28  C   UNL A   1      38.119  19.488  24.939  1.00  0.00     0.023 C 
BRANCH  28  29
ATOM     29  C   UNL A   1      39.201  19.904  25.939  1.00  0.00     0.116 C 
BRANCH  29  30
ATOM     30  N   UNL A   1      40.444  19.174  25.762  1.00  0.00    -0.352 N 
ATOM     31  C   UNL A   1      41.739  19.583  25.959  1.00  0.00     0.251 C 
ATOM     32  H   UNL A   1      40.343  18.245  25.454  1.00  0.00     0.163 HD
ATOM     33  O   UNL A   1      42.661  18.835  25.641  1.00  0.00    -0.269 OA
BRANCH  31  34
ATOM     34  C   UNL A   1      42.048  20.918  26.519  1.00  0.00     0.039 A 
ATOM     35  C   UNL A   1      42.517  21.907  25.646  1.00  0.00     0.014 A 
ATOM     36  C   UNL A   1      41.946  21.188  27.887  1.00  0.00     0.014 A 
ATOM     37  C   UNL A   1      42.831  23.179  26.129  1.00  0.00     0.010 A 
ATOM     38  C   UNL A   1      42.244  22.465  28.369  1.00  0.00     0.010 A 
ATOM     39  C   UNL A   1      42.683  23.470  27.493  1.00  0.00    -0.014 A 
BRANCH  39  40
ATOM     40  C   UNL A   1      42.957  24.832  28.007  1.00  0.00     0.031 A 
ATOM     41  C   UNL A   1      44.343  25.237  28.411  1.00  0.00     0.074 A 
ATOM     42  C   UNL A   1      41.936  25.698  28.153  1.00  0.00     0.049 A 
ATOM     43  N   UNL A   1      44.742  26.351  28.973  1.00  0.00    -0.248 NA
ATOM     44  C   UNL A   1      45.416  24.263  28.162  1.00  0.00     0.031 C 
ATOM     45  C   UNL A   1      40.540  25.427  27.811  1.00  0.00     0.029 A 
ATOM     46  N   UNL A   1      41.922  26.980  28.639  1.00  0.00    -0.354 N 
ATOM     47  C   UNL A   1      46.107  26.203  29.173  1.00  0.00     0.074 A 
ATOM     48  C   UNL A   1      46.470  24.896  28.662  1.00  0.00     0.031 C 
ATOM     49  C   UNL A   1      39.802  26.512  28.099  1.00  0.00     0.029 A 
ATOM     50  C   UNL A   1      40.671  27.544  28.658  1.00  0.00     0.049 A 
ATOM     51  H   UNL A   1      42.731  27.450  28.945  1.00  0.00     0.167 HD
ATOM     52  C   UNL A   1      46.979  27.071  29.738  1.00  0.00     0.031 A 
ATOM     53  C   UNL A   1      40.266  28.751  29.089  1.00  0.00     0.031 A 
ATOM     54  C   UNL A   1      46.640  28.378  30.228  1.00  0.00     0.049 A 
ATOM     55  C   UNL A   1      41.260  29.713  29.666  1.00  0.00     0.074 A 
ATOM     56  C   UNL A   1      47.467  29.326  30.810  1.00  0.00     0.029 A 
ATOM     57  N   UNL A   1      45.370  28.929  30.184  1.00  0.00    -0.354 N 
ATOM     58  N   UNL A   1      42.545  29.551  29.858  1.00  0.00    -0.248 NA
ATOM     59  C   UNL A   1      40.743  31.024  30.088  1.00  0.00     0.031 C 
ATOM     60  C   UNL A   1      46.694  30.452  31.119  1.00  0.00     0.029 A 
ATOM     61  C   UNL A   1      45.390  30.203  30.725  1.00  0.00     0.049 A 
ATOM     62  H   UNL A   1      44.572  28.481  29.824  1.00  0.00     0.167 HD
ATOM     63  C   UNL A   1      42.991  30.734  30.428  1.00  0.00     0.074 A 
ATOM     64  C   UNL A   1      41.842  31.610  30.540  1.00  0.00     0.031 C 
ATOM     65  C   UNL A   1      44.242  31.063  30.828  1.00  0.00     0.031 A 
BRANCH  52  66
ATOM     66  C   UNL A   1      48.397  26.613  29.873  1.00  0.00    -0.014 A 
ATOM     67  C   UNL A   1      48.808  25.875  30.991  1.00  0.00     0.009 A 
ATOM     68  C   UNL A   1      49.325  26.904  28.861  1.00  0.00     0.009 A 
ATOM     69  C   UNL A   1      50.132  25.448  31.103  1.00  0.00     0.001 A 
ATOM     70  C   UNL A   1      50.646  26.473  28.974  1.00  0.00     0.001 A 
ATOM     71  C   UNL A   1      51.050  25.747  30.095  1.00  0.00     0.000 A 
ENDBRANCH  52  66
BRANCH  53  72
ATOM     72  C   UNL A   1      38.834  29.116  29.000  1.00  0.00    -0.014 A 
ATOM     73  C   UNL A   1      38.307  29.620  27.802  1.00  0.00     0.009 A 
ATOM     74  C   UNL A   1      37.993  28.949  30.108  1.00  0.00     0.009 A 
ATOM     75  C   UNL A   1      36.955  29.958  27.719  1.00  0.00     0.001 A 
ATOM     76  C   UNL A   1      36.641  29.285  30.020  1.00  0.00     0.001 A 
ATOM     77  C   UNL A   1      36.124  29.790  28.827  1.00  0.00     0.000 A 
ENDBRANCH  53  72
BRANCH  65  78
ATOM     78  C   UNL A   1      44.426  32.424  31.420  1.00  0.00    -0.014 A 
ATOM     79  C   UNL A   1      44.287  32.620  32.803  1.00  0.00     0.009 A 
ATOM     80  C   UNL A   1      44.752  33.513  30.600  1.00  0.00     0.009 A 
ATOM     81  C   UNL A   1      44.457  33.892  33.352  1.00  0.00     0.001 A 
ATOM     82  C   UNL A   1      44.923  34.783  31.153  1.00  0.00     0.001 A 
ATOM     83  C   UNL A   1      44.773  34.972  32.528  1.00  0.00     0.000 A 
ENDBRANCH  65  78
ENDBRANCH  39  40
ENDBRANCH  31  34
ENDBRANCH  29  30
ENDBRANCH  28  29
ENDBRANCH  27  28
ENDBRANCH   1  27
TORSDOF 15
ENDMDL
MODEL 2
REMARK VINA RESULT:     -11.4      4.841      9.647
REMARK SMILES [NH3+]Cc1ccc(C(=O)N2[C@@H](C(=O)NCCCCNC(=O)c3ccc(-c4c5nc(c(-c6ccccc6)c6ccc([nH]6)c(-c6ccccc6)c6nc(c(-c7ccccc7)c7ccc4[nH]7)C=C6)C=C5)cc3)C[C@H]3CCCC[C@@H]32)o1
REMARK SMILES IDX 14 1 13 2 11 3 12 4 10 6 9 7 75 8 69 9 70 10 74 11 71 12
REMARK SMILES IDX 73 13 72 14 7 15 8 16 6 17 3 18 4 19 76 20 5 21 2 22 1 23
REMARK SMILES IDX 15 27 16 28 17 29 18 30 19 31 20 33 21 34 22 35 68 36 23 37
REMARK SMILES IDX 67 38 24 39 25 40 26 41 61 42 27 43 66 44 60 45 62 46 28 47
REMARK SMILES IDX 65 48 59 49 58 50 29 52 51 53 36 54 50 55 37 56 40 57 49 58
REMARK SMILES IDX 63 59 38 60 39 61 48 63 64 64 41 65 30 66 31 67 35 68 32 69
REMARK SMILES IDX 34 70 33 71 52 72 53 73 57 74 54 75 56 76 55 77 42 78 43 79
REMARK SMILES IDX 47 80 44 81 46 82 45 83
REMARK H PARENT 13 5 1 24 1 25 1 26 18 32 62 51 40 62
REMARK Flexibility Score: inf
ROOT
ATOM      1  C   UNL A   1      32.216  29.802  26.749  1.00  0.00     0.116 C 
ENDROOT
BRANCH   1   2
ATOM      2  N   UNL A   1      31.455  28.585  26.953  1.00  0.00    -0.354 N 
ATOM      3  C   UNL A   1      31.725  27.306  26.550  1.00  0.00     0.242 C 
ATOM      4  O   UNL A   1      30.927  26.427  26.875  1.00  0.00    -0.273 OA
ATOM      5  H   UNL A   1      30.617  28.696  27.459  1.00  0.00     0.163 HD
BRANCH   3   6
ATOM      6  C   UNL A   1      33.031  27.012  25.776  1.00  0.00     0.175 C 
ATOM      7  N   UNL A   1      32.820  27.010  24.311  1.00  0.00    -0.321 N 
ATOM      8  C   UNL A   1      32.800  25.643  23.820  1.00  0.00     0.089 C 
ATOM      9  C   UNL A   1      33.472  25.566  26.104  1.00  0.00     0.041 C 
ATOM     10  C   UNL A   1      33.841  25.001  24.741  1.00  0.00     0.014 C 
ATOM     11  C   UNL A   1      33.186  25.355  22.369  1.00  0.00     0.025 C 
ATOM     12  C   UNL A   1      33.862  23.491  24.594  1.00  0.00     0.006 C 
ATOM     13  C   UNL A   1      33.277  23.840  22.139  1.00  0.00     0.002 C 
ATOM     14  C   UNL A   1      34.196  23.134  23.142  1.00  0.00     0.000 C 
BRANCH   7  15
ATOM     15  C   UNL A   1      32.447  28.098  23.528  1.00  0.00     0.290 C 
ATOM     16  O   UNL A   1      33.283  28.935  23.188  1.00  0.00    -0.265 OA
BRANCH  15  17
ATOM     17  C   UNL A   1      31.036  28.272  23.214  1.00  0.00     0.192 A 
ATOM     18  C   UNL A   1      29.329  29.400  22.372  1.00  0.00     0.159 A 
ATOM     19  C   UNL A   1      28.785  28.363  23.097  1.00  0.00     0.052 A 
ATOM     20  O   UNL A   1      30.689  29.347  22.433  1.00  0.00    -0.450 OA
ATOM     21  C   UNL A   1      29.877  27.655  23.654  1.00  0.00     0.057 A 
BRANCH  18  22
ATOM     22  C   UNL A   1      28.742  30.543  21.627  1.00  0.00     0.335 C 
BRANCH  22  23
ATOM     23  N   UNL A   1      29.403  31.793  21.996  1.00  0.00    -0.351 N 
ATOM     24  H   UNL A   1      29.852  31.685  22.906  1.00  0.00     0.344 HD
ATOM     25  H   UNL A   1      28.713  32.543  22.044  1.00  0.00     0.344 HD
ATOM     26  H   UNL A   1      30.107  32.025  21.295  1.00  0.00     0.344 HD
ENDBRANCH  22  23
ENDBRANCH  18  22
ENDBRANCH  15  17
ENDBRANCH   7  15
ENDBRANCH   3   6
ENDBRANCH   1   2
BRANCH   1  27
ATOM     27  C   UNL A   1      31.458  30.807  25.886  1.00  0.00     0.023 C 
BRANCH  27  28
ATOM     28  C   UNL A   1      31.278  32.203  26.500  1.00  0.00     0.023 C 
BRANCH  28  29
ATOM     29  C   UNL A   1      32.523  32.825  27.139  1.00  0.00     0.116 C 
BRANCH  29  30
ATOM     30  N   UNL A   1      32.293  34.173  27.627  1.00  0.00    -0.352 N 
ATOM     31  C   UNL A   1      32.960  34.884  28.592  1.00  0.00     0.251 C 
ATOM     32  H   UNL A   1      31.546  34.650  27.200  1.00  0.00     0.163 HD
ATOM     33  O   UNL A   1      32.531  35.984  28.935  1.00  0.00    -0.269 OA
BRANCH  31  34
ATOM     34  C   UNL A   1      34.170  34.341  29.250  1.00  0.00     0.039 A 
ATOM     35  C   UNL A   1      34.006  33.618  30.438  1.00  0.00     0.014 A 
ATOM     36  C   UNL A   1      35.455  34.586  28.755  1.00  0.00     0.014 A 
ATOM     37  C   UNL A   1      35.119  33.094  31.100  1.00  0.00     0.010 A 
ATOM     38  C   UNL A   1      36.566  34.048  29.408  1.00  0.00     0.010 A 
ATOM     39  C   UNL A   1      36.406  33.294  30.581  1.00  0.00    -0.014 A 
BRANCH  39  40
ATOM     40  C   UNL A   1      37.587  32.694  31.242  1.00  0.00     0.031 A 
ATOM     41  C   UNL A   1      38.297  31.522  30.632  1.00  0.00     0.074 A 
ATOM     42  C   UNL A   1      38.000  33.184  32.427  1.00  0.00     0.049 A 
ATOM     43  N   UNL A   1      39.283  30.813  31.122  1.00  0.00    -0.248 NA
ATOM     44  C   UNL A   1      37.834  31.084  29.307  1.00  0.00     0.031 C 
ATOM     45  C   UNL A   1      37.391  34.311  33.135  1.00  0.00     0.029 A 
ATOM     46  N   UNL A   1      39.023  32.783  33.245  1.00  0.00    -0.354 N 
ATOM     47  C   UNL A   1      39.540  29.826  30.182  1.00  0.00     0.074 A 
ATOM     48  C   UNL A   1      38.615  30.034  29.086  1.00  0.00     0.031 C 
ATOM     49  C   UNL A   1      38.055  34.512  34.285  1.00  0.00     0.029 A 
ATOM     50  C   UNL A   1      39.121  33.520  34.399  1.00  0.00     0.049 A 
ATOM     51  H   UNL A   1      39.630  32.040  33.027  1.00  0.00     0.167 HD
ATOM     52  C   UNL A   1      40.457  28.831  30.227  1.00  0.00     0.031 A 
ATOM     53  C   UNL A   1      39.965  33.402  35.439  1.00  0.00     0.031 A 
ATOM     54  C   UNL A   1      41.397  28.624  31.295  1.00  0.00     0.049 A 
ATOM     55  C   UNL A   1      41.002  32.322  35.443  1.00  0.00     0.074 A 
ATOM     56  C   UNL A   1      42.367  27.642  31.416  1.00  0.00     0.029 A 
ATOM     57  N   UNL A   1      41.493  29.422  32.422  1.00  0.00    -0.354 N 
ATOM     58  N   UNL A   1      41.223  31.390  34.551  1.00  0.00    -0.248 NA
ATOM     59  C   UNL A   1      41.906  32.278  36.604  1.00  0.00     0.031 C 
ATOM     60  C   UNL A   1      43.050  27.847  32.621  1.00  0.00     0.029 A 
ATOM     61  C   UNL A   1      42.506  28.958  33.243  1.00  0.00     0.049 A 
ATOM     62  H   UNL A   1      40.925  30.203  32.613  1.00  0.00     0.167 HD
ATOM     63  C   UNL A   1      42.285  30.644  35.041  1.00  0.00     0.074 A 
ATOM     64  C   UNL A   1      42.673  31.239  36.305  1.00  0.00     0.031 C 
ATOM     65  C   UNL A   1      42.882  29.560  34.494  1.00  0.00     0.031 A 
BRANCH  52  66
ATOM     66  C   UNL A   1      40.468  27.869  29.082  1.00  0.00    -0.014 A 
ATOM     67  C   UNL A   1      41.282  28.096  27.963  1.00  0.00     0.009 A 
ATOM     68  C   UNL A   1      39.674  26.713  29.132  1.00  0.00     0.009 A 
ATOM     69  C   UNL A   1      41.289  27.187  26.904  1.00  0.00     0.001 A 
ATOM     70  C   UNL A   1      39.685  25.806  28.073  1.00  0.00     0.001 A 
ATOM     71  C   UNL A   1      40.491  26.044  26.959  1.00  0.00     0.000 A 
ENDBRANCH  52  66
BRANCH  53  72
ATOM     72  C   UNL A   1      39.852  34.338  36.580  1.00  0.00    -0.014 A 
ATOM     73  C   UNL A   1      40.552  35.553  36.570  1.00  0.00     0.009 A 
ATOM     74  C   UNL A   1      39.035  34.023  37.675  1.00  0.00     0.009 A 
ATOM     75  C   UNL A   1      40.440  36.436  37.645  1.00  0.00     0.001 A 
ATOM     76  C   UNL A   1      38.923  34.910  38.746  1.00  0.00     0.001 A 
ATOM     77  C   UNL A   1      39.625  36.114  38.731  1.00  0.00     0.000 A 
ENDBRANCH  53  72
BRANCH  65  78
ATOM     78  C   UNL A   1      44.014  28.953  35.262  1.00  0.00    -0.014 A 
ATOM     79  C   UNL A   1      45.331  29.383  35.042  1.00  0.00     0.009 A 
ATOM     80  C   UNL A   1      43.765  27.958  36.218  1.00  0.00     0.009 A 
ATOM     81  C   UNL A   1      46.385  28.814  35.758  1.00  0.00     0.001 A 
ATOM     82  C   UNL A   1      44.821  27.392  36.934  1.00  0.00     0.001 A 
ATOM     83  C   UNL A   1      46.129  27.818  36.702  1.00  0.00     0.000 A 
ENDBRANCH  65  78
ENDBRANCH  39  40
ENDBRANCH  31  34
ENDBRANCH  29  30
ENDBRANCH  28  29
ENDBRANCH  27  28
ENDBRANCH   1  27
TORSDOF 15
ENDMDL
MODEL 3
REMARK VINA RESULT:     -11.4      1.615      6.029
REMARK SMILES [NH3+]Cc1ccc(C(=O)N2[C@@H](C(=O)NCCCCNC(=O)c3ccc(-c4c5nc(c(-c6ccccc6)c6ccc([nH]6)c(-c6ccccc6)c6nc(c(-c7ccccc7)c7ccc4[nH]7)C=C6)C=C5)cc3)C[C@H]3CCCC[C@@H]32)o1
REMARK SMILES IDX 14 1 13 2 11 3 12 4 10 6 9 7 75 8 69 9 70 10 74 11 71 12
REMARK SMILES IDX 73 13 72 14 7 15 8 16 6 17 3 18 4 19 76 20 5 21 2 22 1 23
REMARK SMILES IDX 15 27 16 28 17 29 18 30 19 31 20 33 21 34 22 35 68 36 23 37
REMARK SMILES IDX 67 38 24 39 25 40 26 41 61 42 27 43 66 44 60 45 62 46 28 47
REMARK SMILES IDX 65 48 59 49 58 50 29 52 51 53 36 54 50 55 37 56 40 57 49 58
REMARK SMILES IDX 63 59 38 60 39 61 48 63 64 64 41 65 30 66 31 67 35 68 32 69
REMARK SMILES IDX 34 70 33 71 52 72 53 73 57 74 54 75 56 76 55 77 42 78 43 79
REMARK SMILES IDX 47 80 44 81 46 82 45 83
REMARK H PARENT 13 5 1 24 1 25 1 26 18 32 62 51 40 62
REMARK Flexibility Score: inf
ROOT
ATOM      1  C   UNL A   1      37.007  21.772  24.881  1.00  0.00     0.116 C 
ENDROOT
BRANCH   1   2
ATOM      2  N   UNL A   1      36.277  22.362  23.776  1.00  0.00    -0.354 N 
ATOM      3  C   UNL A   1      35.299  23.318  23.786  1.00  0.00     0.242 C 
ATOM      4  O   UNL A   1      34.847  23.681  22.700  1.00  0.00    -0.273 OA
ATOM      5  H   UNL A   1      36.523  22.025  22.885  1.00  0.00     0.163 HD
BRANCH   3   6
ATOM      6  C   UNL A   1      34.858  23.942  25.131  1.00  0.00     0.175 C 
ATOM      7  N   UNL A   1      33.668  23.264  25.693  1.00  0.00    -0.321 N 
ATOM      8  C   UNL A   1      32.490  24.088  25.486  1.00  0.00     0.089 C 
ATOM      9  C   UNL A   1      34.383  25.389  24.860  1.00  0.00     0.041 C 
ATOM     10  C   UNL A   1      33.093  25.485  25.658  1.00  0.00     0.014 C 
ATOM     11  C   UNL A   1      31.296  23.950  26.431  1.00  0.00     0.025 C 
ATOM     12  C   UNL A   1      32.108  26.570  25.267  1.00  0.00     0.006 C 
ATOM     13  C   UNL A   1      30.262  25.045  26.137  1.00  0.00     0.002 C 
ATOM     14  C   UNL A   1      30.861  26.456  26.149  1.00  0.00     0.000 C 
BRANCH   7  15
ATOM     15  C   UNL A   1      33.598  21.946  26.133  1.00  0.00     0.290 C 
ATOM     16  O   UNL A   1      34.049  21.633  27.234  1.00  0.00    -0.265 OA
BRANCH  15  17
ATOM     17  C   UNL A   1      33.079  20.939  25.218  1.00  0.00     0.192 A 
ATOM     18  C   UNL A   1      32.610  18.855  24.641  1.00  0.00     0.159 A 
ATOM     19  C   UNL A   1      32.442  19.616  23.505  1.00  0.00     0.052 A 
ATOM     20  O   UNL A   1      32.988  19.649  25.681  1.00  0.00    -0.450 OA
ATOM     21  C   UNL A   1      32.764  20.945  23.870  1.00  0.00     0.057 A 
BRANCH  18  22
ATOM     22  C   UNL A   1      32.522  17.398  24.915  1.00  0.00     0.335 C 
BRANCH  22  23
ATOM     23  N   UNL A   1      33.266  17.055  26.125  1.00  0.00    -0.351 N 
ATOM     24  H   UNL A   1      32.699  17.269  26.946  1.00  0.00     0.344 HD
ATOM     25  H   UNL A   1      34.130  17.597  26.159  1.00  0.00     0.344 HD
ATOM     26  H   UNL A   1      33.490  16.060  26.117  1.00  0.00     0.344 HD
ENDBRANCH  22  23
ENDBRANCH  18  22
ENDBRANCH  15  17
ENDBRANCH   7  15
ENDBRANCH   3   6
ENDBRANCH   1   2
BRANCH   1  27
ATOM     27  C   UNL A   1      36.737  20.274  25.004  1.00  0.00     0.023 C 
BRANCH  27  28
ATOM     28  C   UNL A   1      37.982  19.375  24.998  1.00  0.00     0.023 C 
BRANCH  28  29
ATOM     29  C   UNL A   1      39.203  19.908  25.753  1.00  0.00     0.116 C 
BRANCH  29  30
ATOM     30  N   UNL A   1      40.304  18.963  25.784  1.00  0.00    -0.352 N 
ATOM     31  C   UNL A   1      41.640  19.177  26.014  1.00  0.00     0.251 C 
ATOM     32  H   UNL A   1      40.056  18.026  25.615  1.00  0.00     0.163 HD
ATOM     33  O   UNL A   1      42.430  18.244  25.886  1.00  0.00    -0.269 OA
BRANCH  31  34
ATOM     34  C   UNL A   1      42.152  20.516  26.386  1.00  0.00     0.039 A 
ATOM     35  C   UNL A   1      42.601  21.358  25.362  1.00  0.00     0.014 A 
ATOM     36  C   UNL A   1      42.256  20.924  27.720  1.00  0.00     0.014 A 
ATOM     37  C   UNL A   1      43.102  22.626  25.664  1.00  0.00     0.010 A 
ATOM     38  C   UNL A   1      42.742  22.198  28.021  1.00  0.00     0.010 A 
ATOM     39  C   UNL A   1      43.162  23.060  26.996  1.00  0.00    -0.014 A 
BRANCH  39  40
ATOM     40  C   UNL A   1      43.636  24.424  27.324  1.00  0.00     0.031 A 
ATOM     41  C   UNL A   1      42.679  25.478  27.795  1.00  0.00     0.074 A 
ATOM     42  C   UNL A   1      44.937  24.728  27.155  1.00  0.00     0.049 A 
ATOM     43  N   UNL A   1      42.905  26.746  28.031  1.00  0.00    -0.248 NA
ATOM     44  C   UNL A   1      41.288  25.056  28.020  1.00  0.00     0.031 C 
ATOM     45  C   UNL A   1      45.970  23.801  26.692  1.00  0.00     0.029 A 
ATOM     46  N   UNL A   1      45.604  25.910  27.345  1.00  0.00    -0.354 N 
ATOM     47  C   UNL A   1      41.681  27.283  28.403  1.00  0.00     0.074 A 
ATOM     48  C   UNL A   1      40.718  26.201  28.373  1.00  0.00     0.031 C 
ATOM     49  C   UNL A   1      47.144  24.451  26.633  1.00  0.00     0.029 A 
ATOM     50  C   UNL A   1      46.940  25.839  27.039  1.00  0.00     0.049 A 
ATOM     51  H   UNL A   1      45.169  26.730  27.670  1.00  0.00     0.167 HD
ATOM     52  C   UNL A   1      41.382  28.562  28.731  1.00  0.00     0.031 A 
ATOM     53  C   UNL A   1      47.893  26.788  27.068  1.00  0.00     0.031 A 
ATOM     54  C   UNL A   1      42.329  29.641  28.788  1.00  0.00     0.049 A 
ATOM     55  C   UNL A   1      47.545  28.185  27.482  1.00  0.00     0.074 A 
ATOM     56  C   UNL A   1      42.110  30.969  29.120  1.00  0.00     0.029 A 
ATOM     57  N   UNL A   1      43.681  29.516  28.516  1.00  0.00    -0.354 N 
ATOM     58  N   UNL A   1      46.380  28.677  27.820  1.00  0.00    -0.248 NA
ATOM     59  C   UNL A   1      48.649  29.158  27.516  1.00  0.00     0.031 C 
ATOM     60  C   UNL A   1      43.333  31.647  29.048  1.00  0.00     0.029 A 
ATOM     61  C   UNL A   1      44.309  30.739  28.675  1.00  0.00     0.049 A 
ATOM     62  H   UNL A   1      44.129  28.681  28.249  1.00  0.00     0.167 HD
ATOM     63  C   UNL A   1      46.606  30.017  28.101  1.00  0.00     0.074 A 
ATOM     64  C   UNL A   1      48.021  30.258  27.906  1.00  0.00     0.031 C 
ATOM     65  C   UNL A   1      45.716  30.963  28.481  1.00  0.00     0.031 A 
BRANCH  52  66
ATOM     66  C   UNL A   1      39.949  28.864  29.038  1.00  0.00    -0.014 A 
ATOM     67  C   UNL A   1      39.074  29.284  28.027  1.00  0.00     0.009 A 
ATOM     68  C   UNL A   1      39.466  28.705  30.346  1.00  0.00     0.009 A 
ATOM     69  C   UNL A   1      37.737  29.557  28.325  1.00  0.00     0.001 A 
ATOM     70  C   UNL A   1      38.129  28.975  30.639  1.00  0.00     0.001 A 
ATOM     71  C   UNL A   1      37.266  29.403  29.629  1.00  0.00     0.000 A 
ENDBRANCH  52  66
BRANCH  53  72
ATOM     72  C   UNL A   1      49.278  26.443  26.678  1.00  0.00    -0.014 A 
ATOM     73  C   UNL A   1      49.716  26.658  25.363  1.00  0.00     0.009 A 
ATOM     74  C   UNL A   1      50.167  25.911  27.622  1.00  0.00     0.009 A 
ATOM     75  C   UNL A   1      51.025  26.338  24.999  1.00  0.00     0.001 A 
ATOM     76  C   UNL A   1      51.475  25.595  27.255  1.00  0.00     0.001 A 
ATOM     77  C   UNL A   1      51.903  25.807  25.945  1.00  0.00     0.000 A 
ENDBRANCH  53  72
BRANCH  65  78
ATOM     78  C   UNL A   1      46.253  32.341  28.710  1.00  0.00    -0.014 A 
ATOM     79  C   UNL A   1      46.315  33.262  27.653  1.00  0.00     0.009 A 
ATOM     80  C   UNL A   1      46.686  32.727  29.986  1.00  0.00     0.009 A 
ATOM     81  C   UNL A   1      46.818  34.546  27.869  1.00  0.00     0.001 A 
ATOM     82  C   UNL A   1      47.187  34.013  30.199  1.00  0.00     0.001 A 
ATOM     83  C   UNL A   1      47.255  34.919  29.141  1.00  0.00     0.000 A 
ENDBRANCH  65  78
ENDBRANCH  39  40
ENDBRANCH  31  34
ENDBRANCH  29  30
ENDBRANCH  28  29
ENDBRANCH  27  28
ENDBRANCH   1  27
TORSDOF 15
ENDMDL
