MODEL 1
REMARK VINA RESULT:     -10.6      0.000      0.000
REMARK SMILES CC[N@@H+]1CC[C@H](C[NH2+]Cc2ccc(C(=O)NCCCCNC(=O)c3ccc(-c4c5nc(c(-c6ccccc6)c6ccc([nH]6)c(-c6ccccc6)c6nc(c(-c7ccccc7)c7ccc4[nH]7)C=C6)C=C5)cc3)cn2)C1
REMARK SMILES IDX 17 1 16 2 14 3 15 4 13 6 10 7 11 8 73 9 12 10 72 11 9 12
REMARK SMILES IDX 8 13 7 16 6 17 3 18 4 19 74 20 5 22 2 23 1 24 18 25 19 26
REMARK SMILES IDX 20 27 21 28 22 29 23 31 24 32 25 33 71 34 26 35 70 36 27 37
REMARK SMILES IDX 28 38 29 39 64 40 30 41 69 42 63 43 65 44 31 45 68 46 62 47
REMARK SMILES IDX 61 48 32 50 54 51 39 52 53 53 40 54 43 55 52 56 66 57 41 58
REMARK SMILES IDX 42 59 51 61 67 62 44 63 33 64 34 65 38 66 35 67 37 68 36 69
REMARK SMILES IDX 55 70 56 71 60 72 57 73 59 74 58 75 45 76 46 77 50 78 47 79
REMARK SMILES IDX 49 80 48 81
REMARK H PARENT 16 5 8 14 8 15 3 21 21 30 65 49 43 60
REMARK Flexibility Score: inf
ROOT
ATOM      1  C   UNL A   1      32.895  30.117  26.513  1.00  0.00     0.116 C 
ENDROOT
BRANCH   1   2
ATOM      2  N   UNL A   1      33.464  29.622  25.276  1.00  0.00    -0.352 N 
ATOM      3  C   UNL A   1      33.388  28.398  24.663  1.00  0.00     0.252 C 
ATOM      4  O   UNL A   1      33.953  28.268  23.578  1.00  0.00    -0.269 OA
ATOM      5  H   UNL A   1      34.005  30.285  24.788  1.00  0.00     0.163 HD
BRANCH   3   6
ATOM      6  C   UNL A   1      32.621  27.255  25.214  1.00  0.00     0.058 A 
ATOM      7  C   UNL A   1      31.457  24.951  26.225  1.00  0.00     0.094 A 
ATOM      8  C   UNL A   1      30.643  25.981  25.759  1.00  0.00     0.030 A 
ATOM      9  N   UNL A   1      32.806  25.064  26.251  1.00  0.00    -0.255 NA
ATOM     10  C   UNL A   1      31.233  27.142  25.258  1.00  0.00     0.017 A 
ATOM     11  C   UNL A   1      33.351  26.207  25.762  1.00  0.00     0.125 A 
BRANCH   7  12
ATOM     12  C   UNL A   1      30.859  23.635  26.688  1.00  0.00     0.317 C 
BRANCH  12  13
ATOM     13  N   UNL A   1      31.838  22.574  26.984  1.00  0.00    -0.341 N 
ATOM     14  H   UNL A   1      32.683  23.004  27.361  1.00  0.00     0.346 HD
ATOM     15  H   UNL A   1      31.411  21.935  27.655  1.00  0.00     0.346 HD
BRANCH  13  16
ATOM     16  C   UNL A   1      32.199  21.795  25.793  1.00  0.00     0.270 C 
BRANCH  16  17
ATOM     17  C   UNL A   1      33.552  21.104  25.988  1.00  0.00     0.105 C 
ATOM     18  N   UNL A   1      35.780  21.974  26.433  1.00  0.00    -0.335 N 
ATOM     19  C   UNL A   1      35.817  21.036  25.305  1.00  0.00     0.262 C 
ATOM     20  C   UNL A   1      34.437  21.800  27.036  1.00  0.00     0.271 C 
ATOM     21  H   UNL A   1      36.548  21.767  27.072  1.00  0.00     0.348 HD
ATOM     22  C   UNL A   1      34.418  21.077  24.731  1.00  0.00     0.076 C 
BRANCH  18  23
ATOM     23  C   UNL A   1      35.991  23.383  26.061  1.00  0.00     0.258 C 
ATOM     24  C   UNL A   1      37.401  23.707  25.577  1.00  0.00     0.071 C 
ENDBRANCH  18  23
ENDBRANCH  16  17
ENDBRANCH  13  16
ENDBRANCH  12  13
ENDBRANCH   7  12
ENDBRANCH   3   6
ENDBRANCH   1   2
BRANCH   1  25
ATOM     25  C   UNL A   1      31.496  30.688  26.270  1.00  0.00     0.023 C 
BRANCH  25  26
ATOM     26  C   UNL A   1      31.379  32.195  26.512  1.00  0.00     0.023 C 
BRANCH  26  27
ATOM     27  C   UNL A   1      32.592  32.832  27.176  1.00  0.00     0.116 C 
BRANCH  27  28
ATOM     28  N   UNL A   1      32.324  34.158  27.710  1.00  0.00    -0.352 N 
ATOM     29  C   UNL A   1      33.009  34.846  28.683  1.00  0.00     0.251 C 
ATOM     30  H   UNL A   1      31.548  34.625  27.322  1.00  0.00     0.163 HD
ATOM     31  O   UNL A   1      32.583  35.911  29.100  1.00  0.00    -0.269 OA
BRANCH  29  32
ATOM     32  C   UNL A   1      34.247  34.265  29.243  1.00  0.00     0.039 A 
ATOM     33  C   UNL A   1      34.147  33.407  30.340  1.00  0.00     0.014 A 
ATOM     34  C   UNL A   1      35.494  34.556  28.686  1.00  0.00     0.014 A 
ATOM     35  C   UNL A   1      35.297  32.809  30.853  1.00  0.00     0.010 A 
ATOM     36  C   UNL A   1      36.628  33.893  29.143  1.00  0.00     0.010 A 
ATOM     37  C   UNL A   1      36.545  33.030  30.245  1.00  0.00    -0.014 A 
BRANCH  37  38
ATOM     38  C   UNL A   1      37.774  32.396  30.779  1.00  0.00     0.031 A 
ATOM     39  C   UNL A   1      38.416  32.931  32.030  1.00  0.00     0.074 A 
ATOM     40  C   UNL A   1      38.329  31.357  30.125  1.00  0.00     0.049 A 
ATOM     41  N   UNL A   1      39.483  32.505  32.658  1.00  0.00    -0.248 NA
ATOM     42  C   UNL A   1      37.794  34.116  32.645  1.00  0.00     0.031 C 
ATOM     43  C   UNL A   1      37.831  30.777  28.874  1.00  0.00     0.029 A 
ATOM     44  N   UNL A   1      39.432  30.600  30.425  1.00  0.00    -0.354 N 
ATOM     45  C   UNL A   1      39.664  33.375  33.727  1.00  0.00     0.074 A 
ATOM     46  C   UNL A   1      38.639  34.389  33.627  1.00  0.00     0.031 C 
ATOM     47  C   UNL A   1      38.602  29.731  28.539  1.00  0.00     0.029 A 
ATOM     48  C   UNL A   1      39.666  29.587  29.528  1.00  0.00     0.049 A 
ATOM     49  H   UNL A   1      40.004  30.768  31.210  1.00  0.00     0.167 HD
ATOM     50  C   UNL A   1      40.585  33.322  34.719  1.00  0.00     0.031 A 
ATOM     51  C   UNL A   1      40.624  28.642  29.511  1.00  0.00     0.031 A 
ATOM     52  C   UNL A   1      41.598  32.308  34.824  1.00  0.00     0.049 A 
ATOM     53  C   UNL A   1      41.630  28.600  30.628  1.00  0.00     0.074 A 
ATOM     54  C   UNL A   1      42.547  32.135  35.816  1.00  0.00     0.029 A 
ATOM     55  N   UNL A   1      41.793  31.291  33.901  1.00  0.00    -0.354 N 
ATOM     56  N   UNL A   1      41.742  29.387  31.671  1.00  0.00    -0.248 NA
ATOM     57  C   UNL A   1      42.626  27.521  30.576  1.00  0.00     0.031 C 
ATOM     58  C   UNL A   1      43.348  31.043  35.468  1.00  0.00     0.029 A 
ATOM     59  C   UNL A   1      42.857  30.496  34.293  1.00  0.00     0.049 A 
ATOM     60  H   UNL A   1      41.255  31.155  33.089  1.00  0.00     0.167 HD
ATOM     61  C   UNL A   1      42.796  28.875  32.419  1.00  0.00     0.074 A 
ATOM     62  C   UNL A   1      43.276  27.702  31.716  1.00  0.00     0.031 C 
ATOM     63  C   UNL A   1      43.319  29.332  33.583  1.00  0.00     0.031 A 
BRANCH  50  64
ATOM     64  C   UNL A   1      40.532  34.399  35.767  1.00  0.00    -0.014 A 
ATOM     65  C   UNL A   1      41.282  35.581  35.639  1.00  0.00     0.009 A 
ATOM     66  C   UNL A   1      39.704  34.243  36.889  1.00  0.00     0.009 A 
ATOM     67  C   UNL A   1      41.235  36.563  36.630  1.00  0.00     0.001 A 
ATOM     68  C   UNL A   1      39.632  35.241  37.863  1.00  0.00     0.001 A 
ATOM     69  C   UNL A   1      40.406  36.394  37.739  1.00  0.00     0.000 A 
ENDBRANCH  50  64
BRANCH  51  70
ATOM     70  C   UNL A   1      40.660  27.632  28.420  1.00  0.00    -0.014 A 
ATOM     71  C   UNL A   1      41.358  27.891  27.230  1.00  0.00     0.009 A 
ATOM     72  C   UNL A   1      39.981  26.412  28.555  1.00  0.00     0.009 A 
ATOM     73  C   UNL A   1      41.344  26.966  26.184  1.00  0.00     0.001 A 
ATOM     74  C   UNL A   1      39.997  25.474  27.519  1.00  0.00     0.001 A 
ATOM     75  C   UNL A   1      40.667  25.756  26.331  1.00  0.00     0.000 A 
ENDBRANCH  51  70
BRANCH  63  76
ATOM     76  C   UNL A   1      44.432  28.527  34.195  1.00  0.00    -0.014 A 
ATOM     77  C   UNL A   1      44.176  27.471  35.084  1.00  0.00     0.009 A 
ATOM     78  C   UNL A   1      45.763  28.824  33.860  1.00  0.00     0.009 A 
ATOM     79  C   UNL A   1      45.233  26.765  35.664  1.00  0.00     0.001 A 
ATOM     80  C   UNL A   1      46.815  28.094  34.413  1.00  0.00     0.001 A 
ATOM     81  C   UNL A   1      46.549  27.075  35.325  1.00  0.00     0.000 A 
ENDBRANCH  63  76
ENDBRANCH  37  38
ENDBRANCH  29  32
ENDBRANCH  27  28
ENDBRANCH  26  27
ENDBRANCH  25  26
ENDBRANCH   1  25
TORSDOF 16
ENDMDL
MODEL 2
REMARK VINA RESULT:     -10.4      1.557      6.234
REMARK SMILES CC[N@@H+]1CC[C@H](C[NH2+]Cc2ccc(C(=O)NCCCCNC(=O)c3ccc(-c4c5nc(c(-c6ccccc6)c6ccc([nH]6)c(-c6ccccc6)c6nc(c(-c7ccccc7)c7ccc4[nH]7)C=C6)C=C5)cc3)cn2)C1
REMARK SMILES IDX 17 1 16 2 14 3 15 4 13 6 10 7 11 8 73 9 12 10 72 11 9 12
REMARK SMILES IDX 8 13 7 16 6 17 3 18 4 19 74 20 5 22 2 23 1 24 18 25 19 26
REMARK SMILES IDX 20 27 21 28 22 29 23 31 24 32 25 33 71 34 26 35 70 36 27 37
REMARK SMILES IDX 28 38 29 39 64 40 30 41 69 42 63 43 65 44 31 45 68 46 62 47
REMARK SMILES IDX 61 48 32 50 54 51 39 52 53 53 40 54 43 55 52 56 66 57 41 58
REMARK SMILES IDX 42 59 51 61 67 62 44 63 33 64 34 65 38 66 35 67 37 68 36 69
REMARK SMILES IDX 55 70 56 71 60 72 57 73 59 74 58 75 45 76 46 77 50 78 47 79
REMARK SMILES IDX 49 80 48 81
REMARK H PARENT 16 5 8 14 8 15 3 21 21 30 65 49 43 60
REMARK Flexibility Score: inf
ROOT
ATOM      1  C   UNL A   1      32.032  29.702  25.025  1.00  0.00     0.116 C 
ENDROOT
BRANCH   1   2
ATOM      2  N   UNL A   1      31.028  29.994  24.023  1.00  0.00    -0.352 N 
ATOM      3  C   UNL A   1      30.352  29.185  23.147  1.00  0.00     0.252 C 
ATOM      4  O   UNL A   1      29.510  29.709  22.418  1.00  0.00    -0.269 OA
ATOM      5  H   UNL A   1      30.788  30.947  23.959  1.00  0.00     0.163 HD
BRANCH   3   6
ATOM      6  C   UNL A   1      30.546  27.716  23.075  1.00  0.00     0.058 A 
ATOM      7  C   UNL A   1      30.757  24.956  23.219  1.00  0.00     0.094 A 
ATOM      8  C   UNL A   1      31.568  25.658  22.331  1.00  0.00     0.030 A 
ATOM      9  N   UNL A   1      29.825  25.578  23.979  1.00  0.00    -0.255 NA
ATOM     10  C   UNL A   1      31.452  27.047  22.256  1.00  0.00     0.017 A 
ATOM     11  C   UNL A   1      29.732  26.929  23.881  1.00  0.00     0.125 A 
BRANCH   7  12
ATOM     12  C   UNL A   1      30.917  23.457  23.401  1.00  0.00     0.317 C 
BRANCH  12  13
ATOM     13  N   UNL A   1      31.975  22.838  22.582  1.00  0.00    -0.341 N 
ATOM     14  H   UNL A   1      31.556  22.472  21.727  1.00  0.00     0.346 HD
ATOM     15  H   UNL A   1      32.670  23.556  22.381  1.00  0.00     0.346 HD
BRANCH  13  16
ATOM     16  C   UNL A   1      32.654  21.741  23.280  1.00  0.00     0.270 C 
BRANCH  16  17
ATOM     17  C   UNL A   1      33.960  22.229  23.914  1.00  0.00     0.105 C 
ATOM     18  N   UNL A   1      34.418  23.866  25.655  1.00  0.00    -0.335 N 
ATOM     19  C   UNL A   1      35.258  24.126  24.480  1.00  0.00     0.262 C 
ATOM     20  C   UNL A   1      33.824  22.529  25.417  1.00  0.00     0.271 C 
ATOM     21  H   UNL A   1      34.988  23.918  26.499  1.00  0.00     0.348 HD
ATOM     22  C   UNL A   1      34.485  23.534  23.322  1.00  0.00     0.076 C 
BRANCH  18  23
ATOM     23  C   UNL A   1      33.355  24.862  25.876  1.00  0.00     0.258 C 
ATOM     24  C   UNL A   1      33.756  26.299  25.553  1.00  0.00     0.071 C 
ENDBRANCH  18  23
ENDBRANCH  16  17
ENDBRANCH  13  16
ENDBRANCH  12  13
ENDBRANCH   7  12
ENDBRANCH   3   6
ENDBRANCH   1   2
BRANCH   1  25
ATOM     25  C   UNL A   1      31.566  30.169  26.406  1.00  0.00     0.023 C 
BRANCH  25  26
ATOM     26  C   UNL A   1      31.459  31.688  26.555  1.00  0.00     0.023 C 
BRANCH  26  27
ATOM     27  C   UNL A   1      32.695  32.362  27.134  1.00  0.00     0.116 C 
BRANCH  27  28
ATOM     28  N   UNL A   1      32.464  33.741  27.533  1.00  0.00    -0.352 N 
ATOM     29  C   UNL A   1      33.180  34.510  28.419  1.00  0.00     0.251 C 
ATOM     30  H   UNL A   1      31.691  34.183  27.112  1.00  0.00     0.163 HD
ATOM     31  O   UNL A   1      32.784  35.622  28.731  1.00  0.00    -0.269 OA
BRANCH  29  32
ATOM     32  C   UNL A   1      34.417  33.963  29.016  1.00  0.00     0.039 A 
ATOM     33  C   UNL A   1      34.306  33.078  30.090  1.00  0.00     0.014 A 
ATOM     34  C   UNL A   1      35.673  34.310  28.513  1.00  0.00     0.014 A 
ATOM     35  C   UNL A   1      35.458  32.513  30.637  1.00  0.00     0.010 A 
ATOM     36  C   UNL A   1      36.812  33.679  29.002  1.00  0.00     0.010 A 
ATOM     37  C   UNL A   1      36.719  32.791  30.083  1.00  0.00    -0.014 A 
BRANCH  37  38
ATOM     38  C   UNL A   1      37.949  32.191  30.652  1.00  0.00     0.031 A 
ATOM     39  C   UNL A   1      38.514  30.928  30.060  1.00  0.00     0.074 A 
ATOM     40  C   UNL A   1      38.542  32.763  31.717  1.00  0.00     0.049 A 
ATOM     41  N   UNL A   1      39.585  30.260  30.408  1.00  0.00    -0.248 NA
ATOM     42  C   UNL A   1      37.766  30.320  28.946  1.00  0.00     0.031 C 
ATOM     43  C   UNL A   1      38.064  33.961  32.414  1.00  0.00     0.029 A 
ATOM     44  N   UNL A   1      39.681  32.417  32.397  1.00  0.00    -0.354 N 
ATOM     45  C   UNL A   1      39.629  29.153  29.570  1.00  0.00     0.074 A 
ATOM     46  C   UNL A   1      38.446  29.202  28.740  1.00  0.00     0.031 C 
ATOM     47  C   UNL A   1      38.926  34.272  33.394  1.00  0.00     0.029 A 
ATOM     48  C   UNL A   1      39.996  33.279  33.419  1.00  0.00     0.049 A 
ATOM     49  H   UNL A   1      40.222  31.625  32.175  1.00  0.00     0.167 HD
ATOM     50  C   UNL A   1      40.580  28.193  29.478  1.00  0.00     0.031 A 
ATOM     51  C   UNL A   1      41.036  33.276  34.273  1.00  0.00     0.031 A 
ATOM     52  C   UNL A   1      41.762  28.150  30.296  1.00  0.00     0.049 A 
ATOM     53  C   UNL A   1      42.083  32.203  34.145  1.00  0.00     0.074 A 
ATOM     54  C   UNL A   1      42.811  27.250  30.248  1.00  0.00     0.029 A 
ATOM     55  N   UNL A   1      42.050  29.050  31.310  1.00  0.00    -0.354 N 
ATOM     56  N   UNL A   1      42.147  31.205  33.297  1.00  0.00    -0.248 NA
ATOM     57  C   UNL A   1      43.215  32.276  35.079  1.00  0.00     0.031 C 
ATOM     58  C   UNL A   1      43.710  27.575  31.269  1.00  0.00     0.029 A 
ATOM     59  C   UNL A   1      43.254  28.717  31.908  1.00  0.00     0.049 A 
ATOM     60  H   UNL A   1      41.483  29.812  31.568  1.00  0.00     0.167 HD
ATOM     61  C   UNL A   1      43.344  30.553  33.570  1.00  0.00     0.074 A 
ATOM     62  C   UNL A   1      43.979  31.281  34.650  1.00  0.00     0.031 C 
ATOM     63  C   UNL A   1      43.872  29.453  32.979  1.00  0.00     0.031 A 
BRANCH  50  64
ATOM     64  C   UNL A   1      40.373  27.112  28.453  1.00  0.00    -0.014 A 
ATOM     65  C   UNL A   1      39.685  25.928  28.769  1.00  0.00     0.009 A 
ATOM     66  C   UNL A   1      40.851  27.287  27.145  1.00  0.00     0.009 A 
ATOM     67  C   UNL A   1      39.517  24.927  27.810  1.00  0.00     0.001 A 
ATOM     68  C   UNL A   1      40.653  26.299  26.178  1.00  0.00     0.001 A 
ATOM     69  C   UNL A   1      39.997  25.116  26.514  1.00  0.00     0.000 A 
ENDBRANCH  50  64
BRANCH  51  70
ATOM     70  C   UNL A   1      41.164  34.341  35.302  1.00  0.00    -0.014 A 
ATOM     71  C   UNL A   1      40.588  34.179  36.572  1.00  0.00     0.009 A 
ATOM     72  C   UNL A   1      41.846  35.533  35.014  1.00  0.00     0.009 A 
ATOM     73  C   UNL A   1      40.660  35.204  37.519  1.00  0.00     0.001 A 
ATOM     74  C   UNL A   1      41.944  36.543  35.975  1.00  0.00     0.001 A 
ATOM     75  C   UNL A   1      41.341  36.383  37.221  1.00  0.00     0.000 A 
ENDBRANCH  51  70
BRANCH  63  76
ATOM     76  C   UNL A   1      45.228  29.007  33.453  1.00  0.00    -0.014 A 
ATOM     77  C   UNL A   1      45.377  28.075  34.491  1.00  0.00     0.009 A 
ATOM     78  C   UNL A   1      46.378  29.523  32.834  1.00  0.00     0.009 A 
ATOM     79  C   UNL A   1      46.651  27.709  34.934  1.00  0.00     0.001 A 
ATOM     80  C   UNL A   1      47.648  29.129  33.254  1.00  0.00     0.001 A 
ATOM     81  C   UNL A   1      47.783  28.233  34.312  1.00  0.00     0.000 A 
ENDBRANCH  63  76
ENDBRANCH  37  38
ENDBRANCH  29  32
ENDBRANCH  27  28
ENDBRANCH  26  27
ENDBRANCH  25  26
ENDBRANCH   1  25
TORSDOF 16
ENDMDL
MODEL 3
REMARK VINA RESULT:     -10.4      3.049      7.240
REMARK SMILES CC[N@@H+]1CC[C@H](C[NH2+]Cc2ccc(C(=O)NCCCCNC(=O)c3ccc(-c4c5nc(c(-c6ccccc6)c6ccc([nH]6)c(-c6ccccc6)c6nc(c(-c7ccccc7)c7ccc4[nH]7)C=C6)C=C5)cc3)cn2)C1
REMARK SMILES IDX 17 1 16 2 14 3 15 4 13 6 10 7 11 8 73 9 12 10 72 11 9 12
REMARK SMILES IDX 8 13 7 16 6 17 3 18 4 19 74 20 5 22 2 23 1 24 18 25 19 26
REMARK SMILES IDX 20 27 21 28 22 29 23 31 24 32 25 33 71 34 26 35 70 36 27 37
REMARK SMILES IDX 28 38 29 39 64 40 30 41 69 42 63 43 65 44 31 45 68 46 62 47
REMARK SMILES IDX 61 48 32 50 54 51 39 52 53 53 40 54 43 55 52 56 66 57 41 58
REMARK SMILES IDX 42 59 51 61 67 62 44 63 33 64 34 65 38 66 35 67 37 68 36 69
REMARK SMILES IDX 55 70 56 71 60 72 57 73 59 74 58 75 45 76 46 77 50 78 47 79
REMARK SMILES IDX 49 80 48 81
REMARK H PARENT 16 5 8 14 8 15 3 21 21 30 65 49 43 60
REMARK Flexibility Score: inf
ROOT
ATOM      1  C   UNL A   1      33.338  29.014  23.206  1.00  0.00     0.116 C 
ENDROOT
BRANCH   1   2
ATOM      2  N   UNL A   1      32.035  29.127  22.581  1.00  0.00    -0.352 N 
ATOM      3  C   UNL A   1      30.994  28.240  22.478  1.00  0.00     0.252 C 
ATOM      4  O   UNL A   1      29.972  28.625  21.912  1.00  0.00    -0.269 OA
ATOM      5  H   UNL A   1      31.868  29.998  22.154  1.00  0.00     0.163 HD
BRANCH   3   6
ATOM      6  C   UNL A   1      31.024  26.875  23.055  1.00  0.00     0.058 A 
ATOM      7  C   UNL A   1      31.027  24.461  24.419  1.00  0.00     0.094 A 
ATOM      8  C   UNL A   1      31.549  24.519  23.128  1.00  0.00     0.030 A 
ATOM      9  N   UNL A   1      30.464  25.541  25.010  1.00  0.00    -0.255 NA
ATOM     10  C   UNL A   1      31.538  25.735  22.443  1.00  0.00     0.017 A 
ATOM     11  C   UNL A   1      30.464  26.709  24.317  1.00  0.00     0.125 A 
BRANCH   7  12
ATOM     12  C   UNL A   1      31.106  23.183  25.234  1.00  0.00     0.317 C 
BRANCH  12  13
ATOM     13  N   UNL A   1      31.879  22.092  24.612  1.00  0.00    -0.341 N 
ATOM     14  H   UNL A   1      31.321  21.238  24.640  1.00  0.00     0.346 HD
ATOM     15  H   UNL A   1      32.090  22.370  23.654  1.00  0.00     0.346 HD
BRANCH  13  16
ATOM     16  C   UNL A   1      33.152  21.845  25.297  1.00  0.00     0.270 C 
BRANCH  16  17
ATOM     17  C   UNL A   1      34.308  21.806  24.293  1.00  0.00     0.105 C 
ATOM     18  N   UNL A   1      36.723  21.734  24.585  1.00  0.00    -0.335 N 
ATOM     19  C   UNL A   1      36.356  22.800  23.644  1.00  0.00     0.262 C 
ATOM     20  C   UNL A   1      35.486  20.937  24.765  1.00  0.00     0.271 C 
ATOM     21  H   UNL A   1      37.504  21.200  24.205  1.00  0.00     0.348 HD
ATOM     22  C   UNL A   1      34.939  23.170  24.023  1.00  0.00     0.076 C 
BRANCH  18  23
ATOM     23  C   UNL A   1      37.213  22.214  25.888  1.00  0.00     0.258 C 
ATOM     24  C   UNL A   1      38.000  23.520  25.828  1.00  0.00     0.071 C 
ENDBRANCH  18  23
ENDBRANCH  16  17
ENDBRANCH  13  16
ENDBRANCH  12  13
ENDBRANCH   7  12
ENDBRANCH   3   6
ENDBRANCH   1   2
BRANCH   1  25
ATOM     25  C   UNL A   1      33.238  29.277  24.709  1.00  0.00     0.023 C 
BRANCH  25  26
ATOM     26  C   UNL A   1      33.758  28.134  25.586  1.00  0.00     0.023 C 
BRANCH  26  27
ATOM     27  C   UNL A   1      33.763  28.426  27.080  1.00  0.00     0.116 C 
BRANCH  27  28
ATOM     28  N   UNL A   1      33.630  29.840  27.389  1.00  0.00    -0.352 N 
ATOM     29  C   UNL A   1      34.539  30.675  27.995  1.00  0.00     0.251 C 
ATOM     30  H   UNL A   1      32.775  30.255  27.130  1.00  0.00     0.163 HD
ATOM     31  O   UNL A   1      34.226  31.819  28.287  1.00  0.00    -0.269 OA
BRANCH  29  32
ATOM     32  C   UNL A   1      35.886  30.163  28.321  1.00  0.00     0.039 A 
ATOM     33  C   UNL A   1      36.890  30.261  27.356  1.00  0.00     0.014 A 
ATOM     34  C   UNL A   1      36.159  29.599  29.569  1.00  0.00     0.014 A 
ATOM     35  C   UNL A   1      38.180  29.828  27.659  1.00  0.00     0.010 A 
ATOM     36  C   UNL A   1      37.464  29.249  29.899  1.00  0.00     0.010 A 
ATOM     37  C   UNL A   1      38.483  29.339  28.941  1.00  0.00    -0.014 A 
BRANCH  37  38
ATOM     38  C   UNL A   1      39.853  28.881  29.276  1.00  0.00     0.031 A 
ATOM     39  C   UNL A   1      40.318  27.517  28.845  1.00  0.00     0.074 A 
ATOM     40  C   UNL A   1      40.669  29.680  29.991  1.00  0.00     0.049 A 
ATOM     41  N   UNL A   1      41.481  26.944  29.031  1.00  0.00    -0.248 NA
ATOM     42  C   UNL A   1      39.343  26.673  28.134  1.00  0.00     0.031 C 
ATOM     43  C   UNL A   1      40.319  31.005  30.511  1.00  0.00     0.029 A 
ATOM     44  N   UNL A   1      41.964  29.495  30.400  1.00  0.00    -0.354 N 
ATOM     45  C   UNL A   1      41.370  25.676  28.474  1.00  0.00     0.074 A 
ATOM     46  C   UNL A   1      40.010  25.537  28.002  1.00  0.00     0.031 C 
ATOM     47  C   UNL A   1      41.387  31.528  31.132  1.00  0.00     0.029 A 
ATOM     48  C   UNL A   1      42.484  30.566  31.086  1.00  0.00     0.049 A 
ATOM     49  H   UNL A   1      42.475  28.673  30.220  1.00  0.00     0.167 HD
ATOM     50  C   UNL A   1      42.320  24.719  28.343  1.00  0.00     0.031 A 
ATOM     51  C   UNL A   1      43.709  30.755  31.609  1.00  0.00     0.031 A 
ATOM     52  C   UNL A   1      43.674  24.861  28.803  1.00  0.00     0.049 A 
ATOM     53  C   UNL A   1      44.749  29.680  31.443  1.00  0.00     0.074 A 
ATOM     54  C   UNL A   1      44.727  23.972  28.674  1.00  0.00     0.029 A 
ATOM     55  N   UNL A   1      44.163  25.967  29.481  1.00  0.00    -0.354 N 
ATOM     56  N   UNL A   1      44.648  28.516  30.848  1.00  0.00    -0.248 NA
ATOM     57  C   UNL A   1      46.079  29.961  31.999  1.00  0.00     0.031 C 
ATOM     58  C   UNL A   1      45.841  24.519  29.319  1.00  0.00     0.029 A 
ATOM     59  C   UNL A   1      45.500  25.777  29.792  1.00  0.00     0.049 A 
ATOM     60  H   UNL A   1      43.639  26.768  29.707  1.00  0.00     0.167 HD
ATOM     61  C   UNL A   1      45.911  27.942  30.925  1.00  0.00     0.074 A 
ATOM     62  C   UNL A   1      46.762  28.895  31.609  1.00  0.00     0.031 C 
ATOM     63  C   UNL A   1      46.331  26.735  30.470  1.00  0.00     0.031 A 
BRANCH  50  64
ATOM     64  C   UNL A   1      41.917  23.434  27.673  1.00  0.00    -0.014 A 
ATOM     65  C   UNL A   1      41.394  22.359  28.411  1.00  0.00     0.009 A 
ATOM     66  C   UNL A   1      42.039  23.303  26.281  1.00  0.00     0.009 A 
ATOM     67  C   UNL A   1      41.041  21.167  27.775  1.00  0.00     0.001 A 
ATOM     68  C   UNL A   1      41.655  22.121  25.643  1.00  0.00     0.001 A 
ATOM     69  C   UNL A   1      41.167  21.051  26.391  1.00  0.00     0.000 A 
ENDBRANCH  50  64
BRANCH  51  70
ATOM     70  C   UNL A   1      44.038  32.026  32.307  1.00  0.00    -0.014 A 
ATOM     71  C   UNL A   1      44.602  33.102  31.603  1.00  0.00     0.009 A 
ATOM     72  C   UNL A   1      43.807  32.164  33.684  1.00  0.00     0.009 A 
ATOM     73  C   UNL A   1      44.962  34.275  32.271  1.00  0.00     0.001 A 
ATOM     74  C   UNL A   1      44.139  33.350  34.343  1.00  0.00     0.001 A 
ATOM     75  C   UNL A   1      44.727  34.399  33.639  1.00  0.00     0.000 A 
ENDBRANCH  51  70
BRANCH  63  76
ATOM     76  C   UNL A   1      47.788  26.408  30.648  1.00  0.00    -0.014 A 
ATOM     77  C   UNL A   1      48.262  25.753  31.796  1.00  0.00     0.009 A 
ATOM     78  C   UNL A   1      48.700  26.749  29.636  1.00  0.00     0.009 A 
ATOM     79  C   UNL A   1      49.626  25.496  31.949  1.00  0.00     0.001 A 
ATOM     80  C   UNL A   1      50.057  26.458  29.776  1.00  0.00     0.001 A 
ATOM     81  C   UNL A   1      50.521  25.845  30.938  1.00  0.00     0.000 A 
ENDBRANCH  63  76
ENDBRANCH  37  38
ENDBRANCH  29  32
ENDBRANCH  27  28
ENDBRANCH  26  27
ENDBRANCH  25  26
ENDBRANCH   1  25
TORSDOF 16
ENDMDL
