MODEL 1
REMARK VINA RESULT:     -12.3      0.000      0.000
REMARK SMILES Cc1c(CC(=O)N[C@@H](CCO)C(=O)NCCCCNC(=O)c2ccc(-c3c4nc(c(-c5ccccc5)c5ccc([nH]5)c(-c5ccccc5)c5nc(c(-c6ccccc6)c6ccc3[nH]6)C=C5)C=C4)cc2)cc(-c2ccc(S(C)(=O)=O)cc2)n1-c1ccc(F)cc1
REMARK SMILES IDX 15 1 14 2 12 3 13 4 8 6 7 7 5 8 6 9 4 11 3 12 1 13 2 14
REMARK SMILES IDX 82 15 70 16 71 17 83 18 84 19 89 20 85 21 88 22 86 23 87 24
REMARK SMILES IDX 72 25 73 26 81 27 74 28 80 29 75 30 76 31 77 32 78 33 79 34
REMARK SMILES IDX 9 35 10 36 11 37 16 39 17 40 18 41 19 42 20 43 21 45 22 46
REMARK SMILES IDX 23 47 69 48 24 49 68 50 25 51 26 52 27 53 62 54 28 55 67 56
REMARK SMILES IDX 61 57 63 58 29 59 66 60 60 61 59 62 30 64 52 65 37 66 51 67
REMARK SMILES IDX 38 68 41 69 50 70 64 71 39 72 40 73 49 75 65 76 42 77 31 78
REMARK SMILES IDX 32 79 36 80 33 81 35 82 34 83 53 84 54 85 58 86 55 87 57 88
REMARK SMILES IDX 56 89 43 90 44 91 48 92 45 93 47 94 46 95
REMARK H PARENT 14 5 7 10 11 38 19 44 63 63 41 74
REMARK Flexibility Score: inf
ROOT
ATOM      1  C   UNL A   1      37.650  20.748  25.010  1.00  0.00     0.116 C 
ENDROOT
BRANCH   1   2
ATOM      2  N   UNL A   1      37.061  21.873  24.308  1.00  0.00    -0.354 N 
ATOM      3  C   UNL A   1      35.782  22.315  24.145  1.00  0.00     0.242 C 
ATOM      4  O   UNL A   1      35.679  23.506  23.822  1.00  0.00    -0.273 OA
ATOM      5  H   UNL A   1      37.726  22.437  23.851  1.00  0.00     0.163 HD
BRANCH   3   6
ATOM      6  C   UNL A   1      34.486  21.508  24.421  1.00  0.00     0.173 C 
BRANCH   6   7
ATOM      7  N   UNL A   1      33.587  21.405  23.273  1.00  0.00    -0.344 N 
ATOM      8  C   UNL A   1      32.255  21.728  23.215  1.00  0.00     0.225 C 
ATOM      9  O   UNL A   1      31.705  21.694  22.110  1.00  0.00    -0.275 OA
ATOM     10  H   UNL A   1      33.987  21.063  22.440  1.00  0.00     0.164 HD
BRANCH   8  11
ATOM     11  C   UNL A   1      31.476  22.138  24.467  1.00  0.00     0.137 C 
BRANCH  11  12
ATOM     12  C   UNL A   1      31.356  23.626  24.636  1.00  0.00    -0.017 A 
ATOM     13  C   UNL A   1      33.219  24.040  26.377  1.00  0.00     0.065 C 
ATOM     14  C   UNL A   1      32.142  24.456  25.428  1.00  0.00     0.024 A 
ATOM     15  N   UNL A   1      31.718  25.770  25.244  1.00  0.00    -0.314 N 
ATOM     16  C   UNL A   1      30.389  24.456  24.010  1.00  0.00     0.033 A 
ATOM     17  C   UNL A   1      30.658  25.775  24.337  1.00  0.00     0.053 A 
BRANCH  15  18
ATOM     18  C   UNL A   1      32.263  26.922  25.874  1.00  0.00     0.046 A 
ATOM     19  C   UNL A   1      31.593  27.489  26.967  1.00  0.00     0.029 A 
ATOM     20  C   UNL A   1      33.441  27.499  25.383  1.00  0.00     0.029 A 
ATOM     21  C   UNL A   1      32.113  28.629  27.577  1.00  0.00     0.041 A 
ATOM     22  C   UNL A   1      33.943  28.651  25.988  1.00  0.00     0.041 A 
ATOM     23  C   UNL A   1      33.279  29.203  27.080  1.00  0.00     0.123 A 
ATOM     24  F   UNL A   1      33.767  30.306  27.661  1.00  0.00    -0.207 F 
ENDBRANCH  15  18
BRANCH  17  25
ATOM     25  C   UNL A   1      30.044  26.975  23.752  1.00  0.00    -0.001 A 
ATOM     26  C   UNL A   1      30.817  27.894  23.023  1.00  0.00     0.011 A 
ATOM     27  C   UNL A   1      28.667  27.198  23.881  1.00  0.00     0.011 A 
ATOM     28  C   UNL A   1      30.231  29.031  22.456  1.00  0.00     0.021 A 
ATOM     29  C   UNL A   1      28.074  28.334  23.321  1.00  0.00     0.021 A 
ATOM     30  C   UNL A   1      28.862  29.249  22.620  1.00  0.00     0.067 A 
BRANCH  30  31
ATOM     31  S   UNL A   1      28.111  30.679  21.876  1.00  0.00     0.175 S 
ATOM     32  C   UNL A   1      29.213  32.010  22.274  1.00  0.00     0.163 C 
ATOM     33  O   UNL A   1      28.152  30.472  20.434  1.00  0.00    -0.224 OA
ATOM     34  O   UNL A   1      26.861  30.927  22.556  1.00  0.00    -0.224 OA
ENDBRANCH  30  31
ENDBRANCH  17  25
ENDBRANCH  11  12
ENDBRANCH   8  11
ENDBRANCH   6   7
BRANCH   6  35
ATOM     35  C   UNL A   1      34.623  20.196  25.214  1.00  0.00     0.063 C 
BRANCH  35  36
ATOM     36  C   UNL A   1      33.791  19.007  24.771  1.00  0.00     0.158 C 
BRANCH  36  37
ATOM     37  O   UNL A   1      33.197  18.322  25.863  1.00  0.00    -0.396 OA
ATOM     38  H   UNL A   1      32.236  18.448  25.838  1.00  0.00     0.210 HD
ENDBRANCH  36  37
ENDBRANCH  35  36
ENDBRANCH   6  35
ENDBRANCH   3   6
ENDBRANCH   1   2
BRANCH   1  39
ATOM     39  C   UNL A   1      38.958  21.063  25.759  1.00  0.00     0.023 C 
BRANCH  39  40
ATOM     40  C   UNL A   1      40.115  20.017  25.929  1.00  0.00     0.023 C 
BRANCH  40  41
ATOM     41  C   UNL A   1      41.120  20.014  27.136  1.00  0.00     0.116 C 
BRANCH  41  42
ATOM     42  N   UNL A   1      42.221  21.019  27.018  1.00  0.00    -0.352 N 
ATOM     43  C   UNL A   1      42.533  22.360  27.275  1.00  0.00     0.251 C 
ATOM     44  H   UNL A   1      43.007  20.581  26.620  1.00  0.00     0.163 HD
ATOM     45  O   UNL A   1      43.678  22.674  26.910  1.00  0.00    -0.269 OA
BRANCH  43  46
ATOM     46  C   UNL A   1      41.751  23.500  27.952  1.00  0.00     0.039 A 
ATOM     47  C   UNL A   1      40.376  23.748  27.675  1.00  0.00     0.014 A 
ATOM     48  C   UNL A   1      42.334  24.588  28.545  1.00  0.00     0.014 A 
ATOM     49  C   UNL A   1      39.608  24.996  28.024  1.00  0.00     0.010 A 
ATOM     50  C   UNL A   1      41.567  25.830  28.834  1.00  0.00     0.010 A 
ATOM     51  C   UNL A   1      40.155  26.167  28.615  1.00  0.00    -0.014 A 
BRANCH  51  52
ATOM     52  C   UNL A   1      39.354  27.763  28.408  1.00  0.00     0.031 A 
ATOM     53  C   UNL A   1      40.164  28.477  27.349  1.00  0.00     0.074 A 
ATOM     54  C   UNL A   1      38.547  28.861  28.952  1.00  0.00     0.049 A 
ATOM     55  N   UNL A   1      40.883  29.463  27.799  1.00  0.00    -0.248 NA
ATOM     56  C   UNL A   1      40.797  27.807  26.219  1.00  0.00     0.031 C 
ATOM     57  C   UNL A   1      38.404  30.261  28.283  1.00  0.00     0.029 A 
ATOM     58  N   UNL A   1      37.803  29.196  30.129  1.00  0.00    -0.354 N 
ATOM     59  C   UNL A   1      42.108  28.911  27.741  1.00  0.00     0.074 A 
ATOM     60  C   UNL A   1      42.076  28.037  26.556  1.00  0.00     0.031 C 
ATOM     61  C   UNL A   1      37.662  31.156  28.979  1.00  0.00     0.029 A 
ATOM     62  C   UNL A   1      37.201  30.548  30.198  1.00  0.00     0.049 A 
ATOM     63  H   UNL A   1      37.695  28.552  30.865  1.00  0.00     0.167 HD
ATOM     64  C   UNL A   1      42.839  28.800  28.877  1.00  0.00     0.031 A 
ATOM     65  C   UNL A   1      36.609  31.250  31.241  1.00  0.00     0.031 A 
ATOM     66  C   UNL A   1      42.144  28.939  30.189  1.00  0.00     0.049 A 
ATOM     67  C   UNL A   1      37.700  31.173  32.249  1.00  0.00     0.074 A 
ATOM     68  C   UNL A   1      41.095  28.323  30.865  1.00  0.00     0.029 A 
ATOM     69  N   UNL A   1      42.426  29.976  31.061  1.00  0.00    -0.354 N 
ATOM     70  N   UNL A   1      38.702  31.995  32.377  1.00  0.00    -0.248 NA
ATOM     71  C   UNL A   1      37.671  30.035  33.148  1.00  0.00     0.031 C 
ATOM     72  C   UNL A   1      41.047  28.702  32.208  1.00  0.00     0.029 A 
ATOM     73  C   UNL A   1      41.477  29.994  32.096  1.00  0.00     0.049 A 
ATOM     74  H   UNL A   1      43.178  30.606  30.970  1.00  0.00     0.167 HD
ATOM     75  C   UNL A   1      39.641  31.233  33.048  1.00  0.00     0.074 A 
ATOM     76  C   UNL A   1      38.895  30.137  33.653  1.00  0.00     0.031 C 
ATOM     77  C   UNL A   1      40.920  31.229  32.578  1.00  0.00     0.031 A 
BRANCH  64  78
ATOM     78  C   UNL A   1      44.313  28.765  28.680  1.00  0.00    -0.014 A 
ATOM     79  C   UNL A   1      45.033  27.555  28.554  1.00  0.00     0.009 A 
ATOM     80  C   UNL A   1      44.978  29.953  28.379  1.00  0.00     0.009 A 
ATOM     81  C   UNL A   1      46.343  27.528  28.097  1.00  0.00     0.001 A 
ATOM     82  C   UNL A   1      46.276  29.925  27.875  1.00  0.00     0.001 A 
ATOM     83  C   UNL A   1      46.953  28.715  27.725  1.00  0.00     0.000 A 
ENDBRANCH  64  78
BRANCH  65  84
ATOM     84  C   UNL A   1      35.654  32.389  31.682  1.00  0.00    -0.014 A 
ATOM     85  C   UNL A   1      34.964  32.699  32.868  1.00  0.00     0.009 A 
ATOM     86  C   UNL A   1      35.387  33.301  30.613  1.00  0.00     0.009 A 
ATOM     87  C   UNL A   1      34.093  33.841  32.950  1.00  0.00     0.001 A 
ATOM     88  C   UNL A   1      34.521  34.406  30.678  1.00  0.00     0.001 A 
ATOM     89  C   UNL A   1      33.875  34.689  31.860  1.00  0.00     0.000 A 
ENDBRANCH  65  84
BRANCH  77  90
ATOM     90  C   UNL A   1      41.501  32.524  32.166  1.00  0.00    -0.014 A 
ATOM     91  C   UNL A   1      42.419  33.107  33.041  1.00  0.00     0.009 A 
ATOM     92  C   UNL A   1      41.326  33.050  30.876  1.00  0.00     0.009 A 
ATOM     93  C   UNL A   1      43.227  34.144  32.598  1.00  0.00     0.001 A 
ATOM     94  C   UNL A   1      42.174  34.050  30.419  1.00  0.00     0.001 A 
ATOM     95  C   UNL A   1      43.133  34.587  31.278  1.00  0.00     0.000 A 
ENDBRANCH  77  90
ENDBRANCH  51  52
ENDBRANCH  43  46
ENDBRANCH  41  42
ENDBRANCH  40  41
ENDBRANCH  39  40
ENDBRANCH   1  39
TORSDOF 20
ENDMDL
MODEL 2
REMARK VINA RESULT:     -10.1      6.670     10.145
REMARK SMILES Cc1c(CC(=O)N[C@@H](CCO)C(=O)NCCCCNC(=O)c2ccc(-c3c4nc(c(-c5ccccc5)c5ccc([nH]5)c(-c5ccccc5)c5nc(c(-c6ccccc6)c6ccc3[nH]6)C=C5)C=C4)cc2)cc(-c2ccc(S(C)(=O)=O)cc2)n1-c1ccc(F)cc1
REMARK SMILES IDX 15 1 14 2 12 3 13 4 8 6 7 7 5 8 6 9 4 11 3 12 1 13 2 14
REMARK SMILES IDX 82 15 70 16 71 17 83 18 84 19 89 20 85 21 88 22 86 23 87 24
REMARK SMILES IDX 72 25 73 26 81 27 74 28 80 29 75 30 76 31 77 32 78 33 79 34
REMARK SMILES IDX 9 35 10 36 11 37 16 39 17 40 18 41 19 42 20 43 21 45 22 46
REMARK SMILES IDX 23 47 69 48 24 49 68 50 25 51 26 52 27 53 62 54 28 55 67 56
REMARK SMILES IDX 61 57 63 58 29 59 66 60 60 61 59 62 30 64 52 65 37 66 51 67
REMARK SMILES IDX 38 68 41 69 50 70 64 71 39 72 40 73 49 75 65 76 42 77 31 78
REMARK SMILES IDX 32 79 36 80 33 81 35 82 34 83 53 84 54 85 58 86 55 87 57 88
REMARK SMILES IDX 56 89 43 90 44 91 48 92 45 93 47 94 46 95
REMARK H PARENT 14 5 7 10 11 38 19 44 63 63 41 74
REMARK Flexibility Score: inf
ROOT
ATOM      1  C   UNL A   1      43.943  25.797  25.329  1.00  0.00     0.116 C 
ENDROOT
BRANCH   1   2
ATOM      2  N   UNL A   1      43.007  26.877  25.076  1.00  0.00    -0.354 N 
ATOM      3  C   UNL A   1      42.600  27.958  25.798  1.00  0.00     0.242 C 
ATOM      4  O   UNL A   1      42.096  28.871  25.131  1.00  0.00    -0.273 OA
ATOM      5  H   UNL A   1      42.575  26.816  24.194  1.00  0.00     0.163 HD
BRANCH   3   6
ATOM      6  C   UNL A   1      42.800  28.178  27.321  1.00  0.00     0.173 C 
BRANCH   6   7
ATOM      7  N   UNL A   1      41.773  27.560  28.157  1.00  0.00    -0.344 N 
ATOM      8  C   UNL A   1      41.243  28.037  29.330  1.00  0.00     0.225 C 
ATOM      9  O   UNL A   1      40.285  27.427  29.814  1.00  0.00    -0.275 OA
ATOM     10  H   UNL A   1      41.418  26.698  27.840  1.00  0.00     0.164 HD
BRANCH   8  11
ATOM     11  C   UNL A   1      41.799  29.292  30.007  1.00  0.00     0.137 C 
BRANCH  11  12
ATOM     12  C   UNL A   1      40.751  30.107  30.710  1.00  0.00    -0.017 A 
ATOM     13  C   UNL A   1      39.142  30.577  28.744  1.00  0.00     0.065 C 
ATOM     14  C   UNL A   1      39.577  30.624  30.175  1.00  0.00     0.024 A 
ATOM     15  N   UNL A   1      38.874  31.265  31.191  1.00  0.00    -0.314 N 
ATOM     16  C   UNL A   1      40.788  30.507  32.072  1.00  0.00     0.033 A 
ATOM     17  C   UNL A   1      39.605  31.161  32.375  1.00  0.00     0.053 A 
BRANCH  15  18
ATOM     18  C   UNL A   1      37.622  31.926  31.057  1.00  0.00     0.046 A 
ATOM     19  C   UNL A   1      36.446  31.249  31.408  1.00  0.00     0.029 A 
ATOM     20  C   UNL A   1      37.569  33.231  30.549  1.00  0.00     0.029 A 
ATOM     21  C   UNL A   1      35.215  31.885  31.262  1.00  0.00     0.041 A 
ATOM     22  C   UNL A   1      36.330  33.852  30.388  1.00  0.00     0.041 A 
ATOM     23  C   UNL A   1      35.167  33.177  30.749  1.00  0.00     0.123 A 
ATOM     24  F   UNL A   1      33.981  33.780  30.598  1.00  0.00    -0.207 F 
ENDBRANCH  15  18
BRANCH  17  25
ATOM     25  C   UNL A   1      39.129  31.561  33.707  1.00  0.00    -0.001 A 
ATOM     26  C   UNL A   1      38.894  30.600  34.704  1.00  0.00     0.011 A 
ATOM     27  C   UNL A   1      38.943  32.915  34.011  1.00  0.00     0.011 A 
ATOM     28  C   UNL A   1      38.453  30.980  35.975  1.00  0.00     0.021 A 
ATOM     29  C   UNL A   1      38.498  33.304  35.279  1.00  0.00     0.021 A 
ATOM     30  C   UNL A   1      38.246  32.333  36.251  1.00  0.00     0.067 A 
BRANCH  30  31
ATOM     31  S   UNL A   1      37.712  32.822  37.875  1.00  0.00     0.175 S 
ATOM     32  C   UNL A   1      38.540  34.363  38.164  1.00  0.00     0.163 C 
ATOM     33  O   UNL A   1      36.281  33.086  37.784  1.00  0.00    -0.224 OA
ATOM     34  O   UNL A   1      38.231  31.860  38.820  1.00  0.00    -0.224 OA
ENDBRANCH  30  31
ENDBRANCH  17  25
ENDBRANCH  11  12
ENDBRANCH   8  11
ENDBRANCH   6   7
BRANCH   6  35
ATOM     35  C   UNL A   1      44.226  28.016  27.879  1.00  0.00     0.063 C 
BRANCH  35  36
ATOM     36  C   UNL A   1      45.351  28.758  27.180  1.00  0.00     0.158 C 
BRANCH  36  37
ATOM     37  O   UNL A   1      46.395  29.124  28.069  1.00  0.00    -0.396 OA
ATOM     38  H   UNL A   1      46.727  28.331  28.520  1.00  0.00     0.210 HD
ENDBRANCH  36  37
ENDBRANCH  35  36
ENDBRANCH   6  35
ENDBRANCH   3   6
ENDBRANCH   1   2
BRANCH   1  39
ATOM     39  C   UNL A   1      43.401  24.386  25.041  1.00  0.00     0.023 C 
BRANCH  39  40
ATOM     40  C   UNL A   1      44.334  23.146  24.804  1.00  0.00     0.023 C 
BRANCH  40  41
ATOM     41  C   UNL A   1      44.278  21.834  25.664  1.00  0.00     0.116 C 
BRANCH  41  42
ATOM     42  N   UNL A   1      43.316  21.892  26.807  1.00  0.00    -0.352 N 
ATOM     43  C   UNL A   1      43.190  22.331  28.131  1.00  0.00     0.251 C 
ATOM     44  H   UNL A   1      42.470  21.471  26.531  1.00  0.00     0.163 HD
ATOM     45  O   UNL A   1      42.087  22.057  28.634  1.00  0.00    -0.269 OA
BRANCH  43  46
ATOM     46  C   UNL A   1      44.130  23.118  29.061  1.00  0.00     0.039 A 
ATOM     47  C   UNL A   1      43.803  23.391  30.419  1.00  0.00     0.014 A 
ATOM     48  C   UNL A   1      45.131  23.945  28.623  1.00  0.00     0.014 A 
ATOM     49  C   UNL A   1      44.479  24.398  31.314  1.00  0.00     0.010 A 
ATOM     50  C   UNL A   1      45.749  24.967  29.511  1.00  0.00     0.010 A 
ATOM     51  C   UNL A   1      45.502  25.301  30.919  1.00  0.00    -0.014 A 
BRANCH  51  52
ATOM     52  C   UNL A   1      45.781  26.829  31.823  1.00  0.00     0.031 A 
ATOM     53  C   UNL A   1      47.221  26.759  32.282  1.00  0.00     0.074 A 
ATOM     54  C   UNL A   1      45.268  27.940  32.633  1.00  0.00     0.049 A 
ATOM     55  N   UNL A   1      47.367  26.569  33.560  1.00  0.00    -0.248 NA
ATOM     56  C   UNL A   1      48.292  26.143  31.509  1.00  0.00     0.031 C 
ATOM     57  C   UNL A   1      46.164  28.925  33.442  1.00  0.00     0.029 A 
ATOM     58  N   UNL A   1      44.024  28.467  33.109  1.00  0.00    -0.354 N 
ATOM     59  C   UNL A   1      47.762  25.283  33.566  1.00  0.00     0.074 A 
ATOM     60  C   UNL A   1      48.564  25.125  32.341  1.00  0.00     0.031 C 
ATOM     61  C   UNL A   1      45.490  29.844  34.174  1.00  0.00     0.029 A 
ATOM     62  C   UNL A   1      44.075  29.643  34.007  1.00  0.00     0.049 A 
ATOM     63  H   UNL A   1      43.165  28.062  32.848  1.00  0.00     0.167 HD
ATOM     64  C   UNL A   1      47.024  24.367  34.239  1.00  0.00     0.031 A 
ATOM     65  C   UNL A   1      43.105  30.262  34.786  1.00  0.00     0.031 A 
ATOM     66  C   UNL A   1      45.629  24.721  34.630  1.00  0.00     0.049 A 
ATOM     67  C   UNL A   1      42.632  29.093  35.575  1.00  0.00     0.074 A 
ATOM     68  C   UNL A   1      44.457  25.125  33.997  1.00  0.00     0.029 A 
ATOM     69  N   UNL A   1      45.243  24.825  35.956  1.00  0.00    -0.354 N 
ATOM     70  N   UNL A   1      43.131  28.655  36.695  1.00  0.00    -0.248 NA
ATOM     71  C   UNL A   1      41.533  28.333  35.010  1.00  0.00     0.031 C 
ATOM     72  C   UNL A   1      43.355  25.060  34.852  1.00  0.00     0.029 A 
ATOM     73  C   UNL A   1      43.960  25.391  36.031  1.00  0.00     0.049 A 
ATOM     74  H   UNL A   1      45.786  24.545  36.727  1.00  0.00     0.167 HD
ATOM     75  C   UNL A   1      42.715  27.336  36.722  1.00  0.00     0.074 A 
ATOM     76  C   UNL A   1      41.601  27.258  35.786  1.00  0.00     0.031 C 
ATOM     77  C   UNL A   1      43.637  26.379  37.025  1.00  0.00     0.031 A 
BRANCH  64  78
ATOM     78  C   UNL A   1      47.773  23.170  34.707  1.00  0.00    -0.014 A 
ATOM     79  C   UNL A   1      47.574  21.885  34.153  1.00  0.00     0.009 A 
ATOM     80  C   UNL A   1      48.867  23.353  35.553  1.00  0.00     0.009 A 
ATOM     81  C   UNL A   1      48.458  20.841  34.390  1.00  0.00     0.001 A 
ATOM     82  C   UNL A   1      49.781  22.321  35.754  1.00  0.00     0.001 A 
ATOM     83  C   UNL A   1      49.582  21.072  35.166  1.00  0.00     0.000 A 
ENDBRANCH  64  78
BRANCH  65  84
ATOM     84  C   UNL A   1      42.634  31.539  35.527  1.00  0.00    -0.014 A 
ATOM     85  C   UNL A   1      42.116  31.807  36.807  1.00  0.00     0.009 A 
ATOM     86  C   UNL A   1      42.707  32.696  34.689  1.00  0.00     0.009 A 
ATOM     87  C   UNL A   1      41.721  33.136  37.191  1.00  0.00     0.001 A 
ATOM     88  C   UNL A   1      42.303  33.993  35.048  1.00  0.00     0.001 A 
ATOM     89  C   UNL A   1      41.815  34.222  36.315  1.00  0.00     0.000 A 
ENDBRANCH  65  84
BRANCH  77  90
ATOM     90  C   UNL A   1      44.567  26.652  38.140  1.00  0.00    -0.014 A 
ATOM     91  C   UNL A   1      45.528  27.643  37.927  1.00  0.00     0.009 A 
ATOM     92  C   UNL A   1      44.379  26.118  39.423  1.00  0.00     0.009 A 
ATOM     93  C   UNL A   1      46.224  28.167  39.006  1.00  0.00     0.001 A 
ATOM     94  C   UNL A   1      45.037  26.683  40.508  1.00  0.00     0.001 A 
ATOM     95  C   UNL A   1      45.950  27.716  40.298  1.00  0.00     0.000 A 
ENDBRANCH  77  90
ENDBRANCH  51  52
ENDBRANCH  43  46
ENDBRANCH  41  42
ENDBRANCH  40  41
ENDBRANCH  39  40
ENDBRANCH   1  39
TORSDOF 20
ENDMDL
MODEL 3
REMARK VINA RESULT:      -9.9      2.489      4.217
REMARK SMILES Cc1c(CC(=O)N[C@@H](CCO)C(=O)NCCCCNC(=O)c2ccc(-c3c4nc(c(-c5ccccc5)c5ccc([nH]5)c(-c5ccccc5)c5nc(c(-c6ccccc6)c6ccc3[nH]6)C=C5)C=C4)cc2)cc(-c2ccc(S(C)(=O)=O)cc2)n1-c1ccc(F)cc1
REMARK SMILES IDX 15 1 14 2 12 3 13 4 8 6 7 7 5 8 6 9 4 11 3 12 1 13 2 14
REMARK SMILES IDX 82 15 70 16 71 17 83 18 84 19 89 20 85 21 88 22 86 23 87 24
REMARK SMILES IDX 72 25 73 26 81 27 74 28 80 29 75 30 76 31 77 32 78 33 79 34
REMARK SMILES IDX 9 35 10 36 11 37 16 39 17 40 18 41 19 42 20 43 21 45 22 46
REMARK SMILES IDX 23 47 69 48 24 49 68 50 25 51 26 52 27 53 62 54 28 55 67 56
REMARK SMILES IDX 61 57 63 58 29 59 66 60 60 61 59 62 30 64 52 65 37 66 51 67
REMARK SMILES IDX 38 68 41 69 50 70 64 71 39 72 40 73 49 75 65 76 42 77 31 78
REMARK SMILES IDX 32 79 36 80 33 81 35 82 34 83 53 84 54 85 58 86 55 87 57 88
REMARK SMILES IDX 56 89 43 90 44 91 48 92 45 93 47 94 46 95
REMARK H PARENT 14 5 7 10 11 38 19 44 63 63 41 74
REMARK Flexibility Score: inf
ROOT
ATOM      1  C   UNL A   1      38.045  21.255  25.271  1.00  0.00     0.116 C 
ENDROOT
BRANCH   1   2
ATOM      2  N   UNL A   1      37.503  22.558  24.935  1.00  0.00    -0.354 N 
ATOM      3  C   UNL A   1      36.239  23.029  24.741  1.00  0.00     0.242 C 
ATOM      4  O   UNL A   1      36.116  24.256  24.855  1.00  0.00    -0.273 OA
ATOM      5  H   UNL A   1      38.194  23.249  24.825  1.00  0.00     0.163 HD
BRANCH   3   6
ATOM      6  C   UNL A   1      34.964  22.177  24.497  1.00  0.00     0.173 C 
BRANCH   6   7
ATOM      7  N   UNL A   1      34.420  22.284  23.146  1.00  0.00    -0.344 N 
ATOM      8  C   UNL A   1      33.145  22.633  22.776  1.00  0.00     0.225 C 
ATOM      9  O   UNL A   1      32.922  22.795  21.573  1.00  0.00    -0.275 OA
ATOM     10  H   UNL A   1      35.044  22.082  22.410  1.00  0.00     0.164 HD
BRANCH   8  11
ATOM     11  C   UNL A   1      32.040  22.837  23.814  1.00  0.00     0.137 C 
BRANCH  11  12
ATOM     12  C   UNL A   1      31.752  24.283  24.105  1.00  0.00    -0.017 A 
ATOM     13  C   UNL A   1      33.414  24.701  26.038  1.00  0.00     0.065 C 
ATOM     14  C   UNL A   1      32.379  25.103  25.036  1.00  0.00     0.024 A 
ATOM     15  N   UNL A   1      31.837  26.381  24.933  1.00  0.00    -0.314 N 
ATOM     16  C   UNL A   1      30.757  25.074  23.471  1.00  0.00     0.033 A 
ATOM     17  C   UNL A   1      30.859  26.374  23.937  1.00  0.00     0.053 A 
BRANCH  15  18
ATOM     18  C   UNL A   1      32.206  27.513  25.710  1.00  0.00     0.046 A 
ATOM     19  C   UNL A   1      31.375  27.926  26.761  1.00  0.00     0.029 A 
ATOM     20  C   UNL A   1      33.374  28.224  25.404  1.00  0.00     0.029 A 
ATOM     21  C   UNL A   1      31.721  29.045  27.515  1.00  0.00     0.041 A 
ATOM     22  C   UNL A   1      33.702  29.355  26.153  1.00  0.00     0.041 A 
ATOM     23  C   UNL A   1      32.877  29.752  27.202  1.00  0.00     0.123 A 
ATOM     24  F   UNL A   1      33.200  30.834  27.921  1.00  0.00    -0.207 F 
ENDBRANCH  15  18
BRANCH  17  25
ATOM     25  C   UNL A   1      30.173  27.561  23.409  1.00  0.00    -0.001 A 
ATOM     26  C   UNL A   1      30.886  28.556  22.720  1.00  0.00     0.011 A 
ATOM     27  C   UNL A   1      28.786  27.696  23.553  1.00  0.00     0.011 A 
ATOM     28  C   UNL A   1      30.232  29.680  22.207  1.00  0.00     0.021 A 
ATOM     29  C   UNL A   1      28.125  28.819  23.046  1.00  0.00     0.021 A 
ATOM     30  C   UNL A   1      28.854  29.810  22.385  1.00  0.00     0.067 A 
BRANCH  30  31
ATOM     31  S   UNL A   1      28.016  31.225  21.709  1.00  0.00     0.175 S 
ATOM     32  C   UNL A   1      29.024  32.603  22.190  1.00  0.00     0.163 C 
ATOM     33  O   UNL A   1      28.083  31.099  20.258  1.00  0.00    -0.224 OA
ATOM     34  O   UNL A   1      26.746  31.354  22.386  1.00  0.00    -0.224 OA
ENDBRANCH  30  31
ENDBRANCH  17  25
ENDBRANCH  11  12
ENDBRANCH   8  11
ENDBRANCH   6   7
BRANCH   6  35
ATOM     35  C   UNL A   1      34.956  20.741  25.053  1.00  0.00     0.063 C 
BRANCH  35  36
ATOM     36  C   UNL A   1      33.726  20.281  25.813  1.00  0.00     0.158 C 
BRANCH  36  37
ATOM     37  O   UNL A   1      33.129  21.325  26.565  1.00  0.00    -0.396 OA
ATOM     38  H   UNL A   1      33.389  21.242  27.496  1.00  0.00     0.210 HD
ENDBRANCH  36  37
ENDBRANCH  35  36
ENDBRANCH   6  35
ENDBRANCH   3   6
ENDBRANCH   1   2
BRANCH   1  39
ATOM     39  C   UNL A   1      39.329  21.285  26.119  1.00  0.00     0.023 C 
BRANCH  39  40
ATOM     40  C   UNL A   1      40.380  20.119  26.116  1.00  0.00     0.023 C 
BRANCH  40  41
ATOM     41  C   UNL A   1      41.725  20.153  26.925  1.00  0.00     0.116 C 
BRANCH  41  42
ATOM     42  N   UNL A   1      42.950  19.980  26.085  1.00  0.00    -0.352 N 
ATOM     43  C   UNL A   1      44.038  20.681  25.549  1.00  0.00     0.251 C 
ATOM     44  H   UNL A   1      43.015  19.037  25.811  1.00  0.00     0.163 HD
ATOM     45  O   UNL A   1      44.778  19.973  24.847  1.00  0.00    -0.269 OA
BRANCH  43  46
ATOM     46  C   UNL A   1      44.511  22.138  25.696  1.00  0.00     0.039 A 
ATOM     47  C   UNL A   1      44.564  22.797  26.957  1.00  0.00     0.014 A 
ATOM     48  C   UNL A   1      44.546  23.045  24.670  1.00  0.00     0.014 A 
ATOM     49  C   UNL A   1      44.702  24.281  27.183  1.00  0.00     0.010 A 
ATOM     50  C   UNL A   1      44.631  24.509  24.918  1.00  0.00     0.010 A 
ATOM     51  C   UNL A   1      44.718  25.274  26.168  1.00  0.00    -0.014 A 
BRANCH  51  52
ATOM     52  C   UNL A   1      44.251  26.971  26.533  1.00  0.00     0.031 A 
ATOM     53  C   UNL A   1      45.292  27.824  25.840  1.00  0.00     0.074 A 
ATOM     54  C   UNL A   1      43.606  27.952  27.412  1.00  0.00     0.049 A 
ATOM     55  N   UNL A   1      46.125  28.413  26.647  1.00  0.00    -0.248 NA
ATOM     56  C   UNL A   1      45.912  27.477  24.567  1.00  0.00     0.031 C 
ATOM     57  C   UNL A   1      43.797  29.495  27.299  1.00  0.00     0.029 A 
ATOM     58  N   UNL A   1      42.810  28.001  28.602  1.00  0.00    -0.354 N 
ATOM     59  C   UNL A   1      47.226  27.671  26.434  1.00  0.00     0.074 A 
ATOM     60  C   UNL A   1      47.166  27.298  25.011  1.00  0.00     0.031 C 
ATOM     61  C   UNL A   1      43.159  30.222  28.248  1.00  0.00     0.029 A 
ATOM     62  C   UNL A   1      42.463  29.336  29.141  1.00  0.00     0.049 A 
ATOM     63  H   UNL A   1      42.504  27.177  29.046  1.00  0.00     0.167 HD
ATOM     64  C   UNL A   1      47.794  27.016  27.476  1.00  0.00     0.031 A 
ATOM     65  C   UNL A   1      41.897  29.735  30.347  1.00  0.00     0.031 A 
ATOM     66  C   UNL A   1      46.996  26.827  28.721  1.00  0.00     0.049 A 
ATOM     67  C   UNL A   1      42.838  29.079  31.295  1.00  0.00     0.074 A 
ATOM     68  C   UNL A   1      45.783  26.250  29.085  1.00  0.00     0.029 A 
ATOM     69  N   UNL A   1      47.365  27.406  29.923  1.00  0.00    -0.354 N 
ATOM     70  N   UNL A   1      43.953  29.572  31.752  1.00  0.00    -0.248 NA
ATOM     71  C   UNL A   1      42.501  27.731  31.712  1.00  0.00     0.031 C 
ATOM     72  C   UNL A   1      45.657  26.133  30.471  1.00  0.00     0.029 A 
ATOM     73  C   UNL A   1      46.327  27.259  30.857  1.00  0.00     0.049 A 
ATOM     74  H   UNL A   1      48.225  27.853  30.096  1.00  0.00     0.167 HD
ATOM     75  C   UNL A   1      44.655  28.442  32.130  1.00  0.00     0.074 A 
ATOM     76  C   UNL A   1      43.658  27.387  32.263  1.00  0.00     0.031 C 
ATOM     77  C   UNL A   1      45.956  28.334  31.738  1.00  0.00     0.031 A 
BRANCH  64  78
ATOM     78  C   UNL A   1      49.249  26.741  27.333  1.00  0.00    -0.014 A 
ATOM     79  C   UNL A   1      50.198  27.153  28.297  1.00  0.00     0.009 A 
ATOM     80  C   UNL A   1      49.671  25.855  26.343  1.00  0.00     0.009 A 
ATOM     81  C   UNL A   1      51.495  26.660  28.304  1.00  0.00     0.001 A 
ATOM     82  C   UNL A   1      50.957  25.322  26.375  1.00  0.00     0.001 A 
ATOM     83  C   UNL A   1      51.864  25.717  27.359  1.00  0.00     0.000 A 
ENDBRANCH  64  78
BRANCH  65  84
ATOM     84  C   UNL A   1      41.125  30.820  31.140  1.00  0.00    -0.014 A 
ATOM     85  C   UNL A   1      41.040  31.182  32.496  1.00  0.00     0.009 A 
ATOM     86  C   UNL A   1      40.273  31.593  30.289  1.00  0.00     0.009 A 
ATOM     87  C   UNL A   1      40.172  32.243  32.934  1.00  0.00     0.001 A 
ATOM     88  C   UNL A   1      39.407  32.615  30.711  1.00  0.00     0.001 A 
ATOM     89  C   UNL A   1      39.361  32.955  32.045  1.00  0.00     0.000 A 
ENDBRANCH  65  84
BRANCH  77  90
ATOM     90  C   UNL A   1      46.808  29.536  31.851  1.00  0.00    -0.014 A 
ATOM     91  C   UNL A   1      47.669  29.594  32.948  1.00  0.00     0.009 A 
ATOM     92  C   UNL A   1      46.922  30.476  30.816  1.00  0.00     0.009 A 
ATOM     93  C   UNL A   1      48.702  30.520  32.962  1.00  0.00     0.001 A 
ATOM     94  C   UNL A   1      47.989  31.365  30.806  1.00  0.00     0.001 A 
ATOM     95  C   UNL A   1      48.886  31.377  31.875  1.00  0.00     0.000 A 
ENDBRANCH  77  90
ENDBRANCH  51  52
ENDBRANCH  43  46
ENDBRANCH  41  42
ENDBRANCH  40  41
ENDBRANCH  39  40
ENDBRANCH   1  39
TORSDOF 20
ENDMDL
