MODEL 1
REMARK VINA RESULT:     -11.2      0.000      0.000
REMARK SMILES CCC(=O)Nc1ccc(I)cc1C(=O)NCCCCNC(=O)c1ccc(-c2c3nc(c(-c4ccccc4)c4ccc([nH]4)c(-c4ccccc4)c4nc(c(-c5ccccc5)c5ccc2[nH]5)C=C4)C=C3)cc1
REMARK SMILES IDX 17 1 16 2 15 3 13 4 14 5 12 7 6 8 7 9 8 10 11 11 9 12 10 13
REMARK SMILES IDX 5 14 3 15 4 16 2 18 1 19 18 20 19 21 20 22 21 23 22 25 23 26
REMARK SMILES IDX 24 27 70 28 25 29 69 30 26 31 27 32 28 33 63 34 29 35 68 36
REMARK SMILES IDX 62 37 64 38 30 39 67 40 61 41 60 42 31 44 53 45 38 46 52 47
REMARK SMILES IDX 39 48 42 49 51 50 65 51 40 52 41 53 50 55 66 56 43 57 32 58
REMARK SMILES IDX 33 59 37 60 34 61 36 62 35 63 54 64 55 65 59 66 56 67 58 68
REMARK SMILES IDX 57 69 44 70 45 71 49 72 46 73 48 74 47 75
REMARK H PARENT 15 6 5 17 20 24 64 43 42 54
REMARK Flexibility Score: inf
ROOT
ATOM      1  C   UNL A   1      37.144  21.217  24.457  1.00  0.00     0.023 C 
ENDROOT
BRANCH   1   2
ATOM      2  C   UNL A   1      36.862  22.332  25.455  1.00  0.00     0.116 C 
BRANCH   2   3
ATOM      3  N   UNL A   1      35.964  22.014  26.539  1.00  0.00    -0.352 N 
ATOM      4  C   UNL A   1      34.640  21.640  26.522  1.00  0.00     0.253 C 
ATOM      5  O   UNL A   1      34.122  21.359  27.604  1.00  0.00    -0.269 OA
ATOM      6  H   UNL A   1      36.364  22.075  27.437  1.00  0.00     0.163 HD
BRANCH   4   7
ATOM      7  C   UNL A   1      33.772  21.624  25.303  1.00  0.00     0.064 A 
ATOM      8  C   UNL A   1      32.937  20.586  24.857  1.00  0.00     0.054 A 
ATOM      9  C   UNL A   1      32.141  20.774  23.715  1.00  0.00     0.028 A 
ATOM     10  C   UNL A   1      32.188  21.958  22.984  1.00  0.00     0.017 A 
ATOM     11  C   UNL A   1      33.809  22.820  24.552  1.00  0.00     0.030 A 
ATOM     12  C   UNL A   1      33.030  22.978  23.403  1.00  0.00     0.014 A 
ATOM     13  I   UNL A   1      33.097  24.755  22.330  1.00  0.00    -0.044 I 
BRANCH   8  14
ATOM     14  N   UNL A   1      32.733  19.398  25.570  1.00  0.00    -0.325 N 
ATOM     15  C   UNL A   1      33.191  18.143  25.244  1.00  0.00     0.224 C 
ATOM     16  O   UNL A   1      32.807  17.177  25.905  1.00  0.00    -0.275 OA
ATOM     17  H   UNL A   1      32.203  19.469  26.397  1.00  0.00     0.169 HD
BRANCH  15  18
ATOM     18  C   UNL A   1      34.309  17.993  24.217  1.00  0.00     0.097 C 
ATOM     19  C   UNL A   1      34.036  16.980  23.127  1.00  0.00     0.014 C 
ENDBRANCH  15  18
ENDBRANCH   8  14
ENDBRANCH   4   7
ENDBRANCH   2   3
ENDBRANCH   1   2
BRANCH   1  20
ATOM     20  C   UNL A   1      37.897  19.999  24.983  1.00  0.00     0.023 C 
BRANCH  20  21
ATOM     21  C   UNL A   1      39.112  20.266  25.867  1.00  0.00     0.116 C 
BRANCH  21  22
ATOM     22  N   UNL A   1      40.137  19.234  25.812  1.00  0.00    -0.352 N 
ATOM     23  C   UNL A   1      41.486  19.294  26.077  1.00  0.00     0.251 C 
ATOM     24  H   UNL A   1      39.811  18.345  25.540  1.00  0.00     0.163 HD
ATOM     25  O   UNL A   1      42.191  18.305  25.888  1.00  0.00    -0.269 OA
BRANCH  23  26
ATOM     26  C   UNL A   1      42.117  20.552  26.538  1.00  0.00     0.039 A 
ATOM     27  C   UNL A   1      42.849  21.310  25.619  1.00  0.00     0.014 A 
ATOM     28  C   UNL A   1      41.994  20.992  27.856  1.00  0.00     0.014 A 
ATOM     29  C   UNL A   1      43.363  22.555  25.995  1.00  0.00     0.010 A 
ATOM     30  C   UNL A   1      42.419  22.273  28.202  1.00  0.00     0.010 A 
ATOM     31  C   UNL A   1      43.104  23.073  27.275  1.00  0.00    -0.014 A 
BRANCH  31  32
ATOM     32  C   UNL A   1      43.526  24.448  27.652  1.00  0.00     0.031 A 
ATOM     33  C   UNL A   1      42.501  25.492  28.008  1.00  0.00     0.074 A 
ATOM     34  C   UNL A   1      44.832  24.784  27.602  1.00  0.00     0.049 A 
ATOM     35  N   UNL A   1      42.678  26.755  28.307  1.00  0.00    -0.248 NA
ATOM     36  C   UNL A   1      41.091  25.071  27.997  1.00  0.00     0.031 C 
ATOM     37  C   UNL A   1      45.926  23.890  27.213  1.00  0.00     0.029 A 
ATOM     38  N   UNL A   1      45.460  25.975  27.872  1.00  0.00    -0.354 N 
ATOM     39  C   UNL A   1      41.406  27.282  28.489  1.00  0.00     0.074 A 
ATOM     40  C   UNL A   1      40.465  26.217  28.221  1.00  0.00     0.031 C 
ATOM     41  C   UNL A   1      47.090  24.553  27.302  1.00  0.00     0.029 A 
ATOM     42  C   UNL A   1      46.824  25.928  27.716  1.00  0.00     0.049 A 
ATOM     43  H   UNL A   1      44.978  26.786  28.154  1.00  0.00     0.167 HD
ATOM     44  C   UNL A   1      41.049  28.533  28.867  1.00  0.00     0.031 A 
ATOM     45  C   UNL A   1      47.760  26.881  27.885  1.00  0.00     0.031 A 
ATOM     46  C   UNL A   1      41.981  29.588  29.163  1.00  0.00     0.049 A 
ATOM     47  C   UNL A   1      47.340  28.254  28.330  1.00  0.00     0.074 A 
ATOM     48  C   UNL A   1      41.717  30.865  29.628  1.00  0.00     0.029 A 
ATOM     49  N   UNL A   1      43.355  29.488  29.023  1.00  0.00    -0.354 N 
ATOM     50  N   UNL A   1      46.137  28.711  28.580  1.00  0.00    -0.248 NA
ATOM     51  C   UNL A   1      48.412  29.240  28.531  1.00  0.00     0.031 C 
ATOM     52  C   UNL A   1      42.932  31.553  29.726  1.00  0.00     0.029 A 
ATOM     53  C   UNL A   1      43.953  30.687  29.373  1.00  0.00     0.049 A 
ATOM     54  H   UNL A   1      43.836  28.684  28.721  1.00  0.00     0.167 HD
ATOM     55  C   UNL A   1      46.309  30.024  28.994  1.00  0.00     0.074 A 
ATOM     56  C   UNL A   1      47.733  30.286  28.979  1.00  0.00     0.031 C 
ATOM     57  C   UNL A   1      45.371  30.933  29.354  1.00  0.00     0.031 A 
BRANCH  44  58
ATOM     58  C   UNL A   1      39.579  28.828  28.982  1.00  0.00    -0.014 A 
ATOM     59  C   UNL A   1      38.899  28.680  30.201  1.00  0.00     0.009 A 
ATOM     60  C   UNL A   1      38.871  29.294  27.862  1.00  0.00     0.009 A 
ATOM     61  C   UNL A   1      37.531  28.954  30.287  1.00  0.00     0.001 A 
ATOM     62  C   UNL A   1      37.511  29.596  27.959  1.00  0.00     0.001 A 
ATOM     63  C   UNL A   1      36.841  29.415  29.169  1.00  0.00     0.000 A 
ENDBRANCH  44  58
BRANCH  45  64
ATOM     64  C   UNL A   1      49.196  26.569  27.656  1.00  0.00    -0.014 A 
ATOM     65  C   UNL A   1      49.769  26.754  26.388  1.00  0.00     0.009 A 
ATOM     66  C   UNL A   1      49.994  26.070  28.697  1.00  0.00     0.009 A 
ATOM     67  C   UNL A   1      51.105  26.416  26.159  1.00  0.00     0.001 A 
ATOM     68  C   UNL A   1      51.337  25.760  28.471  1.00  0.00     0.001 A 
ATOM     69  C   UNL A   1      51.889  25.922  27.202  1.00  0.00     0.000 A 
ENDBRANCH  45  64
BRANCH  57  70
ATOM     70  C   UNL A   1      45.860  32.283  29.797  1.00  0.00    -0.014 A 
ATOM     71  C   UNL A   1      46.187  32.538  31.138  1.00  0.00     0.009 A 
ATOM     72  C   UNL A   1      46.022  33.307  28.851  1.00  0.00     0.009 A 
ATOM     73  C   UNL A   1      46.631  33.803  31.528  1.00  0.00     0.001 A 
ATOM     74  C   UNL A   1      46.494  34.562  29.238  1.00  0.00     0.001 A 
ATOM     75  C   UNL A   1      46.788  34.812  30.579  1.00  0.00     0.000 A 
ENDBRANCH  57  70
ENDBRANCH  31  32
ENDBRANCH  23  26
ENDBRANCH  21  22
ENDBRANCH  20  21
ENDBRANCH   1  20
TORSDOF 13
ENDMDL
MODEL 2
REMARK VINA RESULT:     -11.2      6.311     10.912
REMARK SMILES CCC(=O)Nc1ccc(I)cc1C(=O)NCCCCNC(=O)c1ccc(-c2c3nc(c(-c4ccccc4)c4ccc([nH]4)c(-c4ccccc4)c4nc(c(-c5ccccc5)c5ccc2[nH]5)C=C4)C=C3)cc1
REMARK SMILES IDX 17 1 16 2 15 3 13 4 14 5 12 7 6 8 7 9 8 10 11 11 9 12 10 13
REMARK SMILES IDX 5 14 3 15 4 16 2 18 1 19 18 20 19 21 20 22 21 23 22 25 23 26
REMARK SMILES IDX 24 27 70 28 25 29 69 30 26 31 27 32 28 33 63 34 29 35 68 36
REMARK SMILES IDX 62 37 64 38 30 39 67 40 61 41 60 42 31 44 53 45 38 46 52 47
REMARK SMILES IDX 39 48 42 49 51 50 65 51 40 52 41 53 50 55 66 56 43 57 32 58
REMARK SMILES IDX 33 59 37 60 34 61 36 62 35 63 54 64 55 65 59 66 56 67 58 68
REMARK SMILES IDX 57 69 44 70 45 71 49 72 46 73 48 74 47 75
REMARK H PARENT 15 6 5 17 20 24 64 43 42 54
REMARK Flexibility Score: inf
ROOT
ATOM      1  C   UNL A   1      31.641  30.375  26.380  1.00  0.00     0.023 C 
ENDROOT
BRANCH   1   2
ATOM      2  C   UNL A   1      33.035  29.807  26.152  1.00  0.00     0.116 C 
BRANCH   2   3
ATOM      3  N   UNL A   1      33.472  29.704  24.780  1.00  0.00    -0.352 N 
ATOM      4  C   UNL A   1      32.965  28.968  23.734  1.00  0.00     0.253 C 
ATOM      5  O   UNL A   1      33.498  29.116  22.633  1.00  0.00    -0.269 OA
ATOM      6  H   UNL A   1      34.262  30.248  24.557  1.00  0.00     0.163 HD
BRANCH   4   7
ATOM      7  C   UNL A   1      31.872  27.953  23.854  1.00  0.00     0.064 A 
ATOM      8  C   UNL A   1      30.672  27.895  23.126  1.00  0.00     0.054 A 
ATOM      9  C   UNL A   1      29.783  26.825  23.331  1.00  0.00     0.028 A 
ATOM     10  C   UNL A   1      30.046  25.835  24.275  1.00  0.00     0.017 A 
ATOM     11  C   UNL A   1      32.124  26.941  24.807  1.00  0.00     0.030 A 
ATOM     12  C   UNL A   1      31.216  25.901  25.017  1.00  0.00     0.014 A 
ATOM     13  I   UNL A   1      31.625  24.421  26.416  1.00  0.00    -0.044 I 
BRANCH   8  14
ATOM     14  N   UNL A   1      30.357  28.775  22.083  1.00  0.00    -0.325 N 
ATOM     15  C   UNL A   1      29.543  29.881  22.146  1.00  0.00     0.224 C 
ATOM     16  O   UNL A   1      29.257  30.473  21.104  1.00  0.00    -0.275 OA
ATOM     17  H   UNL A   1      30.762  28.579  21.208  1.00  0.00     0.169 HD
BRANCH  15  18
ATOM     18  C   UNL A   1      29.182  30.474  23.505  1.00  0.00     0.097 C 
ATOM     19  C   UNL A   1      27.789  31.060  23.589  1.00  0.00     0.014 C 
ENDBRANCH  15  18
ENDBRANCH   8  14
ENDBRANCH   4   7
ENDBRANCH   2   3
ENDBRANCH   1   2
BRANCH   1  20
ATOM     20  C   UNL A   1      31.527  31.892  26.494  1.00  0.00     0.023 C 
BRANCH  20  21
ATOM     21  C   UNL A   1      32.628  32.612  27.268  1.00  0.00     0.116 C 
BRANCH  21  22
ATOM     22  N   UNL A   1      32.315  33.989  27.619  1.00  0.00    -0.352 N 
ATOM     23  C   UNL A   1      32.935  34.854  28.493  1.00  0.00     0.251 C 
ATOM     24  H   UNL A   1      31.531  34.364  27.156  1.00  0.00     0.163 HD
ATOM     25  O   UNL A   1      32.450  35.965  28.699  1.00  0.00    -0.269 OA
BRANCH  23  26
ATOM     26  C   UNL A   1      34.152  34.450  29.231  1.00  0.00     0.039 A 
ATOM     27  C   UNL A   1      34.012  33.934  30.524  1.00  0.00     0.014 A 
ATOM     28  C   UNL A   1      35.423  34.569  28.669  1.00  0.00     0.014 A 
ATOM     29  C   UNL A   1      35.130  33.443  31.203  1.00  0.00     0.010 A 
ATOM     30  C   UNL A   1      36.520  33.990  29.304  1.00  0.00     0.010 A 
ATOM     31  C   UNL A   1      36.387  33.414  30.577  1.00  0.00    -0.014 A 
BRANCH  31  32
ATOM     32  C   UNL A   1      37.561  32.776  31.228  1.00  0.00     0.031 A 
ATOM     33  C   UNL A   1      38.219  31.572  30.607  1.00  0.00     0.074 A 
ATOM     34  C   UNL A   1      37.994  33.232  32.421  1.00  0.00     0.049 A 
ATOM     35  N   UNL A   1      39.215  30.850  31.058  1.00  0.00    -0.248 NA
ATOM     36  C   UNL A   1      37.667  31.098  29.327  1.00  0.00     0.031 C 
ATOM     37  C   UNL A   1      37.410  34.350  33.167  1.00  0.00     0.029 A 
ATOM     38  N   UNL A   1      39.023  32.802  33.223  1.00  0.00    -0.354 N 
ATOM     39  C   UNL A   1      39.387  29.826  30.136  1.00  0.00     0.074 A 
ATOM     40  C   UNL A   1      38.365  29.989  29.127  1.00  0.00     0.031 C 
ATOM     41  C   UNL A   1      38.109  34.539  34.298  1.00  0.00     0.029 A 
ATOM     42  C   UNL A   1      39.165  33.534  34.378  1.00  0.00     0.049 A 
ATOM     43  H   UNL A   1      39.605  32.043  32.992  1.00  0.00     0.167 HD
ATOM     44  C   UNL A   1      40.324  28.847  30.116  1.00  0.00     0.031 A 
ATOM     45  C   UNL A   1      40.044  33.412  35.391  1.00  0.00     0.031 A 
ATOM     46  C   UNL A   1      41.361  28.697  31.102  1.00  0.00     0.049 A 
ATOM     47  C   UNL A   1      41.090  32.334  35.332  1.00  0.00     0.074 A 
ATOM     48  C   UNL A   1      42.402  27.785  31.125  1.00  0.00     0.029 A 
ATOM     49  N   UNL A   1      41.488  29.479  32.238  1.00  0.00    -0.354 N 
ATOM     50  N   UNL A   1      41.290  31.425  34.408  1.00  0.00    -0.248 NA
ATOM     51  C   UNL A   1      42.042  32.276  36.451  1.00  0.00     0.031 C 
ATOM     52  C   UNL A   1      43.133  27.986  32.301  1.00  0.00     0.029 A 
ATOM     53  C   UNL A   1      42.578  29.058  32.981  1.00  0.00     0.049 A 
ATOM     54  H   UNL A   1      40.893  30.225  32.481  1.00  0.00     0.167 HD
ATOM     55  C   UNL A   1      42.406  30.708  34.819  1.00  0.00     0.074 A 
ATOM     56  C   UNL A   1      42.849  31.298  36.065  1.00  0.00     0.031 C 
ATOM     57  C   UNL A   1      43.008  29.654  34.218  1.00  0.00     0.031 A 
BRANCH  44  58
ATOM     58  C   UNL A   1      40.268  27.859  28.985  1.00  0.00    -0.014 A 
ATOM     59  C   UNL A   1      40.943  28.095  27.776  1.00  0.00     0.009 A 
ATOM     60  C   UNL A   1      39.558  26.658  29.142  1.00  0.00     0.009 A 
ATOM     61  C   UNL A   1      40.875  27.167  26.734  1.00  0.00     0.001 A 
ATOM     62  C   UNL A   1      39.517  25.719  28.110  1.00  0.00     0.001 A 
ATOM     63  C   UNL A   1      40.166  25.979  26.904  1.00  0.00     0.000 A 
ENDBRANCH  44  58
BRANCH  45  64
ATOM     64  C   UNL A   1      39.993  34.350  36.543  1.00  0.00    -0.014 A 
ATOM     65  C   UNL A   1      39.254  34.026  37.691  1.00  0.00     0.009 A 
ATOM     66  C   UNL A   1      40.666  35.580  36.493  1.00  0.00     0.009 A 
ATOM     67  C   UNL A   1      39.165  34.927  38.755  1.00  0.00     0.001 A 
ATOM     68  C   UNL A   1      40.599  36.467  37.571  1.00  0.00     0.001 A 
ATOM     69  C   UNL A   1      39.840  36.146  38.695  1.00  0.00     0.000 A 
ENDBRANCH  45  64
BRANCH  57  70
ATOM     70  C   UNL A   1      44.235  29.096  34.882  1.00  0.00    -0.014 A 
ATOM     71  C   UNL A   1      45.508  29.633  34.635  1.00  0.00     0.009 A 
ATOM     72  C   UNL A   1      44.110  28.035  35.792  1.00  0.00     0.009 A 
ATOM     73  C   UNL A   1      46.635  29.092  35.257  1.00  0.00     0.001 A 
ATOM     74  C   UNL A   1      45.234  27.516  36.436  1.00  0.00     0.001 A 
ATOM     75  C   UNL A   1      46.497  28.038  36.160  1.00  0.00     0.000 A 
ENDBRANCH  57  70
ENDBRANCH  31  32
ENDBRANCH  23  26
ENDBRANCH  21  22
ENDBRANCH  20  21
ENDBRANCH   1  20
TORSDOF 13
ENDMDL
MODEL 3
REMARK VINA RESULT:     -11.1      6.217     10.328
REMARK SMILES CCC(=O)Nc1ccc(I)cc1C(=O)NCCCCNC(=O)c1ccc(-c2c3nc(c(-c4ccccc4)c4ccc([nH]4)c(-c4ccccc4)c4nc(c(-c5ccccc5)c5ccc2[nH]5)C=C4)C=C3)cc1
REMARK SMILES IDX 17 1 16 2 15 3 13 4 14 5 12 7 6 8 7 9 8 10 11 11 9 12 10 13
REMARK SMILES IDX 5 14 3 15 4 16 2 18 1 19 18 20 19 21 20 22 21 23 22 25 23 26
REMARK SMILES IDX 24 27 70 28 25 29 69 30 26 31 27 32 28 33 63 34 29 35 68 36
REMARK SMILES IDX 62 37 64 38 30 39 67 40 61 41 60 42 31 44 53 45 38 46 52 47
REMARK SMILES IDX 39 48 42 49 51 50 65 51 40 52 41 53 50 55 66 56 43 57 32 58
REMARK SMILES IDX 33 59 37 60 34 61 36 62 35 63 54 64 55 65 59 66 56 67 58 68
REMARK SMILES IDX 57 69 44 70 45 71 49 72 46 73 48 74 47 75
REMARK H PARENT 15 6 5 17 20 24 64 43 42 54
REMARK Flexibility Score: inf
ROOT
ATOM      1  C   UNL A   1      31.477  30.492  26.213  1.00  0.00     0.023 C 
ENDROOT
BRANCH   1   2
ATOM      2  C   UNL A   1      32.877  29.900  26.122  1.00  0.00     0.116 C 
BRANCH   2   3
ATOM      3  N   UNL A   1      33.407  29.701  24.794  1.00  0.00    -0.352 N 
ATOM      4  C   UNL A   1      32.927  28.955  23.743  1.00  0.00     0.253 C 
ATOM      5  O   UNL A   1      33.551  29.013  22.682  1.00  0.00    -0.269 OA
ATOM      6  H   UNL A   1      34.251  30.176  24.612  1.00  0.00     0.163 HD
BRANCH   4   7
ATOM      7  C   UNL A   1      31.754  28.029  23.818  1.00  0.00     0.064 A 
ATOM      8  C   UNL A   1      30.544  28.117  23.110  1.00  0.00     0.054 A 
ATOM      9  C   UNL A   1      29.573  27.113  23.263  1.00  0.00     0.028 A 
ATOM     10  C   UNL A   1      29.764  26.045  24.136  1.00  0.00     0.017 A 
ATOM     11  C   UNL A   1      31.934  26.940  24.699  1.00  0.00     0.030 A 
ATOM     12  C   UNL A   1      30.945  25.966  24.859  1.00  0.00     0.014 A 
ATOM     13  I   UNL A   1      31.247  24.369  26.152  1.00  0.00    -0.044 I 
BRANCH   8  14
ATOM     14  N   UNL A   1      30.290  29.086  22.131  1.00  0.00    -0.325 N 
ATOM     15  C   UNL A   1      29.340  30.079  22.171  1.00  0.00     0.224 C 
ATOM     16  O   UNL A   1      29.152  30.767  21.166  1.00  0.00    -0.275 OA
ATOM     17  H   UNL A   1      30.855  29.053  21.325  1.00  0.00     0.169 HD
BRANCH  15  18
ATOM     18  C   UNL A   1      28.688  30.444  23.501  1.00  0.00     0.097 C 
ATOM     19  C   UNL A   1      27.686  31.576  23.425  1.00  0.00     0.014 C 
ENDBRANCH  15  18
ENDBRANCH   8  14
ENDBRANCH   4   7
ENDBRANCH   2   3
ENDBRANCH   1   2
BRANCH   1  20
ATOM     20  C   UNL A   1      31.381  31.992  26.470  1.00  0.00     0.023 C 
BRANCH  20  21
ATOM     21  C   UNL A   1      32.544  32.642  27.215  1.00  0.00     0.116 C 
BRANCH  21  22
ATOM     22  N   UNL A   1      32.303  34.017  27.626  1.00  0.00    -0.352 N 
ATOM     23  C   UNL A   1      32.977  34.817  28.522  1.00  0.00     0.251 C 
ATOM     24  H   UNL A   1      31.531  34.447  27.192  1.00  0.00     0.163 HD
ATOM     25  O   UNL A   1      32.549  35.940  28.781  1.00  0.00    -0.269 OA
BRANCH  23  26
ATOM     26  C   UNL A   1      34.185  34.326  29.223  1.00  0.00     0.039 A 
ATOM     27  C   UNL A   1      34.028  33.658  30.441  1.00  0.00     0.014 A 
ATOM     28  C   UNL A   1      35.463  34.510  28.696  1.00  0.00     0.014 A 
ATOM     29  C   UNL A   1      35.138  33.087  31.071  1.00  0.00     0.010 A 
ATOM     30  C   UNL A   1      36.553  33.859  29.271  1.00  0.00     0.010 A 
ATOM     31  C   UNL A   1      36.403  33.134  30.463  1.00  0.00    -0.014 A 
BRANCH  31  32
ATOM     32  C   UNL A   1      37.569  32.422  31.048  1.00  0.00     0.031 A 
ATOM     33  C   UNL A   1      38.206  32.915  32.320  1.00  0.00     0.074 A 
ATOM     34  C   UNL A   1      38.107  31.371  30.396  1.00  0.00     0.049 A 
ATOM     35  N   UNL A   1      39.262  32.457  32.947  1.00  0.00    -0.248 NA
ATOM     36  C   UNL A   1      37.598  34.095  32.956  1.00  0.00     0.031 C 
ATOM     37  C   UNL A   1      37.630  30.825  29.123  1.00  0.00     0.029 A 
ATOM     38  N   UNL A   1      39.182  30.577  30.712  1.00  0.00    -0.354 N 
ATOM     39  C   UNL A   1      39.459  33.308  34.027  1.00  0.00     0.074 A 
ATOM     40  C   UNL A   1      38.446  34.336  33.945  1.00  0.00     0.031 C 
ATOM     41  C   UNL A   1      38.386  29.769  28.784  1.00  0.00     0.029 A 
ATOM     42  C   UNL A   1      39.425  29.584  29.794  1.00  0.00     0.049 A 
ATOM     43  H   UNL A   1      39.728  30.706  31.522  1.00  0.00     0.167 HD
ATOM     44  C   UNL A   1      40.385  33.232  35.012  1.00  0.00     0.031 A 
ATOM     45  C   UNL A   1      40.375  28.631  29.762  1.00  0.00     0.031 A 
ATOM     46  C   UNL A   1      41.377  32.195  35.115  1.00  0.00     0.049 A 
ATOM     47  C   UNL A   1      41.375  28.552  30.882  1.00  0.00     0.074 A 
ATOM     48  C   UNL A   1      42.308  31.989  36.119  1.00  0.00     0.029 A 
ATOM     49  N   UNL A   1      41.566  31.190  34.181  1.00  0.00    -0.354 N 
ATOM     50  N   UNL A   1      41.493  29.315  31.941  1.00  0.00    -0.248 NA
ATOM     51  C   UNL A   1      42.365  27.467  30.808  1.00  0.00     0.031 C 
ATOM     52  C   UNL A   1      43.091  30.885  35.768  1.00  0.00     0.029 A 
ATOM     53  C   UNL A   1      42.613  30.373  34.574  1.00  0.00     0.049 A 
ATOM     54  H   UNL A   1      41.036  31.074  33.360  1.00  0.00     0.167 HD
ATOM     55  C   UNL A   1      42.548  28.787  32.673  1.00  0.00     0.074 A 
ATOM     56  C   UNL A   1      43.025  27.629  31.946  1.00  0.00     0.031 C 
ATOM     57  C   UNL A   1      43.076  29.223  33.842  1.00  0.00     0.031 A 
BRANCH  44  58
ATOM     58  C   UNL A   1      40.366  34.306  36.065  1.00  0.00    -0.014 A 
ATOM     59  C   UNL A   1      41.143  35.469  35.933  1.00  0.00     0.009 A 
ATOM     60  C   UNL A   1      39.534  34.169  37.187  1.00  0.00     0.009 A 
ATOM     61  C   UNL A   1      41.116  36.453  36.924  1.00  0.00     0.001 A 
ATOM     62  C   UNL A   1      39.487  35.169  38.160  1.00  0.00     0.001 A 
ATOM     63  C   UNL A   1      40.286  36.305  38.033  1.00  0.00     0.000 A 
ENDBRANCH  44  58
BRANCH  45  64
ATOM     64  C   UNL A   1      40.418  27.653  28.643  1.00  0.00    -0.014 A 
ATOM     65  C   UNL A   1      41.154  27.934  27.482  1.00  0.00     0.009 A 
ATOM     66  C   UNL A   1      39.710  26.444  28.722  1.00  0.00     0.009 A 
ATOM     67  C   UNL A   1      41.157  27.039  26.410  1.00  0.00     0.001 A 
ATOM     68  C   UNL A   1      39.738  25.537  27.660  1.00  0.00     0.001 A 
ATOM     69  C   UNL A   1      40.451  25.839  26.501  1.00  0.00     0.000 A 
ENDBRANCH  45  64
BRANCH  57  70
ATOM     70  C   UNL A   1      44.205  28.421  34.425  1.00  0.00    -0.014 A 
ATOM     71  C   UNL A   1      43.964  27.346  35.294  1.00  0.00     0.009 A 
ATOM     72  C   UNL A   1      45.529  28.730  34.076  1.00  0.00     0.009 A 
ATOM     73  C   UNL A   1      45.030  26.621  35.831  1.00  0.00     0.001 A 
ATOM     74  C   UNL A   1      46.591  27.985  34.591  1.00  0.00     0.001 A 
ATOM     75  C   UNL A   1      46.340  26.937  35.476  1.00  0.00     0.000 A 
ENDBRANCH  57  70
ENDBRANCH  31  32
ENDBRANCH  23  26
ENDBRANCH  21  22
ENDBRANCH  20  21
ENDBRANCH   1  20
TORSDOF 13
ENDMDL
