MODEL 1
REMARK VINA RESULT:     -10.8      0.000      0.000
REMARK SMILES CCOc1ccc(-c2nnc3ccc(S[C@@H](CC)C(=O)NCCCCNC(=O)c4ccc(-c5c6nc(c(-c7ccccc7)c7ccc([nH]7)c(-c7ccccc7)c7nc(c(-c8ccccc8)c8ccc5[nH]8)C=C7)C=C6)cc4)nn23)cc1
REMARK SMILES IDX 22 1 21 2 19 3 20 4 16 6 15 7 14 8 8 9 9 10 78 11 10 12
REMARK SMILES IDX 11 13 77 14 12 15 13 16 7 17 4 18 5 19 80 20 6 21 79 22 3 23
REMARK SMILES IDX 2 24 1 25 17 26 18 27 23 28 24 29 25 30 26 31 27 32 28 34
REMARK SMILES IDX 29 35 30 36 76 37 31 38 75 39 32 40 33 41 34 42 69 43 35 44
REMARK SMILES IDX 74 45 68 46 70 47 36 48 73 49 67 50 66 51 37 53 59 54 44 55
REMARK SMILES IDX 58 56 45 57 48 58 57 59 71 60 46 61 47 62 56 64 72 65 49 66
REMARK SMILES IDX 38 67 39 68 43 69 40 70 42 71 41 72 60 73 61 74 65 75 62 76
REMARK SMILES IDX 64 77 63 78 50 79 51 80 55 81 52 82 54 83 53 84
REMARK H PARENT 21 5 26 33 70 52 48 63
REMARK Flexibility Score: inf
ROOT
ATOM      1  C   UNL A   1      33.067  28.590  25.643  1.00  0.00     0.116 C 
ENDROOT
BRANCH   1   2
ATOM      2  N   UNL A   1      33.818  28.793  24.432  1.00  0.00    -0.355 N 
ATOM      3  C   UNL A   1      33.599  28.460  23.142  1.00  0.00     0.233 C 
ATOM      4  O   UNL A   1      34.529  28.751  22.374  1.00  0.00    -0.274 OA
ATOM      5  H   UNL A   1      34.666  29.274  24.573  1.00  0.00     0.163 HD
BRANCH   3   6
ATOM      6  C   UNL A   1      32.291  27.909  22.561  1.00  0.00     0.142 C 
BRANCH   6   7
ATOM      7  S   UNL A   1      32.002  26.129  22.493  1.00  0.00    -0.091 SA
BRANCH   7   8
ATOM      8  C   UNL A   1      31.738  25.370  24.031  1.00  0.00     0.118 A 
ATOM      9  C   UNL A   1      33.222  23.240  26.484  1.00  0.00     0.185 A 
ATOM     10  N   UNL A   1      32.559  22.910  27.581  1.00  0.00    -0.128 NA
ATOM     11  N   UNL A   1      32.442  24.108  25.739  1.00  0.00    -0.192 N 
ATOM     12  N   UNL A   1      31.306  23.467  27.519  1.00  0.00    -0.128 NA
ATOM     13  C   UNL A   1      31.218  24.108  26.379  1.00  0.00     0.178 A 
ATOM     14  N   UNL A   1      32.756  24.779  24.579  1.00  0.00    -0.158 NA
ATOM     15  C   UNL A   1      30.135  24.715  25.719  1.00  0.00     0.054 A 
ATOM     16  C   UNL A   1      30.346  25.297  24.532  1.00  0.00     0.041 A 
BRANCH   9  17
ATOM     17  C   UNL A   1      34.471  22.634  26.043  1.00  0.00     0.021 A 
ATOM     18  C   UNL A   1      36.937  21.515  25.349  1.00  0.00     0.119 A 
ATOM     19  C   UNL A   1      36.894  22.808  25.860  1.00  0.00     0.047 A 
ATOM     20  C   UNL A   1      35.767  20.775  25.188  1.00  0.00     0.047 A 
ATOM     21  C   UNL A   1      35.660  23.370  26.189  1.00  0.00     0.016 A 
ATOM     22  C   UNL A   1      34.533  21.337  25.526  1.00  0.00     0.016 A 
BRANCH  18  23
ATOM     23  O   UNL A   1      38.154  20.936  25.127  1.00  0.00    -0.494 OA
BRANCH  23  24
ATOM     24  C   UNL A   1      39.214  21.628  25.797  1.00  0.00     0.226 C 
ATOM     25  C   UNL A   1      40.153  20.640  26.469  1.00  0.00     0.049 C 
ENDBRANCH  23  24
ENDBRANCH  18  23
ENDBRANCH   9  17
ENDBRANCH   7   8
ENDBRANCH   6   7
BRANCH   6  26
ATOM     26  C   UNL A   1      31.142  28.933  22.467  1.00  0.00     0.021 C 
ATOM     27  C   UNL A   1      29.763  28.571  22.968  1.00  0.00     0.005 C 
ENDBRANCH   6  26
ENDBRANCH   3   6
ENDBRANCH   1   2
BRANCH   1  28
ATOM     28  C   UNL A   1      32.166  29.793  25.928  1.00  0.00     0.023 C 
BRANCH  28  29
ATOM     29  C   UNL A   1      32.406  30.476  27.273  1.00  0.00     0.023 C 
BRANCH  29  30
ATOM     30  C   UNL A   1      33.321  31.694  27.242  1.00  0.00     0.116 C 
BRANCH  30  31
ATOM     31  N   UNL A   1      32.689  32.958  27.587  1.00  0.00    -0.352 N 
ATOM     32  C   UNL A   1      33.217  33.984  28.341  1.00  0.00     0.251 C 
ATOM     33  H   UNL A   1      31.780  33.097  27.239  1.00  0.00     0.163 HD
ATOM     34  O   UNL A   1      32.619  35.044  28.486  1.00  0.00    -0.269 OA
BRANCH  32  35
ATOM     35  C   UNL A   1      34.499  33.761  29.033  1.00  0.00     0.039 A 
ATOM     36  C   UNL A   1      34.496  33.008  30.209  1.00  0.00     0.014 A 
ATOM     37  C   UNL A   1      35.697  34.176  28.452  1.00  0.00     0.014 A 
ATOM     38  C   UNL A   1      35.709  32.585  30.751  1.00  0.00     0.010 A 
ATOM     39  C   UNL A   1      36.898  33.678  28.943  1.00  0.00     0.010 A 
ATOM     40  C   UNL A   1      36.915  32.867  30.088  1.00  0.00    -0.014 A 
BRANCH  40  41
ATOM     41  C   UNL A   1      38.198  32.290  30.560  1.00  0.00     0.031 A 
ATOM     42  C   UNL A   1      38.714  31.009  29.969  1.00  0.00     0.074 A 
ATOM     43  C   UNL A   1      38.860  32.883  31.574  1.00  0.00     0.049 A 
ATOM     44  N   UNL A   1      39.793  30.336  30.276  1.00  0.00    -0.248 NA
ATOM     45  C   UNL A   1      37.895  30.386  28.916  1.00  0.00     0.031 C 
ATOM     46  C   UNL A   1      38.428  34.092  32.281  1.00  0.00     0.029 A 
ATOM     47  N   UNL A   1      40.041  32.545  32.188  1.00  0.00    -0.354 N 
ATOM     48  C   UNL A   1      39.769  29.201  29.475  1.00  0.00     0.074 A 
ATOM     49  C   UNL A   1      38.545  29.251  28.707  1.00  0.00     0.031 C 
ATOM     50  C   UNL A   1      39.350  34.415  33.204  1.00  0.00     0.029 A 
ATOM     51  C   UNL A   1      40.417  33.422  33.177  1.00  0.00     0.049 A 
ATOM     52  H   UNL A   1      40.567  31.751  31.943  1.00  0.00     0.167 HD
ATOM     53  C   UNL A   1      40.694  28.219  29.368  1.00  0.00     0.031 A 
ATOM     54  C   UNL A   1      41.506  33.429  33.968  1.00  0.00     0.031 A 
ATOM     55  C   UNL A   1      41.923  28.182  30.114  1.00  0.00     0.049 A 
ATOM     56  C   UNL A   1      42.535  32.347  33.805  1.00  0.00     0.074 A 
ATOM     57  C   UNL A   1      42.958  27.269  30.027  1.00  0.00     0.029 A 
ATOM     58  N   UNL A   1      42.283  29.106  31.082  1.00  0.00    -0.354 N 
ATOM     59  N   UNL A   1      42.536  31.325  32.984  1.00  0.00    -0.248 NA
ATOM     60  C   UNL A   1      43.721  32.428  34.670  1.00  0.00     0.031 C 
ATOM     61  C   UNL A   1      43.928  27.618  30.972  1.00  0.00     0.029 A 
ATOM     62  C   UNL A   1      43.516  28.774  31.615  1.00  0.00     0.049 A 
ATOM     63  H   UNL A   1      41.741  29.883  31.352  1.00  0.00     0.167 HD
ATOM     64  C   UNL A   1      43.729  30.654  33.218  1.00  0.00     0.074 A 
ATOM     65  C   UNL A   1      44.435  31.398  34.242  1.00  0.00     0.031 C 
ATOM     66  C   UNL A   1      44.198  29.522  32.640  1.00  0.00     0.031 A 
BRANCH  53  67
ATOM     67  C   UNL A   1      40.403  27.103  28.406  1.00  0.00    -0.014 A 
ATOM     68  C   UNL A   1      39.632  25.994  28.792  1.00  0.00     0.009 A 
ATOM     69  C   UNL A   1      40.890  27.167  27.092  1.00  0.00     0.009 A 
ATOM     70  C   UNL A   1      39.389  24.953  27.892  1.00  0.00     0.001 A 
ATOM     71  C   UNL A   1      40.621  26.139  26.186  1.00  0.00     0.001 A 
ATOM     72  C   UNL A   1      39.881  25.028  26.590  1.00  0.00     0.000 A 
ENDBRANCH  53  67
BRANCH  54  73
ATOM     73  C   UNL A   1      41.699  34.515  34.965  1.00  0.00    -0.014 A 
ATOM     74  C   UNL A   1      42.390  35.685  34.617  1.00  0.00     0.009 A 
ATOM     75  C   UNL A   1      41.200  34.384  36.270  1.00  0.00     0.009 A 
ATOM     76  C   UNL A   1      42.604  36.690  35.562  1.00  0.00     0.001 A 
ATOM     77  C   UNL A   1      41.393  35.403  37.206  1.00  0.00     0.001 A 
ATOM     78  C   UNL A   1      42.103  36.550  36.855  1.00  0.00     0.000 A 
ENDBRANCH  54  73
BRANCH  66  79
ATOM     79  C   UNL A   1      45.545  29.035  33.091  1.00  0.00    -0.014 A 
ATOM     80  C   UNL A   1      46.721  29.474  32.464  1.00  0.00     0.009 A 
ATOM     81  C   UNL A   1      45.638  28.146  34.172  1.00  0.00     0.009 A 
ATOM     82  C   UNL A   1      47.964  29.001  32.890  1.00  0.00     0.001 A 
ATOM     83  C   UNL A   1      46.882  27.696  34.612  1.00  0.00     0.001 A 
ATOM     84  C   UNL A   1      48.044  28.116  33.965  1.00  0.00     0.000 A 
ENDBRANCH  66  79
ENDBRANCH  40  41
ENDBRANCH  32  35
ENDBRANCH  30  31
ENDBRANCH  29  30
ENDBRANCH  28  29
ENDBRANCH   1  28
TORSDOF 17
ENDMDL
MODEL 2
REMARK VINA RESULT:     -10.6      1.233      5.976
REMARK SMILES CCOc1ccc(-c2nnc3ccc(S[C@@H](CC)C(=O)NCCCCNC(=O)c4ccc(-c5c6nc(c(-c7ccccc7)c7ccc([nH]7)c(-c7ccccc7)c7nc(c(-c8ccccc8)c8ccc5[nH]8)C=C7)C=C6)cc4)nn23)cc1
REMARK SMILES IDX 22 1 21 2 19 3 20 4 16 6 15 7 14 8 8 9 9 10 78 11 10 12
REMARK SMILES IDX 11 13 77 14 12 15 13 16 7 17 4 18 5 19 80 20 6 21 79 22 3 23
REMARK SMILES IDX 2 24 1 25 17 26 18 27 23 28 24 29 25 30 26 31 27 32 28 34
REMARK SMILES IDX 29 35 30 36 76 37 31 38 75 39 32 40 33 41 34 42 69 43 35 44
REMARK SMILES IDX 74 45 68 46 70 47 36 48 73 49 67 50 66 51 37 53 59 54 44 55
REMARK SMILES IDX 58 56 45 57 48 58 57 59 71 60 46 61 47 62 56 64 72 65 49 66
REMARK SMILES IDX 38 67 39 68 43 69 40 70 42 71 41 72 60 73 61 74 65 75 62 76
REMARK SMILES IDX 64 77 63 78 50 79 51 80 55 81 52 82 54 83 53 84
REMARK H PARENT 21 5 26 33 70 52 48 63
REMARK Flexibility Score: inf
ROOT
ATOM      1  C   UNL A   1      32.813  28.779  25.608  1.00  0.00     0.116 C 
ENDROOT
BRANCH   1   2
ATOM      2  N   UNL A   1      33.726  28.884  24.500  1.00  0.00    -0.355 N 
ATOM      3  C   UNL A   1      33.646  28.526  23.200  1.00  0.00     0.233 C 
ATOM      4  O   UNL A   1      34.687  28.720  22.553  1.00  0.00    -0.274 OA
ATOM      5  H   UNL A   1      34.585  29.303  24.738  1.00  0.00     0.163 HD
BRANCH   3   6
ATOM      6  C   UNL A   1      32.384  28.058  22.468  1.00  0.00     0.142 C 
BRANCH   6   7
ATOM      7  S   UNL A   1      31.967  26.303  22.399  1.00  0.00    -0.091 SA
BRANCH   7   8
ATOM      8  C   UNL A   1      31.359  25.635  23.881  1.00  0.00     0.118 A 
ATOM      9  C   UNL A   1      31.584  22.834  26.083  1.00  0.00     0.185 A 
ATOM     10  N   UNL A   1      30.843  22.775  27.179  1.00  0.00    -0.128 NA
ATOM     11  N   UNL A   1      31.340  24.038  25.447  1.00  0.00    -0.192 N 
ATOM     12  N   UNL A   1      30.034  23.882  27.219  1.00  0.00    -0.128 NA
ATOM     13  C   UNL A   1      30.277  24.585  26.140  1.00  0.00     0.178 A 
ATOM     14  N   UNL A   1      31.948  24.570  24.332  1.00  0.00    -0.158 NA
ATOM     15  C   UNL A   1      29.640  25.707  25.580  1.00  0.00     0.054 A 
ATOM     16  C   UNL A   1      30.114  26.215  24.436  1.00  0.00     0.041 A 
BRANCH   9  17
ATOM     17  C   UNL A   1      32.368  21.733  25.540  1.00  0.00     0.021 A 
ATOM     18  C   UNL A   1      33.884  19.557  24.655  1.00  0.00     0.119 A 
ATOM     19  C   UNL A   1      34.335  20.309  25.735  1.00  0.00     0.047 A 
ATOM     20  C   UNL A   1      32.685  19.874  24.019  1.00  0.00     0.047 A 
ATOM     21  C   UNL A   1      33.585  21.405  26.163  1.00  0.00     0.016 A 
ATOM     22  C   UNL A   1      31.931  20.967  24.454  1.00  0.00     0.016 A 
BRANCH  18  23
ATOM     23  O   UNL A   1      34.569  18.428  24.309  1.00  0.00    -0.494 OA
BRANCH  23  24
ATOM     24  C   UNL A   1      33.703  17.301  24.129  1.00  0.00     0.226 C 
ATOM     25  C   UNL A   1      33.200  16.797  25.471  1.00  0.00     0.049 C 
ENDBRANCH  23  24
ENDBRANCH  18  23
ENDBRANCH   9  17
ENDBRANCH   7   8
ENDBRANCH   6   7
BRANCH   6  26
ATOM     26  C   UNL A   1      31.339  29.162  22.206  1.00  0.00     0.021 C 
ATOM     27  C   UNL A   1      29.891  28.935  22.573  1.00  0.00     0.005 C 
ENDBRANCH   6  26
ENDBRANCH   3   6
ENDBRANCH   1   2
BRANCH   1  28
ATOM     28  C   UNL A   1      32.015  30.074  25.774  1.00  0.00     0.023 C 
BRANCH  28  29
ATOM     29  C   UNL A   1      32.145  30.742  27.141  1.00  0.00     0.023 C 
BRANCH  29  30
ATOM     30  C   UNL A   1      33.121  31.908  27.218  1.00  0.00     0.116 C 
BRANCH  30  31
ATOM     31  N   UNL A   1      32.556  33.168  27.675  1.00  0.00    -0.352 N 
ATOM     32  C   UNL A   1      33.166  34.134  28.447  1.00  0.00     0.251 C 
ATOM     33  H   UNL A   1      31.629  33.352  27.401  1.00  0.00     0.163 HD
ATOM     34  O   UNL A   1      32.614  35.200  28.691  1.00  0.00    -0.269 OA
BRANCH  32  35
ATOM     35  C   UNL A   1      34.485  33.836  29.033  1.00  0.00     0.039 A 
ATOM     36  C   UNL A   1      34.535  33.082  30.207  1.00  0.00     0.014 A 
ATOM     37  C   UNL A   1      35.654  34.182  28.355  1.00  0.00     0.014 A 
ATOM     38  C   UNL A   1      35.760  32.588  30.650  1.00  0.00     0.010 A 
ATOM     39  C   UNL A   1      36.860  33.615  28.749  1.00  0.00     0.010 A 
ATOM     40  C   UNL A   1      36.923  32.802  29.891  1.00  0.00    -0.014 A 
BRANCH  40  41
ATOM     41  C   UNL A   1      38.205  32.151  30.258  1.00  0.00     0.031 A 
ATOM     42  C   UNL A   1      39.160  32.835  31.194  1.00  0.00     0.074 A 
ATOM     43  C   UNL A   1      38.540  30.975  29.689  1.00  0.00     0.049 A 
ATOM     44  N   UNL A   1      40.339  32.441  31.601  1.00  0.00    -0.248 NA
ATOM     45  C   UNL A   1      38.752  34.150  31.715  1.00  0.00     0.031 C 
ATOM     46  C   UNL A   1      37.732  30.242  28.711  1.00  0.00     0.029 A 
ATOM     47  N   UNL A   1      39.655  30.190  29.851  1.00  0.00    -0.354 N 
ATOM     48  C   UNL A   1      40.822  33.467  32.404  1.00  0.00     0.074 A 
ATOM     49  C   UNL A   1      39.833  34.522  32.385  1.00  0.00     0.031 C 
ATOM     50  C   UNL A   1      38.359  29.098  28.391  1.00  0.00     0.029 A 
ATOM     51  C   UNL A   1      39.624  29.031  29.113  1.00  0.00     0.049 A 
ATOM     52  H   UNL A   1      40.404  30.435  30.440  1.00  0.00     0.167 HD
ATOM     53  C   UNL A   1      41.973  33.517  33.115  1.00  0.00     0.031 A 
ATOM     54  C   UNL A   1      40.513  28.023  29.034  1.00  0.00     0.031 A 
ATOM     55  C   UNL A   1      42.944  32.459  33.155  1.00  0.00     0.049 A 
ATOM     56  C   UNL A   1      41.766  28.088  29.860  1.00  0.00     0.074 A 
ATOM     57  C   UNL A   1      44.107  32.382  33.899  1.00  0.00     0.029 A 
ATOM     58  N   UNL A   1      42.862  31.287  32.419  1.00  0.00    -0.354 N 
ATOM     59  N   UNL A   1      42.168  29.029  30.679  1.00  0.00    -0.248 NA
ATOM     60  C   UNL A   1      42.680  26.942  29.762  1.00  0.00     0.031 C 
ATOM     61  C   UNL A   1      44.750  31.180  33.583  1.00  0.00     0.029 A 
ATOM     62  C   UNL A   1      43.963  30.489  32.677  1.00  0.00     0.049 A 
ATOM     63  H   UNL A   1      42.128  31.057  31.803  1.00  0.00     0.167 HD
ATOM     64  C   UNL A   1      43.370  28.580  31.209  1.00  0.00     0.074 A 
ATOM     65  C   UNL A   1      43.620  27.273  30.635  1.00  0.00     0.031 C 
ATOM     66  C   UNL A   1      44.197  29.196  32.089  1.00  0.00     0.031 A 
BRANCH  53  67
ATOM     67  C   UNL A   1      42.236  34.766  33.908  1.00  0.00    -0.014 A 
ATOM     68  C   UNL A   1      41.800  34.888  35.237  1.00  0.00     0.009 A 
ATOM     69  C   UNL A   1      42.945  35.828  33.325  1.00  0.00     0.009 A 
ATOM     70  C   UNL A   1      42.034  36.064  35.954  1.00  0.00     0.001 A 
ATOM     71  C   UNL A   1      43.202  36.991  34.053  1.00  0.00     0.001 A 
ATOM     72  C   UNL A   1      42.736  37.112  35.363  1.00  0.00     0.000 A 
ENDBRANCH  53  67
BRANCH  54  73
ATOM     73  C   UNL A   1      40.237  26.850  28.164  1.00  0.00    -0.014 A 
ATOM     74  C   UNL A   1      39.465  25.780  28.639  1.00  0.00     0.009 A 
ATOM     75  C   UNL A   1      40.751  26.791  26.859  1.00  0.00     0.009 A 
ATOM     76  C   UNL A   1      39.236  24.660  27.836  1.00  0.00     0.001 A 
ATOM     77  C   UNL A   1      40.497  25.681  26.049  1.00  0.00     0.001 A 
ATOM     78  C   UNL A   1      39.749  24.613  26.542  1.00  0.00     0.000 A 
ENDBRANCH  54  73
BRANCH  66  79
ATOM     79  C   UNL A   1      45.435  28.450  32.496  1.00  0.00    -0.014 A 
ATOM     80  C   UNL A   1      45.424  27.569  33.589  1.00  0.00     0.009 A 
ATOM     81  C   UNL A   1      46.619  28.612  31.760  1.00  0.00     0.009 A 
ATOM     82  C   UNL A   1      46.588  26.893  33.959  1.00  0.00     0.001 A 
ATOM     83  C   UNL A   1      47.773  27.914  32.116  1.00  0.00     0.001 A 
ATOM     84  C   UNL A   1      47.760  27.063  33.221  1.00  0.00     0.000 A 
ENDBRANCH  66  79
ENDBRANCH  40  41
ENDBRANCH  32  35
ENDBRANCH  30  31
ENDBRANCH  29  30
ENDBRANCH  28  29
ENDBRANCH   1  28
TORSDOF 17
ENDMDL
MODEL 3
REMARK VINA RESULT:     -10.6      3.422      9.230
REMARK SMILES CCOc1ccc(-c2nnc3ccc(S[C@@H](CC)C(=O)NCCCCNC(=O)c4ccc(-c5c6nc(c(-c7ccccc7)c7ccc([nH]7)c(-c7ccccc7)c7nc(c(-c8ccccc8)c8ccc5[nH]8)C=C7)C=C6)cc4)nn23)cc1
REMARK SMILES IDX 22 1 21 2 19 3 20 4 16 6 15 7 14 8 8 9 9 10 78 11 10 12
REMARK SMILES IDX 11 13 77 14 12 15 13 16 7 17 4 18 5 19 80 20 6 21 79 22 3 23
REMARK SMILES IDX 2 24 1 25 17 26 18 27 23 28 24 29 25 30 26 31 27 32 28 34
REMARK SMILES IDX 29 35 30 36 76 37 31 38 75 39 32 40 33 41 34 42 69 43 35 44
REMARK SMILES IDX 74 45 68 46 70 47 36 48 73 49 67 50 66 51 37 53 59 54 44 55
REMARK SMILES IDX 58 56 45 57 48 58 57 59 71 60 46 61 47 62 56 64 72 65 49 66
REMARK SMILES IDX 38 67 39 68 43 69 40 70 42 71 41 72 60 73 61 74 65 75 62 76
REMARK SMILES IDX 64 77 63 78 50 79 51 80 55 81 52 82 54 83 53 84
REMARK H PARENT 21 5 26 33 70 52 48 63
REMARK Flexibility Score: inf
ROOT
ATOM      1  C   UNL A   1      35.541  21.482  24.956  1.00  0.00     0.116 C 
ENDROOT
BRANCH   1   2
ATOM      2  N   UNL A   1      34.975  21.467  26.280  1.00  0.00    -0.355 N 
ATOM      3  C   UNL A   1      33.713  21.580  26.746  1.00  0.00     0.233 C 
ATOM      4  O   UNL A   1      33.625  21.589  27.983  1.00  0.00    -0.274 OA
ATOM      5  H   UNL A   1      35.646  21.349  26.991  1.00  0.00     0.163 HD
BRANCH   3   6
ATOM      6  C   UNL A   1      32.433  21.554  25.903  1.00  0.00     0.142 C 
BRANCH   6   7
ATOM      7  S   UNL A   1      31.536  23.082  25.557  1.00  0.00    -0.091 SA
BRANCH   7   8
ATOM      8  C   UNL A   1      32.230  24.073  24.313  1.00  0.00     0.118 A 
ATOM      9  C   UNL A   1      33.503  27.332  23.601  1.00  0.00     0.185 A 
ATOM     10  N   UNL A   1      33.946  27.634  22.391  1.00  0.00    -0.128 NA
ATOM     11  N   UNL A   1      33.120  26.002  23.613  1.00  0.00    -0.192 N 
ATOM     12  N   UNL A   1      33.762  26.547  21.574  1.00  0.00    -0.128 NA
ATOM     13  C   UNL A   1      33.192  25.610  22.291  1.00  0.00     0.178 A 
ATOM     14  N   UNL A   1      32.689  25.232  24.671  1.00  0.00    -0.158 NA
ATOM     15  C   UNL A   1      32.632  24.367  21.946  1.00  0.00     0.054 A 
ATOM     16  C   UNL A   1      32.098  23.609  22.912  1.00  0.00     0.041 A 
BRANCH   9  17
ATOM     17  C   UNL A   1      33.271  28.290  24.674  1.00  0.00     0.021 A 
ATOM     18  C   UNL A   1      32.991  30.175  26.720  1.00  0.00     0.119 A 
ATOM     19  C   UNL A   1      34.043  29.267  26.767  1.00  0.00     0.047 A 
ATOM     20  C   UNL A   1      32.083  30.156  25.662  1.00  0.00     0.047 A 
ATOM     21  C   UNL A   1      34.171  28.317  25.754  1.00  0.00     0.016 A 
ATOM     22  C   UNL A   1      32.217  29.208  24.644  1.00  0.00     0.016 A 
BRANCH  18  23
ATOM     23  O   UNL A   1      32.933  31.165  27.658  1.00  0.00    -0.494 OA
BRANCH  23  24
ATOM     24  C   UNL A   1      34.165  31.889  27.760  1.00  0.00     0.226 C 
ATOM     25  C   UNL A   1      34.369  32.396  29.177  1.00  0.00     0.049 C 
ENDBRANCH  23  24
ENDBRANCH  18  23
ENDBRANCH   9  17
ENDBRANCH   7   8
ENDBRANCH   6   7
BRANCH   6  26
ATOM     26  C   UNL A   1      32.239  20.278  25.059  1.00  0.00     0.021 C 
ATOM     27  C   UNL A   1      32.708  20.242  23.623  1.00  0.00     0.005 C 
ENDBRANCH   6  26
ENDBRANCH   3   6
ENDBRANCH   1   2
BRANCH   1  28
ATOM     28  C   UNL A   1      36.821  20.646  24.907  1.00  0.00     0.023 C 
BRANCH  28  29
ATOM     29  C   UNL A   1      38.119  21.443  25.009  1.00  0.00     0.023 C 
BRANCH  29  30
ATOM     30  C   UNL A   1      39.071  21.020  26.120  1.00  0.00     0.116 C 
BRANCH  30  31
ATOM     31  N   UNL A   1      39.891  19.855  25.830  1.00  0.00    -0.352 N 
ATOM     32  C   UNL A   1      41.240  19.695  26.066  1.00  0.00     0.251 C 
ATOM     33  H   UNL A   1      39.429  19.090  25.417  1.00  0.00     0.163 HD
ATOM     34  O   UNL A   1      41.804  18.626  25.860  1.00  0.00    -0.269 OA
BRANCH  32  35
ATOM     35  C   UNL A   1      42.018  20.863  26.516  1.00  0.00     0.039 A 
ATOM     36  C   UNL A   1      42.502  21.750  25.551  1.00  0.00     0.014 A 
ATOM     37  C   UNL A   1      42.147  21.145  27.876  1.00  0.00     0.014 A 
ATOM     38  C   UNL A   1      43.031  22.975  25.955  1.00  0.00     0.010 A 
ATOM     39  C   UNL A   1      42.591  22.402  28.269  1.00  0.00     0.010 A 
ATOM     40  C   UNL A   1      43.024  23.334  27.313  1.00  0.00    -0.014 A 
BRANCH  40  41
ATOM     41  C   UNL A   1      43.432  24.693  27.746  1.00  0.00     0.031 A 
ATOM     42  C   UNL A   1      42.393  25.722  28.087  1.00  0.00     0.074 A 
ATOM     43  C   UNL A   1      44.740  25.021  27.758  1.00  0.00     0.049 A 
ATOM     44  N   UNL A   1      42.555  26.969  28.448  1.00  0.00    -0.248 NA
ATOM     45  C   UNL A   1      40.985  25.306  27.977  1.00  0.00     0.031 C 
ATOM     46  C   UNL A   1      45.844  24.135  27.381  1.00  0.00     0.029 A 
ATOM     47  N   UNL A   1      45.362  26.196  28.103  1.00  0.00    -0.354 N 
ATOM     48  C   UNL A   1      41.275  27.491  28.584  1.00  0.00     0.074 A 
ATOM     49  C   UNL A   1      40.349  26.443  28.217  1.00  0.00     0.031 C 
ATOM     50  C   UNL A   1      47.008  24.784  27.552  1.00  0.00     0.029 A 
ATOM     51  C   UNL A   1      46.733  26.138  28.017  1.00  0.00     0.049 A 
ATOM     52  H   UNL A   1      44.873  27.002  28.383  1.00  0.00     0.167 HD
ATOM     53  C   UNL A   1      40.902  28.723  29.002  1.00  0.00     0.031 A 
ATOM     54  C   UNL A   1      47.664  27.070  28.292  1.00  0.00     0.031 A 
ATOM     55  C   UNL A   1      41.822  29.757  29.391  1.00  0.00     0.049 A 
ATOM     56  C   UNL A   1      47.224  28.419  28.787  1.00  0.00     0.074 A 
ATOM     57  C   UNL A   1      41.543  31.014  29.896  1.00  0.00     0.029 A 
ATOM     58  N   UNL A   1      43.202  29.649  29.321  1.00  0.00    -0.354 N 
ATOM     59  N   UNL A   1      46.010  28.869  28.990  1.00  0.00    -0.248 NA
ATOM     60  C   UNL A   1      48.287  29.382  29.107  1.00  0.00     0.031 C 
ATOM     61  C   UNL A   1      42.756  31.683  30.095  1.00  0.00     0.029 A 
ATOM     62  C   UNL A   1      43.789  30.824  29.756  1.00  0.00     0.049 A 
ATOM     63  H   UNL A   1      43.691  28.854  29.008  1.00  0.00     0.167 HD
ATOM     64  C   UNL A   1      46.162  30.159  29.479  1.00  0.00     0.074 A 
ATOM     65  C   UNL A   1      47.587  30.411  29.564  1.00  0.00     0.031 C 
ATOM     66  C   UNL A   1      45.208  31.057  29.824  1.00  0.00     0.031 A 
BRANCH  53  67
ATOM     67  C   UNL A   1      39.429  29.013  29.057  1.00  0.00    -0.014 A 
ATOM     68  C   UNL A   1      38.755  29.564  27.954  1.00  0.00     0.009 A 
ATOM     69  C   UNL A   1      38.700  28.716  30.219  1.00  0.00     0.009 A 
ATOM     70  C   UNL A   1      37.390  29.849  28.028  1.00  0.00     0.001 A 
ATOM     71  C   UNL A   1      37.329  28.975  30.280  1.00  0.00     0.001 A 
ATOM     72  C   UNL A   1      36.678  29.551  29.189  1.00  0.00     0.000 A 
ENDBRANCH  53  67
BRANCH  54  73
ATOM     73  C   UNL A   1      49.108  26.753  28.136  1.00  0.00    -0.014 A 
ATOM     74  C   UNL A   1      49.747  26.940  26.901  1.00  0.00     0.009 A 
ATOM     75  C   UNL A   1      49.852  26.255  29.216  1.00  0.00     0.009 A 
ATOM     76  C   UNL A   1      51.094  26.608  26.742  1.00  0.00     0.001 A 
ATOM     77  C   UNL A   1      51.206  25.949  29.061  1.00  0.00     0.001 A 
ATOM     78  C   UNL A   1      51.823  26.116  27.823  1.00  0.00     0.000 A 
ENDBRANCH  54  73
BRANCH  66  79
ATOM     79  C   UNL A   1      45.681  32.385  30.343  1.00  0.00    -0.014 A 
ATOM     80  C   UNL A   1      45.882  33.472  29.478  1.00  0.00     0.009 A 
ATOM     81  C   UNL A   1      45.903  32.556  31.718  1.00  0.00     0.009 A 
ATOM     82  C   UNL A   1      46.333  34.695  29.977  1.00  0.00     0.001 A 
ATOM     83  C   UNL A   1      46.328  33.787  32.218  1.00  0.00     0.001 A 
ATOM     84  C   UNL A   1      46.552  34.853  31.346  1.00  0.00     0.000 A 
ENDBRANCH  66  79
ENDBRANCH  40  41
ENDBRANCH  32  35
ENDBRANCH  30  31
ENDBRANCH  29  30
ENDBRANCH  28  29
ENDBRANCH   1  28
TORSDOF 17
ENDMDL
