MODEL 1
REMARK VINA RESULT:     -11.8      0.000      0.000
REMARK SMILES CCOC(=O)c1c(NC(=O)[C@H]2[C@@H]3CC[C@@H](C3)[C@@H]2C(=O)NCCCCNC(=O)c2ccc(-c3c4nc(c(-c5ccccc5)c5ccc([nH]5)c(-c5ccccc5)c5nc(c(-c6ccccc6)c6ccc3[nH]6)C=C5)C=C4)cc2)sc2c1CCCC2
REMARK SMILES IDX 21 1 20 2 18 3 19 4 17 6 11 7 12 8 13 9 16 10 15 11 14 12
REMARK SMILES IDX 9 13 8 14 10 16 7 17 6 18 78 19 76 20 77 21 79 22 82 23
REMARK SMILES IDX 80 24 81 25 4 26 5 27 3 28 2 29 1 30 22 31 23 32 24 33 25 34
REMARK SMILES IDX 26 35 27 37 28 38 29 39 75 40 30 41 74 42 31 43 32 44 33 45
REMARK SMILES IDX 68 46 34 47 73 48 67 49 69 50 35 51 72 52 66 53 65 54 36 56
REMARK SMILES IDX 58 57 43 58 57 59 44 60 47 61 56 62 70 63 45 64 46 65 55 67
REMARK SMILES IDX 71 68 48 69 37 70 38 71 42 72 39 73 41 74 40 75 59 76 60 77
REMARK SMILES IDX 64 78 61 79 63 80 62 81 49 82 50 83 54 84 51 85 53 86 52 87
REMARK H PARENT 20 5 8 15 25 36 69 55 47 66
REMARK Flexibility Score: inf
ROOT
ATOM      1  C   UNL A   1      34.663  24.247  24.005  1.00  0.00     0.116 C 
ENDROOT
BRANCH   1   2
ATOM      2  N   UNL A   1      34.386  25.422  23.151  1.00  0.00    -0.356 N 
ATOM      3  C   UNL A   1      33.643  26.584  23.403  1.00  0.00     0.224 C 
ATOM      4  O   UNL A   1      33.676  27.491  22.571  1.00  0.00    -0.275 OA
ATOM      5  H   UNL A   1      34.791  25.381  22.255  1.00  0.00     0.163 HD
BRANCH   3   6
ATOM      6  C   UNL A   1      32.729  26.669  24.643  1.00  0.00     0.094 C 
ATOM      7  C   UNL A   1      31.644  27.690  24.417  1.00  0.00     0.094 C 
ATOM      8  C   UNL A   1      31.660  28.561  25.701  1.00  0.00     0.002 C 
ATOM      9  C   UNL A   1      33.023  29.285  25.891  1.00  0.00     0.005 C 
ATOM     10  C   UNL A   1      31.765  27.468  26.751  1.00  0.00     0.009 C 
ATOM     11  C   UNL A   1      33.095  26.946  26.150  1.00  0.00     0.002 C 
ATOM     12  C   UNL A   1      33.951  28.175  26.377  1.00  0.00     0.005 C 
BRANCH   7  13
ATOM     13  C   UNL A   1      30.292  27.022  24.236  1.00  0.00     0.229 C 
ATOM     14  N   UNL A   1      29.955  25.711  24.386  1.00  0.00    -0.317 N 
ATOM     15  H   UNL A   1      28.974  25.653  24.331  1.00  0.00     0.170 HD
ATOM     16  O   UNL A   1      29.342  27.766  23.938  1.00  0.00    -0.274 OA
BRANCH  14  17
ATOM     17  C   UNL A   1      30.438  24.410  24.588  1.00  0.00     0.110 A 
ATOM     18  C   UNL A   1      30.847  23.408  25.498  1.00  0.00     0.098 A 
ATOM     19  C   UNL A   1      31.448  22.290  24.781  1.00  0.00    -0.017 A 
ATOM     20  S   UNL A   1      30.680  23.868  22.950  1.00  0.00    -0.122 S 
ATOM     21  C   UNL A   1      31.461  22.463  23.421  1.00  0.00     0.011 A 
ATOM     22  C   UNL A   1      31.999  21.040  25.417  1.00  0.00     0.038 C 
ATOM     23  C   UNL A   1      32.089  21.538  22.431  1.00  0.00     0.047 C 
ATOM     24  C   UNL A   1      32.971  20.317  24.483  1.00  0.00     0.005 C 
ATOM     25  C   UNL A   1      32.383  20.176  23.073  1.00  0.00     0.006 C 
BRANCH  18  26
ATOM     26  C   UNL A   1      30.783  23.218  26.976  1.00  0.00     0.341 C 
ATOM     27  O   UNL A   1      29.882  22.595  27.498  1.00  0.00    -0.246 OA
BRANCH  26  28
ATOM     28  O   UNL A   1      31.939  23.580  27.649  1.00  0.00    -0.462 OA
BRANCH  28  29
ATOM     29  C   UNL A   1      32.852  22.537  28.080  1.00  0.00     0.230 C 
ATOM     30  C   UNL A   1      34.281  22.756  27.586  1.00  0.00     0.049 C 
ENDBRANCH  28  29
ENDBRANCH  26  28
ENDBRANCH  18  26
ENDBRANCH  14  17
ENDBRANCH   7  13
ENDBRANCH   3   6
ENDBRANCH   1   2
BRANCH   1  31
ATOM     31  C   UNL A   1      35.234  22.965  23.362  1.00  0.00     0.023 C 
BRANCH  31  32
ATOM     32  C   UNL A   1      36.610  22.461  23.850  1.00  0.00     0.023 C 
BRANCH  32  33
ATOM     33  C   UNL A   1      36.702  21.658  25.165  1.00  0.00     0.116 C 
BRANCH  33  34
ATOM     34  N   UNL A   1      37.854  20.767  25.292  1.00  0.00    -0.352 N 
ATOM     35  C   UNL A   1      39.085  20.936  25.902  1.00  0.00     0.251 C 
ATOM     36  H   UNL A   1      37.731  19.888  24.868  1.00  0.00     0.163 HD
ATOM     37  O   UNL A   1      39.875  19.994  25.918  1.00  0.00    -0.269 OA
BRANCH  35  38
ATOM     38  C   UNL A   1      39.515  22.233  26.490  1.00  0.00     0.039 A 
ATOM     39  C   UNL A   1      40.549  22.229  27.438  1.00  0.00     0.014 A 
ATOM     40  C   UNL A   1      38.915  23.447  26.151  1.00  0.00     0.014 A 
ATOM     41  C   UNL A   1      41.070  23.435  27.929  1.00  0.00     0.010 A 
ATOM     42  C   UNL A   1      39.471  24.654  26.599  1.00  0.00     0.010 A 
ATOM     43  C   UNL A   1      40.582  24.664  27.458  1.00  0.00    -0.014 A 
BRANCH  43  44
ATOM     44  C   UNL A   1      41.281  25.947  27.764  1.00  0.00     0.031 A 
ATOM     45  C   UNL A   1      40.631  27.018  28.597  1.00  0.00     0.074 A 
ATOM     46  C   UNL A   1      42.486  26.190  27.204  1.00  0.00     0.049 A 
ATOM     47  N   UNL A   1      41.064  28.224  28.876  1.00  0.00    -0.248 NA
ATOM     48  C   UNL A   1      39.316  26.705  29.174  1.00  0.00     0.031 C 
ATOM     49  C   UNL A   1      43.221  25.263  26.341  1.00  0.00     0.029 A 
ATOM     50  N   UNL A   1      43.298  27.298  27.264  1.00  0.00    -0.354 N 
ATOM     51  C   UNL A   1      40.071  28.818  29.646  1.00  0.00     0.074 A 
ATOM     52  C   UNL A   1      38.998  27.852  29.758  1.00  0.00     0.031 C 
ATOM     53  C   UNL A   1      44.380  25.830  25.970  1.00  0.00     0.029 A 
ATOM     54  C   UNL A   1      44.455  27.174  26.529  1.00  0.00     0.049 A 
ATOM     55  H   UNL A   1      43.074  28.103  27.783  1.00  0.00     0.167 HD
ATOM     56  C   UNL A   1      40.056  30.047  30.218  1.00  0.00     0.031 A 
ATOM     57  C   UNL A   1      45.461  28.045  26.316  1.00  0.00     0.031 A 
ATOM     58  C   UNL A   1      41.119  31.014  30.117  1.00  0.00     0.049 A 
ATOM     59  C   UNL A   1      45.412  29.406  26.949  1.00  0.00     0.074 A 
ATOM     60  C   UNL A   1      41.208  32.264  30.706  1.00  0.00     0.029 A 
ATOM     61  N   UNL A   1      42.277  30.841  29.375  1.00  0.00    -0.354 N 
ATOM     62  N   UNL A   1      44.491  29.924  27.724  1.00  0.00    -0.248 NA
ATOM     63  C   UNL A   1      46.549  30.302  26.683  1.00  0.00     0.031 C 
ATOM     64  C   UNL A   1      42.400  32.866  30.286  1.00  0.00     0.029 A 
ATOM     65  C   UNL A   1      43.076  31.970  29.476  1.00  0.00     0.049 A 
ATOM     66  H   UNL A   1      42.500  30.036  28.854  1.00  0.00     0.167 HD
ATOM     67  C   UNL A   1      44.950  31.191  28.062  1.00  0.00     0.074 A 
ATOM     68  C   UNL A   1      46.237  31.359  27.419  1.00  0.00     0.031 C 
ATOM     69  C   UNL A   1      44.355  32.130  28.835  1.00  0.00     0.031 A 
BRANCH  56  70
ATOM     70  C   UNL A   1      38.834  30.427  31.010  1.00  0.00    -0.014 A 
ATOM     71  C   UNL A   1      37.740  31.059  30.396  1.00  0.00     0.009 A 
ATOM     72  C   UNL A   1      38.754  30.108  32.374  1.00  0.00     0.009 A 
ATOM     73  C   UNL A   1      36.608  31.397  31.141  1.00  0.00     0.001 A 
ATOM     74  C   UNL A   1      37.609  30.422  33.111  1.00  0.00     0.001 A 
ATOM     75  C   UNL A   1      36.542  31.075  32.496  1.00  0.00     0.000 A 
ENDBRANCH  56  70
BRANCH  57  76
ATOM     76  C   UNL A   1      46.618  27.654  25.467  1.00  0.00    -0.014 A 
ATOM     77  C   UNL A   1      47.721  26.991  26.030  1.00  0.00     0.009 A 
ATOM     78  C   UNL A   1      46.636  27.955  24.096  1.00  0.00     0.009 A 
ATOM     79  C   UNL A   1      48.827  26.664  25.244  1.00  0.00     0.001 A 
ATOM     80  C   UNL A   1      47.733  27.601  23.308  1.00  0.00     0.001 A 
ATOM     81  C   UNL A   1      48.831  26.965  23.883  1.00  0.00     0.000 A 
ENDBRANCH  57  76
BRANCH  69  82
ATOM     82  C   UNL A   1      45.106  33.411  29.062  1.00  0.00    -0.014 A 
ATOM     83  C   UNL A   1      46.135  33.495  30.014  1.00  0.00     0.009 A 
ATOM     84  C   UNL A   1      44.804  34.541  28.287  1.00  0.00     0.009 A 
ATOM     85  C   UNL A   1      46.824  34.695  30.206  1.00  0.00     0.001 A 
ATOM     86  C   UNL A   1      45.513  35.731  28.461  1.00  0.00     0.001 A 
ATOM     87  C   UNL A   1      46.515  35.810  29.426  1.00  0.00     0.000 A 
ENDBRANCH  69  82
ENDBRANCH  43  44
ENDBRANCH  35  38
ENDBRANCH  33  34
ENDBRANCH  32  33
ENDBRANCH  31  32
ENDBRANCH   1  31
TORSDOF 16
ENDMDL
MODEL 2
REMARK VINA RESULT:     -11.6      3.822      7.364
REMARK SMILES CCOC(=O)c1c(NC(=O)[C@H]2[C@@H]3CC[C@@H](C3)[C@@H]2C(=O)NCCCCNC(=O)c2ccc(-c3c4nc(c(-c5ccccc5)c5ccc([nH]5)c(-c5ccccc5)c5nc(c(-c6ccccc6)c6ccc3[nH]6)C=C5)C=C4)cc2)sc2c1CCCC2
REMARK SMILES IDX 21 1 20 2 18 3 19 4 17 6 11 7 12 8 13 9 16 10 15 11 14 12
REMARK SMILES IDX 9 13 8 14 10 16 7 17 6 18 78 19 76 20 77 21 79 22 82 23
REMARK SMILES IDX 80 24 81 25 4 26 5 27 3 28 2 29 1 30 22 31 23 32 24 33 25 34
REMARK SMILES IDX 26 35 27 37 28 38 29 39 75 40 30 41 74 42 31 43 32 44 33 45
REMARK SMILES IDX 68 46 34 47 73 48 67 49 69 50 35 51 72 52 66 53 65 54 36 56
REMARK SMILES IDX 58 57 43 58 57 59 44 60 47 61 56 62 70 63 45 64 46 65 55 67
REMARK SMILES IDX 71 68 48 69 37 70 38 71 42 72 39 73 41 74 40 75 59 76 60 77
REMARK SMILES IDX 64 78 61 79 63 80 62 81 49 82 50 83 54 84 51 85 53 86 52 87
REMARK H PARENT 20 5 8 15 25 36 69 55 47 66
REMARK Flexibility Score: inf
ROOT
ATOM      1  C   UNL A   1      33.334  29.293  25.595  1.00  0.00     0.116 C 
ENDROOT
BRANCH   1   2
ATOM      2  N   UNL A   1      33.974  29.020  24.292  1.00  0.00    -0.356 N 
ATOM      3  C   UNL A   1      33.720  28.026  23.335  1.00  0.00     0.224 C 
ATOM      4  O   UNL A   1      34.305  28.092  22.254  1.00  0.00    -0.275 OA
ATOM      5  H   UNL A   1      34.703  29.639  24.055  1.00  0.00     0.163 HD
BRANCH   3   6
ATOM      6  C   UNL A   1      32.810  26.829  23.682  1.00  0.00     0.094 C 
ATOM      7  C   UNL A   1      33.642  25.587  23.872  1.00  0.00     0.094 C 
ATOM      8  C   UNL A   1      32.923  24.507  23.021  1.00  0.00     0.002 C 
ATOM      9  C   UNL A   1      32.895  24.885  21.513  1.00  0.00     0.005 C 
ATOM     10  C   UNL A   1      31.483  24.785  23.416  1.00  0.00     0.009 C 
ATOM     11  C   UNL A   1      31.570  26.245  22.905  1.00  0.00     0.002 C 
ATOM     12  C   UNL A   1      31.819  25.964  21.437  1.00  0.00     0.005 C 
BRANCH   7  13
ATOM     13  C   UNL A   1      33.687  25.177  25.335  1.00  0.00     0.229 C 
ATOM     14  N   UNL A   1      34.021  23.975  25.880  1.00  0.00    -0.317 N 
ATOM     15  H   UNL A   1      34.080  24.102  26.854  1.00  0.00     0.170 HD
ATOM     16  O   UNL A   1      33.412  26.059  26.166  1.00  0.00    -0.274 OA
BRANCH  14  17
ATOM     17  C   UNL A   1      34.316  22.630  25.617  1.00  0.00     0.110 A 
ATOM     18  C   UNL A   1      35.227  21.677  25.103  1.00  0.00     0.098 A 
ATOM     19  C   UNL A   1      34.599  20.363  25.035  1.00  0.00    -0.017 A 
ATOM     20  S   UNL A   1      32.839  21.845  26.103  1.00  0.00    -0.122 S 
ATOM     21  C   UNL A   1      33.306  20.357  25.490  1.00  0.00     0.011 A 
ATOM     22  C   UNL A   1      35.261  19.104  24.541  1.00  0.00     0.038 C 
ATOM     23  C   UNL A   1      32.377  19.188  25.461  1.00  0.00     0.047 C 
ATOM     24  C   UNL A   1      34.230  18.048  24.140  1.00  0.00     0.005 C 
ATOM     25  C   UNL A   1      33.153  17.887  25.219  1.00  0.00     0.006 C 
BRANCH  18  26
ATOM     26  C   UNL A   1      36.649  21.695  24.655  1.00  0.00     0.341 C 
ATOM     27  O   UNL A   1      36.982  22.225  23.614  1.00  0.00    -0.246 OA
BRANCH  26  28
ATOM     28  O   UNL A   1      37.558  21.296  25.622  1.00  0.00    -0.462 OA
BRANCH  28  29
ATOM     29  C   UNL A   1      38.736  22.113  25.853  1.00  0.00     0.230 C 
ATOM     30  C   UNL A   1      39.932  21.304  26.355  1.00  0.00     0.049 C 
ENDBRANCH  28  29
ENDBRANCH  26  28
ENDBRANCH  18  26
ENDBRANCH  14  17
ENDBRANCH   7  13
ENDBRANCH   3   6
ENDBRANCH   1   2
BRANCH   1  31
ATOM     31  C   UNL A   1      31.929  29.931  25.627  1.00  0.00     0.023 C 
BRANCH  31  32
ATOM     32  C   UNL A   1      31.676  31.079  26.629  1.00  0.00     0.023 C 
BRANCH  32  33
ATOM     33  C   UNL A   1      32.844  32.000  27.040  1.00  0.00     0.116 C 
BRANCH  33  34
ATOM     34  N   UNL A   1      32.473  33.326  27.529  1.00  0.00    -0.352 N 
ATOM     35  C   UNL A   1      33.122  34.213  28.371  1.00  0.00     0.251 C 
ATOM     36  H   UNL A   1      31.602  33.647  27.200  1.00  0.00     0.163 HD
ATOM     37  O   UNL A   1      32.613  35.311  28.586  1.00  0.00    -0.269 OA
BRANCH  35  38
ATOM     38  C   UNL A   1      34.388  33.867  29.073  1.00  0.00     0.039 A 
ATOM     39  C   UNL A   1      34.313  33.160  30.282  1.00  0.00     0.014 A 
ATOM     40  C   UNL A   1      35.642  34.238  28.585  1.00  0.00     0.014 A 
ATOM     41  C   UNL A   1      35.479  32.707  30.916  1.00  0.00     0.010 A 
ATOM     42  C   UNL A   1      36.805  33.739  29.188  1.00  0.00     0.010 A 
ATOM     43  C   UNL A   1      36.736  32.932  30.335  1.00  0.00    -0.014 A 
BRANCH  43  44
ATOM     44  C   UNL A   1      37.962  32.248  30.845  1.00  0.00     0.031 A 
ATOM     45  C   UNL A   1      38.780  32.831  31.966  1.00  0.00     0.074 A 
ATOM     46  C   UNL A   1      38.398  31.130  30.226  1.00  0.00     0.049 A 
ATOM     47  N   UNL A   1      39.919  32.412  32.461  1.00  0.00    -0.248 NA
ATOM     48  C   UNL A   1      38.264  34.054  32.598  1.00  0.00     0.031 C 
ATOM     49  C   UNL A   1      37.733  30.471  29.099  1.00  0.00     0.029 A 
ATOM     50  N   UNL A   1      39.515  30.358  30.445  1.00  0.00    -0.354 N 
ATOM     51  C   UNL A   1      40.264  33.326  33.451  1.00  0.00     0.074 A 
ATOM     52  C   UNL A   1      39.231  34.341  33.458  1.00  0.00     0.031 C 
ATOM     53  C   UNL A   1      38.440  29.388  28.741  1.00  0.00     0.029 A 
ATOM     54  C   UNL A   1      39.629  29.295  29.579  1.00  0.00     0.049 A 
ATOM     55  H   UNL A   1      40.169  30.547  31.155  1.00  0.00     0.167 HD
ATOM     56  C   UNL A   1      41.333  33.316  34.284  1.00  0.00     0.031 A 
ATOM     57  C   UNL A   1      40.587  28.355  29.459  1.00  0.00     0.031 A 
ATOM     58  C   UNL A   1      42.364  32.309  34.288  1.00  0.00     0.049 A 
ATOM     59  C   UNL A   1      41.770  28.377  30.385  1.00  0.00     0.074 A 
ATOM     60  C   UNL A   1      43.456  32.196  35.133  1.00  0.00     0.029 A 
ATOM     61  N   UNL A   1      42.433  31.244  33.404  1.00  0.00    -0.354 N 
ATOM     62  N   UNL A   1      42.044  29.215  31.355  1.00  0.00    -0.248 NA
ATOM     63  C   UNL A   1      42.772  27.315  30.206  1.00  0.00     0.031 C 
ATOM     64  C   UNL A   1      44.210  31.087  34.731  1.00  0.00     0.029 A 
ATOM     65  C   UNL A   1      43.559  30.481  33.669  1.00  0.00     0.049 A 
ATOM     66  H   UNL A   1      41.778  31.057  32.693  1.00  0.00     0.167 HD
ATOM     67  C   UNL A   1      43.231  28.766  31.918  1.00  0.00     0.074 A 
ATOM     68  C   UNL A   1      43.619  27.574  31.192  1.00  0.00     0.031 C 
ATOM     69  C   UNL A   1      43.937  29.297  32.945  1.00  0.00     0.031 A 
BRANCH  56  70
ATOM     70  C   UNL A   1      41.451  34.446  35.271  1.00  0.00    -0.014 A 
ATOM     71  C   UNL A   1      42.209  35.591  34.975  1.00  0.00     0.009 A 
ATOM     72  C   UNL A   1      40.758  34.389  36.490  1.00  0.00     0.009 A 
ATOM     73  C   UNL A   1      42.301  36.637  35.896  1.00  0.00     0.001 A 
ATOM     74  C   UNL A   1      40.830  35.448  37.398  1.00  0.00     0.001 A 
ATOM     75  C   UNL A   1      41.609  36.566  37.104  1.00  0.00     0.000 A 
ENDBRANCH  56  70
BRANCH  57  76
ATOM     76  C   UNL A   1      40.468  27.297  28.421  1.00  0.00    -0.014 A 
ATOM     77  C   UNL A   1      41.029  27.484  27.148  1.00  0.00     0.009 A 
ATOM     78  C   UNL A   1      39.778  26.104  28.689  1.00  0.00     0.009 A 
ATOM     79  C   UNL A   1      40.878  26.512  26.157  1.00  0.00     0.001 A 
ATOM     80  C   UNL A   1      39.654  25.121  27.705  1.00  0.00     0.001 A 
ATOM     81  C   UNL A   1      40.195  25.330  26.437  1.00  0.00     0.000 A 
ENDBRANCH  57  76
BRANCH  69  82
ATOM     82  C   UNL A   1      45.182  28.571  33.373  1.00  0.00    -0.014 A 
ATOM     83  C   UNL A   1      46.433  28.879  32.816  1.00  0.00     0.009 A 
ATOM     84  C   UNL A   1      45.104  27.589  34.372  1.00  0.00     0.009 A 
ATOM     85  C   UNL A   1      47.578  28.195  33.232  1.00  0.00     0.001 A 
ATOM     86  C   UNL A   1      46.254  26.926  34.805  1.00  0.00     0.001 A 
ATOM     87  C   UNL A   1      47.488  27.223  34.229  1.00  0.00     0.000 A 
ENDBRANCH  69  82
ENDBRANCH  43  44
ENDBRANCH  35  38
ENDBRANCH  33  34
ENDBRANCH  32  33
ENDBRANCH  31  32
ENDBRANCH   1  31
TORSDOF 16
ENDMDL
MODEL 3
REMARK VINA RESULT:     -11.6      0.288      5.660
REMARK SMILES CCOC(=O)c1c(NC(=O)[C@H]2[C@@H]3CC[C@@H](C3)[C@@H]2C(=O)NCCCCNC(=O)c2ccc(-c3c4nc(c(-c5ccccc5)c5ccc([nH]5)c(-c5ccccc5)c5nc(c(-c6ccccc6)c6ccc3[nH]6)C=C5)C=C4)cc2)sc2c1CCCC2
REMARK SMILES IDX 21 1 20 2 18 3 19 4 17 6 11 7 12 8 13 9 16 10 15 11 14 12
REMARK SMILES IDX 9 13 8 14 10 16 7 17 6 18 78 19 76 20 77 21 79 22 82 23
REMARK SMILES IDX 80 24 81 25 4 26 5 27 3 28 2 29 1 30 22 31 23 32 24 33 25 34
REMARK SMILES IDX 26 35 27 37 28 38 29 39 75 40 30 41 74 42 31 43 32 44 33 45
REMARK SMILES IDX 68 46 34 47 73 48 67 49 69 50 35 51 72 52 66 53 65 54 36 56
REMARK SMILES IDX 58 57 43 58 57 59 44 60 47 61 56 62 70 63 45 64 46 65 55 67
REMARK SMILES IDX 71 68 48 69 37 70 38 71 42 72 39 73 41 74 40 75 59 76 60 77
REMARK SMILES IDX 64 78 61 79 63 80 62 81 49 82 50 83 54 84 51 85 53 86 52 87
REMARK H PARENT 20 5 8 15 25 36 69 55 47 66
REMARK Flexibility Score: inf
ROOT
ATOM      1  C   UNL A   1      34.705  24.204  23.855  1.00  0.00     0.116 C 
ENDROOT
BRANCH   1   2
ATOM      2  N   UNL A   1      34.394  25.345  22.969  1.00  0.00    -0.356 N 
ATOM      3  C   UNL A   1      33.652  26.512  23.204  1.00  0.00     0.224 C 
ATOM      4  O   UNL A   1      33.651  27.389  22.339  1.00  0.00    -0.275 OA
ATOM      5  H   UNL A   1      34.770  25.274  22.062  1.00  0.00     0.163 HD
BRANCH   3   6
ATOM      6  C   UNL A   1      32.778  26.636  24.469  1.00  0.00     0.094 C 
ATOM      7  C   UNL A   1      31.688  27.653  24.247  1.00  0.00     0.094 C 
ATOM      8  C   UNL A   1      31.747  28.563  25.503  1.00  0.00     0.002 C 
ATOM      9  C   UNL A   1      33.115  29.289  25.626  1.00  0.00     0.005 C 
ATOM     10  C   UNL A   1      31.883  27.502  26.581  1.00  0.00     0.009 C 
ATOM     11  C   UNL A   1      33.193  26.959  25.955  1.00  0.00     0.002 C 
ATOM     12  C   UNL A   1      34.057  28.192  26.116  1.00  0.00     0.005 C 
BRANCH   7  13
ATOM     13  C   UNL A   1      30.330  26.983  24.130  1.00  0.00     0.229 C 
ATOM     14  N   UNL A   1      29.998  25.676  24.319  1.00  0.00    -0.317 N 
ATOM     15  H   UNL A   1      29.016  25.618  24.301  1.00  0.00     0.170 HD
ATOM     16  O   UNL A   1      29.369  27.721  23.852  1.00  0.00    -0.274 OA
BRANCH  14  17
ATOM     17  C   UNL A   1      30.487  24.379  24.529  1.00  0.00     0.110 A 
ATOM     18  C   UNL A   1      30.906  23.386  25.446  1.00  0.00     0.098 A 
ATOM     19  C   UNL A   1      31.508  22.264  24.736  1.00  0.00    -0.017 A 
ATOM     20  S   UNL A   1      30.725  23.824  22.895  1.00  0.00    -0.122 S 
ATOM     21  C   UNL A   1      31.514  22.426  23.375  1.00  0.00     0.011 A 
ATOM     22  C   UNL A   1      32.068  21.022  25.380  1.00  0.00     0.038 C 
ATOM     23  C   UNL A   1      32.141  21.495  22.389  1.00  0.00     0.047 C 
ATOM     24  C   UNL A   1      33.038  20.296  24.447  1.00  0.00     0.005 C 
ATOM     25  C   UNL A   1      32.444  20.141  23.042  1.00  0.00     0.006 C 
BRANCH  18  26
ATOM     26  C   UNL A   1      30.850  23.209  26.926  1.00  0.00     0.341 C 
ATOM     27  O   UNL A   1      29.966  22.567  27.456  1.00  0.00    -0.246 OA
BRANCH  26  28
ATOM     28  O   UNL A   1      31.997  23.607  27.593  1.00  0.00    -0.462 OA
BRANCH  28  29
ATOM     29  C   UNL A   1      32.960  22.596  27.991  1.00  0.00     0.230 C 
ATOM     30  C   UNL A   1      34.347  22.826  27.393  1.00  0.00     0.049 C 
ENDBRANCH  28  29
ENDBRANCH  26  28
ENDBRANCH  18  26
ENDBRANCH  14  17
ENDBRANCH   7  13
ENDBRANCH   3   6
ENDBRANCH   1   2
BRANCH   1  31
ATOM     31  C   UNL A   1      35.360  22.941  23.255  1.00  0.00     0.023 C 
BRANCH  31  32
ATOM     32  C   UNL A   1      36.722  22.489  23.828  1.00  0.00     0.023 C 
BRANCH  32  33
ATOM     33  C   UNL A   1      36.767  21.725  25.167  1.00  0.00     0.116 C 
BRANCH  33  34
ATOM     34  N   UNL A   1      37.933  20.867  25.376  1.00  0.00    -0.352 N 
ATOM     35  C   UNL A   1      39.148  21.101  25.996  1.00  0.00     0.251 C 
ATOM     36  H   UNL A   1      37.835  19.959  25.010  1.00  0.00     0.163 HD
ATOM     37  O   UNL A   1      39.955  20.178  26.091  1.00  0.00    -0.269 OA
BRANCH  35  38
ATOM     38  C   UNL A   1      39.543  22.443  26.503  1.00  0.00     0.039 A 
ATOM     39  C   UNL A   1      40.619  22.531  27.398  1.00  0.00     0.014 A 
ATOM     40  C   UNL A   1      38.871  23.610  26.139  1.00  0.00     0.014 A 
ATOM     41  C   UNL A   1      41.103  23.782  27.808  1.00  0.00     0.010 A 
ATOM     42  C   UNL A   1      39.387  24.861  26.504  1.00  0.00     0.010 A 
ATOM     43  C   UNL A   1      40.536  24.963  27.306  1.00  0.00    -0.014 A 
BRANCH  43  44
ATOM     44  C   UNL A   1      41.186  26.290  27.519  1.00  0.00     0.031 A 
ATOM     45  C   UNL A   1      42.552  26.595  26.967  1.00  0.00     0.074 A 
ATOM     46  C   UNL A   1      40.575  27.204  28.303  1.00  0.00     0.049 A 
ATOM     47  N   UNL A   1      43.295  27.662  27.142  1.00  0.00    -0.248 NA
ATOM     48  C   UNL A   1      43.176  25.561  26.129  1.00  0.00     0.031 C 
ATOM     49  C   UNL A   1      39.267  27.034  28.941  1.00  0.00     0.029 A 
ATOM     50  N   UNL A   1      40.980  28.454  28.711  1.00  0.00    -0.354 N 
ATOM     51  C   UNL A   1      44.476  27.423  26.450  1.00  0.00     0.074 A 
ATOM     52  C   UNL A   1      44.365  26.094  25.885  1.00  0.00     0.031 C 
ATOM     53  C   UNL A   1      38.970  28.141  29.640  1.00  0.00     0.029 A 
ATOM     54  C   UNL A   1      40.079  29.083  29.539  1.00  0.00     0.049 A 
ATOM     55  H   UNL A   1      41.833  28.859  28.437  1.00  0.00     0.167 HD
ATOM     56  C   UNL A   1      45.549  28.236  26.288  1.00  0.00     0.031 A 
ATOM     57  C   UNL A   1      40.137  30.277  30.160  1.00  0.00     0.031 A 
ATOM     58  C   UNL A   1      45.668  29.560  26.842  1.00  0.00     0.049 A 
ATOM     59  C   UNL A   1      41.344  31.152  29.976  1.00  0.00     0.074 A 
ATOM     60  C   UNL A   1      46.699  30.472  26.686  1.00  0.00     0.029 A 
ATOM     61  N   UNL A   1      44.726  30.162  27.662  1.00  0.00    -0.354 N 
ATOM     62  N   UNL A   1      42.424  30.931  29.267  1.00  0.00    -0.248 NA
ATOM     63  C   UNL A   1      41.337  32.447  30.674  1.00  0.00     0.031 C 
ATOM     64  C   UNL A   1      46.402  31.608  27.447  1.00  0.00     0.029 A 
ATOM     65  C   UNL A   1      45.162  31.424  28.035  1.00  0.00     0.049 A 
ATOM     66  H   UNL A   1      43.873  29.754  27.937  1.00  0.00     0.167 HD
ATOM     67  C   UNL A   1      43.208  32.068  29.409  1.00  0.00     0.074 A 
ATOM     68  C   UNL A   1      42.476  32.983  30.261  1.00  0.00     0.031 C 
ATOM     69  C   UNL A   1      44.428  32.328  28.880  1.00  0.00     0.031 A 
BRANCH  56  70
ATOM     70  C   UNL A   1      46.701  27.708  25.475  1.00  0.00    -0.014 A 
ATOM     71  C   UNL A   1      47.701  26.917  26.064  1.00  0.00     0.009 A 
ATOM     72  C   UNL A   1      46.762  27.963  24.096  1.00  0.00     0.009 A 
ATOM     73  C   UNL A   1      48.758  26.426  25.295  1.00  0.00     0.001 A 
ATOM     74  C   UNL A   1      47.806  27.448  23.325  1.00  0.00     0.001 A 
ATOM     75  C   UNL A   1      48.808  26.688  23.927  1.00  0.00     0.000 A 
ENDBRANCH  56  70
BRANCH  57  76
ATOM     76  C   UNL A   1      39.006  30.730  31.013  1.00  0.00    -0.014 A 
ATOM     77  C   UNL A   1      37.953  31.476  30.460  1.00  0.00     0.009 A 
ATOM     78  C   UNL A   1      38.981  30.436  32.386  1.00  0.00     0.009 A 
ATOM     79  C   UNL A   1      36.914  31.941  31.268  1.00  0.00     0.001 A 
ATOM     80  C   UNL A   1      37.925  30.879  33.185  1.00  0.00     0.001 A 
ATOM     81  C   UNL A   1      36.898  31.639  32.628  1.00  0.00     0.000 A 
ENDBRANCH  57  76
BRANCH  69  82
ATOM     82  C   UNL A   1      45.033  33.672  29.175  1.00  0.00    -0.014 A 
ATOM     83  C   UNL A   1      45.879  33.865  30.279  1.00  0.00     0.009 A 
ATOM     84  C   UNL A   1      44.780  34.752  28.315  1.00  0.00     0.009 A 
ATOM     85  C   UNL A   1      46.434  35.122  30.532  1.00  0.00     0.001 A 
ATOM     86  C   UNL A   1      45.359  36.000  28.554  1.00  0.00     0.001 A 
ATOM     87  C   UNL A   1      46.178  36.186  29.667  1.00  0.00     0.000 A 
ENDBRANCH  69  82
ENDBRANCH  43  44
ENDBRANCH  35  38
ENDBRANCH  33  34
ENDBRANCH  32  33
ENDBRANCH  31  32
ENDBRANCH   1  31
TORSDOF 16
ENDMDL
