MODEL 1
REMARK VINA RESULT:     -13.3      0.000      0.000
REMARK SMILES CC1=C(C)C[C@@H](C(=O)NCCCCNC(=O)c2ccc(-c3c4nc(c(-c5ccccc5)c5ccc([nH]5)c(-c5ccccc5)c5nc(c(-c6ccccc6)c6ccc3[nH]6)C=C5)C=C4)cc2)[C@@H](C(=O)N2CCN(c3cccc(C(F)(F)F)c3)CC2)C1
REMARK SMILES IDX 11 1 10 2 9 3 7 4 8 5 6 7 1 8 2 9 3 10 84 11 4 12 5 13 65 14
REMARK SMILES IDX 66 15 67 16 68 17 69 18 83 19 70 20 82 21 71 22 72 23 73 24
REMARK SMILES IDX 81 25 74 26 76 27 75 28 77 29 78 30 79 31 80 32 12 33 13 34
REMARK SMILES IDX 14 35 15 36 16 38 17 39 18 40 64 41 19 42 63 43 20 44 21 45
REMARK SMILES IDX 22 46 57 47 23 48 62 49 56 50 58 51 24 52 61 53 55 54 54 55
REMARK SMILES IDX 25 57 47 58 32 59 46 60 33 61 36 62 45 63 59 64 34 65 35 66
REMARK SMILES IDX 44 68 60 69 37 70 26 71 27 72 31 73 28 74 30 75 29 76 48 77
REMARK SMILES IDX 49 78 53 79 50 80 52 81 51 82 38 83 39 84 43 85 40 86 42 87
REMARK SMILES IDX 41 88
REMARK H PARENT 9 6 14 37 58 56 36 67
REMARK Flexibility Score: inf
ROOT
ATOM      1  C   UNL A   1      31.398  30.775  26.469  1.00  0.00     0.023 C 
ENDROOT
BRANCH   1   2
ATOM      2  C   UNL A   1      31.196  30.183  25.078  1.00  0.00     0.116 C 
BRANCH   2   3
ATOM      3  N   UNL A   1      32.365  29.538  24.522  1.00  0.00    -0.356 N 
ATOM      4  C   UNL A   1      32.551  28.741  23.444  1.00  0.00     0.224 C 
ATOM      5  O   UNL A   1      33.713  28.382  23.214  1.00  0.00    -0.275 OA
ATOM      6  H   UNL A   1      33.191  29.714  25.030  1.00  0.00     0.163 HD
BRANCH   4   7
ATOM      7  C   UNL A   1      31.437  28.258  22.514  1.00  0.00     0.095 C 
ATOM      8  C   UNL A   1      27.374  29.641  23.539  1.00  0.00     0.039 C 
ATOM      9  C   UNL A   1      28.669  29.148  22.939  1.00  0.00    -0.074 C 
ATOM     10  C   UNL A   1      29.451  29.861  22.101  1.00  0.00    -0.074 C 
ATOM     11  C   UNL A   1      29.046  27.758  23.411  1.00  0.00     0.045 C 
ATOM     12  C   UNL A   1      29.144  31.243  21.573  1.00  0.00     0.039 C 
ATOM     13  C   UNL A   1      30.799  29.348  21.650  1.00  0.00     0.045 C 
ATOM     14  C   UNL A   1      30.458  27.229  23.082  1.00  0.00     0.095 C 
BRANCH  14  15
ATOM     15  C   UNL A   1      30.992  26.480  24.311  1.00  0.00     0.226 C 
ATOM     16  O   UNL A   1      30.923  26.913  25.457  1.00  0.00    -0.275 OA
ATOM     17  N   UNL A   1      31.379  25.179  24.089  1.00  0.00    -0.339 N 
ATOM     18  C   UNL A   1      31.119  24.209  25.153  1.00  0.00     0.141 C 
ATOM     19  C   UNL A   1      32.569  24.894  23.285  1.00  0.00     0.141 C 
ATOM     20  C   UNL A   1      30.990  22.796  24.574  1.00  0.00     0.138 C 
ATOM     21  C   UNL A   1      32.581  23.455  22.744  1.00  0.00     0.138 C 
ATOM     22  N   UNL A   1      32.180  22.491  23.775  1.00  0.00    -0.368 N 
BRANCH  22  23
ATOM     23  C   UNL A   1      32.927  21.380  24.083  1.00  0.00     0.037 A 
ATOM     24  C   UNL A   1      34.112  21.504  24.816  1.00  0.00     0.026 A 
ATOM     25  C   UNL A   1      32.559  20.110  23.628  1.00  0.00     0.039 A 
ATOM     26  C   UNL A   1      34.907  20.394  25.100  1.00  0.00     0.003 A 
ATOM     27  C   UNL A   1      33.362  18.985  23.875  1.00  0.00     0.058 A 
ATOM     28  C   UNL A   1      34.536  19.139  24.628  1.00  0.00     0.013 A 
BRANCH  27  29
ATOM     29  C   UNL A   1      32.990  17.632  23.327  1.00  0.00     0.416 C 
ATOM     30  F   UNL A   1      32.509  16.796  24.290  1.00  0.00    -0.166 F 
ATOM     31  F   UNL A   1      32.018  17.704  22.377  1.00  0.00    -0.166 F 
ATOM     32  F   UNL A   1      34.031  16.969  22.748  1.00  0.00    -0.166 F 
ENDBRANCH  27  29
ENDBRANCH  22  23
ENDBRANCH  14  15
ENDBRANCH   4   7
ENDBRANCH   2   3
ENDBRANCH   1   2
BRANCH   1  33
ATOM     33  C   UNL A   1      31.384  32.302  26.515  1.00  0.00     0.023 C 
BRANCH  33  34
ATOM     34  C   UNL A   1      32.578  32.880  27.251  1.00  0.00     0.116 C 
BRANCH  34  35
ATOM     35  N   UNL A   1      32.363  34.265  27.646  1.00  0.00    -0.352 N 
ATOM     36  C   UNL A   1      33.023  34.992  28.604  1.00  0.00     0.251 C 
ATOM     37  H   UNL A   1      31.650  34.743  27.163  1.00  0.00     0.163 HD
ATOM     38  O   UNL A   1      32.644  36.099  28.933  1.00  0.00    -0.269 OA
BRANCH  36  39
ATOM     39  C   UNL A   1      34.196  34.372  29.245  1.00  0.00     0.039 A 
ATOM     40  C   UNL A   1      33.998  33.555  30.357  1.00  0.00     0.014 A 
ATOM     41  C   UNL A   1      35.468  34.563  28.700  1.00  0.00     0.014 A 
ATOM     42  C   UNL A   1      35.089  32.890  30.907  1.00  0.00     0.010 A 
ATOM     43  C   UNL A   1      36.534  33.831  29.192  1.00  0.00     0.010 A 
ATOM     44  C   UNL A   1      36.356  33.010  30.315  1.00  0.00    -0.014 A 
BRANCH  44  45
ATOM     45  C   UNL A   1      37.530  32.313  30.880  1.00  0.00     0.031 A 
ATOM     46  C   UNL A   1      38.116  32.787  32.177  1.00  0.00     0.074 A 
ATOM     47  C   UNL A   1      38.105  31.314  30.186  1.00  0.00     0.049 A 
ATOM     48  N   UNL A   1      39.167  32.346  32.817  1.00  0.00    -0.248 NA
ATOM     49  C   UNL A   1      37.460  33.938  32.820  1.00  0.00     0.031 C 
ATOM     50  C   UNL A   1      37.661  30.823  28.879  1.00  0.00     0.029 A 
ATOM     51  N   UNL A   1      39.194  30.539  30.483  1.00  0.00    -0.354 N 
ATOM     52  C   UNL A   1      39.314  33.184  33.914  1.00  0.00     0.074 A 
ATOM     53  C   UNL A   1      38.282  34.191  33.825  1.00  0.00     0.031 C 
ATOM     54  C   UNL A   1      38.458  29.813  28.498  1.00  0.00     0.029 A 
ATOM     55  C   UNL A   1      39.480  29.606  29.519  1.00  0.00     0.049 A 
ATOM     56  H   UNL A   1      39.720  30.643  31.308  1.00  0.00     0.167 HD
ATOM     57  C   UNL A   1      40.216  33.107  34.921  1.00  0.00     0.031 A 
ATOM     58  C   UNL A   1      40.459  28.685  29.469  1.00  0.00     0.031 A 
ATOM     59  C   UNL A   1      41.221  32.084  35.013  1.00  0.00     0.049 A 
ATOM     60  C   UNL A   1      41.417  28.581  30.621  1.00  0.00     0.074 A 
ATOM     61  C   UNL A   1      42.126  31.852  36.032  1.00  0.00     0.029 A 
ATOM     62  N   UNL A   1      41.449  31.120  34.041  1.00  0.00    -0.354 N 
ATOM     63  N   UNL A   1      41.483  29.314  31.706  1.00  0.00    -0.248 NA
ATOM     64  C   UNL A   1      42.418  27.509  30.552  1.00  0.00     0.031 C 
ATOM     65  C   UNL A   1      42.934  30.774  35.655  1.00  0.00     0.029 A 
ATOM     66  C   UNL A   1      42.498  30.305  34.425  1.00  0.00     0.049 A 
ATOM     67  H   UNL A   1      40.941  31.031  33.203  1.00  0.00     0.167 HD
ATOM     68  C   UNL A   1      42.522  28.784  32.459  1.00  0.00     0.074 A 
ATOM     69  C   UNL A   1      43.043  27.655  31.713  1.00  0.00     0.031 C 
ATOM     70  C   UNL A   1      43.003  29.193  33.658  1.00  0.00     0.031 A 
BRANCH  57  71
ATOM     71  C   UNL A   1      40.151  34.169  35.982  1.00  0.00    -0.014 A 
ATOM     72  C   UNL A   1      40.932  35.335  35.900  1.00  0.00     0.009 A 
ATOM     73  C   UNL A   1      39.308  33.997  37.089  1.00  0.00     0.009 A 
ATOM     74  C   UNL A   1      40.908  36.278  36.928  1.00  0.00     0.001 A 
ATOM     75  C   UNL A   1      39.261  34.957  38.102  1.00  0.00     0.001 A 
ATOM     76  C   UNL A   1      40.071  36.089  38.027  1.00  0.00     0.000 A 
ENDBRANCH  57  71
BRANCH  58  77
ATOM     77  C   UNL A   1      40.548  27.775  28.300  1.00  0.00    -0.014 A 
ATOM     78  C   UNL A   1      41.321  28.124  27.183  1.00  0.00     0.009 A 
ATOM     79  C   UNL A   1      39.896  26.532  28.315  1.00  0.00     0.009 A 
ATOM     80  C   UNL A   1      41.426  27.254  26.096  1.00  0.00     0.001 A 
ATOM     81  C   UNL A   1      40.023  25.653  27.237  1.00  0.00     0.001 A 
ATOM     82  C   UNL A   1      40.783  26.017  26.126  1.00  0.00     0.000 A 
ENDBRANCH  58  77
BRANCH  70  83
ATOM     83  C   UNL A   1      44.138  28.403  34.243  1.00  0.00    -0.014 A 
ATOM     84  C   UNL A   1      43.902  27.260  35.021  1.00  0.00     0.009 A 
ATOM     85  C   UNL A   1      45.461  28.786  33.973  1.00  0.00     0.009 A 
ATOM     86  C   UNL A   1      44.971  26.531  35.543  1.00  0.00     0.001 A 
ATOM     87  C   UNL A   1      46.528  28.040  34.474  1.00  0.00     0.001 A 
ATOM     88  C   UNL A   1      46.282  26.919  35.265  1.00  0.00     0.000 A 
ENDBRANCH  70  83
ENDBRANCH  44  45
ENDBRANCH  36  39
ENDBRANCH  34  35
ENDBRANCH  33  34
ENDBRANCH   1  33
TORSDOF 14
ENDMDL
MODEL 2
REMARK VINA RESULT:     -13.0      0.571      5.687
REMARK SMILES CC1=C(C)C[C@@H](C(=O)NCCCCNC(=O)c2ccc(-c3c4nc(c(-c5ccccc5)c5ccc([nH]5)c(-c5ccccc5)c5nc(c(-c6ccccc6)c6ccc3[nH]6)C=C5)C=C4)cc2)[C@@H](C(=O)N2CCN(c3cccc(C(F)(F)F)c3)CC2)C1
REMARK SMILES IDX 11 1 10 2 9 3 7 4 8 5 6 7 1 8 2 9 3 10 84 11 4 12 5 13 65 14
REMARK SMILES IDX 66 15 67 16 68 17 69 18 83 19 70 20 82 21 71 22 72 23 73 24
REMARK SMILES IDX 81 25 74 26 76 27 75 28 77 29 78 30 79 31 80 32 12 33 13 34
REMARK SMILES IDX 14 35 15 36 16 38 17 39 18 40 64 41 19 42 63 43 20 44 21 45
REMARK SMILES IDX 22 46 57 47 23 48 62 49 56 50 58 51 24 52 61 53 55 54 54 55
REMARK SMILES IDX 25 57 47 58 32 59 46 60 33 61 36 62 45 63 59 64 34 65 35 66
REMARK SMILES IDX 44 68 60 69 37 70 26 71 27 72 31 73 28 74 30 75 29 76 48 77
REMARK SMILES IDX 49 78 53 79 50 80 52 81 51 82 38 83 39 84 43 85 40 86 42 87
REMARK SMILES IDX 41 88
REMARK H PARENT 9 6 14 37 58 56 36 67
REMARK Flexibility Score: inf
ROOT
ATOM      1  C   UNL A   1      31.262  30.842  26.450  1.00  0.00     0.023 C 
ENDROOT
BRANCH   1   2
ATOM      2  C   UNL A   1      31.101  30.323  25.025  1.00  0.00     0.116 C 
BRANCH   2   3
ATOM      3  N   UNL A   1      32.269  29.659  24.491  1.00  0.00    -0.356 N 
ATOM      4  C   UNL A   1      32.456  28.840  23.430  1.00  0.00     0.224 C 
ATOM      5  O   UNL A   1      33.617  28.469  23.214  1.00  0.00    -0.275 OA
ATOM      6  H   UNL A   1      33.093  29.840  24.999  1.00  0.00     0.163 HD
BRANCH   4   7
ATOM      7  C   UNL A   1      31.345  28.345  22.502  1.00  0.00     0.095 C 
ATOM      8  C   UNL A   1      27.278  29.733  23.503  1.00  0.00     0.039 C 
ATOM      9  C   UNL A   1      28.575  29.235  22.911  1.00  0.00    -0.074 C 
ATOM     10  C   UNL A   1      29.358  29.942  22.067  1.00  0.00    -0.074 C 
ATOM     11  C   UNL A   1      28.953  27.852  23.399  1.00  0.00     0.045 C 
ATOM     12  C   UNL A   1      29.050  31.317  21.524  1.00  0.00     0.039 C 
ATOM     13  C   UNL A   1      30.708  29.426  21.625  1.00  0.00     0.045 C 
ATOM     14  C   UNL A   1      30.367  27.321  23.078  1.00  0.00     0.095 C 
BRANCH  14  15
ATOM     15  C   UNL A   1      30.899  26.586  24.317  1.00  0.00     0.226 C 
ATOM     16  O   UNL A   1      30.792  27.013  25.462  1.00  0.00    -0.275 OA
ATOM     17  N   UNL A   1      31.334  25.299  24.099  1.00  0.00    -0.339 N 
ATOM     18  C   UNL A   1      31.084  24.317  25.154  1.00  0.00     0.141 C 
ATOM     19  C   UNL A   1      32.550  25.057  23.320  1.00  0.00     0.141 C 
ATOM     20  C   UNL A   1      31.014  22.904  24.570  1.00  0.00     0.138 C 
ATOM     21  C   UNL A   1      32.621  23.621  22.775  1.00  0.00     0.138 C 
ATOM     22  N   UNL A   1      32.230  22.640  23.795  1.00  0.00    -0.368 N 
BRANCH  22  23
ATOM     23  C   UNL A   1      33.006  21.553  24.116  1.00  0.00     0.037 A 
ATOM     24  C   UNL A   1      34.261  21.730  24.710  1.00  0.00     0.026 A 
ATOM     25  C   UNL A   1      32.595  20.253  23.809  1.00  0.00     0.039 A 
ATOM     26  C   UNL A   1      35.083  20.642  25.001  1.00  0.00     0.003 A 
ATOM     27  C   UNL A   1      33.422  19.147  24.065  1.00  0.00     0.058 A 
ATOM     28  C   UNL A   1      34.667  19.355  24.677  1.00  0.00     0.013 A 
BRANCH  27  29
ATOM     29  C   UNL A   1      32.998  17.756  23.673  1.00  0.00     0.416 C 
ATOM     30  F   UNL A   1      34.060  16.925  23.472  1.00  0.00    -0.166 F 
ATOM     31  F   UNL A   1      32.231  17.157  24.626  1.00  0.00    -0.166 F 
ATOM     32  F   UNL A   1      32.269  17.707  22.522  1.00  0.00    -0.166 F 
ENDBRANCH  27  29
ENDBRANCH  22  23
ENDBRANCH  14  15
ENDBRANCH   4   7
ENDBRANCH   2   3
ENDBRANCH   1   2
BRANCH   1  33
ATOM     33  C   UNL A   1      31.361  32.363  26.561  1.00  0.00     0.023 C 
BRANCH  33  34
ATOM     34  C   UNL A   1      32.633  32.821  27.250  1.00  0.00     0.116 C 
BRANCH  34  35
ATOM     35  N   UNL A   1      32.549  34.205  27.695  1.00  0.00    -0.352 N 
ATOM     36  C   UNL A   1      33.301  34.841  28.650  1.00  0.00     0.251 C 
ATOM     37  H   UNL A   1      31.864  34.757  27.253  1.00  0.00     0.163 HD
ATOM     38  O   UNL A   1      33.028  35.964  29.027  1.00  0.00    -0.269 OA
BRANCH  36  39
ATOM     39  C   UNL A   1      34.437  34.104  29.229  1.00  0.00     0.039 A 
ATOM     40  C   UNL A   1      35.732  34.530  28.938  1.00  0.00     0.014 A 
ATOM     41  C   UNL A   1      34.201  33.037  30.101  1.00  0.00     0.014 A 
ATOM     42  C   UNL A   1      36.805  33.899  29.558  1.00  0.00     0.010 A 
ATOM     43  C   UNL A   1      35.264  32.473  30.784  1.00  0.00     0.010 A 
ATOM     44  C   UNL A   1      36.574  32.883  30.499  1.00  0.00    -0.014 A 
BRANCH  44  45
ATOM     45  C   UNL A   1      37.697  32.199  31.172  1.00  0.00     0.031 A 
ATOM     46  C   UNL A   1      38.423  31.096  30.460  1.00  0.00     0.074 A 
ATOM     47  C   UNL A   1      38.002  32.521  32.442  1.00  0.00     0.049 A 
ATOM     48  N   UNL A   1      39.400  30.341  30.889  1.00  0.00    -0.248 NA
ATOM     49  C   UNL A   1      37.962  30.768  29.101  1.00  0.00     0.031 C 
ATOM     50  C   UNL A   1      37.312  33.526  33.253  1.00  0.00     0.029 A 
ATOM     51  N   UNL A   1      38.970  32.025  33.274  1.00  0.00    -0.354 N 
ATOM     52  C   UNL A   1      39.645  29.433  29.868  1.00  0.00     0.074 A 
ATOM     53  C   UNL A   1      38.681  29.693  28.823  1.00  0.00     0.031 C 
ATOM     54  C   UNL A   1      37.895  33.589  34.460  1.00  0.00     0.029 A 
ATOM     55  C   UNL A   1      38.978  32.613  34.514  1.00  0.00     0.049 A 
ATOM     56  H   UNL A   1      39.599  31.316  33.009  1.00  0.00     0.167 HD
ATOM     57  C   UNL A   1      40.604  28.481  29.796  1.00  0.00     0.031 A 
ATOM     58  C   UNL A   1      39.774  32.387  35.574  1.00  0.00     0.031 A 
ATOM     59  C   UNL A   1      41.576  28.251  30.830  1.00  0.00     0.049 A 
ATOM     60  C   UNL A   1      40.868  31.364  35.456  1.00  0.00     0.074 A 
ATOM     61  C   UNL A   1      42.649  27.379  30.827  1.00  0.00     0.029 A 
ATOM     62  N   UNL A   1      41.586  28.902  32.055  1.00  0.00    -0.354 N 
ATOM     63  N   UNL A   1      41.156  30.580  34.445  1.00  0.00    -0.248 NA
ATOM     64  C   UNL A   1      41.757  31.212  36.615  1.00  0.00     0.031 C 
ATOM     65  C   UNL A   1      43.283  27.470  32.072  1.00  0.00     0.029 A 
ATOM     66  C   UNL A   1      42.634  28.435  32.827  1.00  0.00     0.049 A 
ATOM     67  H   UNL A   1      40.943  29.593  32.333  1.00  0.00     0.167 HD
ATOM     68  C   UNL A   1      42.270  29.851  34.838  1.00  0.00     0.074 A 
ATOM     69  C   UNL A   1      42.615  30.303  36.172  1.00  0.00     0.031 C 
ATOM     70  C   UNL A   1      42.948  28.895  34.157  1.00  0.00     0.031 A 
BRANCH  57  71
ATOM     71  C   UNL A   1      40.627  27.621  28.564  1.00  0.00    -0.014 A 
ATOM     72  C   UNL A   1      39.973  26.377  28.527  1.00  0.00     0.009 A 
ATOM     73  C   UNL A   1      41.323  28.053  27.426  1.00  0.00     0.009 A 
ATOM     74  C   UNL A   1      40.062  25.563  27.397  1.00  0.00     0.001 A 
ATOM     75  C   UNL A   1      41.383  27.251  26.284  1.00  0.00     0.001 A 
ATOM     76  C   UNL A   1      40.765  26.001  26.276  1.00  0.00     0.000 A 
ENDBRANCH  57  71
BRANCH  58  77
ATOM     77  C   UNL A   1      39.579  33.175  36.817  1.00  0.00    -0.014 A 
ATOM     78  C   UNL A   1      38.731  32.707  37.831  1.00  0.00     0.009 A 
ATOM     79  C   UNL A   1      40.275  34.379  37.013  1.00  0.00     0.009 A 
ATOM     80  C   UNL A   1      38.570  33.436  39.011  1.00  0.00     0.001 A 
ATOM     81  C   UNL A   1      40.131  35.093  38.204  1.00  0.00     0.001 A 
ATOM     82  C   UNL A   1      39.274  34.624  39.200  1.00  0.00     0.000 A 
ENDBRANCH  58  77
BRANCH  70  83
ATOM     83  C   UNL A   1      44.139  28.287  34.839  1.00  0.00    -0.014 A 
ATOM     84  C   UNL A   1      45.409  28.878  34.746  1.00  0.00     0.009 A 
ATOM     85  C   UNL A   1      43.977  27.133  35.621  1.00  0.00     0.009 A 
ATOM     86  C   UNL A   1      46.501  28.305  35.400  1.00  0.00     0.001 A 
ATOM     87  C   UNL A   1      45.065  26.579  36.296  1.00  0.00     0.001 A 
ATOM     88  C   UNL A   1      46.326  27.160  36.178  1.00  0.00     0.000 A 
ENDBRANCH  70  83
ENDBRANCH  44  45
ENDBRANCH  36  39
ENDBRANCH  34  35
ENDBRANCH  33  34
ENDBRANCH   1  33
TORSDOF 14
ENDMDL
MODEL 3
REMARK VINA RESULT:     -12.5      4.775      9.933
REMARK SMILES CC1=C(C)C[C@@H](C(=O)NCCCCNC(=O)c2ccc(-c3c4nc(c(-c5ccccc5)c5ccc([nH]5)c(-c5ccccc5)c5nc(c(-c6ccccc6)c6ccc3[nH]6)C=C5)C=C4)cc2)[C@@H](C(=O)N2CCN(c3cccc(C(F)(F)F)c3)CC2)C1
REMARK SMILES IDX 11 1 10 2 9 3 7 4 8 5 6 7 1 8 2 9 3 10 84 11 4 12 5 13 65 14
REMARK SMILES IDX 66 15 67 16 68 17 69 18 83 19 70 20 82 21 71 22 72 23 73 24
REMARK SMILES IDX 81 25 74 26 76 27 75 28 77 29 78 30 79 31 80 32 12 33 13 34
REMARK SMILES IDX 14 35 15 36 16 38 17 39 18 40 64 41 19 42 63 43 20 44 21 45
REMARK SMILES IDX 22 46 57 47 23 48 62 49 56 50 58 51 24 52 61 53 55 54 54 55
REMARK SMILES IDX 25 57 47 58 32 59 46 60 33 61 36 62 45 63 59 64 34 65 35 66
REMARK SMILES IDX 44 68 60 69 37 70 26 71 27 72 31 73 28 74 30 75 29 76 48 77
REMARK SMILES IDX 49 78 53 79 50 80 52 81 51 82 38 83 39 84 43 85 40 86 42 87
REMARK SMILES IDX 41 88
REMARK H PARENT 9 6 14 37 58 56 36 67
REMARK Flexibility Score: inf
ROOT
ATOM      1  C   UNL A   1      39.514  22.853  26.630  1.00  0.00     0.023 C 
ENDROOT
BRANCH   1   2
ATOM      2  C   UNL A   1      38.294  23.669  26.213  1.00  0.00     0.116 C 
BRANCH   2   3
ATOM      3  N   UNL A   1      37.746  23.316  24.922  1.00  0.00    -0.356 N 
ATOM      4  C   UNL A   1      36.634  22.642  24.548  1.00  0.00     0.224 C 
ATOM      5  O   UNL A   1      36.426  22.548  23.331  1.00  0.00    -0.275 OA
ATOM      6  H   UNL A   1      38.292  23.629  24.163  1.00  0.00     0.163 HD
BRANCH   4   7
ATOM      7  C   UNL A   1      35.640  21.994  25.513  1.00  0.00     0.095 C 
ATOM      8  C   UNL A   1      32.224  19.938  23.622  1.00  0.00     0.039 C 
ATOM      9  C   UNL A   1      33.351  20.474  24.473  1.00  0.00    -0.074 C 
ATOM     10  C   UNL A   1      34.492  19.807  24.749  1.00  0.00    -0.074 C 
ATOM     11  C   UNL A   1      33.098  21.885  24.965  1.00  0.00     0.045 C 
ATOM     12  C   UNL A   1      34.816  18.399  24.310  1.00  0.00     0.039 C 
ATOM     13  C   UNL A   1      35.629  20.464  25.497  1.00  0.00     0.045 C 
ATOM     14  C   UNL A   1      34.263  22.649  25.631  1.00  0.00     0.095 C 
BRANCH  14  15
ATOM     15  C   UNL A   1      34.226  24.104  25.142  1.00  0.00     0.226 C 
ATOM     16  O   UNL A   1      35.228  24.780  24.934  1.00  0.00    -0.275 OA
ATOM     17  N   UNL A   1      32.991  24.563  24.746  1.00  0.00    -0.339 N 
ATOM     18  C   UNL A   1      32.949  25.483  23.609  1.00  0.00     0.141 C 
ATOM     19  C   UNL A   1      31.932  24.771  25.735  1.00  0.00     0.141 C 
ATOM     20  C   UNL A   1      31.594  25.401  22.898  1.00  0.00     0.138 C 
ATOM     21  C   UNL A   1      30.533  24.809  25.099  1.00  0.00     0.138 C 
ATOM     22  N   UNL A   1      30.522  25.618  23.874  1.00  0.00    -0.368 N 
BRANCH  22  23
ATOM     23  C   UNL A   1      29.617  26.629  23.660  1.00  0.00     0.037 A 
ATOM     24  C   UNL A   1      28.270  26.458  23.996  1.00  0.00     0.026 A 
ATOM     25  C   UNL A   1      30.000  27.828  23.050  1.00  0.00     0.039 A 
ATOM     26  C   UNL A   1      27.328  27.454  23.744  1.00  0.00     0.003 A 
ATOM     27  C   UNL A   1      29.061  28.831  22.758  1.00  0.00     0.058 A 
ATOM     28  C   UNL A   1      27.721  28.636  23.124  1.00  0.00     0.013 A 
BRANCH  27  29
ATOM     29  C   UNL A   1      29.472  30.092  22.044  1.00  0.00     0.416 C 
ATOM     30  F   UNL A   1      30.758  30.039  21.594  1.00  0.00    -0.166 F 
ATOM     31  F   UNL A   1      28.704  30.344  20.949  1.00  0.00    -0.166 F 
ATOM     32  F   UNL A   1      29.398  31.211  22.818  1.00  0.00    -0.166 F 
ENDBRANCH  27  29
ENDBRANCH  22  23
ENDBRANCH  14  15
ENDBRANCH   4   7
ENDBRANCH   2   3
ENDBRANCH   1   2
BRANCH   1  33
ATOM     33  C   UNL A   1      39.584  21.459  26.010  1.00  0.00     0.023 C 
BRANCH  33  34
ATOM     34  C   UNL A   1      40.372  20.477  26.856  1.00  0.00     0.116 C 
BRANCH  34  35
ATOM     35  N   UNL A   1      41.501  19.909  26.132  1.00  0.00    -0.352 N 
ATOM     36  C   UNL A   1      42.675  20.518  25.769  1.00  0.00     0.251 C 
ATOM     37  H   UNL A   1      41.410  18.965  25.869  1.00  0.00     0.163 HD
ATOM     38  O   UNL A   1      43.475  19.967  25.038  1.00  0.00    -0.269 OA
BRANCH  36  39
ATOM     39  C   UNL A   1      42.924  21.880  26.272  1.00  0.00     0.039 A 
ATOM     40  C   UNL A   1      42.989  22.931  25.358  1.00  0.00     0.014 A 
ATOM     41  C   UNL A   1      43.031  22.104  27.647  1.00  0.00     0.014 A 
ATOM     42  C   UNL A   1      43.127  24.230  25.834  1.00  0.00     0.010 A 
ATOM     43  C   UNL A   1      43.076  23.404  28.120  1.00  0.00     0.010 A 
ATOM     44  C   UNL A   1      43.150  24.473  27.217  1.00  0.00    -0.014 A 
BRANCH  44  45
ATOM     45  C   UNL A   1      43.294  25.845  27.747  1.00  0.00     0.031 A 
ATOM     46  C   UNL A   1      44.664  26.389  28.024  1.00  0.00     0.074 A 
ATOM     47  C   UNL A   1      42.193  26.557  28.048  1.00  0.00     0.049 A 
ATOM     48  N   UNL A   1      45.006  27.545  28.530  1.00  0.00    -0.248 NA
ATOM     49  C   UNL A   1      45.802  25.501  27.731  1.00  0.00     0.031 C 
ATOM     50  C   UNL A   1      40.813  26.095  27.890  1.00  0.00     0.029 A 
ATOM     51  N   UNL A   1      42.067  27.821  28.561  1.00  0.00    -0.354 N 
ATOM     52  C   UNL A   1      46.388  27.506  28.647  1.00  0.00     0.074 A 
ATOM     53  C   UNL A   1      46.819  26.197  28.212  1.00  0.00     0.031 C 
ATOM     54  C   UNL A   1      39.977  27.073  28.274  1.00  0.00     0.029 A 
ATOM     55  C   UNL A   1      40.764  28.214  28.730  1.00  0.00     0.049 A 
ATOM     56  H   UNL A   1      42.837  28.391  28.786  1.00  0.00     0.167 HD
ATOM     57  C   UNL A   1      47.228  28.484  29.059  1.00  0.00     0.031 A 
ATOM     58  C   UNL A   1      40.262  29.370  29.200  1.00  0.00     0.031 A 
ATOM     59  C   UNL A   1      46.791  29.792  29.463  1.00  0.00     0.049 A 
ATOM     60  C   UNL A   1      41.211  30.463  29.602  1.00  0.00     0.074 A 
ATOM     61  C   UNL A   1      47.556  30.890  29.809  1.00  0.00     0.029 A 
ATOM     62  N   UNL A   1      45.461  30.174  29.573  1.00  0.00    -0.354 N 
ATOM     63  N   UNL A   1      42.523  30.453  29.611  1.00  0.00    -0.248 NA
ATOM     64  C   UNL A   1      40.612  31.731  30.035  1.00  0.00     0.031 C 
ATOM     65  C   UNL A   1      46.687  31.924  30.175  1.00  0.00     0.029 A 
ATOM     66  C   UNL A   1      45.383  31.485  30.007  1.00  0.00     0.049 A 
ATOM     67  H   UNL A   1      44.690  29.597  29.374  1.00  0.00     0.167 HD
ATOM     68  C   UNL A   1      42.908  31.717  30.035  1.00  0.00     0.074 A 
ATOM     69  C   UNL A   1      41.690  32.473  30.253  1.00  0.00     0.031 C 
ATOM     70  C   UNL A   1      44.157  32.210  30.226  1.00  0.00     0.031 A 
BRANCH  57  71
ATOM     71  C   UNL A   1      48.695  28.157  29.100  1.00  0.00    -0.014 A 
ATOM     72  C   UNL A   1      49.283  27.573  30.235  1.00  0.00     0.009 A 
ATOM     73  C   UNL A   1      49.504  28.449  27.993  1.00  0.00     0.009 A 
ATOM     74  C   UNL A   1      50.659  27.339  30.278  1.00  0.00     0.001 A 
ATOM     75  C   UNL A   1      50.875  28.183  28.026  1.00  0.00     0.001 A 
ATOM     76  C   UNL A   1      51.453  27.642  29.174  1.00  0.00     0.000 A 
ENDBRANCH  57  71
BRANCH  58  77
ATOM     77  C   UNL A   1      38.791  29.552  29.278  1.00  0.00    -0.014 A 
ATOM     78  C   UNL A   1      38.064  29.956  28.148  1.00  0.00     0.009 A 
ATOM     79  C   UNL A   1      38.102  29.280  30.469  1.00  0.00     0.009 A 
ATOM     80  C   UNL A   1      36.677  30.100  28.215  1.00  0.00     0.001 A 
ATOM     81  C   UNL A   1      36.712  29.401  30.526  1.00  0.00     0.001 A 
ATOM     82  C   UNL A   1      36.001  29.817  29.401  1.00  0.00     0.000 A 
ENDBRANCH  58  77
BRANCH  70  83
ATOM     83  C   UNL A   1      44.264  33.637  30.678  1.00  0.00    -0.014 A 
ATOM     84  C   UNL A   1      44.271  34.693  29.754  1.00  0.00     0.009 A 
ATOM     85  C   UNL A   1      44.313  33.929  32.050  1.00  0.00     0.009 A 
ATOM     86  C   UNL A   1      44.357  36.014  30.196  1.00  0.00     0.001 A 
ATOM     87  C   UNL A   1      44.372  35.251  32.489  1.00  0.00     0.001 A 
ATOM     88  C   UNL A   1      44.402  36.291  31.562  1.00  0.00     0.000 A 
ENDBRANCH  70  83
ENDBRANCH  44  45
ENDBRANCH  36  39
ENDBRANCH  34  35
ENDBRANCH  33  34
ENDBRANCH   1  33
TORSDOF 14
ENDMDL
