MODEL 1
REMARK VINA RESULT:      -9.8      0.000      0.000
REMARK SMILES C[C@H](C[N@@H+](C)[C@@H](C)[C@@H](C)O)C(=O)NCCCCNC(=O)c1ccc(-c2c3nc(c(-c4ccccc4)c4ccc([nH]4)c(-c4ccccc4)c4nc(c(-c5ccccc5)c5ccc2[nH]5)C=C4)C=C3)cc1
REMARK SMILES IDX 14 1 13 2 11 3 12 4 2 6 1 7 3 8 4 9 5 10 6 12 7 13 8 14 9 15
REMARK SMILES IDX 10 16 15 18 16 19 17 20 18 21 19 22 20 24 21 25 22 26 68 27
REMARK SMILES IDX 23 28 67 29 24 30 25 31 26 32 61 33 27 34 66 35 60 36 62 37
REMARK SMILES IDX 28 38 65 39 59 40 58 41 29 43 51 44 36 45 50 46 37 47 40 48
REMARK SMILES IDX 49 49 63 50 38 51 39 52 48 54 64 55 41 56 30 57 31 58 35 59
REMARK SMILES IDX 32 60 34 61 33 62 52 63 53 64 57 65 54 66 56 67 55 68 42 69
REMARK SMILES IDX 43 70 47 71 44 72 46 73 45 74
REMARK H PARENT 13 5 4 11 10 17 18 23 62 42 40 53
REMARK Flexibility Score: inf
ROOT
ATOM      1  C   UNL A   1      34.858  32.040  28.484  1.00  0.00     0.116 C 
ENDROOT
BRANCH   1   2
ATOM      2  N   UNL A   1      34.216  30.769  28.017  1.00  0.00    -0.356 N 
ATOM      3  C   UNL A   1      33.351  30.081  27.250  1.00  0.00     0.228 C 
ATOM      4  O   UNL A   1      33.652  28.865  27.351  1.00  0.00    -0.275 OA
ATOM      5  H   UNL A   1      34.658  30.072  28.552  1.00  0.00     0.163 HD
BRANCH   3   6
ATOM      6  C   UNL A   1      32.169  30.346  26.228  1.00  0.00     0.130 C 
ATOM      7  C   UNL A   1      31.405  31.653  26.506  1.00  0.00     0.024 C 
BRANCH   6   8
ATOM      8  C   UNL A   1      31.446  29.382  25.210  1.00  0.00     0.275 C 
BRANCH   8   9
ATOM      9  N   UNL A   1      31.682  29.357  23.740  1.00  0.00    -0.332 N 
ATOM     10  C   UNL A   1      33.081  29.016  23.421  1.00  0.00     0.333 C 
ATOM     11  H   UNL A   1      31.473  30.305  23.425  1.00  0.00     0.348 HD
BRANCH   9  12
ATOM     12  C   UNL A   1      30.792  28.438  23.017  1.00  0.00     0.209 C 
ATOM     13  C   UNL A   1      30.261  27.413  24.013  1.00  0.00     0.078 C 
BRANCH  12  14
ATOM     14  C   UNL A   1      29.879  29.343  22.138  1.00  0.00     0.169 C 
ATOM     15  C   UNL A   1      28.920  30.199  22.951  1.00  0.00     0.045 C 
BRANCH  14  16
ATOM     16  O   UNL A   1      30.552  30.182  21.235  1.00  0.00    -0.387 OA
ATOM     17  H   UNL A   1      31.508  30.127  21.393  1.00  0.00     0.211 HD
ENDBRANCH  14  16
ENDBRANCH  12  14
ENDBRANCH   9  12
ENDBRANCH   8   9
ENDBRANCH   6   8
ENDBRANCH   3   6
ENDBRANCH   1   2
BRANCH   1  18
ATOM     18  C   UNL A   1      34.517  33.338  27.737  1.00  0.00     0.023 C 
BRANCH  18  19
ATOM     19  C   UNL A   1      33.545  34.305  28.412  1.00  0.00     0.023 C 
BRANCH  19  20
ATOM     20  C   UNL A   1      33.819  34.563  29.888  1.00  0.00     0.116 C 
BRANCH  20  21
ATOM     21  N   UNL A   1      32.795  35.318  30.610  1.00  0.00    -0.352 N 
ATOM     22  C   UNL A   1      32.779  35.605  31.971  1.00  0.00     0.251 C 
ATOM     23  H   UNL A   1      32.039  35.657  30.079  1.00  0.00     0.163 HD
ATOM     24  O   UNL A   1      31.893  36.246  32.497  1.00  0.00    -0.269 OA
BRANCH  22  25
ATOM     25  C   UNL A   1      33.884  35.036  32.779  1.00  0.00     0.039 A 
ATOM     26  C   UNL A   1      33.761  33.732  33.262  1.00  0.00     0.014 A 
ATOM     27  C   UNL A   1      35.112  35.698  32.796  1.00  0.00     0.014 A 
ATOM     28  C   UNL A   1      34.912  33.037  33.638  1.00  0.00     0.010 A 
ATOM     29  C   UNL A   1      36.261  34.968  33.066  1.00  0.00     0.010 A 
ATOM     30  C   UNL A   1      36.178  33.624  33.469  1.00  0.00    -0.014 A 
BRANCH  30  31
ATOM     31  C   UNL A   1      37.429  32.850  33.689  1.00  0.00     0.031 A 
ATOM     32  C   UNL A   1      38.226  33.069  34.945  1.00  0.00     0.074 A 
ATOM     33  C   UNL A   1      37.898  32.021  32.732  1.00  0.00     0.049 A 
ATOM     34  N   UNL A   1      39.378  32.555  35.293  1.00  0.00    -0.248 NA
ATOM     35  C   UNL A   1      37.676  34.025  35.920  1.00  0.00     0.031 C 
ATOM     36  C   UNL A   1      37.265  31.765  31.435  1.00  0.00     0.029 A 
ATOM     37  N   UNL A   1      39.026  31.237  32.705  1.00  0.00    -0.354 N 
ATOM     38  C   UNL A   1      39.701  33.152  36.505  1.00  0.00     0.074 A 
ATOM     39  C   UNL A   1      38.661  34.109  36.800  1.00  0.00     0.031 C 
ATOM     40  C   UNL A   1      37.989  30.854  30.762  1.00  0.00     0.029 A 
ATOM     41  C   UNL A   1      39.154  30.487  31.560  1.00  0.00     0.049 A 
ATOM     42  H   UNL A   1      39.683  31.215  33.438  1.00  0.00     0.167 HD
ATOM     43  C   UNL A   1      40.753  32.905  37.320  1.00  0.00     0.031 A 
ATOM     44  C   UNL A   1      40.098  29.596  31.198  1.00  0.00     0.031 A 
ATOM     45  C   UNL A   1      41.764  31.922  37.056  1.00  0.00     0.049 A 
ATOM     46  C   UNL A   1      41.238  29.310  32.138  1.00  0.00     0.074 A 
ATOM     47  C   UNL A   1      42.824  31.539  37.859  1.00  0.00     0.029 A 
ATOM     48  N   UNL A   1      41.834  31.158  35.903  1.00  0.00    -0.354 N 
ATOM     49  N   UNL A   1      41.484  29.824  33.318  1.00  0.00    -0.248 NA
ATOM     50  C   UNL A   1      42.225  28.313  31.697  1.00  0.00     0.031 C 
ATOM     51  C   UNL A   1      43.558  30.565  37.174  1.00  0.00     0.029 A 
ATOM     52  C   UNL A   1      42.929  30.313  35.965  1.00  0.00     0.049 A 
ATOM     53  H   UNL A   1      41.202  31.209  35.151  1.00  0.00     0.167 HD
ATOM     54  C   UNL A   1      42.632  29.191  33.775  1.00  0.00     0.074 A 
ATOM     55  C   UNL A   1      43.029  28.247  32.750  1.00  0.00     0.031 C 
ATOM     56  C   UNL A   1      43.300  29.374  34.939  1.00  0.00     0.031 A 
BRANCH  43  57
ATOM     57  C   UNL A   1      40.843  33.714  38.582  1.00  0.00    -0.014 A 
ATOM     58  C   UNL A   1      40.243  33.272  39.773  1.00  0.00     0.009 A 
ATOM     59  C   UNL A   1      41.537  34.933  38.583  1.00  0.00     0.009 A 
ATOM     60  C   UNL A   1      40.296  34.056  40.926  1.00  0.00     0.001 A 
ATOM     61  C   UNL A   1      41.615  35.701  39.746  1.00  0.00     0.001 A 
ATOM     62  C   UNL A   1      40.984  35.268  40.912  1.00  0.00     0.000 A 
ENDBRANCH  43  57
BRANCH  44  63
ATOM     63  C   UNL A   1      39.993  28.867  29.905  1.00  0.00    -0.014 A 
ATOM     64  C   UNL A   1      40.436  29.470  28.717  1.00  0.00     0.009 A 
ATOM     65  C   UNL A   1      39.428  27.584  29.844  1.00  0.00     0.009 A 
ATOM     66  C   UNL A   1      40.287  28.817  27.491  1.00  0.00     0.001 A 
ATOM     67  C   UNL A   1      39.305  26.922  28.619  1.00  0.00     0.001 A 
ATOM     68  C   UNL A   1      39.725  27.543  27.443  1.00  0.00     0.000 A 
ENDBRANCH  44  63
BRANCH  56  69
ATOM     69  C   UNL A   1      44.503  28.511  35.188  1.00  0.00    -0.014 A 
ATOM     70  C   UNL A   1      44.382  27.254  35.798  1.00  0.00     0.009 A 
ATOM     71  C   UNL A   1      45.766  28.942  34.754  1.00  0.00     0.009 A 
ATOM     72  C   UNL A   1      45.510  26.455  35.993  1.00  0.00     0.001 A 
ATOM     73  C   UNL A   1      46.887  28.130  34.927  1.00  0.00     0.001 A 
ATOM     74  C   UNL A   1      46.760  26.891  35.552  1.00  0.00     0.000 A 
ENDBRANCH  56  69
ENDBRANCH  30  31
ENDBRANCH  22  25
ENDBRANCH  20  21
ENDBRANCH  19  20
ENDBRANCH  18  19
ENDBRANCH   1  18
TORSDOF 16
ENDMDL
MODEL 2
REMARK VINA RESULT:      -9.5      4.560      7.132
REMARK SMILES C[C@H](C[N@@H+](C)[C@@H](C)[C@@H](C)O)C(=O)NCCCCNC(=O)c1ccc(-c2c3nc(c(-c4ccccc4)c4ccc([nH]4)c(-c4ccccc4)c4nc(c(-c5ccccc5)c5ccc2[nH]5)C=C4)C=C3)cc1
REMARK SMILES IDX 14 1 13 2 11 3 12 4 2 6 1 7 3 8 4 9 5 10 6 12 7 13 8 14 9 15
REMARK SMILES IDX 10 16 15 18 16 19 17 20 18 21 19 22 20 24 21 25 22 26 68 27
REMARK SMILES IDX 23 28 67 29 24 30 25 31 26 32 61 33 27 34 66 35 60 36 62 37
REMARK SMILES IDX 28 38 65 39 59 40 58 41 29 43 51 44 36 45 50 46 37 47 40 48
REMARK SMILES IDX 49 49 63 50 38 51 39 52 48 54 64 55 41 56 30 57 31 58 35 59
REMARK SMILES IDX 32 60 34 61 33 62 52 63 53 64 57 65 54 66 56 67 55 68 42 69
REMARK SMILES IDX 43 70 47 71 44 72 46 73 45 74
REMARK H PARENT 13 5 4 11 10 17 18 23 62 42 40 53
REMARK Flexibility Score: inf
ROOT
ATOM      1  C   UNL A   1      33.461  28.623  23.492  1.00  0.00     0.116 C 
ENDROOT
BRANCH   1   2
ATOM      2  N   UNL A   1      33.635  27.324  22.763  1.00  0.00    -0.356 N 
ATOM      3  C   UNL A   1      33.745  25.985  22.723  1.00  0.00     0.228 C 
ATOM      4  O   UNL A   1      33.631  25.640  21.520  1.00  0.00    -0.275 OA
ATOM      5  H   UNL A   1      33.707  27.593  21.819  1.00  0.00     0.163 HD
BRANCH   3   6
ATOM      6  C   UNL A   1      33.878  24.754  23.713  1.00  0.00     0.130 C 
ATOM      7  C   UNL A   1      34.029  25.172  25.187  1.00  0.00     0.024 C 
BRANCH   6   8
ATOM      8  C   UNL A   1      34.206  23.236  23.437  1.00  0.00     0.275 C 
BRANCH   8   9
ATOM      9  N   UNL A   1      34.676  22.263  24.462  1.00  0.00    -0.332 N 
ATOM     10  C   UNL A   1      33.939  20.988  24.377  1.00  0.00     0.333 C 
ATOM     11  H   UNL A   1      34.490  22.715  25.357  1.00  0.00     0.348 HD
BRANCH   9  12
ATOM     12  C   UNL A   1      36.117  21.984  24.390  1.00  0.00     0.209 C 
ATOM     13  C   UNL A   1      36.671  22.673  23.148  1.00  0.00     0.078 C 
BRANCH  12  14
ATOM     14  C   UNL A   1      36.662  22.226  25.829  1.00  0.00     0.169 C 
ATOM     15  C   UNL A   1      37.725  23.313  25.894  1.00  0.00     0.045 C 
BRANCH  14  16
ATOM     16  O   UNL A   1      35.690  22.509  26.803  1.00  0.00    -0.387 OA
ATOM     17  H   UNL A   1      34.807  22.370  26.428  1.00  0.00     0.211 HD
ENDBRANCH  14  16
ENDBRANCH  12  14
ENDBRANCH   9  12
ENDBRANCH   8   9
ENDBRANCH   6   8
ENDBRANCH   3   6
ENDBRANCH   1   2
BRANCH   1  18
ATOM     18  C   UNL A   1      33.759  28.650  24.999  1.00  0.00     0.023 C 
BRANCH  18  19
ATOM     19  C   UNL A   1      33.163  29.797  25.814  1.00  0.00     0.023 C 
BRANCH  19  20
ATOM     20  C   UNL A   1      33.366  29.688  27.319  1.00  0.00     0.116 C 
BRANCH  20  21
ATOM     21  N   UNL A   1      33.627  30.941  28.027  1.00  0.00    -0.352 N 
ATOM     22  C   UNL A   1      34.819  31.322  28.633  1.00  0.00     0.251 C 
ATOM     23  H   UNL A   1      32.880  31.581  28.081  1.00  0.00     0.163 HD
ATOM     24  O   UNL A   1      34.959  32.387  29.198  1.00  0.00    -0.269 OA
BRANCH  22  25
ATOM     25  C   UNL A   1      35.920  30.330  28.608  1.00  0.00     0.039 A 
ATOM     26  C   UNL A   1      36.760  30.286  27.493  1.00  0.00     0.014 A 
ATOM     27  C   UNL A   1      36.259  29.675  29.793  1.00  0.00     0.014 A 
ATOM     28  C   UNL A   1      38.018  29.692  27.615  1.00  0.00     0.010 A 
ATOM     29  C   UNL A   1      37.550  29.185  29.939  1.00  0.00     0.010 A 
ATOM     30  C   UNL A   1      38.452  29.207  28.862  1.00  0.00    -0.014 A 
BRANCH  30  31
ATOM     31  C   UNL A   1      39.846  28.735  29.068  1.00  0.00     0.031 A 
ATOM     32  C   UNL A   1      40.861  29.660  29.682  1.00  0.00     0.074 A 
ATOM     33  C   UNL A   1      40.229  27.517  28.628  1.00  0.00     0.049 A 
ATOM     34  N   UNL A   1      42.140  29.473  29.877  1.00  0.00    -0.248 NA
ATOM     35  C   UNL A   1      40.380  30.991  30.091  1.00  0.00     0.031 C 
ATOM     36  C   UNL A   1      39.369  26.542  27.952  1.00  0.00     0.029 A 
ATOM     37  N   UNL A   1      41.451  26.891  28.685  1.00  0.00    -0.354 N 
ATOM     38  C   UNL A   1      42.618  30.669  30.397  1.00  0.00     0.074 A 
ATOM     39  C   UNL A   1      41.509  31.593  30.427  1.00  0.00     0.031 C 
ATOM     40  C   UNL A   1      40.078  25.428  27.700  1.00  0.00     0.029 A 
ATOM     41  C   UNL A   1      41.448  25.620  28.161  1.00  0.00     0.049 A 
ATOM     42  H   UNL A   1      42.254  27.314  29.066  1.00  0.00     0.167 HD
ATOM     43  C   UNL A   1      43.862  30.966  30.842  1.00  0.00     0.031 A 
ATOM     44  C   UNL A   1      42.436  24.707  28.073  1.00  0.00     0.031 A 
ATOM     45  C   UNL A   1      44.955  30.037  30.859  1.00  0.00     0.049 A 
ATOM     46  C   UNL A   1      43.801  25.048  28.609  1.00  0.00     0.074 A 
ATOM     47  C   UNL A   1      46.230  30.216  31.366  1.00  0.00     0.029 A 
ATOM     48  N   UNL A   1      44.898  28.748  30.354  1.00  0.00    -0.354 N 
ATOM     49  N   UNL A   1      44.214  26.156  29.174  1.00  0.00    -0.248 NA
ATOM     50  C   UNL A   1      44.832  24.005  28.504  1.00  0.00     0.031 C 
ATOM     51  C   UNL A   1      46.958  29.044  31.135  1.00  0.00     0.029 A 
ATOM     52  C   UNL A   1      46.122  28.123  30.524  1.00  0.00     0.049 A 
ATOM     53  H   UNL A   1      44.108  28.339  29.936  1.00  0.00     0.167 HD
ATOM     54  C   UNL A   1      45.540  25.934  29.520  1.00  0.00     0.074 A 
ATOM     55  C   UNL A   1      45.861  24.580  29.112  1.00  0.00     0.031 C 
ATOM     56  C   UNL A   1      46.416  26.773  30.122  1.00  0.00     0.031 A 
BRANCH  43  57
ATOM     57  C   UNL A   1      44.087  32.358  31.358  1.00  0.00    -0.014 A 
ATOM     58  C   UNL A   1      43.888  32.672  32.712  1.00  0.00     0.009 A 
ATOM     59  C   UNL A   1      44.505  33.369  30.480  1.00  0.00     0.009 A 
ATOM     60  C   UNL A   1      44.057  33.980  33.168  1.00  0.00     0.001 A 
ATOM     61  C   UNL A   1      44.704  34.671  30.944  1.00  0.00     0.001 A 
ATOM     62  C   UNL A   1      44.468  34.977  32.284  1.00  0.00     0.000 A 
ENDBRANCH  43  57
BRANCH  44  63
ATOM     63  C   UNL A   1      42.174  23.363  27.494  1.00  0.00    -0.014 A 
ATOM     64  C   UNL A   1      41.546  22.371  28.266  1.00  0.00     0.009 A 
ATOM     65  C   UNL A   1      42.570  23.051  26.185  1.00  0.00     0.009 A 
ATOM     66  C   UNL A   1      41.349  21.088  27.750  1.00  0.00     0.001 A 
ATOM     67  C   UNL A   1      42.348  21.773  25.663  1.00  0.00     0.001 A 
ATOM     68  C   UNL A   1      41.747  20.791  26.449  1.00  0.00     0.000 A 
ENDBRANCH  44  63
BRANCH  56  69
ATOM     69  C   UNL A   1      47.791  26.244  30.414  1.00  0.00    -0.014 A 
ATOM     70  C   UNL A   1      48.797  26.258  29.436  1.00  0.00     0.009 A 
ATOM     71  C   UNL A   1      48.095  25.778  31.702  1.00  0.00     0.009 A 
ATOM     72  C   UNL A   1      50.077  25.789  29.738  1.00  0.00     0.001 A 
ATOM     73  C   UNL A   1      49.381  25.334  32.007  1.00  0.00     0.001 A 
ATOM     74  C   UNL A   1      50.369  25.334  31.024  1.00  0.00     0.000 A 
ENDBRANCH  56  69
ENDBRANCH  30  31
ENDBRANCH  22  25
ENDBRANCH  20  21
ENDBRANCH  19  20
ENDBRANCH  18  19
ENDBRANCH   1  18
TORSDOF 16
ENDMDL
MODEL 3
REMARK VINA RESULT:      -9.3      2.863      7.140
REMARK SMILES C[C@H](C[N@@H+](C)[C@@H](C)[C@@H](C)O)C(=O)NCCCCNC(=O)c1ccc(-c2c3nc(c(-c4ccccc4)c4ccc([nH]4)c(-c4ccccc4)c4nc(c(-c5ccccc5)c5ccc2[nH]5)C=C4)C=C3)cc1
REMARK SMILES IDX 14 1 13 2 11 3 12 4 2 6 1 7 3 8 4 9 5 10 6 12 7 13 8 14 9 15
REMARK SMILES IDX 10 16 15 18 16 19 17 20 18 21 19 22 20 24 21 25 22 26 68 27
REMARK SMILES IDX 23 28 67 29 24 30 25 31 26 32 61 33 27 34 66 35 60 36 62 37
REMARK SMILES IDX 28 38 65 39 59 40 58 41 29 43 51 44 36 45 50 46 37 47 40 48
REMARK SMILES IDX 49 49 63 50 38 51 39 52 48 54 64 55 41 56 30 57 31 58 35 59
REMARK SMILES IDX 32 60 34 61 33 62 52 63 53 64 57 65 54 66 56 67 55 68 42 69
REMARK SMILES IDX 43 70 47 71 44 72 46 73 45 74
REMARK H PARENT 13 5 4 11 10 17 18 23 62 42 40 53
REMARK Flexibility Score: inf
ROOT
ATOM      1  C   UNL A   1      31.583  27.401  26.733  1.00  0.00     0.116 C 
ENDROOT
BRANCH   1   2
ATOM      2  N   UNL A   1      32.366  26.867  25.571  1.00  0.00    -0.356 N 
ATOM      3  C   UNL A   1      32.532  26.611  24.262  1.00  0.00     0.228 C 
ATOM      4  O   UNL A   1      33.736  26.293  24.096  1.00  0.00    -0.275 OA
ATOM      5  H   UNL A   1      33.191  26.523  25.983  1.00  0.00     0.163 HD
BRANCH   3   6
ATOM      6  C   UNL A   1      31.714  26.676  22.906  1.00  0.00     0.130 C 
ATOM      7  C   UNL A   1      32.306  25.791  21.794  1.00  0.00     0.024 C 
BRANCH   6   8
ATOM      8  C   UNL A   1      30.630  27.705  22.401  1.00  0.00     0.275 C 
BRANCH   8   9
ATOM      9  N   UNL A   1      29.233  27.795  22.911  1.00  0.00    -0.332 N 
ATOM     10  C   UNL A   1      28.912  26.673  23.813  1.00  0.00     0.333 C 
ATOM     11  H   UNL A   1      28.646  27.753  22.078  1.00  0.00     0.348 HD
BRANCH   9  12
ATOM     12  C   UNL A   1      28.942  29.059  23.604  1.00  0.00     0.209 C 
ATOM     13  C   UNL A   1      30.259  29.793  23.822  1.00  0.00     0.078 C 
BRANCH  12  14
ATOM     14  C   UNL A   1      27.722  29.673  22.856  1.00  0.00     0.169 C 
ATOM     15  C   UNL A   1      28.078  30.245  21.493  1.00  0.00     0.045 C 
BRANCH  14  16
ATOM     16  O   UNL A   1      26.620  28.817  22.694  1.00  0.00    -0.387 OA
ATOM     17  H   UNL A   1      25.994  28.953  23.422  1.00  0.00     0.211 HD
ENDBRANCH  14  16
ENDBRANCH  12  14
ENDBRANCH   9  12
ENDBRANCH   8   9
ENDBRANCH   6   8
ENDBRANCH   3   6
ENDBRANCH   1   2
BRANCH   1  18
ATOM     18  C   UNL A   1      31.860  28.842  27.189  1.00  0.00     0.023 C 
BRANCH  18  19
ATOM     19  C   UNL A   1      32.991  29.596  26.491  1.00  0.00     0.023 C 
BRANCH  19  20
ATOM     20  C   UNL A   1      33.538  30.790  27.262  1.00  0.00     0.116 C 
BRANCH  20  21
ATOM     21  N   UNL A   1      32.689  31.980  27.295  1.00  0.00    -0.352 N 
ATOM     22  C   UNL A   1      32.994  33.204  27.880  1.00  0.00     0.251 C 
ATOM     23  H   UNL A   1      31.810  31.907  26.858  1.00  0.00     0.163 HD
ATOM     24  O   UNL A   1      32.235  34.151  27.860  1.00  0.00    -0.269 OA
BRANCH  22  25
ATOM     25  C   UNL A   1      34.291  33.290  28.594  1.00  0.00     0.039 A 
ATOM     26  C   UNL A   1      34.389  32.746  29.877  1.00  0.00     0.014 A 
ATOM     27  C   UNL A   1      35.430  33.647  27.873  1.00  0.00     0.014 A 
ATOM     28  C   UNL A   1      35.651  32.430  30.384  1.00  0.00     0.010 A 
ATOM     29  C   UNL A   1      36.671  33.232  28.336  1.00  0.00     0.010 A 
ATOM     30  C   UNL A   1      36.795  32.599  29.585  1.00  0.00    -0.014 A 
BRANCH  30  31
ATOM     31  C   UNL A   1      38.128  32.108  30.025  1.00  0.00     0.031 A 
ATOM     32  C   UNL A   1      38.646  30.797  29.501  1.00  0.00     0.074 A 
ATOM     33  C   UNL A   1      38.835  32.784  30.956  1.00  0.00     0.049 A 
ATOM     34  N   UNL A   1      39.742  30.155  29.815  1.00  0.00    -0.248 NA
ATOM     35  C   UNL A   1      37.797  30.092  28.526  1.00  0.00     0.031 C 
ATOM     36  C   UNL A   1      38.423  34.033  31.603  1.00  0.00     0.029 A 
ATOM     37  N   UNL A   1      40.056  32.511  31.523  1.00  0.00    -0.354 N 
ATOM     38  C   UNL A   1      39.694  28.963  29.104  1.00  0.00     0.074 A 
ATOM     39  C   UNL A   1      38.436  28.940  28.395  1.00  0.00     0.031 C 
ATOM     40  C   UNL A   1      39.393  34.438  32.440  1.00  0.00     0.029 A 
ATOM     41  C   UNL A   1      40.478  33.464  32.419  1.00  0.00     0.049 A 
ATOM     42  H   UNL A   1      40.580  31.706  31.307  1.00  0.00     0.167 HD
ATOM     43  C   UNL A   1      40.626  27.985  29.020  1.00  0.00     0.031 A 
ATOM     44  C   UNL A   1      41.617  33.548  33.135  1.00  0.00     0.031 A 
ATOM     45  C   UNL A   1      41.898  28.024  29.684  1.00  0.00     0.049 A 
ATOM     46  C   UNL A   1      42.655  32.467  32.996  1.00  0.00     0.074 A 
ATOM     47  C   UNL A   1      42.943  27.122  29.596  1.00  0.00     0.029 A 
ATOM     48  N   UNL A   1      42.300  29.026  30.552  1.00  0.00    -0.354 N 
ATOM     49  N   UNL A   1      42.628  31.387  32.255  1.00  0.00    -0.248 NA
ATOM     50  C   UNL A   1      43.885  32.625  33.786  1.00  0.00     0.031 C 
ATOM     51  C   UNL A   1      43.968  27.562  30.441  1.00  0.00     0.029 A 
ATOM     52  C   UNL A   1      43.574  28.758  31.020  1.00  0.00     0.049 A 
ATOM     53  H   UNL A   1      41.760  29.810  30.800  1.00  0.00     0.167 HD
ATOM     54  C   UNL A   1      43.846  30.754  32.464  1.00  0.00     0.074 A 
ATOM     55  C   UNL A   1      44.595  31.577  33.392  1.00  0.00     0.031 C 
ATOM     56  C   UNL A   1      44.306  29.595  31.934  1.00  0.00     0.031 A 
BRANCH  43  57
ATOM     57  C   UNL A   1      40.293  26.798  28.163  1.00  0.00    -0.014 A 
ATOM     58  C   UNL A   1      39.577  25.706  28.681  1.00  0.00     0.009 A 
ATOM     59  C   UNL A   1      40.699  26.769  26.821  1.00  0.00     0.009 A 
ATOM     60  C   UNL A   1      39.315  24.590  27.886  1.00  0.00     0.001 A 
ATOM     61  C   UNL A   1      40.409  25.664  26.018  1.00  0.00     0.001 A 
ATOM     62  C   UNL A   1      39.728  24.571  26.554  1.00  0.00     0.000 A 
ENDBRANCH  43  57
BRANCH  44  63
ATOM     63  C   UNL A   1      41.868  34.718  34.019  1.00  0.00    -0.014 A 
ATOM     64  C   UNL A   1      42.554  35.841  33.528  1.00  0.00     0.009 A 
ATOM     65  C   UNL A   1      41.453  34.711  35.359  1.00  0.00     0.009 A 
ATOM     66  C   UNL A   1      42.846  36.918  34.368  1.00  0.00     0.001 A 
ATOM     67  C   UNL A   1      41.724  35.802  36.191  1.00  0.00     0.001 A 
ATOM     68  C   UNL A   1      42.428  36.899  35.698  1.00  0.00     0.000 A 
ENDBRANCH  44  63
BRANCH  56  69
ATOM     69  C   UNL A   1      45.695  29.166  32.311  1.00  0.00    -0.014 A 
ATOM     70  C   UNL A   1      45.920  28.316  33.404  1.00  0.00     0.009 A 
ATOM     71  C   UNL A   1      46.783  29.576  31.527  1.00  0.00     0.009 A 
ATOM     72  C   UNL A   1      47.217  27.905  33.718  1.00  0.00     0.001 A 
ATOM     73  C   UNL A   1      48.074  29.144  31.829  1.00  0.00     0.001 A 
ATOM     74  C   UNL A   1      48.291  28.314  32.928  1.00  0.00     0.000 A 
ENDBRANCH  56  69
ENDBRANCH  30  31
ENDBRANCH  22  25
ENDBRANCH  20  21
ENDBRANCH  19  20
ENDBRANCH  18  19
ENDBRANCH   1  18
TORSDOF 16
ENDMDL
