MODEL 1
REMARK VINA RESULT:     -12.1      0.000      0.000
REMARK SMILES O=C(CCN1C(=O)S/C(=C\c2ccccc2F)C1=O)Nc1ccc(C(=O)NCCCCNC(=O)c2ccc(-c3c4nc(c(-c5ccccc5)c5ccc([nH]5)c(-c5ccccc5)c5nc(c(-c6ccccc6)c6ccc3[nH]6)C=C5)C=C4)cc2)c(O)c1
REMARK SMILES IDX 28 1 27 2 25 3 26 4 24 6 21 7 22 8 85 9 23 10 83 11 20 12
REMARK SMILES IDX 1 13 2 14 3 16 4 17 5 18 6 19 18 20 7 21 8 22 9 23 19 24
REMARK SMILES IDX 10 25 11 26 12 27 16 28 13 29 15 30 17 31 14 32 84 33 29 35
REMARK SMILES IDX 30 36 31 37 32 38 33 39 34 41 35 42 36 43 82 44 37 45 81 46
REMARK SMILES IDX 38 47 39 48 40 49 75 50 41 51 80 52 74 53 76 54 42 55 79 56
REMARK SMILES IDX 73 57 72 58 43 60 65 61 50 62 64 63 51 64 54 65 63 66 77 67
REMARK SMILES IDX 52 68 53 69 62 71 78 72 55 73 44 74 45 75 49 76 46 77 48 78
REMARK SMILES IDX 47 79 66 80 67 81 71 82 68 83 70 84 69 85 56 86 57 87 61 88
REMARK SMILES IDX 58 89 60 90 59 91
REMARK H PARENT 27 5 20 15 84 34 32 40 76 59 54 70
REMARK Flexibility Score: inf
ROOT
ATOM      1  C   UNL A   1      37.866  23.243  26.185  1.00  0.00     0.116 C 
ENDROOT
BRANCH   1   2
ATOM      2  N   UNL A   1      38.003  21.863  25.742  1.00  0.00    -0.352 N 
ATOM      3  C   UNL A   1      37.177  21.103  24.943  1.00  0.00     0.255 C 
ATOM      4  O   UNL A   1      37.473  19.931  24.721  1.00  0.00    -0.269 OA
ATOM      5  H   UNL A   1      38.810  21.401  26.064  1.00  0.00     0.163 HD
BRANCH   3   6
ATOM      6  C   UNL A   1      35.930  21.658  24.360  1.00  0.00     0.081 A 
ATOM      7  C   UNL A   1      33.479  22.741  23.493  1.00  0.00     0.044 A 
ATOM      8  C   UNL A   1      33.491  21.652  24.362  1.00  0.00     0.027 A 
ATOM      9  C   UNL A   1      34.692  23.222  22.990  1.00  0.00     0.073 A 
ATOM     10  C   UNL A   1      34.713  21.107  24.786  1.00  0.00     0.020 A 
ATOM     11  C   UNL A   1      35.903  22.669  23.400  1.00  0.00     0.130 A 
BRANCH   7  12
ATOM     12  N   UNL A   1      32.314  23.402  23.067  1.00  0.00    -0.326 N 
ATOM     13  O   UNL A   1      30.972  23.348  24.969  1.00  0.00    -0.275 OA
ATOM     14  C   UNL A   1      31.186  23.690  23.812  1.00  0.00     0.226 C 
ATOM     15  H   UNL A   1      32.299  23.695  22.128  1.00  0.00     0.169 HD
BRANCH  14  16
ATOM     16  C   UNL A   1      30.177  24.525  23.040  1.00  0.00     0.122 C 
BRANCH  16  17
ATOM     17  C   UNL A   1      29.457  25.565  23.908  1.00  0.00     0.140 C 
BRANCH  17  18
ATOM     18  N   UNL A   1      30.316  26.659  24.357  1.00  0.00    -0.268 N 
ATOM     19  C   UNL A   1      30.735  27.635  23.489  1.00  0.00     0.293 C 
ATOM     20  C   UNL A   1      30.712  26.784  25.671  1.00  0.00     0.268 C 
ATOM     21  O   UNL A   1      30.479  27.713  22.301  1.00  0.00    -0.261 OA
ATOM     22  S   UNL A   1      31.802  28.755  24.312  1.00  0.00    -0.022 SA
ATOM     23  C   UNL A   1      31.657  27.925  25.811  1.00  0.00     0.083 C 
ATOM     24  O   UNL A   1      30.402  26.041  26.590  1.00  0.00    -0.268 OA
ATOM     25  C   UNL A   1      32.335  28.140  26.948  1.00  0.00     0.032 C 
BRANCH  25  26
ATOM     26  C   UNL A   1      33.348  29.180  27.166  1.00  0.00     0.012 A 
ATOM     27  C   UNL A   1      34.691  28.812  27.322  1.00  0.00     0.011 A 
ATOM     28  C   UNL A   1      33.011  30.534  27.253  1.00  0.00     0.130 A 
ATOM     29  C   UNL A   1      35.672  29.784  27.542  1.00  0.00     0.001 A 
ATOM     30  C   UNL A   1      33.984  31.507  27.471  1.00  0.00     0.040 A 
ATOM     31  F   UNL A   1      31.731  30.921  27.142  1.00  0.00    -0.206 F 
ATOM     32  C   UNL A   1      35.319  31.132  27.613  1.00  0.00     0.003 A 
ENDBRANCH  25  26
ENDBRANCH  17  18
ENDBRANCH  16  17
ENDBRANCH  14  16
ENDBRANCH   7  12
BRANCH  11  33
ATOM     33  O   UNL A   1      37.019  23.159  22.779  1.00  0.00    -0.507 OA
ATOM     34  H   UNL A   1      37.714  22.579  22.537  1.00  0.00     0.293 HD
ENDBRANCH  11  33
ENDBRANCH   3   6
ENDBRANCH   1   2
BRANCH   1  35
ATOM     35  C   UNL A   1      39.111  23.827  26.850  1.00  0.00     0.023 C 
BRANCH  35  36
ATOM     36  C   UNL A   1      40.359  22.945  26.847  1.00  0.00     0.023 C 
BRANCH  36  37
ATOM     37  C   UNL A   1      41.697  23.675  26.867  1.00  0.00     0.116 C 
BRANCH  37  38
ATOM     38  N   UNL A   1      41.831  24.682  25.823  1.00  0.00    -0.352 N 
ATOM     39  C   UNL A   1      41.790  26.056  25.917  1.00  0.00     0.251 C 
ATOM     40  H   UNL A   1      41.973  24.328  24.916  1.00  0.00     0.163 HD
ATOM     41  O   UNL A   1      41.823  26.749  24.906  1.00  0.00    -0.269 OA
BRANCH  39  42
ATOM     42  C   UNL A   1      41.668  26.695  27.244  1.00  0.00     0.039 A 
ATOM     43  C   UNL A   1      42.562  27.707  27.602  1.00  0.00     0.014 A 
ATOM     44  C   UNL A   1      40.639  26.326  28.112  1.00  0.00     0.014 A 
ATOM     45  C   UNL A   1      42.362  28.418  28.790  1.00  0.00     0.010 A 
ATOM     46  C   UNL A   1      40.384  27.098  29.238  1.00  0.00     0.010 A 
ATOM     47  C   UNL A   1      41.241  28.153  29.592  1.00  0.00    -0.014 A 
BRANCH  47  48
ATOM     48  C   UNL A   1      40.940  28.935  30.819  1.00  0.00     0.031 A 
ATOM     49  C   UNL A   1      39.833  29.956  30.792  1.00  0.00     0.074 A 
ATOM     50  C   UNL A   1      41.713  28.811  31.916  1.00  0.00     0.049 A 
ATOM     51  N   UNL A   1      39.509  30.850  31.690  1.00  0.00    -0.248 NA
ATOM     52  C   UNL A   1      39.002  29.995  29.577  1.00  0.00     0.031 C 
ATOM     53  C   UNL A   1      42.832  27.878  32.069  1.00  0.00     0.029 A 
ATOM     54  N   UNL A   1      41.686  29.491  33.110  1.00  0.00    -0.354 N 
ATOM     55  C   UNL A   1      38.463  31.577  31.134  1.00  0.00     0.074 A 
ATOM     56  C   UNL A   1      38.243  31.055  29.804  1.00  0.00     0.031 C 
ATOM     57  C   UNL A   1      43.369  28.031  33.291  1.00  0.00     0.029 A 
ATOM     58  C   UNL A   1      42.671  29.108  33.988  1.00  0.00     0.049 A 
ATOM     59  H   UNL A   1      41.021  30.187  33.316  1.00  0.00     0.167 HD
ATOM     60  C   UNL A   1      37.735  32.575  31.688  1.00  0.00     0.031 A 
ATOM     61  C   UNL A   1      42.991  29.583  35.208  1.00  0.00     0.031 A 
ATOM     62  C   UNL A   1      37.943  33.081  33.016  1.00  0.00     0.049 A 
ATOM     63  C   UNL A   1      42.188  30.716  35.790  1.00  0.00     0.074 A 
ATOM     64  C   UNL A   1      37.226  34.057  33.687  1.00  0.00     0.029 A 
ATOM     65  N   UNL A   1      38.943  32.653  33.874  1.00  0.00    -0.354 N 
ATOM     66  N   UNL A   1      41.168  31.358  35.273  1.00  0.00    -0.248 NA
ATOM     67  C   UNL A   1      42.576  31.188  37.128  1.00  0.00     0.031 C 
ATOM     68  C   UNL A   1      37.830  34.261  34.930  1.00  0.00     0.029 A 
ATOM     69  C   UNL A   1      38.875  33.361  35.062  1.00  0.00     0.049 A 
ATOM     70  H   UNL A   1      39.602  31.951  33.671  1.00  0.00     0.167 HD
ATOM     71  C   UNL A   1      40.765  32.272  36.238  1.00  0.00     0.074 A 
ATOM     72  C   UNL A   1      41.649  32.104  37.372  1.00  0.00     0.031 C 
ATOM     73  C   UNL A   1      39.748  33.166  36.191  1.00  0.00     0.031 A 
BRANCH  60  74
ATOM     74  C   UNL A   1      36.651  33.191  30.847  1.00  0.00    -0.014 A 
ATOM     75  C   UNL A   1      35.293  33.002  31.150  1.00  0.00     0.009 A 
ATOM     76  C   UNL A   1      36.994  34.000  29.752  1.00  0.00     0.009 A 
ATOM     77  C   UNL A   1      34.301  33.573  30.349  1.00  0.00     0.001 A 
ATOM     78  C   UNL A   1      36.002  34.600  28.975  1.00  0.00     0.001 A 
ATOM     79  C   UNL A   1      34.657  34.376  29.267  1.00  0.00     0.000 A 
ENDBRANCH  60  74
BRANCH  61  80
ATOM     80  C   UNL A   1      44.120  28.988  35.973  1.00  0.00    -0.014 A 
ATOM     81  C   UNL A   1      45.424  29.489  35.823  1.00  0.00     0.009 A 
ATOM     82  C   UNL A   1      43.909  27.907  36.842  1.00  0.00     0.009 A 
ATOM     83  C   UNL A   1      46.494  28.897  36.501  1.00  0.00     0.001 A 
ATOM     84  C   UNL A   1      44.975  27.339  37.544  1.00  0.00     0.001 A 
ATOM     85  C   UNL A   1      46.268  27.826  37.364  1.00  0.00     0.000 A 
ENDBRANCH  61  80
BRANCH  73  86
ATOM     86  C   UNL A   1      39.475  33.985  37.422  1.00  0.00    -0.014 A 
ATOM     87  C   UNL A   1      38.708  33.487  38.486  1.00  0.00     0.009 A 
ATOM     88  C   UNL A   1      40.076  35.248  37.550  1.00  0.00     0.009 A 
ATOM     89  C   UNL A   1      38.533  34.248  39.643  1.00  0.00     0.001 A 
ATOM     90  C   UNL A   1      39.926  35.992  38.720  1.00  0.00     0.001 A 
ATOM     91  C   UNL A   1      39.149  35.493  39.763  1.00  0.00     0.000 A 
ENDBRANCH  73  86
ENDBRANCH  47  48
ENDBRANCH  39  42
ENDBRANCH  37  38
ENDBRANCH  36  37
ENDBRANCH  35  36
ENDBRANCH   1  35
TORSDOF 17
ENDMDL
MODEL 2
REMARK VINA RESULT:     -11.9      5.464     12.522
REMARK SMILES O=C(CCN1C(=O)S/C(=C\c2ccccc2F)C1=O)Nc1ccc(C(=O)NCCCCNC(=O)c2ccc(-c3c4nc(c(-c5ccccc5)c5ccc([nH]5)c(-c5ccccc5)c5nc(c(-c6ccccc6)c6ccc3[nH]6)C=C5)C=C4)cc2)c(O)c1
REMARK SMILES IDX 28 1 27 2 25 3 26 4 24 6 21 7 22 8 85 9 23 10 83 11 20 12
REMARK SMILES IDX 1 13 2 14 3 16 4 17 5 18 6 19 18 20 7 21 8 22 9 23 19 24
REMARK SMILES IDX 10 25 11 26 12 27 16 28 13 29 15 30 17 31 14 32 84 33 29 35
REMARK SMILES IDX 30 36 31 37 32 38 33 39 34 41 35 42 36 43 82 44 37 45 81 46
REMARK SMILES IDX 38 47 39 48 40 49 75 50 41 51 80 52 74 53 76 54 42 55 79 56
REMARK SMILES IDX 73 57 72 58 43 60 65 61 50 62 64 63 51 64 54 65 63 66 77 67
REMARK SMILES IDX 52 68 53 69 62 71 78 72 55 73 44 74 45 75 49 76 46 77 48 78
REMARK SMILES IDX 47 79 66 80 67 81 71 82 68 83 70 84 69 85 56 86 57 87 61 88
REMARK SMILES IDX 58 89 60 90 59 91
REMARK H PARENT 27 5 20 15 84 34 32 40 76 59 54 70
REMARK Flexibility Score: inf
ROOT
ATOM      1  C   UNL A   1      38.592  34.224  30.241  1.00  0.00     0.116 C 
ENDROOT
BRANCH   1   2
ATOM      2  N   UNL A   1      37.846  34.727  31.386  1.00  0.00    -0.352 N 
ATOM      3  C   UNL A   1      37.763  34.241  32.672  1.00  0.00     0.255 C 
ATOM      4  O   UNL A   1      37.036  34.812  33.481  1.00  0.00    -0.269 OA
ATOM      5  H   UNL A   1      37.318  35.540  31.213  1.00  0.00     0.163 HD
BRANCH   3   6
ATOM      6  C   UNL A   1      38.515  33.035  33.100  1.00  0.00     0.081 A 
ATOM      7  C   UNL A   1      39.884  30.644  33.685  1.00  0.00     0.044 A 
ATOM      8  C   UNL A   1      38.552  30.603  33.278  1.00  0.00     0.027 A 
ATOM      9  C   UNL A   1      40.495  31.886  33.887  1.00  0.00     0.073 A 
ATOM     10  C   UNL A   1      37.869  31.795  32.995  1.00  0.00     0.020 A 
ATOM     11  C   UNL A   1      39.809  33.069  33.621  1.00  0.00     0.130 A 
BRANCH   7  12
ATOM     12  N   UNL A   1      40.676  29.507  33.922  1.00  0.00    -0.326 N 
ATOM     13  O   UNL A   1      40.672  29.357  36.245  1.00  0.00    -0.275 OA
ATOM     14  C   UNL A   1      40.982  28.930  35.139  1.00  0.00     0.226 C 
ATOM     15  H   UNL A   1      41.058  29.071  33.127  1.00  0.00     0.169 HD
BRANCH  14  16
ATOM     16  C   UNL A   1      41.769  27.637  34.988  1.00  0.00     0.122 C 
BRANCH  16  17
ATOM     17  C   UNL A   1      43.288  27.851  34.960  1.00  0.00     0.140 C 
BRANCH  17  18
ATOM     18  N   UNL A   1      44.051  26.644  34.649  1.00  0.00    -0.268 N 
ATOM     19  C   UNL A   1      44.249  26.242  33.353  1.00  0.00     0.293 C 
ATOM     20  C   UNL A   1      44.635  25.877  35.634  1.00  0.00     0.268 C 
ATOM     21  O   UNL A   1      43.834  26.791  32.348  1.00  0.00    -0.261 OA
ATOM     22  S   UNL A   1      45.135  24.731  33.320  1.00  0.00    -0.022 SA
ATOM     23  C   UNL A   1      45.253  24.663  35.034  1.00  0.00     0.083 C 
ATOM     24  O   UNL A   1      44.605  26.102  36.835  1.00  0.00    -0.268 OA
ATOM     25  C   UNL A   1      45.719  23.662  35.795  1.00  0.00     0.032 C 
BRANCH  25  26
ATOM     26  C   UNL A   1      46.270  22.392  35.309  1.00  0.00     0.012 A 
ATOM     27  C   UNL A   1      45.484  21.233  35.367  1.00  0.00     0.011 A 
ATOM     28  C   UNL A   1      47.573  22.292  34.813  1.00  0.00     0.130 A 
ATOM     29  C   UNL A   1      45.991  20.009  34.920  1.00  0.00     0.001 A 
ATOM     30  C   UNL A   1      48.084  21.075  34.365  1.00  0.00     0.040 A 
ATOM     31  F   UNL A   1      48.366  23.374  34.773  1.00  0.00    -0.206 F 
ATOM     32  C   UNL A   1      47.290  19.931  34.416  1.00  0.00     0.003 A 
ENDBRANCH  25  26
ENDBRANCH  17  18
ENDBRANCH  16  17
ENDBRANCH  14  16
ENDBRANCH   7  12
BRANCH  11  33
ATOM     33  O   UNL A   1      40.472  34.223  33.936  1.00  0.00    -0.507 OA
ATOM     34  H   UNL A   1      40.114  34.811  34.571  1.00  0.00     0.293 HD
ENDBRANCH  11  33
ENDBRANCH   3   6
ENDBRANCH   1   2
BRANCH   1  35
ATOM     35  C   UNL A   1      37.787  33.340  29.291  1.00  0.00     0.023 C 
BRANCH  35  36
ATOM     36  C   UNL A   1      36.304  33.678  29.142  1.00  0.00     0.023 C 
BRANCH  36  37
ATOM     37  C   UNL A   1      35.331  32.777  29.894  1.00  0.00     0.116 C 
BRANCH  37  38
ATOM     38  N   UNL A   1      34.443  32.018  29.025  1.00  0.00    -0.352 N 
ATOM     39  C   UNL A   1      34.680  30.854  28.327  1.00  0.00     0.251 C 
ATOM     40  H   UNL A   1      33.538  32.391  28.921  1.00  0.00     0.163 HD
ATOM     41  O   UNL A   1      33.836  30.406  27.558  1.00  0.00    -0.269 OA
BRANCH  39  42
ATOM     42  C   UNL A   1      35.977  30.161  28.481  1.00  0.00     0.039 A 
ATOM     43  C   UNL A   1      36.902  30.195  27.434  1.00  0.00     0.014 A 
ATOM     44  C   UNL A   1      36.296  29.520  29.679  1.00  0.00     0.014 A 
ATOM     45  C   UNL A   1      38.185  29.674  27.626  1.00  0.00     0.010 A 
ATOM     46  C   UNL A   1      37.599  29.093  29.902  1.00  0.00     0.010 A 
ATOM     47  C   UNL A   1      38.560  29.164  28.879  1.00  0.00    -0.014 A 
BRANCH  47  48
ATOM     48  C   UNL A   1      39.935  28.674  29.158  1.00  0.00     0.031 A 
ATOM     49  C   UNL A   1      40.948  29.613  29.755  1.00  0.00     0.074 A 
ATOM     50  C   UNL A   1      40.306  27.432  28.786  1.00  0.00     0.049 A 
ATOM     51  N   UNL A   1      42.233  29.444  29.930  1.00  0.00    -0.248 NA
ATOM     52  C   UNL A   1      40.452  30.934  30.181  1.00  0.00     0.031 C 
ATOM     53  C   UNL A   1      39.432  26.427  28.177  1.00  0.00     0.029 A 
ATOM     54  N   UNL A   1      41.529  26.809  28.852  1.00  0.00    -0.354 N 
ATOM     55  C   UNL A   1      42.701  30.643  30.452  1.00  0.00     0.074 A 
ATOM     56  C   UNL A   1      41.576  31.548  30.515  1.00  0.00     0.031 C 
ATOM     57  C   UNL A   1      40.141  25.311  27.944  1.00  0.00     0.029 A 
ATOM     58  C   UNL A   1      41.530  25.536  28.334  1.00  0.00     0.049 A 
ATOM     59  H   UNL A   1      42.330  27.236  29.234  1.00  0.00     0.167 HD
ATOM     60  C   UNL A   1      43.952  30.959  30.864  1.00  0.00     0.031 A 
ATOM     61  C   UNL A   1      42.538  24.656  28.172  1.00  0.00     0.031 A 
ATOM     62  C   UNL A   1      45.067  30.054  30.817  1.00  0.00     0.049 A 
ATOM     63  C   UNL A   1      43.927  25.041  28.606  1.00  0.00     0.074 A 
ATOM     64  C   UNL A   1      46.363  30.261  31.256  1.00  0.00     0.029 A 
ATOM     65  N   UNL A   1      45.018  28.770  30.298  1.00  0.00    -0.354 N 
ATOM     66  N   UNL A   1      44.344  26.161  29.147  1.00  0.00    -0.248 NA
ATOM     67  C   UNL A   1      44.986  24.038  28.414  1.00  0.00     0.031 C 
ATOM     68  C   UNL A   1      47.113  29.124  30.949  1.00  0.00     0.029 A 
ATOM     69  C   UNL A   1      46.267  28.181  30.387  1.00  0.00     0.049 A 
ATOM     70  H   UNL A   1      44.215  28.340  29.924  1.00  0.00     0.167 HD
ATOM     71  C   UNL A   1      45.698  25.980  29.402  1.00  0.00     0.074 A 
ATOM     72  C   UNL A   1      46.034  24.643  28.957  1.00  0.00     0.031 C 
ATOM     73  C   UNL A   1      46.581  26.841  29.961  1.00  0.00     0.031 A 
BRANCH  60  74
ATOM     74  C   UNL A   1      44.179  32.349  31.391  1.00  0.00    -0.014 A 
ATOM     75  C   UNL A   1      44.003  32.654  32.750  1.00  0.00     0.009 A 
ATOM     76  C   UNL A   1      44.606  33.364  30.519  1.00  0.00     0.009 A 
ATOM     77  C   UNL A   1      44.207  33.955  33.217  1.00  0.00     0.001 A 
ATOM     78  C   UNL A   1      44.845  34.654  30.995  1.00  0.00     0.001 A 
ATOM     79  C   UNL A   1      44.633  34.951  32.340  1.00  0.00     0.000 A 
ENDBRANCH  60  74
BRANCH  61  80
ATOM     80  C   UNL A   1      42.277  23.317  27.577  1.00  0.00    -0.014 A 
ATOM     81  C   UNL A   1      42.578  23.065  26.229  1.00  0.00     0.009 A 
ATOM     82  C   UNL A   1      41.710  22.288  28.345  1.00  0.00     0.009 A 
ATOM     83  C   UNL A   1      42.286  21.825  25.656  1.00  0.00     0.001 A 
ATOM     84  C   UNL A   1      41.450  21.039  27.778  1.00  0.00     0.001 A 
ATOM     85  C   UNL A   1      41.727  20.811  26.431  1.00  0.00     0.000 A 
ENDBRANCH  61  80
BRANCH  73  86
ATOM     86  C   UNL A   1      47.983  26.352  30.201  1.00  0.00    -0.014 A 
ATOM     87  C   UNL A   1      48.374  25.808  31.434  1.00  0.00     0.009 A 
ATOM     88  C   UNL A   1      48.901  26.359  29.138  1.00  0.00     0.009 A 
ATOM     89  C   UNL A   1      49.664  25.300  31.600  1.00  0.00     0.001 A 
ATOM     90  C   UNL A   1      50.178  25.822  29.298  1.00  0.00     0.001 A 
ATOM     91  C   UNL A   1      50.560  25.298  30.531  1.00  0.00     0.000 A 
ENDBRANCH  73  86
ENDBRANCH  47  48
ENDBRANCH  39  42
ENDBRANCH  37  38
ENDBRANCH  36  37
ENDBRANCH  35  36
ENDBRANCH   1  35
TORSDOF 17
ENDMDL
MODEL 3
REMARK VINA RESULT:     -11.6      0.516      5.584
REMARK SMILES O=C(CCN1C(=O)S/C(=C\c2ccccc2F)C1=O)Nc1ccc(C(=O)NCCCCNC(=O)c2ccc(-c3c4nc(c(-c5ccccc5)c5ccc([nH]5)c(-c5ccccc5)c5nc(c(-c6ccccc6)c6ccc3[nH]6)C=C5)C=C4)cc2)c(O)c1
REMARK SMILES IDX 28 1 27 2 25 3 26 4 24 6 21 7 22 8 85 9 23 10 83 11 20 12
REMARK SMILES IDX 1 13 2 14 3 16 4 17 5 18 6 19 18 20 7 21 8 22 9 23 19 24
REMARK SMILES IDX 10 25 11 26 12 27 16 28 13 29 15 30 17 31 14 32 84 33 29 35
REMARK SMILES IDX 30 36 31 37 32 38 33 39 34 41 35 42 36 43 82 44 37 45 81 46
REMARK SMILES IDX 38 47 39 48 40 49 75 50 41 51 80 52 74 53 76 54 42 55 79 56
REMARK SMILES IDX 73 57 72 58 43 60 65 61 50 62 64 63 51 64 54 65 63 66 77 67
REMARK SMILES IDX 52 68 53 69 62 71 78 72 55 73 44 74 45 75 49 76 46 77 48 78
REMARK SMILES IDX 47 79 66 80 67 81 71 82 68 83 70 84 69 85 56 86 57 87 61 88
REMARK SMILES IDX 58 89 60 90 59 91
REMARK H PARENT 27 5 20 15 84 34 32 40 76 59 54 70
REMARK Flexibility Score: inf
ROOT
ATOM      1  C   UNL A   1      37.824  23.241  26.255  1.00  0.00     0.116 C 
ENDROOT
BRANCH   1   2
ATOM      2  N   UNL A   1      37.977  21.863  25.807  1.00  0.00    -0.352 N 
ATOM      3  C   UNL A   1      37.169  21.102  24.992  1.00  0.00     0.255 C 
ATOM      4  O   UNL A   1      37.476  19.933  24.769  1.00  0.00    -0.269 OA
ATOM      5  H   UNL A   1      38.783  21.405  26.139  1.00  0.00     0.163 HD
BRANCH   3   6
ATOM      6  C   UNL A   1      35.927  21.651  24.393  1.00  0.00     0.081 A 
ATOM      7  C   UNL A   1      33.480  22.718  23.493  1.00  0.00     0.044 A 
ATOM      8  C   UNL A   1      33.489  21.612  24.341  1.00  0.00     0.027 A 
ATOM      9  C   UNL A   1      34.697  23.225  23.026  1.00  0.00     0.073 A 
ATOM     10  C   UNL A   1      34.709  21.076  24.781  1.00  0.00     0.020 A 
ATOM     11  C   UNL A   1      35.907  22.681  23.452  1.00  0.00     0.130 A 
BRANCH   7  12
ATOM     12  N   UNL A   1      32.316  23.372  23.055  1.00  0.00    -0.326 N 
ATOM     13  O   UNL A   1      31.025  23.468  24.991  1.00  0.00    -0.275 OA
ATOM     14  C   UNL A   1      31.214  23.729  23.808  1.00  0.00     0.226 C 
ATOM     15  H   UNL A   1      32.281  23.602  22.099  1.00  0.00     0.169 HD
BRANCH  14  16
ATOM     16  C   UNL A   1      30.198  24.530  23.009  1.00  0.00     0.122 C 
BRANCH  16  17
ATOM     17  C   UNL A   1      29.428  25.552  23.855  1.00  0.00     0.140 C 
BRANCH  17  18
ATOM     18  N   UNL A   1      30.243  26.673  24.319  1.00  0.00    -0.268 N 
ATOM     19  C   UNL A   1      30.613  27.682  23.467  1.00  0.00     0.293 C 
ATOM     20  C   UNL A   1      30.644  26.790  25.632  1.00  0.00     0.268 C 
ATOM     21  O   UNL A   1      30.345  27.771  22.282  1.00  0.00    -0.261 OA
ATOM     22  S   UNL A   1      31.638  28.830  24.304  1.00  0.00    -0.022 SA
ATOM     23  C   UNL A   1      31.541  27.967  25.787  1.00  0.00     0.083 C 
ATOM     24  O   UNL A   1      30.372  26.017  26.539  1.00  0.00    -0.268 OA
ATOM     25  C   UNL A   1      32.218  28.189  26.923  1.00  0.00     0.032 C 
BRANCH  25  26
ATOM     26  C   UNL A   1      33.187  29.267  27.154  1.00  0.00     0.012 A 
ATOM     27  C   UNL A   1      34.543  28.952  27.311  1.00  0.00     0.011 A 
ATOM     28  C   UNL A   1      32.796  30.606  27.253  1.00  0.00     0.130 A 
ATOM     29  C   UNL A   1      35.484  29.960  27.543  1.00  0.00     0.001 A 
ATOM     30  C   UNL A   1      33.728  31.615  27.483  1.00  0.00     0.040 A 
ATOM     31  F   UNL A   1      31.501  30.941  27.141  1.00  0.00    -0.206 F 
ATOM     32  C   UNL A   1      35.077  31.292  27.626  1.00  0.00     0.003 A 
ENDBRANCH  25  26
ENDBRANCH  17  18
ENDBRANCH  16  17
ENDBRANCH  14  16
ENDBRANCH   7  12
BRANCH  11  33
ATOM     33  O   UNL A   1      37.029  23.198  22.866  1.00  0.00    -0.507 OA
ATOM     34  H   UNL A   1      37.744  23.490  23.397  1.00  0.00     0.293 HD
ENDBRANCH  11  33
ENDBRANCH   3   6
ENDBRANCH   1   2
BRANCH   1  35
ATOM     35  C   UNL A   1      39.103  23.885  26.786  1.00  0.00     0.023 C 
BRANCH  35  36
ATOM     36  C   UNL A   1      40.303  22.958  26.975  1.00  0.00     0.023 C 
BRANCH  36  37
ATOM     37  C   UNL A   1      41.652  23.639  27.174  1.00  0.00     0.116 C 
BRANCH  37  38
ATOM     38  N   UNL A   1      42.134  24.343  25.993  1.00  0.00    -0.352 N 
ATOM     39  C   UNL A   1      42.162  25.694  25.726  1.00  0.00     0.251 C 
ATOM     40  H   UNL A   1      42.494  23.768  25.280  1.00  0.00     0.163 HD
ATOM     41  O   UNL A   1      42.516  26.104  24.626  1.00  0.00    -0.269 OA
BRANCH  39  42
ATOM     42  C   UNL A   1      41.726  26.653  26.763  1.00  0.00     0.039 A 
ATOM     43  C   UNL A   1      40.871  26.222  27.781  1.00  0.00     0.014 A 
ATOM     44  C   UNL A   1      42.201  27.966  26.754  1.00  0.00     0.014 A 
ATOM     45  C   UNL A   1      40.576  27.078  28.846  1.00  0.00     0.010 A 
ATOM     46  C   UNL A   1      41.988  28.779  27.860  1.00  0.00     0.010 A 
ATOM     47  C   UNL A   1      41.173  28.346  28.920  1.00  0.00    -0.014 A 
BRANCH  47  48
ATOM     48  C   UNL A   1      40.956  29.261  30.070  1.00  0.00     0.031 A 
ATOM     49  C   UNL A   1      41.813  29.120  31.300  1.00  0.00     0.074 A 
ATOM     50  C   UNL A   1      39.935  30.142  30.060  1.00  0.00     0.049 A 
ATOM     51  N   UNL A   1      41.692  29.700  32.466  1.00  0.00    -0.248 NA
ATOM     52  C   UNL A   1      42.938  28.173  31.213  1.00  0.00     0.031 C 
ATOM     53  C   UNL A   1      39.013  30.366  28.944  1.00  0.00     0.029 A 
ATOM     54  N   UNL A   1      39.489  31.004  31.034  1.00  0.00    -0.354 N 
ATOM     55  C   UNL A   1      42.700  29.163  33.258  1.00  0.00     0.074 A 
ATOM     56  C   UNL A   1      43.388  28.176  32.458  1.00  0.00     0.031 C 
ATOM     57  C   UNL A   1      38.128  31.315  29.289  1.00  0.00     0.029 A 
ATOM     58  C   UNL A   1      38.381  31.728  30.666  1.00  0.00     0.049 A 
ATOM     59  H   UNL A   1      39.925  31.093  31.913  1.00  0.00     0.167 HD
ATOM     60  C   UNL A   1      43.038  29.479  34.530  1.00  0.00     0.031 A 
ATOM     61  C   UNL A   1      37.639  32.611  31.365  1.00  0.00     0.031 A 
ATOM     62  C   UNL A   1      42.364  30.473  35.319  1.00  0.00     0.049 A 
ATOM     63  C   UNL A   1      38.014  32.922  32.790  1.00  0.00     0.074 A 
ATOM     64  C   UNL A   1      42.662  30.902  36.601  1.00  0.00     0.029 A 
ATOM     65  N   UNL A   1      41.256  31.192  34.900  1.00  0.00    -0.354 N 
ATOM     66  N   UNL A   1      39.003  32.444  33.507  1.00  0.00    -0.248 NA
ATOM     67  C   UNL A   1      37.175  33.898  33.500  1.00  0.00     0.031 C 
ATOM     68  C   UNL A   1      41.697  31.838  36.980  1.00  0.00     0.029 A 
ATOM     69  C   UNL A   1      40.844  32.047  35.908  1.00  0.00     0.049 A 
ATOM     70  H   UNL A   1      40.827  31.110  34.019  1.00  0.00     0.167 HD
ATOM     71  C   UNL A   1      38.932  33.096  34.732  1.00  0.00     0.074 A 
ATOM     72  C   UNL A   1      37.805  34.002  34.662  1.00  0.00     0.031 C 
ATOM     73  C   UNL A   1      39.734  32.961  35.815  1.00  0.00     0.031 A 
BRANCH  60  74
ATOM     74  C   UNL A   1      44.184  28.729  35.149  1.00  0.00    -0.014 A 
ATOM     75  C   UNL A   1      43.980  27.528  35.848  1.00  0.00     0.009 A 
ATOM     76  C   UNL A   1      45.494  29.213  35.005  1.00  0.00     0.009 A 
ATOM     77  C   UNL A   1      45.057  26.852  36.427  1.00  0.00     0.001 A 
ATOM     78  C   UNL A   1      46.573  28.516  35.552  1.00  0.00     0.001 A 
ATOM     79  C   UNL A   1      46.352  27.344  36.273  1.00  0.00     0.000 A 
ENDBRANCH  60  74
BRANCH  61  80
ATOM     80  C   UNL A   1      36.468  33.275  30.731  1.00  0.00    -0.014 A 
ATOM     81  C   UNL A   1      35.169  33.032  31.206  1.00  0.00     0.009 A 
ATOM     82  C   UNL A   1      36.636  34.138  29.638  1.00  0.00     0.009 A 
ATOM     83  C   UNL A   1      34.064  33.614  30.579  1.00  0.00     0.001 A 
ATOM     84  C   UNL A   1      35.532  34.745  29.034  1.00  0.00     0.001 A 
ATOM     85  C   UNL A   1      34.246  34.474  29.497  1.00  0.00     0.000 A 
ENDBRANCH  61  80
BRANCH  73  86
ATOM     86  C   UNL A   1      39.482  33.860  36.994  1.00  0.00    -0.014 A 
ATOM     87  C   UNL A   1      38.683  33.455  38.073  1.00  0.00     0.009 A 
ATOM     88  C   UNL A   1      40.134  35.102  37.058  1.00  0.00     0.009 A 
ATOM     89  C   UNL A   1      38.527  34.288  39.183  1.00  0.00     0.001 A 
ATOM     90  C   UNL A   1      40.002  35.917  38.182  1.00  0.00     0.001 A 
ATOM     91  C   UNL A   1      39.193  35.512  39.241  1.00  0.00     0.000 A 
ENDBRANCH  73  86
ENDBRANCH  47  48
ENDBRANCH  39  42
ENDBRANCH  37  38
ENDBRANCH  36  37
ENDBRANCH  35  36
ENDBRANCH   1  35
TORSDOF 17
ENDMDL
