MODEL 1
REMARK VINA RESULT:     -11.4      0.000      0.000
REMARK SMILES O=C(NCCCCNC(=O)c1cccc(-c2c(F)cc(F)cc2F)c1)c1ccc(-c2c3nc(c(-c4ccccc4)c4ccc([nH]4)c(-c4ccccc4)c4nc(c(-c5ccccc5)c5ccc2[nH]5)C=C4)C=C3)cc1
REMARK SMILES IDX 5 1 4 2 3 3 1 4 2 5 26 7 27 8 73 9 28 10 72 11 29 12 30 13
REMARK SMILES IDX 31 14 66 15 32 16 71 17 65 18 67 19 33 20 70 21 64 22 63 23
REMARK SMILES IDX 34 25 56 26 41 27 55 28 42 29 45 30 54 31 68 32 43 33 44 34
REMARK SMILES IDX 53 36 69 37 46 38 35 39 36 40 40 41 37 42 39 43 38 44 57 45
REMARK SMILES IDX 58 46 62 47 59 48 61 49 60 50 47 51 48 52 52 53 49 54 51 55
REMARK SMILES IDX 50 56 6 57 7 58 8 59 9 60 10 62 11 63 12 64 25 65 13 66
REMARK SMILES IDX 15 67 14 68 16 69 17 70 23 71 18 72 19 73 22 74 24 75 20 76
REMARK SMILES IDX 21 77
REMARK H PARENT 3 6 67 24 45 35 8 61
REMARK Flexibility Score: inf
ROOT
ATOM      1  C   UNL A   1      32.525  28.267  26.460  1.00  0.00     0.023 C 
ENDROOT
BRANCH   1   2
ATOM      2  C   UNL A   1      33.806  28.600  27.211  1.00  0.00     0.116 C 
BRANCH   2   3
ATOM      3  N   UNL A   1      33.822  29.951  27.755  1.00  0.00    -0.352 N 
ATOM      4  O   UNL A   1      34.631  31.727  28.891  1.00  0.00    -0.269 OA
ATOM      5  C   UNL A   1      34.838  30.625  28.393  1.00  0.00     0.251 C 
ATOM      6  H   UNL A   1      32.983  30.455  27.651  1.00  0.00     0.163 HD
BRANCH   5   7
ATOM      7  C   UNL A   1      36.173  29.999  28.514  1.00  0.00     0.039 A 
ATOM      8  C   UNL A   1      36.549  29.344  29.687  1.00  0.00     0.014 A 
ATOM      9  C   UNL A   1      37.070  30.096  27.447  1.00  0.00     0.014 A 
ATOM     10  C   UNL A   1      37.872  28.956  29.863  1.00  0.00     0.010 A 
ATOM     11  C   UNL A   1      38.376  29.616  27.591  1.00  0.00     0.010 A 
ATOM     12  C   UNL A   1      38.802  29.088  28.819  1.00  0.00    -0.014 A 
BRANCH  12  13
ATOM     13  C   UNL A   1      40.203  28.647  29.041  1.00  0.00     0.031 A 
ATOM     14  C   UNL A   1      40.674  27.286  28.601  1.00  0.00     0.074 A 
ATOM     15  C   UNL A   1      41.076  29.512  29.593  1.00  0.00     0.049 A 
ATOM     16  N   UNL A   1      41.881  26.779  28.650  1.00  0.00    -0.248 NA
ATOM     17  C   UNL A   1      39.665  26.373  28.042  1.00  0.00     0.031 C 
ATOM     18  C   UNL A   1      40.743  30.859  30.065  1.00  0.00     0.029 A 
ATOM     19  N   UNL A   1      42.424  29.405  29.817  1.00  0.00    -0.354 N 
ATOM     20  C   UNL A   1      41.772  25.483  28.157  1.00  0.00     0.074 A 
ATOM     21  C   UNL A   1      40.377  25.274  27.832  1.00  0.00     0.031 C 
ATOM     22  C   UNL A   1      41.868  31.478  30.454  1.00  0.00     0.029 A 
ATOM     23  C   UNL A   1      42.988  30.553  30.316  1.00  0.00     0.049 A 
ATOM     24  H   UNL A   1      42.938  28.584  29.637  1.00  0.00     0.167 HD
ATOM     25  C   UNL A   1      42.743  24.554  27.988  1.00  0.00     0.031 A 
ATOM     26  C   UNL A   1      44.264  30.836  30.631  1.00  0.00     0.031 A 
ATOM     27  C   UNL A   1      44.134  24.765  28.294  1.00  0.00     0.049 A 
ATOM     28  C   UNL A   1      45.318  29.787  30.440  1.00  0.00     0.074 A 
ATOM     29  C   UNL A   1      45.199  23.896  28.115  1.00  0.00     0.029 A 
ATOM     30  N   UNL A   1      44.656  25.926  28.843  1.00  0.00    -0.354 N 
ATOM     31  N   UNL A   1      45.199  28.581  29.942  1.00  0.00    -0.248 NA
ATOM     32  C   UNL A   1      46.681  30.141  30.857  1.00  0.00     0.031 C 
ATOM     33  C   UNL A   1      46.356  24.517  28.597  1.00  0.00     0.029 A 
ATOM     34  C   UNL A   1      46.020  25.788  29.032  1.00  0.00     0.049 A 
ATOM     35  H   UNL A   1      44.132  26.730  29.066  1.00  0.00     0.167 HD
ATOM     36  C   UNL A   1      46.474  28.035  29.971  1.00  0.00     0.074 A 
ATOM     37  C   UNL A   1      47.353  29.050  30.516  1.00  0.00     0.031 C 
ATOM     38  C   UNL A   1      46.880  26.803  29.583  1.00  0.00     0.031 A 
BRANCH  25  39
ATOM     39  C   UNL A   1      42.330  23.203  27.474  1.00  0.00    -0.014 A 
ATOM     40  C   UNL A   1      42.586  22.814  26.150  1.00  0.00     0.009 A 
ATOM     41  C   UNL A   1      41.715  22.289  28.344  1.00  0.00     0.009 A 
ATOM     42  C   UNL A   1      42.205  21.547  25.700  1.00  0.00     0.001 A 
ATOM     43  C   UNL A   1      41.356  21.015  27.898  1.00  0.00     0.001 A 
ATOM     44  C   UNL A   1      41.594  20.648  26.575  1.00  0.00     0.000 A 
ENDBRANCH  25  39
BRANCH  26  45
ATOM     45  C   UNL A   1      44.612  32.182  31.154  1.00  0.00    -0.014 A 
ATOM     46  C   UNL A   1      44.967  33.216  30.274  1.00  0.00     0.009 A 
ATOM     47  C   UNL A   1      44.576  32.442  32.533  1.00  0.00     0.009 A 
ATOM     48  C   UNL A   1      45.294  34.481  30.767  1.00  0.00     0.001 A 
ATOM     49  C   UNL A   1      44.875  33.715  33.020  1.00  0.00     0.001 A 
ATOM     50  C   UNL A   1      45.242  34.731  32.139  1.00  0.00     0.000 A 
ENDBRANCH  26  45
BRANCH  38  51
ATOM     51  C   UNL A   1      48.345  26.500  29.713  1.00  0.00    -0.014 A 
ATOM     52  C   UNL A   1      49.247  26.830  28.690  1.00  0.00     0.009 A 
ATOM     53  C   UNL A   1      48.828  25.886  30.878  1.00  0.00     0.009 A 
ATOM     54  C   UNL A   1      50.602  26.519  28.819  1.00  0.00     0.001 A 
ATOM     55  C   UNL A   1      50.186  25.598  31.014  1.00  0.00     0.001 A 
ATOM     56  C   UNL A   1      51.071  25.906  29.981  1.00  0.00     0.000 A 
ENDBRANCH  38  51
ENDBRANCH  12  13
ENDBRANCH   5   7
ENDBRANCH   2   3
ENDBRANCH   1   2
BRANCH   1  57
ATOM     57  C   UNL A   1      32.423  26.834  25.946  1.00  0.00     0.023 C 
BRANCH  57  58
ATOM     58  C   UNL A   1      31.017  26.372  25.578  1.00  0.00     0.116 C 
BRANCH  58  59
ATOM     59  N   UNL A   1      30.475  25.401  26.517  1.00  0.00    -0.352 N 
ATOM     60  C   UNL A   1      30.607  24.033  26.511  1.00  0.00     0.251 C 
ATOM     61  H   UNL A   1      29.943  25.774  27.256  1.00  0.00     0.163 HD
ATOM     62  O   UNL A   1      29.985  23.339  27.309  1.00  0.00    -0.269 OA
BRANCH  60  63
ATOM     63  C   UNL A   1      31.487  23.402  25.508  1.00  0.00     0.040 A 
ATOM     64  C   UNL A   1      30.966  23.091  24.253  1.00  0.00     0.014 A 
ATOM     65  C   UNL A   1      32.839  23.184  25.796  1.00  0.00     0.022 A 
ATOM     66  C   UNL A   1      31.823  22.621  23.260  1.00  0.00     0.001 A 
ATOM     67  C   UNL A   1      33.723  22.760  24.795  1.00  0.00    -0.012 A 
ATOM     68  C   UNL A   1      33.190  22.476  23.525  1.00  0.00     0.009 A 
BRANCH  67  69
ATOM     69  C   UNL A   1      35.169  22.694  25.063  1.00  0.00     0.053 A 
ATOM     70  C   UNL A   1      35.906  23.850  25.364  1.00  0.00     0.136 A 
ATOM     71  C   UNL A   1      35.862  21.474  25.093  1.00  0.00     0.136 A 
ATOM     72  F   UNL A   1      35.302  25.048  25.388  1.00  0.00    -0.206 F 
ATOM     73  C   UNL A   1      37.262  23.800  25.681  1.00  0.00     0.079 A 
ATOM     74  C   UNL A   1      37.217  21.403  25.404  1.00  0.00     0.079 A 
ATOM     75  F   UNL A   1      35.217  20.327  24.829  1.00  0.00    -0.206 F 
ATOM     76  C   UNL A   1      37.904  22.572  25.698  1.00  0.00     0.129 A 
ATOM     77  F   UNL A   1      39.204  22.512  26.010  1.00  0.00    -0.207 F 
ENDBRANCH  67  69
ENDBRANCH  60  63
ENDBRANCH  58  59
ENDBRANCH  57  58
ENDBRANCH   1  57
TORSDOF 12
ENDMDL
MODEL 2
REMARK VINA RESULT:     -11.4      0.407      6.013
REMARK SMILES O=C(NCCCCNC(=O)c1cccc(-c2c(F)cc(F)cc2F)c1)c1ccc(-c2c3nc(c(-c4ccccc4)c4ccc([nH]4)c(-c4ccccc4)c4nc(c(-c5ccccc5)c5ccc2[nH]5)C=C4)C=C3)cc1
REMARK SMILES IDX 5 1 4 2 3 3 1 4 2 5 26 7 27 8 73 9 28 10 72 11 29 12 30 13
REMARK SMILES IDX 31 14 66 15 32 16 71 17 65 18 67 19 33 20 70 21 64 22 63 23
REMARK SMILES IDX 34 25 56 26 41 27 55 28 42 29 45 30 54 31 68 32 43 33 44 34
REMARK SMILES IDX 53 36 69 37 46 38 35 39 36 40 40 41 37 42 39 43 38 44 57 45
REMARK SMILES IDX 58 46 62 47 59 48 61 49 60 50 47 51 48 52 52 53 49 54 51 55
REMARK SMILES IDX 50 56 6 57 7 58 8 59 9 60 10 62 11 63 12 64 25 65 13 66
REMARK SMILES IDX 15 67 14 68 16 69 17 70 23 71 18 72 19 73 22 74 24 75 20 76
REMARK SMILES IDX 21 77
REMARK H PARENT 3 6 67 24 45 35 8 61
REMARK Flexibility Score: inf
ROOT
ATOM      1  C   UNL A   1      32.392  27.923  26.931  1.00  0.00     0.023 C 
ENDROOT
BRANCH   1   2
ATOM      2  C   UNL A   1      33.782  28.511  27.130  1.00  0.00     0.116 C 
BRANCH   2   3
ATOM      3  N   UNL A   1      33.766  29.867  27.660  1.00  0.00    -0.352 N 
ATOM      4  O   UNL A   1      34.542  31.682  28.756  1.00  0.00    -0.269 OA
ATOM      5  C   UNL A   1      34.775  30.583  28.263  1.00  0.00     0.251 C 
ATOM      6  H   UNL A   1      32.907  30.340  27.576  1.00  0.00     0.163 HD
BRANCH   5   7
ATOM      7  C   UNL A   1      36.133  30.006  28.352  1.00  0.00     0.039 A 
ATOM      8  C   UNL A   1      36.572  29.395  29.527  1.00  0.00     0.014 A 
ATOM      9  C   UNL A   1      36.989  30.104  27.251  1.00  0.00     0.014 A 
ATOM     10  C   UNL A   1      37.913  29.057  29.666  1.00  0.00     0.010 A 
ATOM     11  C   UNL A   1      38.315  29.672  27.361  1.00  0.00     0.010 A 
ATOM     12  C   UNL A   1      38.802  29.192  28.586  1.00  0.00    -0.014 A 
BRANCH  12  13
ATOM     13  C   UNL A   1      40.224  28.804  28.769  1.00  0.00     0.031 A 
ATOM     14  C   UNL A   1      41.198  29.711  29.474  1.00  0.00     0.074 A 
ATOM     15  C   UNL A   1      40.624  27.590  28.346  1.00  0.00     0.049 A 
ATOM     16  N   UNL A   1      42.451  29.489  29.784  1.00  0.00    -0.248 NA
ATOM     17  C   UNL A   1      40.710  31.040  29.876  1.00  0.00     0.031 C 
ATOM     18  C   UNL A   1      39.778  26.619  27.647  1.00  0.00     0.029 A 
ATOM     19  N   UNL A   1      41.829  26.949  28.474  1.00  0.00    -0.354 N 
ATOM     20  C   UNL A   1      42.909  30.654  30.388  1.00  0.00     0.074 A 
ATOM     21  C   UNL A   1      41.804  31.590  30.385  1.00  0.00     0.031 C 
ATOM     22  C   UNL A   1      40.467  25.482  27.473  1.00  0.00     0.029 A 
ATOM     23  C   UNL A   1      41.818  25.663  27.991  1.00  0.00     0.049 A 
ATOM     24  H   UNL A   1      42.626  27.369  28.873  1.00  0.00     0.167 HD
ATOM     25  C   UNL A   1      44.134  30.920  30.901  1.00  0.00     0.031 A 
ATOM     26  C   UNL A   1      42.785  24.729  27.967  1.00  0.00     0.031 A 
ATOM     27  C   UNL A   1      45.229  29.986  30.922  1.00  0.00     0.049 A 
ATOM     28  C   UNL A   1      44.134  25.053  28.536  1.00  0.00     0.074 A 
ATOM     29  C   UNL A   1      46.495  30.151  31.460  1.00  0.00     0.029 A 
ATOM     30  N   UNL A   1      45.190  28.711  30.380  1.00  0.00    -0.354 N 
ATOM     31  N   UNL A   1      44.535  26.149  29.132  1.00  0.00    -0.248 NA
ATOM     32  C   UNL A   1      45.162  24.010  28.425  1.00  0.00     0.031 C 
ATOM     33  C   UNL A   1      47.235  28.992  31.204  1.00  0.00     0.029 A 
ATOM     34  C   UNL A   1      46.416  28.088  30.548  1.00  0.00     0.049 A 
ATOM     35  H   UNL A   1      44.407  28.308  29.940  1.00  0.00     0.167 HD
ATOM     36  C   UNL A   1      45.858  25.922  29.483  1.00  0.00     0.074 A 
ATOM     37  C   UNL A   1      46.184  24.578  29.050  1.00  0.00     0.031 C 
ATOM     38  C   UNL A   1      46.726  26.754  30.105  1.00  0.00     0.031 A 
BRANCH  25  39
ATOM     39  C   UNL A   1      44.369  32.296  31.459  1.00  0.00    -0.014 A 
ATOM     40  C   UNL A   1      44.147  32.585  32.815  1.00  0.00     0.009 A 
ATOM     41  C   UNL A   1      44.865  33.309  30.623  1.00  0.00     0.009 A 
ATOM     42  C   UNL A   1      44.387  33.869  33.313  1.00  0.00     0.001 A 
ATOM     43  C   UNL A   1      45.126  34.584  31.127  1.00  0.00     0.001 A 
ATOM     44  C   UNL A   1      44.879  34.865  32.470  1.00  0.00     0.000 A 
ENDBRANCH  25  39
BRANCH  26  45
ATOM     45  C   UNL A   1      42.502  23.392  27.385  1.00  0.00    -0.014 A 
ATOM     46  C   UNL A   1      42.760  23.138  26.030  1.00  0.00     0.009 A 
ATOM     47  C   UNL A   1      41.988  22.361  28.187  1.00  0.00     0.009 A 
ATOM     48  C   UNL A   1      42.494  21.881  25.485  1.00  0.00     0.001 A 
ATOM     49  C   UNL A   1      41.750  21.097  27.645  1.00  0.00     0.001 A 
ATOM     50  C   UNL A   1      41.995  20.860  26.294  1.00  0.00     0.000 A 
ENDBRANCH  26  45
BRANCH  38  51
ATOM     51  C   UNL A   1      48.103  26.218  30.376  1.00  0.00    -0.014 A 
ATOM     52  C   UNL A   1      48.435  25.670  31.624  1.00  0.00     0.009 A 
ATOM     53  C   UNL A   1      49.074  26.254  29.364  1.00  0.00     0.009 A 
ATOM     54  C   UNL A   1      49.727  25.198  31.864  1.00  0.00     0.001 A 
ATOM     55  C   UNL A   1      50.358  25.760  29.599  1.00  0.00     0.001 A 
ATOM     56  C   UNL A   1      50.687  25.241  30.852  1.00  0.00     0.000 A 
ENDBRANCH  38  51
ENDBRANCH  12  13
ENDBRANCH   5   7
ENDBRANCH   2   3
ENDBRANCH   1   2
BRANCH   1  57
ATOM     57  C   UNL A   1      32.262  26.929  25.781  1.00  0.00     0.023 C 
BRANCH  57  58
ATOM     58  C   UNL A   1      30.847  26.427  25.510  1.00  0.00     0.116 C 
BRANCH  58  59
ATOM     59  N   UNL A   1      30.404  25.431  26.475  1.00  0.00    -0.352 N 
ATOM     60  C   UNL A   1      30.632  24.075  26.477  1.00  0.00     0.251 C 
ATOM     61  H   UNL A   1      29.870  25.774  27.227  1.00  0.00     0.163 HD
ATOM     62  O   UNL A   1      30.085  23.349  27.301  1.00  0.00    -0.269 OA
BRANCH  60  63
ATOM     63  C   UNL A   1      31.523  23.497  25.453  1.00  0.00     0.040 A 
ATOM     64  C   UNL A   1      31.028  23.293  24.166  1.00  0.00     0.014 A 
ATOM     65  C   UNL A   1      32.860  23.222  25.759  1.00  0.00     0.022 A 
ATOM     66  C   UNL A   1      31.900  22.874  23.163  1.00  0.00     0.001 A 
ATOM     67  C   UNL A   1      33.760  22.848  24.751  1.00  0.00    -0.012 A 
ATOM     68  C   UNL A   1      33.255  22.673  23.450  1.00  0.00     0.009 A 
BRANCH  67  69
ATOM     69  C   UNL A   1      35.196  22.724  25.049  1.00  0.00     0.053 A 
ATOM     70  C   UNL A   1      35.960  23.841  25.424  1.00  0.00     0.136 A 
ATOM     71  C   UNL A   1      35.850  21.483  25.036  1.00  0.00     0.136 A 
ATOM     72  F   UNL A   1      35.393  25.054  25.492  1.00  0.00    -0.206 F 
ATOM     73  C   UNL A   1      37.305  23.732  25.771  1.00  0.00     0.079 A 
ATOM     74  C   UNL A   1      37.195  21.354  25.376  1.00  0.00     0.079 A 
ATOM     75  F   UNL A   1      35.178  20.371  24.701  1.00  0.00    -0.206 F 
ATOM     76  C   UNL A   1      37.910  22.485  25.743  1.00  0.00     0.129 A 
ATOM     77  F   UNL A   1      39.199  22.369  26.083  1.00  0.00    -0.207 F 
ENDBRANCH  67  69
ENDBRANCH  60  63
ENDBRANCH  58  59
ENDBRANCH  57  58
ENDBRANCH   1  57
TORSDOF 12
ENDMDL
MODEL 3
REMARK VINA RESULT:     -11.3      1.555      6.139
REMARK SMILES O=C(NCCCCNC(=O)c1cccc(-c2c(F)cc(F)cc2F)c1)c1ccc(-c2c3nc(c(-c4ccccc4)c4ccc([nH]4)c(-c4ccccc4)c4nc(c(-c5ccccc5)c5ccc2[nH]5)C=C4)C=C3)cc1
REMARK SMILES IDX 5 1 4 2 3 3 1 4 2 5 26 7 27 8 73 9 28 10 72 11 29 12 30 13
REMARK SMILES IDX 31 14 66 15 32 16 71 17 65 18 67 19 33 20 70 21 64 22 63 23
REMARK SMILES IDX 34 25 56 26 41 27 55 28 42 29 45 30 54 31 68 32 43 33 44 34
REMARK SMILES IDX 53 36 69 37 46 38 35 39 36 40 40 41 37 42 39 43 38 44 57 45
REMARK SMILES IDX 58 46 62 47 59 48 61 49 60 50 47 51 48 52 52 53 49 54 51 55
REMARK SMILES IDX 50 56 6 57 7 58 8 59 9 60 10 62 11 63 12 64 25 65 13 66
REMARK SMILES IDX 15 67 14 68 16 69 17 70 23 71 18 72 19 73 22 74 24 75 20 76
REMARK SMILES IDX 21 77
REMARK H PARENT 3 6 67 24 45 35 8 61
REMARK Flexibility Score: inf
ROOT
ATOM      1  C   UNL A   1      33.239  27.698  26.695  1.00  0.00     0.023 C 
ENDROOT
BRANCH   1   2
ATOM      2  C   UNL A   1      33.903  28.858  25.966  1.00  0.00     0.116 C 
BRANCH   2   3
ATOM      3  N   UNL A   1      33.735  30.137  26.641  1.00  0.00    -0.352 N 
ATOM      4  O   UNL A   1      34.172  31.777  28.131  1.00  0.00    -0.269 OA
ATOM      5  C   UNL A   1      34.537  30.742  27.582  1.00  0.00     0.251 C 
ATOM      6  H   UNL A   1      32.929  30.643  26.389  1.00  0.00     0.163 HD
BRANCH   5   7
ATOM      7  C   UNL A   1      35.823  30.119  27.961  1.00  0.00     0.039 A 
ATOM      8  C   UNL A   1      35.962  29.457  29.181  1.00  0.00     0.014 A 
ATOM      9  C   UNL A   1      36.914  30.225  27.093  1.00  0.00     0.014 A 
ATOM     10  C   UNL A   1      37.226  29.070  29.613  1.00  0.00     0.010 A 
ATOM     11  C   UNL A   1      38.167  29.748  27.490  1.00  0.00     0.010 A 
ATOM     12  C   UNL A   1      38.344  29.212  28.775  1.00  0.00    -0.014 A 
BRANCH  12  13
ATOM     13  C   UNL A   1      39.674  28.773  29.267  1.00  0.00     0.031 A 
ATOM     14  C   UNL A   1      40.410  29.546  30.329  1.00  0.00     0.074 A 
ATOM     15  C   UNL A   1      40.196  27.627  28.790  1.00  0.00     0.049 A 
ATOM     16  N   UNL A   1      41.542  29.255  30.922  1.00  0.00    -0.248 NA
ATOM     17  C   UNL A   1      39.808  30.811  30.780  1.00  0.00     0.031 C 
ATOM     18  C   UNL A   1      39.583  26.787  27.757  1.00  0.00     0.029 A 
ATOM     19  N   UNL A   1      41.337  26.950  29.135  1.00  0.00    -0.354 N 
ATOM     20  C   UNL A   1      41.801  30.309  31.791  1.00  0.00     0.074 A 
ATOM     21  C   UNL A   1      40.718  31.257  31.635  1.00  0.00     0.031 C 
ATOM     22  C   UNL A   1      40.316  25.674  27.605  1.00  0.00     0.029 A 
ATOM     23  C   UNL A   1      41.479  25.749  28.482  1.00  0.00     0.049 A 
ATOM     24  H   UNL A   1      41.992  27.290  29.787  1.00  0.00     0.167 HD
ATOM     25  C   UNL A   1      42.842  30.471  32.643  1.00  0.00     0.031 A 
ATOM     26  C   UNL A   1      42.436  24.810  28.575  1.00  0.00     0.031 A 
ATOM     27  C   UNL A   1      43.911  29.522  32.813  1.00  0.00     0.049 A 
ATOM     28  C   UNL A   1      43.580  25.018  29.521  1.00  0.00     0.074 A 
ATOM     29  C   UNL A   1      44.987  29.581  33.684  1.00  0.00     0.029 A 
ATOM     30  N   UNL A   1      44.041  28.342  32.098  1.00  0.00    -0.354 N 
ATOM     31  N   UNL A   1      43.789  26.006  30.357  1.00  0.00    -0.248 NA
ATOM     32  C   UNL A   1      44.621  23.983  29.532  1.00  0.00     0.031 C 
ATOM     33  C   UNL A   1      45.791  28.457  33.464  1.00  0.00     0.029 A 
ATOM     34  C   UNL A   1      45.191  27.677  32.490  1.00  0.00     0.049 A 
ATOM     35  H   UNL A   1      43.410  28.024  31.412  1.00  0.00     0.167 HD
ATOM     36  C   UNL A   1      44.977  25.703  31.007  1.00  0.00     0.074 A 
ATOM     37  C   UNL A   1      45.431  24.431  30.482  1.00  0.00     0.031 C 
ATOM     38  C   UNL A   1      45.634  26.417  31.952  1.00  0.00     0.031 A 
BRANCH  25  39
ATOM     39  C   UNL A   1      42.895  31.745  33.440  1.00  0.00    -0.014 A 
ATOM     40  C   UNL A   1      43.513  32.900  32.935  1.00  0.00     0.009 A 
ATOM     41  C   UNL A   1      42.276  31.801  34.699  1.00  0.00     0.009 A 
ATOM     42  C   UNL A   1      43.536  34.076  33.690  1.00  0.00     0.001 A 
ATOM     43  C   UNL A   1      42.280  32.984  35.441  1.00  0.00     0.001 A 
ATOM     44  C   UNL A   1      42.918  34.117  34.940  1.00  0.00     0.000 A 
ENDBRANCH  25  39
BRANCH  26  45
ATOM     45  C   UNL A   1      42.343  23.579  27.749  1.00  0.00    -0.014 A 
ATOM     46  C   UNL A   1      42.772  23.587  26.414  1.00  0.00     0.009 A 
ATOM     47  C   UNL A   1      41.840  22.389  28.298  1.00  0.00     0.009 A 
ATOM     48  C   UNL A   1      42.683  22.429  25.638  1.00  0.00     0.001 A 
ATOM     49  C   UNL A   1      41.780  21.227  27.528  1.00  0.00     0.001 A 
ATOM     50  C   UNL A   1      42.194  21.249  26.197  1.00  0.00     0.000 A 
ENDBRANCH  26  45
BRANCH  38  51
ATOM     51  C   UNL A   1      46.901  25.819  32.494  1.00  0.00    -0.014 A 
ATOM     52  C   UNL A   1      46.881  24.963  33.606  1.00  0.00     0.009 A 
ATOM     53  C   UNL A   1      48.126  26.108  31.875  1.00  0.00     0.009 A 
ATOM     54  C   UNL A   1      48.072  24.436  34.109  1.00  0.00     0.001 A 
ATOM     55  C   UNL A   1      49.312  25.561  32.366  1.00  0.00     0.001 A 
ATOM     56  C   UNL A   1      49.285  24.733  33.489  1.00  0.00     0.000 A 
ENDBRANCH  38  51
ENDBRANCH  12  13
ENDBRANCH   5   7
ENDBRANCH   2   3
ENDBRANCH   1   2
BRANCH   1  57
ATOM     57  C   UNL A   1      31.717  27.663  26.617  1.00  0.00     0.023 C 
BRANCH  57  58
ATOM     58  C   UNL A   1      31.132  26.497  25.826  1.00  0.00     0.116 C 
BRANCH  58  59
ATOM     59  N   UNL A   1      30.552  25.468  26.677  1.00  0.00    -0.352 N 
ATOM     60  C   UNL A   1      30.632  24.102  26.550  1.00  0.00     0.251 C 
ATOM     61  H   UNL A   1      30.033  25.795  27.447  1.00  0.00     0.163 HD
ATOM     62  O   UNL A   1      29.983  23.365  27.285  1.00  0.00    -0.269 OA
BRANCH  60  63
ATOM     63  C   UNL A   1      31.490  23.529  25.495  1.00  0.00     0.040 A 
ATOM     64  C   UNL A   1      30.960  23.351  24.217  1.00  0.00     0.014 A 
ATOM     65  C   UNL A   1      32.831  23.234  25.762  1.00  0.00     0.022 A 
ATOM     66  C   UNL A   1      31.801  22.939  23.186  1.00  0.00     0.001 A 
ATOM     67  C   UNL A   1      33.700  22.866  24.725  1.00  0.00    -0.012 A 
ATOM     68  C   UNL A   1      33.161  22.717  23.436  1.00  0.00     0.009 A 
BRANCH  67  69
ATOM     69  C   UNL A   1      35.142  22.719  24.985  1.00  0.00     0.053 A 
ATOM     70  C   UNL A   1      35.935  23.827  25.329  1.00  0.00     0.136 A 
ATOM     71  C   UNL A   1      35.775  21.468  24.965  1.00  0.00     0.136 A 
ATOM     72  F   UNL A   1      35.390  25.050  25.401  1.00  0.00    -0.206 F 
ATOM     73  C   UNL A   1      37.287  23.698  25.638  1.00  0.00     0.079 A 
ATOM     74  C   UNL A   1      37.127  21.319  25.268  1.00  0.00     0.079 A 
ATOM     75  F   UNL A   1      35.076  20.365  24.659  1.00  0.00    -0.206 F 
ATOM     76  C   UNL A   1      37.870  22.442  25.605  1.00  0.00     0.129 A 
ATOM     77  F   UNL A   1      39.166  22.307  25.910  1.00  0.00    -0.207 F 
ENDBRANCH  67  69
ENDBRANCH  60  63
ENDBRANCH  58  59
ENDBRANCH  57  58
ENDBRANCH   1  57
TORSDOF 12
ENDMDL
