MODEL 1
REMARK VINA RESULT:      -8.6      0.000      0.000
REMARK SMILES C[C@@H](C(=O)NCCCCNC(=O)c1ccc(-c2c3nc(c(-c4ccccc4)c4ccc([nH]4)c(-c4ccccc4)c4nc(c(-c5ccccc5)c5ccc2[nH]5)C=C4)C=C3)cc1)c1ccc(NC2CCCC2)cc1F
REMARK SMILES IDX 7 1 6 2 5 3 3 4 4 5 2 7 1 8 61 9 62 10 72 11 63 12 71 13
REMARK SMILES IDX 73 14 64 15 65 16 66 18 67 19 70 20 68 21 69 22 8 23 9 24
REMARK SMILES IDX 10 25 11 26 12 28 13 29 14 30 60 31 15 32 59 33 16 34 17 35
REMARK SMILES IDX 18 36 53 37 19 38 58 39 52 40 54 41 20 42 57 43 51 44 50 45
REMARK SMILES IDX 21 47 43 48 28 49 42 50 29 51 32 52 41 53 55 54 30 55 31 56
REMARK SMILES IDX 40 58 56 59 33 60 22 61 23 62 27 63 24 64 26 65 25 66 44 67
REMARK SMILES IDX 45 68 49 69 46 70 48 71 47 72 34 73 35 74 39 75 36 76 38 77
REMARK SMILES IDX 37 78
REMARK H PARENT 5 6 65 17 10 27 54 46 32 57
REMARK Flexibility Score: inf
ROOT
ATOM      1  C   UNL A   1      45.997  21.319  24.617  1.00  0.00     0.023 C 
ENDROOT
BRANCH   1   2
ATOM      2  C   UNL A   1      45.644  22.737  25.072  1.00  0.00     0.116 C 
BRANCH   2   3
ATOM      3  N   UNL A   1      46.580  23.215  26.063  1.00  0.00    -0.356 N 
ATOM      4  C   UNL A   1      47.198  24.422  26.189  1.00  0.00     0.227 C 
ATOM      5  O   UNL A   1      48.009  24.510  27.115  1.00  0.00    -0.274 OA
ATOM      6  H   UNL A   1      46.810  22.559  26.762  1.00  0.00     0.163 HD
BRANCH   4   7
ATOM      7  C   UNL A   1      46.843  25.591  25.248  1.00  0.00     0.108 C 
ATOM      8  C   UNL A   1      48.065  26.230  24.580  1.00  0.00     0.023 C 
BRANCH   7   9
ATOM      9  C   UNL A   1      46.081  26.697  25.962  1.00  0.00     0.000 A 
ATOM     10  C   UNL A   1      46.749  27.641  26.748  1.00  0.00     0.009 A 
ATOM     11  C   UNL A   1      44.704  26.843  25.806  1.00  0.00     0.129 A 
ATOM     12  C   UNL A   1      46.050  28.679  27.367  1.00  0.00     0.026 A 
ATOM     13  C   UNL A   1      44.009  27.887  26.422  1.00  0.00     0.065 A 
ATOM     14  F   UNL A   1      44.024  25.984  25.031  1.00  0.00    -0.207 F 
ATOM     15  C   UNL A   1      44.669  28.826  27.224  1.00  0.00     0.037 A 
BRANCH  15  16
ATOM     16  N   UNL A   1      43.940  29.845  27.804  1.00  0.00    -0.382 N 
ATOM     17  H   UNL A   1      43.207  29.559  28.395  1.00  0.00     0.160 HD
BRANCH  16  18
ATOM     18  C   UNL A   1      44.108  31.283  27.658  1.00  0.00     0.079 C 
ATOM     19  C   UNL A   1      45.393  31.828  28.274  1.00  0.00     0.025 C 
ATOM     20  C   UNL A   1      44.062  31.782  26.211  1.00  0.00     0.025 C 
ATOM     21  C   UNL A   1      45.627  33.128  27.521  1.00  0.00     0.002 C 
ATOM     22  C   UNL A   1      45.140  32.859  26.104  1.00  0.00     0.002 C 
ENDBRANCH  16  18
ENDBRANCH  15  16
ENDBRANCH   7   9
ENDBRANCH   4   7
ENDBRANCH   2   3
ENDBRANCH   1   2
BRANCH   1  23
ATOM     23  C   UNL A   1      44.795  20.431  24.277  1.00  0.00     0.023 C 
BRANCH  23  24
ATOM     24  C   UNL A   1      44.306  19.536  25.408  1.00  0.00     0.116 C 
BRANCH  24  25
ATOM     25  N   UNL A   1      42.898  19.199  25.292  1.00  0.00    -0.352 N 
ATOM     26  C   UNL A   1      41.808  19.847  25.806  1.00  0.00     0.251 C 
ATOM     27  H   UNL A   1      42.701  18.389  24.770  1.00  0.00     0.163 HD
ATOM     28  O   UNL A   1      40.690  19.335  25.701  1.00  0.00    -0.269 OA
BRANCH  26  29
ATOM     29  C   UNL A   1      41.959  21.139  26.506  1.00  0.00     0.039 A 
ATOM     30  C   UNL A   1      42.115  22.298  25.740  1.00  0.00     0.014 A 
ATOM     31  C   UNL A   1      41.983  21.215  27.901  1.00  0.00     0.014 A 
ATOM     32  C   UNL A   1      42.270  23.532  26.372  1.00  0.00     0.010 A 
ATOM     33  C   UNL A   1      42.062  22.455  28.529  1.00  0.00     0.010 A 
ATOM     34  C   UNL A   1      42.233  23.622  27.772  1.00  0.00    -0.014 A 
BRANCH  34  35
ATOM     35  C   UNL A   1      42.428  24.925  28.453  1.00  0.00     0.031 A 
ATOM     36  C   UNL A   1      43.765  25.268  29.054  1.00  0.00     0.074 A 
ATOM     37  C   UNL A   1      41.400  25.789  28.557  1.00  0.00     0.049 A 
ATOM     38  N   UNL A   1      44.135  26.356  29.679  1.00  0.00    -0.248 NA
ATOM     39  C   UNL A   1      44.817  24.242  28.961  1.00  0.00     0.031 C 
ATOM     40  C   UNL A   1      40.044  25.560  28.054  1.00  0.00     0.029 A 
ATOM     41  N   UNL A   1      41.341  27.041  29.116  1.00  0.00    -0.354 N 
ATOM     42  C   UNL A   1      45.449  26.137  30.072  1.00  0.00     0.074 A 
ATOM     43  C   UNL A   1      45.797  24.795  29.661  1.00  0.00     0.031 C 
ATOM     44  C   UNL A   1      39.297  26.651  28.294  1.00  0.00     0.029 A 
ATOM     45  C   UNL A   1      40.112  27.641  28.990  1.00  0.00     0.049 A 
ATOM     46  H   UNL A   1      42.107  27.467  29.564  1.00  0.00     0.167 HD
ATOM     47  C   UNL A   1      46.303  26.983  30.697  1.00  0.00     0.031 A 
ATOM     48  C   UNL A   1      39.695  28.860  29.382  1.00  0.00     0.031 A 
ATOM     49  C   UNL A   1      45.966  28.326  31.086  1.00  0.00     0.049 A 
ATOM     50  C   UNL A   1      40.666  29.788  30.056  1.00  0.00     0.074 A 
ATOM     51  C   UNL A   1      46.777  29.283  31.671  1.00  0.00     0.029 A 
ATOM     52  N   UNL A   1      44.717  28.902  30.924  1.00  0.00    -0.354 N 
ATOM     53  N   UNL A   1      41.928  29.593  30.353  1.00  0.00    -0.248 NA
ATOM     54  C   UNL A   1      40.156  31.116  30.428  1.00  0.00     0.031 C 
ATOM     55  C   UNL A   1      46.005  30.427  31.901  1.00  0.00     0.029 A 
ATOM     56  C   UNL A   1      44.729  30.198  31.411  1.00  0.00     0.049 A 
ATOM     57  H   UNL A   1      43.937  28.456  30.523  1.00  0.00     0.167 HD
ATOM     58  C   UNL A   1      42.373  30.784  30.911  1.00  0.00     0.074 A 
ATOM     59  C   UNL A   1      41.249  31.698  30.901  1.00  0.00     0.031 C 
ATOM     60  C   UNL A   1      43.604  31.096  31.385  1.00  0.00     0.031 A 
BRANCH  47  61
ATOM     61  C   UNL A   1      47.682  26.470  31.004  1.00  0.00    -0.014 A 
ATOM     62  C   UNL A   1      48.724  26.576  30.067  1.00  0.00     0.009 A 
ATOM     63  C   UNL A   1      47.950  25.889  32.253  1.00  0.00     0.009 A 
ATOM     64  C   UNL A   1      49.993  26.072  30.359  1.00  0.00     0.001 A 
ATOM     65  C   UNL A   1      49.228  25.414  32.554  1.00  0.00     0.001 A 
ATOM     66  C   UNL A   1      50.244  25.496  31.604  1.00  0.00     0.000 A 
ENDBRANCH  47  61
BRANCH  48  67
ATOM     67  C   UNL A   1      38.302  29.295  29.103  1.00  0.00    -0.014 A 
ATOM     68  C   UNL A   1      37.932  29.704  27.812  1.00  0.00     0.009 A 
ATOM     69  C   UNL A   1      37.339  29.315  30.124  1.00  0.00     0.009 A 
ATOM     70  C   UNL A   1      36.635  30.153  27.556  1.00  0.00     0.001 A 
ATOM     71  C   UNL A   1      36.036  29.739  29.858  1.00  0.00     0.001 A 
ATOM     72  C   UNL A   1      35.687  30.168  28.577  1.00  0.00     0.000 A 
ENDBRANCH  48  67
BRANCH  60  73
ATOM     73  C   UNL A   1      43.812  32.499  31.882  1.00  0.00    -0.014 A 
ATOM     74  C   UNL A   1      43.696  32.820  33.243  1.00  0.00     0.009 A 
ATOM     75  C   UNL A   1      44.157  33.509  30.971  1.00  0.00     0.009 A 
ATOM     76  C   UNL A   1      43.881  34.134  33.675  1.00  0.00     0.001 A 
ATOM     77  C   UNL A   1      44.371  34.816  31.409  1.00  0.00     0.001 A 
ATOM     78  C   UNL A   1      44.223  35.130  32.759  1.00  0.00     0.000 A 
ENDBRANCH  60  73
ENDBRANCH  34  35
ENDBRANCH  26  29
ENDBRANCH  24  25
ENDBRANCH  23  24
ENDBRANCH   1  23
TORSDOF 14
ENDMDL
MODEL 2
REMARK VINA RESULT:      -8.5      4.000      9.943
REMARK SMILES C[C@@H](C(=O)NCCCCNC(=O)c1ccc(-c2c3nc(c(-c4ccccc4)c4ccc([nH]4)c(-c4ccccc4)c4nc(c(-c5ccccc5)c5ccc2[nH]5)C=C4)C=C3)cc1)c1ccc(NC2CCCC2)cc1F
REMARK SMILES IDX 7 1 6 2 5 3 3 4 4 5 2 7 1 8 61 9 62 10 72 11 63 12 71 13
REMARK SMILES IDX 73 14 64 15 65 16 66 18 67 19 70 20 68 21 69 22 8 23 9 24
REMARK SMILES IDX 10 25 11 26 12 28 13 29 14 30 60 31 15 32 59 33 16 34 17 35
REMARK SMILES IDX 18 36 53 37 19 38 58 39 52 40 54 41 20 42 57 43 51 44 50 45
REMARK SMILES IDX 21 47 43 48 28 49 42 50 29 51 32 52 41 53 55 54 30 55 31 56
REMARK SMILES IDX 40 58 56 59 33 60 22 61 23 62 27 63 24 64 26 65 25 66 44 67
REMARK SMILES IDX 45 68 49 69 46 70 48 71 47 72 34 73 35 74 39 75 36 76 38 77
REMARK SMILES IDX 37 78
REMARK H PARENT 5 6 65 17 10 27 54 46 32 57
REMARK Flexibility Score: inf
ROOT
ATOM      1  C   UNL A   1      34.880  33.682  30.774  1.00  0.00     0.023 C 
ENDROOT
BRANCH   1   2
ATOM      2  C   UNL A   1      36.363  33.304  30.759  1.00  0.00     0.116 C 
BRANCH   2   3
ATOM      3  N   UNL A   1      37.140  34.213  31.570  1.00  0.00    -0.356 N 
ATOM      4  C   UNL A   1      37.283  34.293  32.922  1.00  0.00     0.227 C 
ATOM      5  O   UNL A   1      37.971  35.232  33.330  1.00  0.00    -0.274 OA
ATOM      6  H   UNL A   1      37.650  34.885  31.061  1.00  0.00     0.163 HD
BRANCH   4   7
ATOM      7  C   UNL A   1      36.651  33.232  33.845  1.00  0.00     0.108 C 
ATOM      8  C   UNL A   1      35.935  33.828  35.061  1.00  0.00     0.023 C 
BRANCH   7   9
ATOM      9  C   UNL A   1      37.675  32.232  34.362  1.00  0.00     0.000 A 
ATOM     10  C   UNL A   1      38.451  32.513  35.490  1.00  0.00     0.009 A 
ATOM     11  C   UNL A   1      37.828  30.981  33.767  1.00  0.00     0.129 A 
ATOM     12  C   UNL A   1      39.359  31.575  35.985  1.00  0.00     0.026 A 
ATOM     13  C   UNL A   1      38.732  30.043  34.269  1.00  0.00     0.065 A 
ATOM     14  F   UNL A   1      37.079  30.649  32.704  1.00  0.00    -0.207 F 
ATOM     15  C   UNL A   1      39.525  30.323  35.389  1.00  0.00     0.037 A 
BRANCH  15  16
ATOM     16  N   UNL A   1      40.399  29.360  35.853  1.00  0.00    -0.382 N 
ATOM     17  H   UNL A   1      40.155  28.943  36.710  1.00  0.00     0.160 HD
BRANCH  16  18
ATOM     18  C   UNL A   1      41.630  28.880  35.245  1.00  0.00     0.079 C 
ATOM     19  C   UNL A   1      42.685  28.422  36.248  1.00  0.00     0.025 C 
ATOM     20  C   UNL A   1      41.439  27.735  34.247  1.00  0.00     0.025 C 
ATOM     21  C   UNL A   1      43.555  27.470  35.441  1.00  0.00     0.002 C 
ATOM     22  C   UNL A   1      42.598  26.769  34.487  1.00  0.00     0.002 C 
ENDBRANCH  16  18
ENDBRANCH  15  16
ENDBRANCH   7   9
ENDBRANCH   4   7
ENDBRANCH   2   3
ENDBRANCH   1   2
BRANCH   1  23
ATOM     23  C   UNL A   1      34.288  34.031  29.404  1.00  0.00     0.023 C 
BRANCH  23  24
ATOM     24  C   UNL A   1      34.816  33.208  28.237  1.00  0.00     0.116 C 
BRANCH  24  25
ATOM     25  N   UNL A   1      33.951  32.092  27.898  1.00  0.00    -0.352 N 
ATOM     26  C   UNL A   1      34.253  30.760  27.801  1.00  0.00     0.251 C 
ATOM     27  H   UNL A   1      33.014  32.327  27.709  1.00  0.00     0.163 HD
ATOM     28  O   UNL A   1      33.404  29.972  27.377  1.00  0.00    -0.269 OA
BRANCH  26  29
ATOM     29  C   UNL A   1      35.593  30.262  28.175  1.00  0.00     0.039 A 
ATOM     30  C   UNL A   1      35.781  29.763  29.467  1.00  0.00     0.014 A 
ATOM     31  C   UNL A   1      36.667  30.315  27.282  1.00  0.00     0.014 A 
ATOM     32  C   UNL A   1      37.038  29.294  29.854  1.00  0.00     0.010 A 
ATOM     33  C   UNL A   1      37.900  29.778  27.644  1.00  0.00     0.010 A 
ATOM     34  C   UNL A   1      38.104  29.287  28.942  1.00  0.00    -0.014 A 
BRANCH  34  35
ATOM     35  C   UNL A   1      39.451  28.820  29.352  1.00  0.00     0.031 A 
ATOM     36  C   UNL A   1      40.290  29.663  30.274  1.00  0.00     0.074 A 
ATOM     37  C   UNL A   1      39.931  27.655  28.879  1.00  0.00     0.049 A 
ATOM     38  N   UNL A   1      41.484  29.423  30.755  1.00  0.00    -0.248 NA
ATOM     39  C   UNL A   1      39.724  30.956  30.692  1.00  0.00     0.031 C 
ATOM     40  C   UNL A   1      39.234  26.765  27.947  1.00  0.00     0.029 A 
ATOM     41  N   UNL A   1      41.119  27.015  29.125  1.00  0.00    -0.354 N 
ATOM     42  C   UNL A   1      41.818  30.541  31.509  1.00  0.00     0.074 A 
ATOM     43  C   UNL A   1      40.726  31.480  31.382  1.00  0.00     0.031 C 
ATOM     44  C   UNL A   1      39.992  25.677  27.730  1.00  0.00     0.029 A 
ATOM     45  C   UNL A   1      41.235  25.806  28.483  1.00  0.00     0.049 A 
ATOM     46  H   UNL A   1      41.822  27.387  29.706  1.00  0.00     0.167 HD
ATOM     47  C   UNL A   1      42.924  30.761  32.261  1.00  0.00     0.031 A 
ATOM     48  C   UNL A   1      42.229  24.898  28.510  1.00  0.00     0.031 A 
ATOM     49  C   UNL A   1      44.000  29.818  32.406  1.00  0.00     0.049 A 
ATOM     50  C   UNL A   1      43.436  25.155  29.367  1.00  0.00     0.074 A 
ATOM     51  C   UNL A   1      45.135  29.920  33.192  1.00  0.00     0.029 A 
ATOM     52  N   UNL A   1      44.071  28.598  31.754  1.00  0.00    -0.354 N 
ATOM     53  N   UNL A   1      43.704  26.184  30.134  1.00  0.00    -0.248 NA
ATOM     54  C   UNL A   1      44.470  24.109  29.378  1.00  0.00     0.031 C 
ATOM     55  C   UNL A   1      45.914  28.777  32.982  1.00  0.00     0.029 A 
ATOM     56  C   UNL A   1      45.237  27.941  32.107  1.00  0.00     0.049 A 
ATOM     57  H   UNL A   1      43.393  28.250  31.132  1.00  0.00     0.167 HD
ATOM     58  C   UNL A   1      44.916  25.894  30.748  1.00  0.00     0.074 A 
ATOM     59  C   UNL A   1      45.324  24.589  30.272  1.00  0.00     0.031 C 
ATOM     60  C   UNL A   1      45.625  26.639  31.631  1.00  0.00     0.031 A 
BRANCH  47  61
ATOM     61  C   UNL A   1      43.021  32.079  32.977  1.00  0.00    -0.014 A 
ATOM     62  C   UNL A   1      43.600  33.201  32.361  1.00  0.00     0.009 A 
ATOM     63  C   UNL A   1      42.509  32.208  34.276  1.00  0.00     0.009 A 
ATOM     64  C   UNL A   1      43.702  34.412  33.049  1.00  0.00     0.001 A 
ATOM     65  C   UNL A   1      42.585  33.428  34.951  1.00  0.00     0.001 A 
ATOM     66  C   UNL A   1      43.191  34.525  34.341  1.00  0.00     0.000 A 
ENDBRANCH  47  61
BRANCH  48  67
ATOM     67  C   UNL A   1      42.106  23.635  27.737  1.00  0.00    -0.014 A 
ATOM     68  C   UNL A   1      42.622  23.548  26.434  1.00  0.00     0.009 A 
ATOM     69  C   UNL A   1      41.464  22.516  28.290  1.00  0.00     0.009 A 
ATOM     70  C   UNL A   1      42.471  22.376  25.690  1.00  0.00     0.001 A 
ATOM     71  C   UNL A   1      41.339  21.337  27.554  1.00  0.00     0.001 A 
ATOM     72  C   UNL A   1      41.833  21.271  26.251  1.00  0.00     0.000 A 
ENDBRANCH  48  67
BRANCH  60  73
ATOM     73  C   UNL A   1      46.887  26.036  32.178  1.00  0.00    -0.014 A 
ATOM     74  C   UNL A   1      46.890  25.297  33.370  1.00  0.00     0.009 A 
ATOM     75  C   UNL A   1      48.089  26.191  31.469  1.00  0.00     0.009 A 
ATOM     76  C   UNL A   1      48.080  24.759  33.863  1.00  0.00     0.001 A 
ATOM     77  C   UNL A   1      49.272  25.627  31.948  1.00  0.00     0.001 A 
ATOM     78  C   UNL A   1      49.269  24.921  33.150  1.00  0.00     0.000 A 
ENDBRANCH  60  73
ENDBRANCH  34  35
ENDBRANCH  26  29
ENDBRANCH  24  25
ENDBRANCH  23  24
ENDBRANCH   1  23
TORSDOF 14
ENDMDL
MODEL 3
REMARK VINA RESULT:      -8.4      4.062      9.197
REMARK SMILES C[C@@H](C(=O)NCCCCNC(=O)c1ccc(-c2c3nc(c(-c4ccccc4)c4ccc([nH]4)c(-c4ccccc4)c4nc(c(-c5ccccc5)c5ccc2[nH]5)C=C4)C=C3)cc1)c1ccc(NC2CCCC2)cc1F
REMARK SMILES IDX 7 1 6 2 5 3 3 4 4 5 2 7 1 8 61 9 62 10 72 11 63 12 71 13
REMARK SMILES IDX 73 14 64 15 65 16 66 18 67 19 70 20 68 21 69 22 8 23 9 24
REMARK SMILES IDX 10 25 11 26 12 28 13 29 14 30 60 31 15 32 59 33 16 34 17 35
REMARK SMILES IDX 18 36 53 37 19 38 58 39 52 40 54 41 20 42 57 43 51 44 50 45
REMARK SMILES IDX 21 47 43 48 28 49 42 50 29 51 32 52 41 53 55 54 30 55 31 56
REMARK SMILES IDX 40 58 56 59 33 60 22 61 23 62 27 63 24 64 26 65 25 66 44 67
REMARK SMILES IDX 45 68 49 69 46 70 48 71 47 72 34 73 35 74 39 75 36 76 38 77
REMARK SMILES IDX 37 78
REMARK H PARENT 5 6 65 17 10 27 54 46 32 57
REMARK Flexibility Score: inf
ROOT
ATOM      1  C   UNL A   1      36.437  19.293  24.995  1.00  0.00     0.023 C 
ENDROOT
BRANCH   1   2
ATOM      2  C   UNL A   1      35.141  20.064  24.734  1.00  0.00     0.116 C 
BRANCH   2   3
ATOM      3  N   UNL A   1      34.731  20.804  25.906  1.00  0.00    -0.356 N 
ATOM      4  C   UNL A   1      34.974  22.094  26.269  1.00  0.00     0.227 C 
ATOM      5  O   UNL A   1      34.543  22.426  27.376  1.00  0.00    -0.274 OA
ATOM      6  H   UNL A   1      34.187  20.291  26.546  1.00  0.00     0.163 HD
BRANCH   4   7
ATOM      7  C   UNL A   1      35.702  23.059  25.311  1.00  0.00     0.108 C 
ATOM      8  C   UNL A   1      36.937  23.719  25.931  1.00  0.00     0.023 C 
BRANCH   7   9
ATOM      9  C   UNL A   1      34.792  24.170  24.809  1.00  0.00     0.000 A 
ATOM     10  C   UNL A   1      34.543  25.304  25.587  1.00  0.00     0.009 A 
ATOM     11  C   UNL A   1      34.229  24.124  23.535  1.00  0.00     0.129 A 
ATOM     12  C   UNL A   1      33.741  26.341  25.105  1.00  0.00     0.026 A 
ATOM     13  C   UNL A   1      33.433  25.166  23.054  1.00  0.00     0.065 A 
ATOM     14  F   UNL A   1      34.469  23.073  22.735  1.00  0.00    -0.207 F 
ATOM     15  C   UNL A   1      33.165  26.297  23.834  1.00  0.00     0.037 A 
BRANCH  15  16
ATOM     16  N   UNL A   1      32.380  27.304  23.310  1.00  0.00    -0.382 N 
ATOM     17  H   UNL A   1      32.823  28.176  23.201  1.00  0.00     0.160 HD
BRANCH  16  18
ATOM     18  C   UNL A   1      30.985  27.250  22.899  1.00  0.00     0.079 C 
ATOM     19  C   UNL A   1      30.031  26.757  23.983  1.00  0.00     0.025 C 
ATOM     20  C   UNL A   1      30.425  28.579  22.384  1.00  0.00     0.025 C 
ATOM     21  C   UNL A   1      28.686  27.327  23.561  1.00  0.00     0.002 C 
ATOM     22  C   UNL A   1      29.006  28.680  22.939  1.00  0.00     0.002 C 
ENDBRANCH  16  18
ENDBRANCH  15  16
ENDBRANCH   7   9
ENDBRANCH   4   7
ENDBRANCH   2   3
ENDBRANCH   1   2
BRANCH   1  23
ATOM     23  C   UNL A   1      37.721  20.035  24.610  1.00  0.00     0.023 C 
BRANCH  23  24
ATOM     24  C   UNL A   1      38.685  20.306  25.757  1.00  0.00     0.116 C 
BRANCH  24  25
ATOM     25  N   UNL A   1      39.797  19.372  25.790  1.00  0.00    -0.352 N 
ATOM     26  C   UNL A   1      41.112  19.602  26.091  1.00  0.00     0.251 C 
ATOM     27  H   UNL A   1      39.573  18.441  25.562  1.00  0.00     0.163 HD
ATOM     28  O   UNL A   1      41.938  18.698  25.945  1.00  0.00    -0.269 OA
BRANCH  26  29
ATOM     29  C   UNL A   1      41.556  20.929  26.565  1.00  0.00     0.039 A 
ATOM     30  C   UNL A   1      41.394  21.242  27.918  1.00  0.00     0.014 A 
ATOM     31  C   UNL A   1      42.094  21.876  25.688  1.00  0.00     0.014 A 
ATOM     32  C   UNL A   1      41.795  22.490  28.395  1.00  0.00     0.010 A 
ATOM     33  C   UNL A   1      42.562  23.092  26.179  1.00  0.00     0.010 A 
ATOM     34  C   UNL A   1      42.392  23.421  27.532  1.00  0.00    -0.014 A 
BRANCH  34  35
ATOM     35  C   UNL A   1      42.793  24.763  28.022  1.00  0.00     0.031 A 
ATOM     36  C   UNL A   1      41.748  25.822  28.253  1.00  0.00     0.074 A 
ATOM     37  C   UNL A   1      44.093  25.039  28.235  1.00  0.00     0.049 A 
ATOM     38  N   UNL A   1      41.897  27.048  28.687  1.00  0.00    -0.248 NA
ATOM     39  C   UNL A   1      40.357  25.464  27.930  1.00  0.00     0.031 C 
ATOM     40  C   UNL A   1      45.206  24.114  28.010  1.00  0.00     0.029 A 
ATOM     41  N   UNL A   1      44.697  26.181  28.697  1.00  0.00    -0.354 N 
ATOM     42  C   UNL A   1      40.627  27.611  28.668  1.00  0.00     0.074 A 
ATOM     43  C   UNL A   1      39.729  26.613  28.131  1.00  0.00     0.031 C 
ATOM     44  C   UNL A   1      46.354  24.714  28.370  1.00  0.00     0.029 A 
ATOM     45  C   UNL A   1      46.060  26.069  28.823  1.00  0.00     0.049 A 
ATOM     46  H   UNL A   1      44.200  27.003  28.916  1.00  0.00     0.167 HD
ATOM     47  C   UNL A   1      40.235  28.840  29.081  1.00  0.00     0.031 A 
ATOM     48  C   UNL A   1      46.969  26.958  29.267  1.00  0.00     0.031 A 
ATOM     49  C   UNL A   1      41.124  29.825  29.636  1.00  0.00     0.049 A 
ATOM     50  C   UNL A   1      46.508  28.308  29.739  1.00  0.00     0.074 A 
ATOM     51  C   UNL A   1      40.817  31.077  30.140  1.00  0.00     0.029 A 
ATOM     52  N   UNL A   1      42.494  29.666  29.764  1.00  0.00    -0.354 N 
ATOM     53  N   UNL A   1      45.293  28.799  29.784  1.00  0.00    -0.248 NA
ATOM     54  C   UNL A   1      47.546  29.219  30.243  1.00  0.00     0.031 C 
ATOM     55  C   UNL A   1      42.010  31.693  30.535  1.00  0.00     0.029 A 
ATOM     56  C   UNL A   1      43.051  30.802  30.326  1.00  0.00     0.049 A 
ATOM     57  H   UNL A   1      42.997  28.864  29.495  1.00  0.00     0.167 HD
ATOM     58  C   UNL A   1      45.415  30.059  30.356  1.00  0.00     0.074 A 
ATOM     59  C   UNL A   1      46.820  30.251  30.650  1.00  0.00     0.031 C 
ATOM     60  C   UNL A   1      44.450  30.973  30.619  1.00  0.00     0.031 A 
BRANCH  47  61
ATOM     61  C   UNL A   1      38.779  29.184  28.938  1.00  0.00    -0.014 A 
ATOM     62  C   UNL A   1      37.882  29.016  30.006  1.00  0.00     0.009 A 
ATOM     63  C   UNL A   1      38.299  29.702  27.725  1.00  0.00     0.009 A 
ATOM     64  C   UNL A   1      36.528  29.319  29.848  1.00  0.00     0.001 A 
ATOM     65  C   UNL A   1      36.950  30.033  27.579  1.00  0.00     0.001 A 
ATOM     66  C   UNL A   1      36.065  29.830  28.637  1.00  0.00     0.000 A 
ENDBRANCH  47  61
BRANCH  48  67
ATOM     67  C   UNL A   1      48.405  26.584  29.335  1.00  0.00    -0.014 A 
ATOM     68  C   UNL A   1      49.256  26.838  28.247  1.00  0.00     0.009 A 
ATOM     69  C   UNL A   1      48.931  25.963  30.478  1.00  0.00     0.009 A 
ATOM     70  C   UNL A   1      50.597  26.451  28.291  1.00  0.00     0.001 A 
ATOM     71  C   UNL A   1      50.279  25.601  30.529  1.00  0.00     0.001 A 
ATOM     72  C   UNL A   1      51.108  25.835  29.432  1.00  0.00     0.000 A 
ENDBRANCH  48  67
BRANCH  60  73
ATOM     73  C   UNL A   1      44.875  32.241  31.305  1.00  0.00    -0.014 A 
ATOM     74  C   UNL A   1      44.842  32.366  32.702  1.00  0.00     0.009 A 
ATOM     75  C   UNL A   1      45.342  33.317  30.535  1.00  0.00     0.009 A 
ATOM     76  C   UNL A   1      45.230  33.560  33.312  1.00  0.00     0.001 A 
ATOM     77  C   UNL A   1      45.758  34.500  31.149  1.00  0.00     0.001 A 
ATOM     78  C   UNL A   1      45.691  34.624  32.535  1.00  0.00     0.000 A 
ENDBRANCH  60  73
ENDBRANCH  34  35
ENDBRANCH  26  29
ENDBRANCH  24  25
ENDBRANCH  23  24
ENDBRANCH   1  23
TORSDOF 14
ENDMDL
