MODEL 1
REMARK VINA RESULT:     -11.6      0.000      0.000
REMARK SMILES CCOc1ccc(-n2ncc(C(=O)NCCCCNC(=O)c3ccc(-c4c5nc(c(-c6ccccc6)c6ccc([nH]6)c(-c6ccccc6)c6nc(c(-c7ccccc7)c7ccc4[nH]7)C=C6)C=C5)cc3)c2C)nn1
REMARK SMILES IDX 16 1 15 2 14 3 12 4 13 5 11 7 8 8 9 9 70 10 10 11 71 12 7 13
REMARK SMILES IDX 4 14 5 15 73 16 6 17 72 18 3 19 2 20 1 21 17 22 18 23 19 24
REMARK SMILES IDX 20 25 21 27 22 28 23 29 69 30 24 31 68 32 25 33 26 34 27 35
REMARK SMILES IDX 62 36 28 37 67 38 61 39 63 40 29 41 66 42 60 43 59 44 30 46
REMARK SMILES IDX 52 47 37 48 51 49 38 50 41 51 50 52 64 53 39 54 40 55 49 57
REMARK SMILES IDX 65 58 42 59 31 60 32 61 36 62 33 63 35 64 34 65 53 66 54 67
REMARK SMILES IDX 58 68 55 69 57 70 56 71 43 72 44 73 48 74 45 75 47 76 46 77
REMARK H PARENT 14 6 19 26 63 45 41 56
REMARK Flexibility Score: inf
ROOT
ATOM      1  C   UNL A   1      32.054  29.868  25.611  1.00  0.00     0.023 C 
ENDROOT
BRANCH   1   2
ATOM      2  C   UNL A   1      32.573  29.044  24.429  1.00  0.00     0.116 C 
BRANCH   2   3
ATOM      3  N   UNL A   1      31.540  28.799  23.443  1.00  0.00    -0.352 N 
ATOM      4  C   UNL A   1      31.272  27.777  22.570  1.00  0.00     0.254 C 
ATOM      5  O   UNL A   1      30.305  27.966  21.828  1.00  0.00    -0.269 OA
ATOM      6  H   UNL A   1      30.883  29.531  23.389  1.00  0.00     0.163 HD
BRANCH   4   7
ATOM      7  C   UNL A   1      32.029  26.527  22.533  1.00  0.00     0.081 A 
ATOM      8  N   UNL A   1      32.627  24.399  22.931  1.00  0.00    -0.217 N 
ATOM      9  N   UNL A   1      33.704  24.981  22.342  1.00  0.00    -0.174 NA
ATOM     10  C   UNL A   1      31.586  25.307  23.071  1.00  0.00     0.056 A 
ATOM     11  C   UNL A   1      33.302  26.208  22.034  1.00  0.00     0.149 A 
ATOM     12  C   UNL A   1      30.300  25.013  23.771  1.00  0.00     0.068 C 
BRANCH   8  13
ATOM     13  C   UNL A   1      32.719  23.027  23.303  1.00  0.00     0.176 A 
ATOM     14  C   UNL A   1      32.770  20.418  24.025  1.00  0.00     0.233 A 
ATOM     15  C   UNL A   1      32.183  20.744  22.821  1.00  0.00     0.074 A 
ATOM     16  N   UNL A   1      33.314  21.341  24.845  1.00  0.00    -0.110 NA
ATOM     17  C   UNL A   1      32.158  22.079  22.450  1.00  0.00     0.057 A 
ATOM     18  N   UNL A   1      33.303  22.664  24.469  1.00  0.00    -0.127 NA
BRANCH  14  19
ATOM     19  O   UNL A   1      32.722  19.117  24.454  1.00  0.00    -0.477 OA
BRANCH  19  20
ATOM     20  C   UNL A   1      32.523  18.228  23.352  1.00  0.00     0.228 C 
ATOM     21  C   UNL A   1      33.686  17.254  23.221  1.00  0.00     0.049 C 
ENDBRANCH  19  20
ENDBRANCH  14  19
ENDBRANCH   8  13
ENDBRANCH   4   7
ENDBRANCH   2   3
ENDBRANCH   1   2
BRANCH   1  22
ATOM     22  C   UNL A   1      32.363  29.282  27.000  1.00  0.00     0.023 C 
BRANCH  22  23
ATOM     23  C   UNL A   1      33.724  29.666  27.571  1.00  0.00     0.116 C 
BRANCH  23  24
ATOM     24  N   UNL A   1      34.059  31.082  27.387  1.00  0.00    -0.352 N 
ATOM     25  C   UNL A   1      35.161  31.775  27.874  1.00  0.00     0.251 C 
ATOM     26  H   UNL A   1      33.423  31.608  26.850  1.00  0.00     0.163 HD
ATOM     27  O   UNL A   1      35.164  32.987  27.978  1.00  0.00    -0.269 OA
BRANCH  25  28
ATOM     28  C   UNL A   1      36.357  30.990  28.224  1.00  0.00     0.039 A 
ATOM     29  C   UNL A   1      36.534  29.650  27.862  1.00  0.00     0.014 A 
ATOM     30  C   UNL A   1      37.347  31.685  28.904  1.00  0.00     0.014 A 
ATOM     31  C   UNL A   1      37.760  29.042  28.137  1.00  0.00     0.010 A 
ATOM     32  C   UNL A   1      38.606  31.173  28.946  1.00  0.00     0.010 A 
ATOM     33  C   UNL A   1      38.789  29.822  28.678  1.00  0.00    -0.014 A 
BRANCH  33  34
ATOM     34  C   UNL A   1      40.118  29.312  28.976  1.00  0.00     0.031 A 
ATOM     35  C   UNL A   1      40.381  29.007  30.408  1.00  0.00     0.074 A 
ATOM     36  C   UNL A   1      40.883  28.821  27.974  1.00  0.00     0.049 A 
ATOM     37  N   UNL A   1      41.291  29.509  31.172  1.00  0.00    -0.248 NA
ATOM     38  C   UNL A   1      39.454  28.098  31.105  1.00  0.00     0.031 C 
ATOM     39  C   UNL A   1      40.552  28.726  26.540  1.00  0.00     0.029 A 
ATOM     40  N   UNL A   1      42.049  28.134  28.046  1.00  0.00    -0.354 N 
ATOM     41  C   UNL A   1      41.175  28.852  32.395  1.00  0.00     0.074 A 
ATOM     42  C   UNL A   1      39.923  28.139  32.353  1.00  0.00     0.031 C 
ATOM     43  C   UNL A   1      41.350  27.810  25.949  1.00  0.00     0.029 A 
ATOM     44  C   UNL A   1      42.357  27.397  26.907  1.00  0.00     0.049 A 
ATOM     45  H   UNL A   1      42.630  28.154  28.840  1.00  0.00     0.167 HD
ATOM     46  C   UNL A   1      42.229  28.737  33.251  1.00  0.00     0.031 A 
ATOM     47  C   UNL A   1      43.347  26.480  26.779  1.00  0.00     0.031 A 
ATOM     48  C   UNL A   1      43.314  29.606  32.873  1.00  0.00     0.049 A 
ATOM     49  C   UNL A   1      44.298  26.713  27.892  1.00  0.00     0.074 A 
ATOM     50  C   UNL A   1      43.472  30.970  32.742  1.00  0.00     0.029 A 
ATOM     51  N   UNL A   1      44.344  29.037  32.161  1.00  0.00    -0.354 N 
ATOM     52  N   UNL A   1      45.006  27.800  28.009  1.00  0.00    -0.248 NA
ATOM     53  C   UNL A   1      44.102  25.961  29.121  1.00  0.00     0.031 C 
ATOM     54  C   UNL A   1      44.268  31.131  31.570  1.00  0.00     0.029 A 
ATOM     55  C   UNL A   1      44.614  29.862  31.101  1.00  0.00     0.049 A 
ATOM     56  H   UNL A   1      44.803  28.192  32.375  1.00  0.00     0.167 HD
ATOM     57  C   UNL A   1      44.967  28.104  29.363  1.00  0.00     0.074 A 
ATOM     58  C   UNL A   1      44.484  26.883  30.010  1.00  0.00     0.031 C 
ATOM     59  C   UNL A   1      45.043  29.397  29.799  1.00  0.00     0.031 A 
BRANCH  46  60
ATOM     60  C   UNL A   1      42.449  27.565  34.174  1.00  0.00    -0.014 A 
ATOM     61  C   UNL A   1      43.307  26.530  33.759  1.00  0.00     0.009 A 
ATOM     62  C   UNL A   1      41.642  27.301  35.298  1.00  0.00     0.009 A 
ATOM     63  C   UNL A   1      43.302  25.280  34.389  1.00  0.00     0.001 A 
ATOM     64  C   UNL A   1      41.664  26.068  35.956  1.00  0.00     0.001 A 
ATOM     65  C   UNL A   1      42.474  25.047  35.483  1.00  0.00     0.000 A 
ENDBRANCH  46  60
BRANCH  47  66
ATOM     66  C   UNL A   1      43.373  25.254  25.952  1.00  0.00    -0.014 A 
ATOM     67  C   UNL A   1      44.459  24.974  25.108  1.00  0.00     0.009 A 
ATOM     68  C   UNL A   1      42.448  24.221  26.193  1.00  0.00     0.009 A 
ATOM     69  C   UNL A   1      44.631  23.695  24.556  1.00  0.00     0.001 A 
ATOM     70  C   UNL A   1      42.621  22.945  25.645  1.00  0.00     0.001 A 
ATOM     71  C   UNL A   1      43.721  22.678  24.837  1.00  0.00     0.000 A 
ENDBRANCH  47  66
BRANCH  59  72
ATOM     72  C   UNL A   1      45.347  30.469  28.778  1.00  0.00    -0.014 A 
ATOM     73  C   UNL A   1      46.656  30.887  28.470  1.00  0.00     0.009 A 
ATOM     74  C   UNL A   1      44.299  30.944  27.979  1.00  0.00     0.009 A 
ATOM     75  C   UNL A   1      46.901  31.769  27.411  1.00  0.00     0.001 A 
ATOM     76  C   UNL A   1      44.546  31.809  26.911  1.00  0.00     0.001 A 
ATOM     77  C   UNL A   1      45.845  32.224  26.629  1.00  0.00     0.000 A 
ENDBRANCH  59  72
ENDBRANCH  33  34
ENDBRANCH  25  28
ENDBRANCH  23  24
ENDBRANCH  22  23
ENDBRANCH   1  22
TORSDOF 14
ENDMDL
MODEL 2
REMARK VINA RESULT:     -11.6      2.744      7.618
REMARK SMILES CCOc1ccc(-n2ncc(C(=O)NCCCCNC(=O)c3ccc(-c4c5nc(c(-c6ccccc6)c6ccc([nH]6)c(-c6ccccc6)c6nc(c(-c7ccccc7)c7ccc4[nH]7)C=C6)C=C5)cc3)c2C)nn1
REMARK SMILES IDX 16 1 15 2 14 3 12 4 13 5 11 7 8 8 9 9 70 10 10 11 71 12 7 13
REMARK SMILES IDX 4 14 5 15 73 16 6 17 72 18 3 19 2 20 1 21 17 22 18 23 19 24
REMARK SMILES IDX 20 25 21 27 22 28 23 29 69 30 24 31 68 32 25 33 26 34 27 35
REMARK SMILES IDX 62 36 28 37 67 38 61 39 63 40 29 41 66 42 60 43 59 44 30 46
REMARK SMILES IDX 52 47 37 48 51 49 38 50 41 51 50 52 64 53 39 54 40 55 49 57
REMARK SMILES IDX 65 58 42 59 31 60 32 61 36 62 33 63 35 64 34 65 53 66 54 67
REMARK SMILES IDX 58 68 55 69 57 70 56 71 43 72 44 73 48 74 45 75 47 76 46 77
REMARK H PARENT 14 6 19 26 63 45 41 56
REMARK Flexibility Score: inf
ROOT
ATOM      1  C   UNL A   1      38.574  22.542  25.851  1.00  0.00     0.023 C 
ENDROOT
BRANCH   1   2
ATOM      2  C   UNL A   1      37.119  22.856  25.488  1.00  0.00     0.116 C 
BRANCH   2   3
ATOM      3  N   UNL A   1      36.184  22.183  26.366  1.00  0.00    -0.352 N 
ATOM      4  C   UNL A   1      34.820  22.042  26.386  1.00  0.00     0.254 C 
ATOM      5  O   UNL A   1      34.374  21.428  27.358  1.00  0.00    -0.269 OA
ATOM      6  H   UNL A   1      36.627  21.724  27.116  1.00  0.00     0.163 HD
BRANCH   4   7
ATOM      7  C   UNL A   1      33.942  22.531  25.325  1.00  0.00     0.081 A 
ATOM      8  N   UNL A   1      32.653  23.910  24.107  1.00  0.00    -0.217 N 
ATOM      9  N   UNL A   1      32.414  22.662  23.627  1.00  0.00    -0.174 NA
ATOM     10  C   UNL A   1      33.574  23.875  25.146  1.00  0.00     0.056 A 
ATOM     11  C   UNL A   1      33.248  21.875  24.295  1.00  0.00     0.149 A 
ATOM     12  C   UNL A   1      33.975  25.063  25.957  1.00  0.00     0.068 C 
BRANCH   8  13
ATOM     13  C   UNL A   1      31.961  25.007  23.516  1.00  0.00     0.176 A 
ATOM     14  C   UNL A   1      30.732  27.165  22.441  1.00  0.00     0.233 A 
ATOM     15  C   UNL A   1      31.970  26.814  21.947  1.00  0.00     0.074 A 
ATOM     16  N   UNL A   1      30.119  26.479  23.428  1.00  0.00    -0.110 NA
ATOM     17  C   UNL A   1      32.599  25.708  22.496  1.00  0.00     0.057 A 
ATOM     18  N   UNL A   1      30.736  25.373  23.961  1.00  0.00    -0.127 NA
BRANCH  14  19
ATOM     19  O   UNL A   1      30.135  28.309  21.979  1.00  0.00    -0.477 OA
BRANCH  19  20
ATOM     20  C   UNL A   1      29.238  28.842  22.956  1.00  0.00     0.228 C 
ATOM     21  C   UNL A   1      29.073  30.346  22.782  1.00  0.00     0.049 C 
ENDBRANCH  19  20
ENDBRANCH  14  19
ENDBRANCH   8  13
ENDBRANCH   4   7
ENDBRANCH   2   3
ENDBRANCH   1   2
BRANCH   1  22
ATOM     22  C   UNL A   1      38.836  21.094  26.301  1.00  0.00     0.023 C 
BRANCH  22  23
ATOM     23  C   UNL A   1      39.229  20.136  25.182  1.00  0.00     0.116 C 
BRANCH  23  24
ATOM     24  N   UNL A   1      40.172  19.095  25.605  1.00  0.00    -0.352 N 
ATOM     25  C   UNL A   1      41.498  19.244  25.998  1.00  0.00     0.251 C 
ATOM     26  H   UNL A   1      39.823  18.175  25.612  1.00  0.00     0.163 HD
ATOM     27  O   UNL A   1      42.283  18.316  25.977  1.00  0.00    -0.269 OA
BRANCH  25  28
ATOM     28  C   UNL A   1      41.916  20.568  26.489  1.00  0.00     0.039 A 
ATOM     29  C   UNL A   1      42.436  21.570  25.662  1.00  0.00     0.014 A 
ATOM     30  C   UNL A   1      41.709  20.793  27.842  1.00  0.00     0.014 A 
ATOM     31  C   UNL A   1      42.680  22.829  26.211  1.00  0.00     0.010 A 
ATOM     32  C   UNL A   1      41.714  22.071  28.310  1.00  0.00     0.010 A 
ATOM     33  C   UNL A   1      42.308  23.064  27.541  1.00  0.00    -0.014 A 
BRANCH  33  34
ATOM     34  C   UNL A   1      42.481  24.341  28.214  1.00  0.00     0.031 A 
ATOM     35  C   UNL A   1      41.390  25.329  28.003  1.00  0.00     0.074 A 
ATOM     36  C   UNL A   1      43.372  24.443  29.228  1.00  0.00     0.049 A 
ATOM     37  N   UNL A   1      41.478  26.512  27.493  1.00  0.00    -0.248 NA
ATOM     38  C   UNL A   1      40.009  24.916  28.309  1.00  0.00     0.031 C 
ATOM     39  C   UNL A   1      44.249  23.393  29.778  1.00  0.00     0.029 A 
ATOM     40  N   UNL A   1      43.556  25.461  30.104  1.00  0.00    -0.354 N 
ATOM     41  C   UNL A   1      40.203  27.066  27.579  1.00  0.00     0.074 A 
ATOM     42  C   UNL A   1      39.314  25.982  27.913  1.00  0.00     0.031 C 
ATOM     43  C   UNL A   1      44.651  23.743  31.019  1.00  0.00     0.029 A 
ATOM     44  C   UNL A   1      44.220  25.103  31.273  1.00  0.00     0.049 A 
ATOM     45  H   UNL A   1      43.245  26.377  29.928  1.00  0.00     0.167 HD
ATOM     46  C   UNL A   1      40.008  28.414  27.618  1.00  0.00     0.031 A 
ATOM     47  C   UNL A   1      44.365  25.863  32.386  1.00  0.00     0.031 A 
ATOM     48  C   UNL A   1      41.205  29.133  27.264  1.00  0.00     0.049 A 
ATOM     49  C   UNL A   1      44.088  27.264  31.992  1.00  0.00     0.074 A 
ATOM     50  C   UNL A   1      42.004  29.205  26.142  1.00  0.00     0.029 A 
ATOM     51  N   UNL A   1      41.968  29.614  28.302  1.00  0.00    -0.354 N 
ATOM     52  N   UNL A   1      44.834  27.933  31.160  1.00  0.00    -0.248 NA
ATOM     53  C   UNL A   1      42.726  27.754  32.140  1.00  0.00     0.031 C 
ATOM     54  C   UNL A   1      43.337  29.247  26.649  1.00  0.00     0.029 A 
ATOM     55  C   UNL A   1      43.271  29.278  28.044  1.00  0.00     0.049 A 
ATOM     56  H   UNL A   1      41.638  30.110  29.087  1.00  0.00     0.167 HD
ATOM     57  C   UNL A   1      43.938  28.630  30.360  1.00  0.00     0.074 A 
ATOM     58  C   UNL A   1      42.663  28.561  31.076  1.00  0.00     0.031 C 
ATOM     59  C   UNL A   1      44.240  28.937  29.064  1.00  0.00     0.031 A 
BRANCH  46  60
ATOM     60  C   UNL A   1      38.881  29.087  28.362  1.00  0.00    -0.014 A 
ATOM     61  C   UNL A   1      38.793  28.913  29.755  1.00  0.00     0.009 A 
ATOM     62  C   UNL A   1      37.757  29.646  27.724  1.00  0.00     0.009 A 
ATOM     63  C   UNL A   1      37.619  29.214  30.456  1.00  0.00     0.001 A 
ATOM     64  C   UNL A   1      36.597  29.987  28.426  1.00  0.00     0.001 A 
ATOM     65  C   UNL A   1      36.518  29.743  29.789  1.00  0.00     0.000 A 
ENDBRANCH  46  60
BRANCH  47  66
ATOM     66  C   UNL A   1      44.437  25.431  33.799  1.00  0.00    -0.014 A 
ATOM     67  C   UNL A   1      43.314  24.896  34.450  1.00  0.00     0.009 A 
ATOM     68  C   UNL A   1      45.686  25.296  34.433  1.00  0.00     0.009 A 
ATOM     69  C   UNL A   1      43.444  24.219  35.672  1.00  0.00     0.001 A 
ATOM     70  C   UNL A   1      45.816  24.619  35.651  1.00  0.00     0.001 A 
ATOM     71  C   UNL A   1      44.697  24.067  36.263  1.00  0.00     0.000 A 
ENDBRANCH  47  66
BRANCH  59  72
ATOM     72  C   UNL A   1      45.643  28.653  28.579  1.00  0.00    -0.014 A 
ATOM     73  C   UNL A   1      46.702  29.570  28.714  1.00  0.00     0.009 A 
ATOM     74  C   UNL A   1      45.944  27.358  28.136  1.00  0.00     0.009 A 
ATOM     75  C   UNL A   1      48.016  29.208  28.394  1.00  0.00     0.001 A 
ATOM     76  C   UNL A   1      47.258  26.991  27.834  1.00  0.00     0.001 A 
ATOM     77  C   UNL A   1      48.292  27.915  27.959  1.00  0.00     0.000 A 
ENDBRANCH  59  72
ENDBRANCH  33  34
ENDBRANCH  25  28
ENDBRANCH  23  24
ENDBRANCH  22  23
ENDBRANCH   1  22
TORSDOF 14
ENDMDL
MODEL 3
REMARK VINA RESULT:     -11.5      1.907      5.668
REMARK SMILES CCOc1ccc(-n2ncc(C(=O)NCCCCNC(=O)c3ccc(-c4c5nc(c(-c6ccccc6)c6ccc([nH]6)c(-c6ccccc6)c6nc(c(-c7ccccc7)c7ccc4[nH]7)C=C6)C=C5)cc3)c2C)nn1
REMARK SMILES IDX 16 1 15 2 14 3 12 4 13 5 11 7 8 8 9 9 70 10 10 11 71 12 7 13
REMARK SMILES IDX 4 14 5 15 73 16 6 17 72 18 3 19 2 20 1 21 17 22 18 23 19 24
REMARK SMILES IDX 20 25 21 27 22 28 23 29 69 30 24 31 68 32 25 33 26 34 27 35
REMARK SMILES IDX 62 36 28 37 67 38 61 39 63 40 29 41 66 42 60 43 59 44 30 46
REMARK SMILES IDX 52 47 37 48 51 49 38 50 41 51 50 52 64 53 39 54 40 55 49 57
REMARK SMILES IDX 65 58 42 59 31 60 32 61 36 62 33 63 35 64 34 65 53 66 54 67
REMARK SMILES IDX 58 68 55 69 57 70 56 71 43 72 44 73 48 74 45 75 47 76 46 77
REMARK H PARENT 14 6 19 26 63 45 41 56
REMARK Flexibility Score: inf
ROOT
ATOM      1  C   UNL A   1      33.789  27.987  24.879  1.00  0.00     0.023 C 
ENDROOT
BRANCH   1   2
ATOM      2  C   UNL A   1      33.586  28.603  23.492  1.00  0.00     0.116 C 
BRANCH   2   3
ATOM      3  N   UNL A   1      32.222  28.454  23.027  1.00  0.00    -0.352 N 
ATOM      4  C   UNL A   1      31.513  27.433  22.447  1.00  0.00     0.254 C 
ATOM      5  O   UNL A   1      30.356  27.717  22.129  1.00  0.00    -0.269 OA
ATOM      6  H   UNL A   1      31.683  29.268  23.156  1.00  0.00     0.163 HD
BRANCH   4   7
ATOM      7  C   UNL A   1      32.050  26.087  22.252  1.00  0.00     0.081 A 
ATOM      8  N   UNL A   1      32.606  23.949  22.654  1.00  0.00    -0.217 N 
ATOM      9  N   UNL A   1      33.274  24.297  21.523  1.00  0.00    -0.174 NA
ATOM     10  C   UNL A   1      31.853  25.012  23.134  1.00  0.00     0.056 A 
ATOM     11  C   UNL A   1      32.864  25.530  21.252  1.00  0.00     0.149 A 
ATOM     12  C   UNL A   1      31.085  24.990  24.414  1.00  0.00     0.068 C 
BRANCH   8  13
ATOM     13  C   UNL A   1      32.771  22.626  23.156  1.00  0.00     0.176 A 
ATOM     14  C   UNL A   1      33.195  20.108  24.055  1.00  0.00     0.233 A 
ATOM     15  C   UNL A   1      33.986  21.117  24.562  1.00  0.00     0.074 A 
ATOM     16  N   UNL A   1      32.229  20.329  23.140  1.00  0.00    -0.110 NA
ATOM     17  C   UNL A   1      33.768  22.406  24.104  1.00  0.00     0.057 A 
ATOM     18  N   UNL A   1      32.003  21.610  22.697  1.00  0.00    -0.127 NA
BRANCH  14  19
ATOM     19  O   UNL A   1      33.456  18.813  24.424  1.00  0.00    -0.477 OA
BRANCH  19  20
ATOM     20  C   UNL A   1      33.068  17.905  23.390  1.00  0.00     0.228 C 
ATOM     21  C   UNL A   1      33.779  16.568  23.546  1.00  0.00     0.049 C 
ENDBRANCH  19  20
ENDBRANCH  14  19
ENDBRANCH   8  13
ENDBRANCH   4   7
ENDBRANCH   2   3
ENDBRANCH   1   2
BRANCH   1  22
ATOM     22  C   UNL A   1      33.941  28.999  26.028  1.00  0.00     0.023 C 
BRANCH  22  23
ATOM     23  C   UNL A   1      35.130  28.752  26.949  1.00  0.00     0.116 C 
BRANCH  23  24
ATOM     24  N   UNL A   1      35.215  29.700  28.066  1.00  0.00    -0.352 N 
ATOM     25  C   UNL A   1      36.210  29.807  29.030  1.00  0.00     0.251 C 
ATOM     26  H   UNL A   1      34.472  30.342  28.142  1.00  0.00     0.163 HD
ATOM     27  O   UNL A   1      36.017  30.360  30.096  1.00  0.00    -0.269 OA
BRANCH  25  28
ATOM     28  C   UNL A   1      37.537  29.260  28.700  1.00  0.00     0.039 A 
ATOM     29  C   UNL A   1      38.310  29.706  27.623  1.00  0.00     0.014 A 
ATOM     30  C   UNL A   1      38.014  28.290  29.570  1.00  0.00     0.014 A 
ATOM     31  C   UNL A   1      39.605  29.206  27.478  1.00  0.00     0.010 A 
ATOM     32  C   UNL A   1      39.342  27.996  29.570  1.00  0.00     0.010 A 
ATOM     33  C   UNL A   1      40.108  28.352  28.467  1.00  0.00    -0.014 A 
BRANCH  33  34
ATOM     34  C   UNL A   1      41.450  27.793  28.446  1.00  0.00     0.031 A 
ATOM     35  C   UNL A   1      41.594  26.495  27.735  1.00  0.00     0.074 A 
ATOM     36  C   UNL A   1      42.507  28.590  28.729  1.00  0.00     0.049 A 
ATOM     37  N   UNL A   1      42.014  25.372  28.210  1.00  0.00    -0.248 NA
ATOM     38  C   UNL A   1      41.120  26.411  26.342  1.00  0.00     0.031 C 
ATOM     39  C   UNL A   1      42.498  30.022  29.082  1.00  0.00     0.029 A 
ATOM     40  N   UNL A   1      43.831  28.338  28.585  1.00  0.00    -0.354 N 
ATOM     41  C   UNL A   1      42.034  24.481  27.139  1.00  0.00     0.074 A 
ATOM     42  C   UNL A   1      41.304  25.118  26.072  1.00  0.00     0.031 C 
ATOM     43  C   UNL A   1      43.721  30.551  28.863  1.00  0.00     0.029 A 
ATOM     44  C   UNL A   1      44.634  29.473  28.538  1.00  0.00     0.049 A 
ATOM     45  H   UNL A   1      44.194  27.426  28.519  1.00  0.00     0.167 HD
ATOM     46  C   UNL A   1      42.859  23.398  27.122  1.00  0.00     0.031 A 
ATOM     47  C   UNL A   1      45.948  29.521  28.212  1.00  0.00     0.031 A 
ATOM     48  C   UNL A   1      43.438  23.152  28.418  1.00  0.00     0.049 A 
ATOM     49  C   UNL A   1      46.477  28.143  28.343  1.00  0.00     0.074 A 
ATOM     50  C   UNL A   1      42.939  22.846  29.667  1.00  0.00     0.029 A 
ATOM     51  N   UNL A   1      44.713  23.622  28.626  1.00  0.00    -0.354 N 
ATOM     52  N   UNL A   1      46.546  27.510  29.480  1.00  0.00    -0.248 NA
ATOM     53  C   UNL A   1      46.472  27.299  27.159  1.00  0.00     0.031 C 
ATOM     54  C   UNL A   1      43.735  23.608  30.572  1.00  0.00     0.029 A 
ATOM     55  C   UNL A   1      44.720  24.269  29.833  1.00  0.00     0.049 A 
ATOM     56  H   UNL A   1      45.481  23.513  28.019  1.00  0.00     0.167 HD
ATOM     57  C   UNL A   1      46.148  26.212  29.188  1.00  0.00     0.074 A 
ATOM     58  C   UNL A   1      46.216  26.117  27.729  1.00  0.00     0.031 C 
ATOM     59  C   UNL A   1      45.522  25.439  30.124  1.00  0.00     0.031 A 
BRANCH  46  60
ATOM     60  C   UNL A   1      43.464  22.812  25.870  1.00  0.00    -0.014 A 
ATOM     61  C   UNL A   1      43.591  21.415  25.772  1.00  0.00     0.009 A 
ATOM     62  C   UNL A   1      44.161  23.577  24.915  1.00  0.00     0.009 A 
ATOM     63  C   UNL A   1      44.428  20.822  24.818  1.00  0.00     0.001 A 
ATOM     64  C   UNL A   1      44.965  22.988  23.934  1.00  0.00     0.001 A 
ATOM     65  C   UNL A   1      45.121  21.610  23.905  1.00  0.00     0.000 A 
ENDBRANCH  46  60
BRANCH  47  66
ATOM     66  C   UNL A   1      46.693  30.599  27.525  1.00  0.00    -0.014 A 
ATOM     67  C   UNL A   1      46.018  31.620  26.837  1.00  0.00     0.009 A 
ATOM     68  C   UNL A   1      48.067  30.774  27.772  1.00  0.00     0.009 A 
ATOM     69  C   UNL A   1      46.688  32.788  26.445  1.00  0.00     0.001 A 
ATOM     70  C   UNL A   1      48.736  31.940  27.381  1.00  0.00     0.001 A 
ATOM     71  C   UNL A   1      48.042  32.954  26.730  1.00  0.00     0.000 A 
ENDBRANCH  47  66
BRANCH  59  72
ATOM     72  C   UNL A   1      45.433  25.972  31.536  1.00  0.00    -0.014 A 
ATOM     73  C   UNL A   1      44.383  26.799  31.979  1.00  0.00     0.009 A 
ATOM     74  C   UNL A   1      46.335  25.484  32.489  1.00  0.00     0.009 A 
ATOM     75  C   UNL A   1      44.256  27.142  33.330  1.00  0.00     0.001 A 
ATOM     76  C   UNL A   1      46.198  25.812  33.841  1.00  0.00     0.001 A 
ATOM     77  C   UNL A   1      45.162  26.642  34.260  1.00  0.00     0.000 A 
ENDBRANCH  59  72
ENDBRANCH  33  34
ENDBRANCH  25  28
ENDBRANCH  23  24
ENDBRANCH  22  23
ENDBRANCH   1  22
TORSDOF 14
ENDMDL
