MODEL 1
REMARK VINA RESULT:      -9.0      0.000      0.000
REMARK SMILES CC(=O)Oc1cc(CCC(=O)NCCCCNC(=O)c2ccc(-c3c4nc(c(-c5ccccc5)c5ccc([nH]5)c(-c5ccccc5)c5nc(c(-c6ccccc6)c6ccc3[nH]6)C=C5)C=C4)cc2)c(OC(C)=O)c2c1C(=O)c1ccccc1C2=O
REMARK SMILES IDX 13 1 12 2 10 3 11 4 9 6 8 7 7 8 5 9 6 10 74 11 73 12 75 13
REMARK SMILES IDX 68 14 83 15 76 16 77 17 82 18 84 19 78 20 81 21 79 22 80 23
REMARK SMILES IDX 4 24 2 25 1 26 3 27 69 28 70 29 71 30 72 31 14 32 15 33
REMARK SMILES IDX 16 34 17 35 18 36 19 38 20 39 21 40 67 41 22 42 66 43 23 44
REMARK SMILES IDX 24 45 25 46 60 47 26 48 65 49 59 50 61 51 27 52 64 53 58 54
REMARK SMILES IDX 57 55 28 57 50 58 35 59 49 60 36 61 39 62 48 63 62 64 37 65
REMARK SMILES IDX 38 66 47 68 63 69 40 70 29 71 30 72 34 73 31 74 33 75 32 76
REMARK SMILES IDX 51 77 52 78 56 79 53 80 55 81 54 82 41 83 42 84 46 85 43 86
REMARK SMILES IDX 45 87 44 88
REMARK H PARENT 12 5 17 37 61 56 39 67
REMARK Flexibility Score: inf
ROOT
ATOM      1  C   UNL A   1      44.659  21.143  25.089  1.00  0.00     0.116 C 
ENDROOT
BRANCH   1   2
ATOM      2  N   UNL A   1      45.528  21.846  26.024  1.00  0.00    -0.356 N 
ATOM      3  C   UNL A   1      46.144  23.057  25.867  1.00  0.00     0.220 C 
ATOM      4  O   UNL A   1      47.013  23.386  26.677  1.00  0.00    -0.275 OA
ATOM      5  H   UNL A   1      45.694  21.390  26.880  1.00  0.00     0.163 HD
BRANCH   3   6
ATOM      6  C   UNL A   1      45.748  23.991  24.732  1.00  0.00     0.105 C 
BRANCH   6   7
ATOM      7  C   UNL A   1      46.683  25.218  24.622  1.00  0.00     0.049 C 
BRANCH   7   8
ATOM      8  C   UNL A   1      46.225  26.390  25.474  1.00  0.00    -0.000 A 
ATOM      9  C   UNL A   1      44.350  27.666  26.347  1.00  0.00     0.143 A 
ATOM     10  C   UNL A   1      44.857  26.503  25.757  1.00  0.00     0.055 A 
ATOM     11  C   UNL A   1      45.190  28.733  26.708  1.00  0.00     0.080 A 
ATOM     12  C   UNL A   1      46.561  28.639  26.462  1.00  0.00     0.081 A 
ATOM     13  C   UNL A   1      44.629  29.980  27.283  1.00  0.00     0.198 C 
ATOM     14  C   UNL A   1      47.054  27.440  25.884  1.00  0.00     0.146 A 
ATOM     15  C   UNL A   1      47.420  29.823  26.705  1.00  0.00     0.198 C 
ATOM     16  O   UNL A   1      43.537  29.999  27.829  1.00  0.00    -0.288 OA
ATOM     17  C   UNL A   1      45.415  31.219  27.162  1.00  0.00     0.034 A 
ATOM     18  C   UNL A   1      46.769  31.145  26.854  1.00  0.00     0.034 A 
ATOM     19  O   UNL A   1      48.629  29.738  26.786  1.00  0.00    -0.288 OA
ATOM     20  C   UNL A   1      44.800  32.460  27.358  1.00  0.00     0.013 A 
ATOM     21  C   UNL A   1      47.517  32.321  26.713  1.00  0.00     0.013 A 
ATOM     22  C   UNL A   1      45.548  33.631  27.229  1.00  0.00     0.001 A 
ATOM     23  C   UNL A   1      46.901  33.562  26.896  1.00  0.00     0.001 A 
BRANCH   9  24
ATOM     24  O   UNL A   1      42.962  27.735  26.518  1.00  0.00    -0.426 OA
BRANCH  24  25
ATOM     25  C   UNL A   1      42.311  28.120  25.348  1.00  0.00     0.308 C 
ATOM     26  C   UNL A   1      41.063  28.873  25.703  1.00  0.00     0.139 C 
ATOM     27  O   UNL A   1      42.669  27.848  24.206  1.00  0.00    -0.252 OA
ENDBRANCH  24  25
ENDBRANCH   9  24
BRANCH  14  28
ATOM     28  O   UNL A   1      48.502  27.400  25.475  1.00  0.00    -0.426 OA
BRANCH  28  29
ATOM     29  C   UNL A   1      49.874  27.404  25.020  1.00  0.00     0.308 C 
ATOM     30  C   UNL A   1      50.662  26.327  25.693  1.00  0.00     0.139 C 
ATOM     31  O   UNL A   1      50.291  28.174  24.157  1.00  0.00    -0.252 OA
ENDBRANCH  28  29
ENDBRANCH  14  28
ENDBRANCH   7   8
ENDBRANCH   6   7
ENDBRANCH   3   6
ENDBRANCH   1   2
BRANCH   1  32
ATOM     32  C   UNL A   1      45.052  19.673  25.044  1.00  0.00     0.023 C 
BRANCH  32  33
ATOM     33  C   UNL A   1      43.922  18.668  25.179  1.00  0.00     0.023 C 
BRANCH  33  34
ATOM     34  C   UNL A   1      43.021  18.874  26.382  1.00  0.00     0.116 C 
BRANCH  34  35
ATOM     35  N   UNL A   1      41.618  19.109  26.063  1.00  0.00    -0.352 N 
ATOM     36  C   UNL A   1      40.838  20.230  26.236  1.00  0.00     0.251 C 
ATOM     37  H   UNL A   1      41.153  18.341  25.659  1.00  0.00     0.163 HD
ATOM     38  O   UNL A   1      39.656  20.202  25.895  1.00  0.00    -0.269 OA
BRANCH  36  39
ATOM     39  C   UNL A   1      41.378  21.452  26.879  1.00  0.00     0.039 A 
ATOM     40  C   UNL A   1      41.702  22.546  26.066  1.00  0.00     0.014 A 
ATOM     41  C   UNL A   1      41.556  21.548  28.257  1.00  0.00     0.014 A 
ATOM     42  C   UNL A   1      42.084  23.761  26.641  1.00  0.00     0.010 A 
ATOM     43  C   UNL A   1      41.834  22.778  28.838  1.00  0.00     0.010 A 
ATOM     44  C   UNL A   1      42.104  23.895  28.036  1.00  0.00    -0.014 A 
BRANCH  44  45
ATOM     45  C   UNL A   1      42.479  25.160  28.708  1.00  0.00     0.031 A 
ATOM     46  C   UNL A   1      41.429  26.220  28.887  1.00  0.00     0.074 A 
ATOM     47  C   UNL A   1      43.760  25.396  29.046  1.00  0.00     0.049 A 
ATOM     48  N   UNL A   1      41.565  27.469  29.246  1.00  0.00    -0.248 NA
ATOM     49  C   UNL A   1      40.043  25.829  28.570  1.00  0.00     0.031 C 
ATOM     50  C   UNL A   1      44.874  24.457  28.888  1.00  0.00     0.029 A 
ATOM     51  N   UNL A   1      44.346  26.520  29.570  1.00  0.00    -0.354 N 
ATOM     52  C   UNL A   1      40.292  28.019  29.163  1.00  0.00     0.074 A 
ATOM     53  C   UNL A   1      39.409  26.987  28.670  1.00  0.00     0.031 C 
ATOM     54  C   UNL A   1      46.006  25.042  29.316  1.00  0.00     0.029 A 
ATOM     55  C   UNL A   1      45.706  26.406  29.739  1.00  0.00     0.049 A 
ATOM     56  H   UNL A   1      43.841  27.332  29.804  1.00  0.00     0.167 HD
ATOM     57  C   UNL A   1      39.889  29.268  29.492  1.00  0.00     0.031 A 
ATOM     58  C   UNL A   1      46.603  27.309  30.172  1.00  0.00     0.031 A 
ATOM     59  C   UNL A   1      40.764  30.282  30.010  1.00  0.00     0.049 A 
ATOM     60  C   UNL A   1      46.127  28.686  30.546  1.00  0.00     0.074 A 
ATOM     61  C   UNL A   1      40.459  31.573  30.403  1.00  0.00     0.029 A 
ATOM     62  N   UNL A   1      42.121  30.104  30.225  1.00  0.00    -0.354 N 
ATOM     63  N   UNL A   1      44.915  29.185  30.491  1.00  0.00    -0.248 NA
ATOM     64  C   UNL A   1      47.141  29.622  31.053  1.00  0.00     0.031 C 
ATOM     65  C   UNL A   1      41.639  32.180  30.846  1.00  0.00     0.029 A 
ATOM     66  C   UNL A   1      42.669  31.257  30.755  1.00  0.00     0.049 A 
ATOM     67  H   UNL A   1      42.622  29.278  30.030  1.00  0.00     0.167 HD
ATOM     68  C   UNL A   1      45.016  30.479  30.984  1.00  0.00     0.074 A 
ATOM     69  C   UNL A   1      46.404  30.685  31.344  1.00  0.00     0.031 C 
ATOM     70  C   UNL A   1      44.049  31.419  31.124  1.00  0.00     0.031 A 
BRANCH  57  71
ATOM     71  C   UNL A   1      38.432  29.583  29.311  1.00  0.00    -0.014 A 
ATOM     72  C   UNL A   1      37.931  29.960  28.053  1.00  0.00     0.009 A 
ATOM     73  C   UNL A   1      37.553  29.516  30.404  1.00  0.00     0.009 A 
ATOM     74  C   UNL A   1      36.587  30.305  27.903  1.00  0.00     0.001 A 
ATOM     75  C   UNL A   1      36.204  29.835  30.245  1.00  0.00     0.001 A 
ATOM     76  C   UNL A   1      35.724  30.240  28.998  1.00  0.00     0.000 A 
ENDBRANCH  57  71
BRANCH  58  77
ATOM     77  C   UNL A   1      48.041  26.952  30.296  1.00  0.00    -0.014 A 
ATOM     78  C   UNL A   1      48.533  26.415  31.499  1.00  0.00     0.009 A 
ATOM     79  C   UNL A   1      48.932  27.173  29.235  1.00  0.00     0.009 A 
ATOM     80  C   UNL A   1      49.895  26.141  31.650  1.00  0.00     0.001 A 
ATOM     81  C   UNL A   1      50.290  26.876  29.380  1.00  0.00     0.001 A 
ATOM     82  C   UNL A   1      50.771  26.371  30.590  1.00  0.00     0.000 A 
ENDBRANCH  58  77
BRANCH  70  83
ATOM     83  C   UNL A   1      44.453  32.725  31.740  1.00  0.00    -0.014 A 
ATOM     84  C   UNL A   1      44.401  32.919  33.129  1.00  0.00     0.009 A 
ATOM     85  C   UNL A   1      44.942  33.754  30.918  1.00  0.00     0.009 A 
ATOM     86  C   UNL A   1      44.807  34.134  33.681  1.00  0.00     0.001 A 
ATOM     87  C   UNL A   1      45.368  34.959  31.475  1.00  0.00     0.001 A 
ATOM     88  C   UNL A   1      45.294  35.150  32.856  1.00  0.00     0.000 A 
ENDBRANCH  70  83
ENDBRANCH  44  45
ENDBRANCH  36  39
ENDBRANCH  34  35
ENDBRANCH  33  34
ENDBRANCH  32  33
ENDBRANCH   1  32
TORSDOF 17
ENDMDL
MODEL 2
REMARK VINA RESULT:      -8.5      5.333     10.979
REMARK SMILES CC(=O)Oc1cc(CCC(=O)NCCCCNC(=O)c2ccc(-c3c4nc(c(-c5ccccc5)c5ccc([nH]5)c(-c5ccccc5)c5nc(c(-c6ccccc6)c6ccc3[nH]6)C=C5)C=C4)cc2)c(OC(C)=O)c2c1C(=O)c1ccccc1C2=O
REMARK SMILES IDX 13 1 12 2 10 3 11 4 9 6 8 7 7 8 5 9 6 10 74 11 73 12 75 13
REMARK SMILES IDX 68 14 83 15 76 16 77 17 82 18 84 19 78 20 81 21 79 22 80 23
REMARK SMILES IDX 4 24 2 25 1 26 3 27 69 28 70 29 71 30 72 31 14 32 15 33
REMARK SMILES IDX 16 34 17 35 18 36 19 38 20 39 21 40 67 41 22 42 66 43 23 44
REMARK SMILES IDX 24 45 25 46 60 47 26 48 65 49 59 50 61 51 27 52 64 53 58 54
REMARK SMILES IDX 57 55 28 57 50 58 35 59 49 60 36 61 39 62 48 63 62 64 37 65
REMARK SMILES IDX 38 66 47 68 63 69 40 70 29 71 30 72 34 73 31 74 33 75 32 76
REMARK SMILES IDX 51 77 52 78 56 79 53 80 55 81 54 82 41 83 42 84 46 85 43 86
REMARK SMILES IDX 45 87 44 88
REMARK H PARENT 12 5 17 37 61 56 39 67
REMARK Flexibility Score: inf
ROOT
ATOM      1  C   UNL A   1      33.619  22.019  24.847  1.00  0.00     0.116 C 
ENDROOT
BRANCH   1   2
ATOM      2  N   UNL A   1      33.198  21.908  26.238  1.00  0.00    -0.356 N 
ATOM      3  C   UNL A   1      32.667  22.876  27.046  1.00  0.00     0.220 C 
ATOM      4  O   UNL A   1      32.577  22.651  28.254  1.00  0.00    -0.275 OA
ATOM      5  H   UNL A   1      33.310  21.022  26.650  1.00  0.00     0.163 HD
BRANCH   3   6
ATOM      6  C   UNL A   1      32.175  24.194  26.463  1.00  0.00     0.105 C 
BRANCH   6   7
ATOM      7  C   UNL A   1      33.325  25.200  26.221  1.00  0.00     0.049 C 
BRANCH   7   8
ATOM      8  C   UNL A   1      32.832  26.566  25.775  1.00  0.00    -0.000 A 
ATOM      9  C   UNL A   1      32.252  28.836  26.423  1.00  0.00     0.143 A 
ATOM     10  C   UNL A   1      32.886  27.619  26.699  1.00  0.00     0.055 A 
ATOM     11  C   UNL A   1      31.582  29.056  25.208  1.00  0.00     0.080 A 
ATOM     12  C   UNL A   1      31.533  28.034  24.257  1.00  0.00     0.081 A 
ATOM     13  C   UNL A   1      30.870  30.333  24.954  1.00  0.00     0.198 C 
ATOM     14  C   UNL A   1      32.203  26.818  24.552  1.00  0.00     0.146 A 
ATOM     15  C   UNL A   1      30.699  28.217  23.045  1.00  0.00     0.198 C 
ATOM     16  O   UNL A   1      31.152  31.354  25.560  1.00  0.00    -0.288 OA
ATOM     17  C   UNL A   1      29.785  30.340  23.959  1.00  0.00     0.034 A 
ATOM     18  C   UNL A   1      29.685  29.296  23.045  1.00  0.00     0.034 A 
ATOM     19  O   UNL A   1      30.826  27.514  22.063  1.00  0.00    -0.288 OA
ATOM     20  C   UNL A   1      28.864  31.393  23.935  1.00  0.00     0.013 A 
ATOM     21  C   UNL A   1      28.641  29.285  22.112  1.00  0.00     0.013 A 
ATOM     22  C   UNL A   1      27.831  31.388  22.997  1.00  0.00     0.001 A 
ATOM     23  C   UNL A   1      27.712  30.330  22.095  1.00  0.00     0.001 A 
BRANCH   9  24
ATOM     24  O   UNL A   1      32.279  29.806  27.432  1.00  0.00    -0.426 OA
BRANCH  24  25
ATOM     25  C   UNL A   1      33.480  30.513  27.444  1.00  0.00     0.308 C 
ATOM     26  C   UNL A   1      34.613  29.557  27.671  1.00  0.00     0.139 C 
ATOM     27  O   UNL A   1      33.596  31.730  27.334  1.00  0.00    -0.252 OA
ENDBRANCH  24  25
ENDBRANCH   9  24
BRANCH  14  28
ATOM     28  O   UNL A   1      32.019  25.666  23.600  1.00  0.00    -0.426 OA
BRANCH  28  29
ATOM     29  C   UNL A   1      31.883  24.516  22.734  1.00  0.00     0.308 C 
ATOM     30  C   UNL A   1      30.702  23.689  23.128  1.00  0.00     0.139 C 
ATOM     31  O   UNL A   1      32.630  24.305  21.780  1.00  0.00    -0.252 OA
ENDBRANCH  28  29
ENDBRANCH  14  28
ENDBRANCH   7   8
ENDBRANCH   6   7
ENDBRANCH   3   6
ENDBRANCH   1   2
BRANCH   1  32
ATOM     32  C   UNL A   1      35.135  22.136  24.787  1.00  0.00     0.023 C 
BRANCH  32  33
ATOM     33  C   UNL A   1      35.691  23.483  24.361  1.00  0.00     0.023 C 
BRANCH  33  34
ATOM     34  C   UNL A   1      36.974  23.897  25.057  1.00  0.00     0.116 C 
BRANCH  34  35
ATOM     35  N   UNL A   1      37.846  22.792  25.440  1.00  0.00    -0.352 N 
ATOM     36  C   UNL A   1      38.974  22.776  26.228  1.00  0.00     0.251 C 
ATOM     37  H   UNL A   1      37.585  21.916  25.075  1.00  0.00     0.163 HD
ATOM     38  O   UNL A   1      39.566  21.715  26.414  1.00  0.00    -0.269 OA
BRANCH  36  39
ATOM     39  C   UNL A   1      39.524  24.025  26.809  1.00  0.00     0.039 A 
ATOM     40  C   UNL A   1      40.249  24.886  25.976  1.00  0.00     0.014 A 
ATOM     41  C   UNL A   1      39.328  24.371  28.145  1.00  0.00     0.014 A 
ATOM     42  C   UNL A   1      40.666  26.135  26.446  1.00  0.00     0.010 A 
ATOM     43  C   UNL A   1      39.648  25.647  28.586  1.00  0.00     0.010 A 
ATOM     44  C   UNL A   1      40.324  26.539  27.742  1.00  0.00    -0.014 A 
BRANCH  44  45
ATOM     45  C   UNL A   1      40.717  27.856  28.294  1.00  0.00     0.031 A 
ATOM     46  C   UNL A   1      42.149  28.070  28.696  1.00  0.00     0.074 A 
ATOM     47  C   UNL A   1      39.785  28.797  28.537  1.00  0.00     0.049 A 
ATOM     48  N   UNL A   1      42.679  29.044  29.388  1.00  0.00    -0.248 NA
ATOM     49  C   UNL A   1      43.104  27.018  28.305  1.00  0.00     0.031 C 
ATOM     50  C   UNL A   1      38.359  28.690  28.223  1.00  0.00     0.029 A 
ATOM     51  N   UNL A   1      39.902  30.027  29.134  1.00  0.00    -0.354 N 
ATOM     52  C   UNL A   1      44.016  28.703  29.545  1.00  0.00     0.074 A 
ATOM     53  C   UNL A   1      44.206  27.411  28.924  1.00  0.00     0.031 C 
ATOM     54  C   UNL A   1      37.735  29.811  28.622  1.00  0.00     0.029 A 
ATOM     55  C   UNL A   1      38.707  30.697  29.254  1.00  0.00     0.049 A 
ATOM     56  H   UNL A   1      40.759  30.395  29.447  1.00  0.00     0.167 HD
ATOM     57  C   UNL A   1      45.006  29.414  30.133  1.00  0.00     0.031 A 
ATOM     58  C   UNL A   1      38.434  31.884  29.825  1.00  0.00     0.031 A 
ATOM     59  C   UNL A   1      44.820  30.710  30.722  1.00  0.00     0.049 A 
ATOM     60  C   UNL A   1      39.556  32.662  30.457  1.00  0.00     0.074 A 
ATOM     61  C   UNL A   1      45.757  31.533  31.320  1.00  0.00     0.029 A 
ATOM     62  N   UNL A   1      43.608  31.380  30.764  1.00  0.00    -0.354 N 
ATOM     63  N   UNL A   1      40.822  32.341  30.573  1.00  0.00    -0.248 NA
ATOM     64  C   UNL A   1      39.211  33.972  31.029  1.00  0.00     0.031 C 
ATOM     65  C   UNL A   1      45.105  32.699  31.736  1.00  0.00     0.029 A 
ATOM     66  C   UNL A   1      43.772  32.612  31.370  1.00  0.00     0.049 A 
ATOM     67  H   UNL A   1      42.755  31.031  30.415  1.00  0.00     0.167 HD
ATOM     68  C   UNL A   1      41.430  33.419  31.201  1.00  0.00     0.074 A 
ATOM     69  C   UNL A   1      40.396  34.408  31.432  1.00  0.00     0.031 C 
ATOM     70  C   UNL A   1      42.727  33.581  31.561  1.00  0.00     0.031 A 
BRANCH  57  71
ATOM     71  C   UNL A   1      46.375  28.796  30.143  1.00  0.00    -0.014 A 
ATOM     72  C   UNL A   1      47.256  28.988  29.065  1.00  0.00     0.009 A 
ATOM     73  C   UNL A   1      46.785  28.006  31.228  1.00  0.00     0.009 A 
ATOM     74  C   UNL A   1      48.505  28.366  29.055  1.00  0.00     0.001 A 
ATOM     75  C   UNL A   1      48.046  27.407  31.228  1.00  0.00     0.001 A 
ATOM     76  C   UNL A   1      48.900  27.579  30.138  1.00  0.00     0.000 A 
ENDBRANCH  57  71
BRANCH  58  77
ATOM     77  C   UNL A   1      37.052  32.429  29.817  1.00  0.00    -0.014 A 
ATOM     78  C   UNL A   1      36.690  33.425  28.893  1.00  0.00     0.009 A 
ATOM     79  C   UNL A   1      36.099  31.988  30.748  1.00  0.00     0.009 A 
ATOM     80  C   UNL A   1      35.415  33.994  28.922  1.00  0.00     0.001 A 
ATOM     81  C   UNL A   1      34.815  32.541  30.760  1.00  0.00     0.001 A 
ATOM     82  C   UNL A   1      34.478  33.551  29.856  1.00  0.00     0.000 A 
ENDBRANCH  58  77
BRANCH  70  83
ATOM     83  C   UNL A   1      43.103  34.890  32.187  1.00  0.00    -0.014 A 
ATOM     84  C   UNL A   1      43.026  35.078  33.575  1.00  0.00     0.009 A 
ATOM     85  C   UNL A   1      43.590  35.929  31.376  1.00  0.00     0.009 A 
ATOM     86  C   UNL A   1      43.406  36.297  34.139  1.00  0.00     0.001 A 
ATOM     87  C   UNL A   1      43.990  37.137  31.944  1.00  0.00     0.001 A 
ATOM     88  C   UNL A   1      43.891  37.322  33.324  1.00  0.00     0.000 A 
ENDBRANCH  70  83
ENDBRANCH  44  45
ENDBRANCH  36  39
ENDBRANCH  34  35
ENDBRANCH  33  34
ENDBRANCH  32  33
ENDBRANCH   1  32
TORSDOF 17
ENDMDL
MODEL 3
REMARK VINA RESULT:      -8.3      5.177      9.174
REMARK SMILES CC(=O)Oc1cc(CCC(=O)NCCCCNC(=O)c2ccc(-c3c4nc(c(-c5ccccc5)c5ccc([nH]5)c(-c5ccccc5)c5nc(c(-c6ccccc6)c6ccc3[nH]6)C=C5)C=C4)cc2)c(OC(C)=O)c2c1C(=O)c1ccccc1C2=O
REMARK SMILES IDX 13 1 12 2 10 3 11 4 9 6 8 7 7 8 5 9 6 10 74 11 73 12 75 13
REMARK SMILES IDX 68 14 83 15 76 16 77 17 82 18 84 19 78 20 81 21 79 22 80 23
REMARK SMILES IDX 4 24 2 25 1 26 3 27 69 28 70 29 71 30 72 31 14 32 15 33
REMARK SMILES IDX 16 34 17 35 18 36 19 38 20 39 21 40 67 41 22 42 66 43 23 44
REMARK SMILES IDX 24 45 25 46 60 47 26 48 65 49 59 50 61 51 27 52 64 53 58 54
REMARK SMILES IDX 57 55 28 57 50 58 35 59 49 60 36 61 39 62 48 63 62 64 37 65
REMARK SMILES IDX 38 66 47 68 63 69 40 70 29 71 30 72 34 73 31 74 33 75 32 76
REMARK SMILES IDX 51 77 52 78 56 79 53 80 55 81 54 82 41 83 42 84 46 85 43 86
REMARK SMILES IDX 45 87 44 88
REMARK H PARENT 12 5 17 37 61 56 39 67
REMARK Flexibility Score: inf
ROOT
ATOM      1  C   UNL A   1      35.174  21.983  25.472  1.00  0.00     0.116 C 
ENDROOT
BRANCH   1   2
ATOM      2  N   UNL A   1      34.232  20.870  25.454  1.00  0.00    -0.356 N 
ATOM      3  C   UNL A   1      33.086  20.738  24.719  1.00  0.00     0.220 C 
ATOM      4  O   UNL A   1      32.309  19.824  25.000  1.00  0.00    -0.275 OA
ATOM      5  H   UNL A   1      34.449  20.116  26.048  1.00  0.00     0.163 HD
BRANCH   3   6
ATOM      6  C   UNL A   1      32.788  21.683  23.563  1.00  0.00     0.105 C 
BRANCH   6   7
ATOM      7  C   UNL A   1      31.291  22.061  23.479  1.00  0.00     0.049 C 
BRANCH   7   8
ATOM      8  C   UNL A   1      31.053  23.560  23.542  1.00  0.00    -0.000 A 
ATOM      9  C   UNL A   1      31.167  25.693  22.382  1.00  0.00     0.143 A 
ATOM     10  C   UNL A   1      31.159  24.294  22.352  1.00  0.00     0.055 A 
ATOM     11  C   UNL A   1      31.031  26.403  23.586  1.00  0.00     0.080 A 
ATOM     12  C   UNL A   1      30.899  25.700  24.786  1.00  0.00     0.081 A 
ATOM     13  C   UNL A   1      31.096  27.885  23.606  1.00  0.00     0.198 C 
ATOM     14  C   UNL A   1      30.871  24.281  24.726  1.00  0.00     0.146 A 
ATOM     15  C   UNL A   1      30.908  26.448  26.065  1.00  0.00     0.198 C 
ATOM     16  O   UNL A   1      30.866  28.549  22.608  1.00  0.00    -0.288 OA
ATOM     17  C   UNL A   1      31.470  28.550  24.865  1.00  0.00     0.034 A 
ATOM     18  C   UNL A   1      31.404  27.843  26.060  1.00  0.00     0.034 A 
ATOM     19  O   UNL A   1      30.522  25.953  27.105  1.00  0.00    -0.288 OA
ATOM     20  C   UNL A   1      31.888  29.886  24.854  1.00  0.00     0.013 A 
ATOM     21  C   UNL A   1      31.783  28.463  27.258  1.00  0.00     0.013 A 
ATOM     22  C   UNL A   1      32.253  30.507  26.048  1.00  0.00     0.001 A 
ATOM     23  C   UNL A   1      32.212  29.793  27.247  1.00  0.00     0.001 A 
BRANCH   9  24
ATOM     24  O   UNL A   1      31.362  26.350  21.161  1.00  0.00    -0.426 OA
BRANCH  24  25
ATOM     25  C   UNL A   1      32.641  26.132  20.650  1.00  0.00     0.308 C 
ATOM     26  C   UNL A   1      32.528  25.577  19.261  1.00  0.00     0.139 C 
ATOM     27  O   UNL A   1      33.694  26.317  21.252  1.00  0.00    -0.252 OA
ENDBRANCH  24  25
ENDBRANCH   9  24
BRANCH  14  28
ATOM     28  O   UNL A   1      30.887  23.523  26.026  1.00  0.00    -0.426 OA
BRANCH  28  29
ATOM     29  C   UNL A   1      30.851  22.845  27.303  1.00  0.00     0.308 C 
ATOM     30  C   UNL A   1      32.233  22.582  27.806  1.00  0.00     0.139 C 
ATOM     31  O   UNL A   1      29.803  22.580  27.890  1.00  0.00    -0.252 OA
ENDBRANCH  28  29
ENDBRANCH  14  28
ENDBRANCH   7   8
ENDBRANCH   6   7
ENDBRANCH   3   6
ENDBRANCH   1   2
BRANCH   1  32
ATOM     32  C   UNL A   1      36.357  21.656  24.571  1.00  0.00     0.023 C 
BRANCH  32  33
ATOM     33  C   UNL A   1      37.228  20.488  24.999  1.00  0.00     0.023 C 
BRANCH  33  34
ATOM     34  C   UNL A   1      38.547  20.875  25.642  1.00  0.00     0.116 C 
BRANCH  34  35
ATOM     35  N   UNL A   1      39.562  19.828  25.633  1.00  0.00    -0.352 N 
ATOM     36  C   UNL A   1      40.864  19.842  26.078  1.00  0.00     0.251 C 
ATOM     37  H   UNL A   1      39.267  18.971  25.246  1.00  0.00     0.163 HD
ATOM     38  O   UNL A   1      41.553  18.829  25.964  1.00  0.00    -0.269 OA
BRANCH  36  39
ATOM     39  C   UNL A   1      41.472  21.072  26.640  1.00  0.00     0.039 A 
ATOM     40  C   UNL A   1      41.970  22.036  25.753  1.00  0.00     0.014 A 
ATOM     41  C   UNL A   1      41.547  21.303  28.012  1.00  0.00     0.014 A 
ATOM     42  C   UNL A   1      42.424  23.267  26.233  1.00  0.00     0.010 A 
ATOM     43  C   UNL A   1      41.899  22.559  28.487  1.00  0.00     0.010 A 
ATOM     44  C   UNL A   1      42.345  23.551  27.602  1.00  0.00    -0.014 A 
BRANCH  44  45
ATOM     45  C   UNL A   1      42.791  24.843  28.174  1.00  0.00     0.031 A 
ATOM     46  C   UNL A   1      41.760  25.901  28.451  1.00  0.00     0.074 A 
ATOM     47  C   UNL A   1      44.102  25.101  28.331  1.00  0.00     0.049 A 
ATOM     48  N   UNL A   1      41.928  27.164  28.744  1.00  0.00    -0.248 NA
ATOM     49  C   UNL A   1      40.350  25.490  28.334  1.00  0.00     0.031 C 
ATOM     50  C   UNL A   1      45.196  24.164  28.062  1.00  0.00     0.029 A 
ATOM     51  N   UNL A   1      44.739  26.247  28.732  1.00  0.00    -0.354 N 
ATOM     52  C   UNL A   1      40.649  27.702  28.810  1.00  0.00     0.074 A 
ATOM     53  C   UNL A   1      39.720  26.646  28.475  1.00  0.00     0.031 C 
ATOM     54  C   UNL A   1      46.368  24.772  28.315  1.00  0.00     0.029 A 
ATOM     55  C   UNL A   1      46.110  26.149  28.724  1.00  0.00     0.049 A 
ATOM     56  H   UNL A   1      44.259  27.064  29.001  1.00  0.00     0.167 HD
ATOM     57  C   UNL A   1      40.278  28.960  29.144  1.00  0.00     0.031 A 
ATOM     58  C   UNL A   1      47.046  27.074  29.002  1.00  0.00     0.031 A 
ATOM     59  C   UNL A   1      41.202  29.998  29.505  1.00  0.00     0.049 A 
ATOM     60  C   UNL A   1      46.607  28.461  29.386  1.00  0.00     0.074 A 
ATOM     61  C   UNL A   1      40.935  31.301  29.888  1.00  0.00     0.029 A 
ATOM     62  N   UNL A   1      42.577  29.838  29.546  1.00  0.00    -0.354 N 
ATOM     63  N   UNL A   1      45.392  28.949  29.473  1.00  0.00    -0.248 NA
ATOM     64  C   UNL A   1      47.668  29.422  29.721  1.00  0.00     0.031 C 
ATOM     65  C   UNL A   1      42.156  31.932  30.149  1.00  0.00     0.029 A 
ATOM     66  C   UNL A   1      43.176  31.014  29.957  1.00  0.00     0.049 A 
ATOM     67  H   UNL A   1      43.058  29.009  29.316  1.00  0.00     0.167 HD
ATOM     68  C   UNL A   1      45.542  30.261  29.901  1.00  0.00     0.074 A 
ATOM     69  C   UNL A   1      46.963  30.489  30.068  1.00  0.00     0.031 C 
ATOM     70  C   UNL A   1      44.591  31.198  30.135  1.00  0.00     0.031 A 
BRANCH  57  71
ATOM     71  C   UNL A   1      38.806  29.258  29.145  1.00  0.00    -0.014 A 
ATOM     72  C   UNL A   1      38.045  29.108  30.317  1.00  0.00     0.009 A 
ATOM     73  C   UNL A   1      38.170  29.680  27.967  1.00  0.00     0.009 A 
ATOM     74  C   UNL A   1      36.668  29.333  30.298  1.00  0.00     0.001 A 
ATOM     75  C   UNL A   1      36.797  29.931  27.957  1.00  0.00     0.001 A 
ATOM     76  C   UNL A   1      36.046  29.747  29.119  1.00  0.00     0.000 A 
ENDBRANCH  57  71
BRANCH  58  77
ATOM     77  C   UNL A   1      48.491  26.731  28.949  1.00  0.00    -0.014 A 
ATOM     78  C   UNL A   1      49.132  26.196  30.079  1.00  0.00     0.009 A 
ATOM     79  C   UNL A   1      49.244  26.966  27.788  1.00  0.00     0.009 A 
ATOM     80  C   UNL A   1      50.505  25.935  30.062  1.00  0.00     0.001 A 
ATOM     81  C   UNL A   1      50.613  26.682  27.765  1.00  0.00     0.001 A 
ATOM     82  C   UNL A   1      51.243  26.178  28.904  1.00  0.00     0.000 A 
ENDBRANCH  58  77
BRANCH  70  83
ATOM     83  C   UNL A   1      45.057  32.530  30.644  1.00  0.00    -0.014 A 
ATOM     84  C   UNL A   1      45.411  33.560  29.760  1.00  0.00     0.009 A 
ATOM     85  C   UNL A   1      45.089  32.766  32.028  1.00  0.00     0.009 A 
ATOM     86  C   UNL A   1      45.817  34.800  30.257  1.00  0.00     0.001 A 
ATOM     87  C   UNL A   1      45.473  34.013  32.521  1.00  0.00     0.001 A 
ATOM     88  C   UNL A   1      45.843  35.026  31.635  1.00  0.00     0.000 A 
ENDBRANCH  70  83
ENDBRANCH  44  45
ENDBRANCH  36  39
ENDBRANCH  34  35
ENDBRANCH  33  34
ENDBRANCH  32  33
ENDBRANCH   1  32
TORSDOF 17
ENDMDL
