MODEL 1
REMARK VINA RESULT:     -10.6      0.000      0.000
REMARK SMILES CC(C)(C)OC(=O)[C@]1(C(=O)NCCCCNC(=O)c2ccc(-c3c4nc(c(-c5ccccc5)c5ccc([nH]5)c(-c5ccccc5)c5nc(c(-c6ccccc6)c6ccc3[nH]6)C=C5)C=C4)cc2)CC=CC[C@@H]1[NH3+]
REMARK SMILES IDX 13 1 12 2 11 3 9 4 10 5 8 7 67 8 71 9 68 10 70 11 69 12 6 13
REMARK SMILES IDX 7 14 5 15 2 16 1 17 3 18 4 19 72 20 14 24 15 25 16 26 17 27
REMARK SMILES IDX 18 29 19 30 20 31 66 32 21 33 65 34 22 35 23 36 24 37 59 38
REMARK SMILES IDX 25 39 64 40 58 41 60 42 26 43 63 44 57 45 56 46 27 48 49 49
REMARK SMILES IDX 34 50 48 51 35 52 38 53 47 54 61 55 36 56 37 57 46 59 62 60
REMARK SMILES IDX 39 61 28 62 29 63 33 64 30 65 32 66 31 67 50 68 51 69 55 70
REMARK SMILES IDX 52 71 54 72 53 73 40 74 41 75 45 76 42 77 44 78 43 79
REMARK H PARENT 11 6 72 21 72 22 72 23 16 28 60 47 38 58
REMARK Flexibility Score: inf
ROOT
ATOM      1  C   UNL A   1      37.023  21.032  24.447  1.00  0.00     0.023 C 
ENDROOT
BRANCH   1   2
ATOM      2  C   UNL A   1      36.627  22.054  25.514  1.00  0.00     0.116 C 
BRANCH   2   3
ATOM      3  N   UNL A   1      35.656  21.486  26.434  1.00  0.00    -0.355 N 
ATOM      4  C   UNL A   1      34.309  21.653  26.569  1.00  0.00     0.244 C 
ATOM      5  O   UNL A   1      33.834  21.154  27.597  1.00  0.00    -0.274 OA
ATOM      6  H   UNL A   1      36.046  20.858  27.084  1.00  0.00     0.163 HD
BRANCH   4   7
ATOM      7  C   UNL A   1      33.401  22.272  25.486  1.00  0.00     0.201 C 
ATOM      8  C   UNL A   1      32.104  22.753  26.218  1.00  0.00     0.062 C 
ATOM      9  C   UNL A   1      34.200  23.457  24.795  1.00  0.00     0.212 C 
ATOM     10  C   UNL A   1      31.884  24.233  26.350  1.00  0.00    -0.029 C 
ATOM     11  C   UNL A   1      34.169  24.790  25.568  1.00  0.00     0.093 C 
ATOM     12  C   UNL A   1      32.809  25.154  26.062  1.00  0.00    -0.025 C 
BRANCH   7  13
ATOM     13  C   UNL A   1      33.034  21.266  24.388  1.00  0.00     0.328 C 
ATOM     14  O   UNL A   1      32.129  21.411  23.570  1.00  0.00    -0.251 OA
BRANCH  13  15
ATOM     15  O   UNL A   1      33.873  20.194  24.391  1.00  0.00    -0.459 OA
BRANCH  15  16
ATOM     16  C   UNL A   1      33.391  18.820  24.404  1.00  0.00     0.104 C 
ATOM     17  C   UNL A   1      34.689  18.001  24.380  1.00  0.00     0.056 C 
ATOM     18  C   UNL A   1      32.561  18.474  23.160  1.00  0.00     0.056 C 
ATOM     19  C   UNL A   1      32.605  18.473  25.672  1.00  0.00     0.056 C 
ENDBRANCH  15  16
ENDBRANCH  13  15
ENDBRANCH   7  13
BRANCH   9  20
ATOM     20  N   UNL A   1      33.790  23.804  23.410  1.00  0.00    -0.353 N 
ATOM     21  H   UNL A   1      32.810  23.559  23.273  1.00  0.00     0.344 HD
ATOM     22  H   UNL A   1      34.366  23.287  22.745  1.00  0.00     0.344 HD
ATOM     23  H   UNL A   1      33.915  24.805  23.259  1.00  0.00     0.344 HD
ENDBRANCH   9  20
ENDBRANCH   4   7
ENDBRANCH   2   3
ENDBRANCH   1   2
BRANCH   1  24
ATOM     24  C   UNL A   1      37.889  19.871  24.928  1.00  0.00     0.023 C 
BRANCH  24  25
ATOM     25  C   UNL A   1      39.025  20.264  25.858  1.00  0.00     0.116 C 
BRANCH  25  26
ATOM     26  N   UNL A   1      40.149  19.341  25.805  1.00  0.00    -0.352 N 
ATOM     27  C   UNL A   1      41.479  19.565  26.071  1.00  0.00     0.251 C 
ATOM     28  H   UNL A   1      39.923  18.420  25.540  1.00  0.00     0.163 HD
ATOM     29  O   UNL A   1      42.306  18.685  25.844  1.00  0.00    -0.269 OA
BRANCH  27  30
ATOM     30  C   UNL A   1      41.926  20.874  26.596  1.00  0.00     0.039 A 
ATOM     31  C   UNL A   1      42.328  21.863  25.695  1.00  0.00     0.014 A 
ATOM     32  C   UNL A   1      41.939  21.138  27.968  1.00  0.00     0.014 A 
ATOM     33  C   UNL A   1      42.668  23.135  26.163  1.00  0.00     0.010 A 
ATOM     34  C   UNL A   1      42.183  22.429  28.425  1.00  0.00     0.010 A 
ATOM     35  C   UNL A   1      42.556  23.442  27.529  1.00  0.00    -0.014 A 
BRANCH  35  36
ATOM     36  C   UNL A   1      42.826  24.813  28.038  1.00  0.00     0.031 A 
ATOM     37  C   UNL A   1      44.223  25.216  28.428  1.00  0.00     0.074 A 
ATOM     38  C   UNL A   1      41.805  25.677  28.208  1.00  0.00     0.049 A 
ATOM     39  N   UNL A   1      44.644  26.348  28.935  1.00  0.00    -0.248 NA
ATOM     40  C   UNL A   1      45.281  24.208  28.252  1.00  0.00     0.031 C 
ATOM     41  C   UNL A   1      40.398  25.399  27.910  1.00  0.00     0.029 A 
ATOM     42  N   UNL A   1      41.794  26.967  28.677  1.00  0.00    -0.354 N 
ATOM     43  C   UNL A   1      46.006  26.181  29.149  1.00  0.00     0.074 A 
ATOM     44  C   UNL A   1      46.331  24.823  28.775  1.00  0.00     0.031 C 
ATOM     45  C   UNL A   1      39.668  26.497  28.168  1.00  0.00     0.029 A 
ATOM     46  C   UNL A   1      40.545  27.538  28.694  1.00  0.00     0.049 A 
ATOM     47  H   UNL A   1      42.607  27.439  28.971  1.00  0.00     0.167 HD
ATOM     48  C   UNL A   1      46.913  27.083  29.596  1.00  0.00     0.031 A 
ATOM     49  C   UNL A   1      40.146  28.760  29.094  1.00  0.00     0.031 A 
ATOM     50  C   UNL A   1      46.594  28.436  29.965  1.00  0.00     0.049 A 
ATOM     51  C   UNL A   1      41.169  29.735  29.610  1.00  0.00     0.074 A 
ATOM     52  C   UNL A   1      47.451  29.441  30.380  1.00  0.00     0.029 A 
ATOM     53  N   UNL A   1      45.316  28.973  29.969  1.00  0.00    -0.354 N 
ATOM     54  N   UNL A   1      42.464  29.584  29.737  1.00  0.00    -0.248 NA
ATOM     55  C   UNL A   1      40.673  31.055  30.022  1.00  0.00     0.031 C 
ATOM     56  C   UNL A   1      46.684  30.567  30.693  1.00  0.00     0.029 A 
ATOM     57  C   UNL A   1      45.358  30.287  30.406  1.00  0.00     0.049 A 
ATOM     58  H   UNL A   1      44.500  28.492  29.701  1.00  0.00     0.167 HD
ATOM     59  C   UNL A   1      42.942  30.799  30.214  1.00  0.00     0.074 A 
ATOM     60  C   UNL A   1      41.799  31.679  30.334  1.00  0.00     0.031 C 
ATOM     61  C   UNL A   1      44.214  31.153  30.522  1.00  0.00     0.031 A 
BRANCH  48  62
ATOM     62  C   UNL A   1      48.342  26.626  29.720  1.00  0.00    -0.014 A 
ATOM     63  C   UNL A   1      48.806  25.989  30.883  1.00  0.00     0.009 A 
ATOM     64  C   UNL A   1      49.228  26.804  28.647  1.00  0.00     0.009 A 
ATOM     65  C   UNL A   1      50.137  25.577  30.983  1.00  0.00     0.001 A 
ATOM     66  C   UNL A   1      50.549  26.361  28.737  1.00  0.00     0.001 A 
ATOM     67  C   UNL A   1      51.005  25.758  29.907  1.00  0.00     0.000 A 
ENDBRANCH  48  62
BRANCH  49  68
ATOM     68  C   UNL A   1      38.711  29.142  29.012  1.00  0.00    -0.014 A 
ATOM     69  C   UNL A   1      38.169  29.629  27.812  1.00  0.00     0.009 A 
ATOM     70  C   UNL A   1      37.877  29.039  30.137  1.00  0.00     0.009 A 
ATOM     71  C   UNL A   1      36.833  30.034  27.750  1.00  0.00     0.001 A 
ATOM     72  C   UNL A   1      36.534  29.413  30.063  1.00  0.00     0.001 A 
ATOM     73  C   UNL A   1      36.016  29.920  28.872  1.00  0.00     0.000 A 
ENDBRANCH  49  68
BRANCH  61  74
ATOM     74  C   UNL A   1      44.442  32.569  30.977  1.00  0.00    -0.014 A 
ATOM     75  C   UNL A   1      44.696  33.604  30.063  1.00  0.00     0.009 A 
ATOM     76  C   UNL A   1      44.368  32.875  32.346  1.00  0.00     0.009 A 
ATOM     77  C   UNL A   1      44.912  34.907  30.515  1.00  0.00     0.001 A 
ATOM     78  C   UNL A   1      44.550  34.185  32.791  1.00  0.00     0.001 A 
ATOM     79  C   UNL A   1      44.834  35.198  31.877  1.00  0.00     0.000 A 
ENDBRANCH  61  74
ENDBRANCH  35  36
ENDBRANCH  27  30
ENDBRANCH  25  26
ENDBRANCH  24  25
ENDBRANCH   1  24
TORSDOF 15
ENDMDL
MODEL 2
REMARK VINA RESULT:     -10.5      1.039      6.143
REMARK SMILES CC(C)(C)OC(=O)[C@]1(C(=O)NCCCCNC(=O)c2ccc(-c3c4nc(c(-c5ccccc5)c5ccc([nH]5)c(-c5ccccc5)c5nc(c(-c6ccccc6)c6ccc3[nH]6)C=C5)C=C4)cc2)CC=CC[C@@H]1[NH3+]
REMARK SMILES IDX 13 1 12 2 11 3 9 4 10 5 8 7 67 8 71 9 68 10 70 11 69 12 6 13
REMARK SMILES IDX 7 14 5 15 2 16 1 17 3 18 4 19 72 20 14 24 15 25 16 26 17 27
REMARK SMILES IDX 18 29 19 30 20 31 66 32 21 33 65 34 22 35 23 36 24 37 59 38
REMARK SMILES IDX 25 39 64 40 58 41 60 42 26 43 63 44 57 45 56 46 27 48 49 49
REMARK SMILES IDX 34 50 48 51 35 52 38 53 47 54 61 55 36 56 37 57 46 59 62 60
REMARK SMILES IDX 39 61 28 62 29 63 33 64 30 65 32 66 31 67 50 68 51 69 55 70
REMARK SMILES IDX 52 71 54 72 53 73 40 74 41 75 45 76 42 77 44 78 43 79
REMARK H PARENT 11 6 72 21 72 22 72 23 16 28 60 47 38 58
REMARK Flexibility Score: inf
ROOT
ATOM      1  C   UNL A   1      37.025  21.089  24.492  1.00  0.00     0.023 C 
ENDROOT
BRANCH   1   2
ATOM      2  C   UNL A   1      36.560  22.075  25.565  1.00  0.00     0.116 C 
BRANCH   2   3
ATOM      3  N   UNL A   1      35.600  21.449  26.458  1.00  0.00    -0.355 N 
ATOM      4  C   UNL A   1      34.248  21.571  26.587  1.00  0.00     0.244 C 
ATOM      5  O   UNL A   1      33.780  21.026  27.594  1.00  0.00    -0.274 OA
ATOM      6  H   UNL A   1      36.003  20.812  27.092  1.00  0.00     0.163 HD
BRANCH   4   7
ATOM      7  C   UNL A   1      33.330  22.198  25.516  1.00  0.00     0.201 C 
ATOM      8  C   UNL A   1      32.012  22.611  26.251  1.00  0.00     0.062 C 
ATOM      9  C   UNL A   1      34.096  23.432  24.875  1.00  0.00     0.212 C 
ATOM     10  C   UNL A   1      31.742  24.078  26.432  1.00  0.00    -0.029 C 
ATOM     11  C   UNL A   1      34.014  24.736  25.694  1.00  0.00     0.093 C 
ATOM     12  C   UNL A   1      32.638  25.037  26.185  1.00  0.00    -0.025 C 
BRANCH   7  13
ATOM     13  C   UNL A   1      33.007  21.220  24.380  1.00  0.00     0.328 C 
ATOM     14  O   UNL A   1      32.109  21.367  23.555  1.00  0.00    -0.251 OA
BRANCH  13  15
ATOM     15  O   UNL A   1      33.876  20.173  24.359  1.00  0.00    -0.459 OA
BRANCH  15  16
ATOM     16  C   UNL A   1      33.434  18.785  24.372  1.00  0.00     0.104 C 
ATOM     17  C   UNL A   1      34.755  18.005  24.430  1.00  0.00     0.056 C 
ATOM     18  C   UNL A   1      32.681  18.394  23.093  1.00  0.00     0.056 C 
ATOM     19  C   UNL A   1      32.593  18.436  25.603  1.00  0.00     0.056 C 
ENDBRANCH  15  16
ENDBRANCH  13  15
ENDBRANCH   7  13
BRANCH   9  20
ATOM     20  N   UNL A   1      33.689  23.814  23.498  1.00  0.00    -0.353 N 
ATOM     21  H   UNL A   1      33.002  23.145  23.149  1.00  0.00     0.344 HD
ATOM     22  H   UNL A   1      34.506  23.811  22.888  1.00  0.00     0.344 HD
ATOM     23  H   UNL A   1      33.278  24.747  23.512  1.00  0.00     0.344 HD
ENDBRANCH   9  20
ENDBRANCH   4   7
ENDBRANCH   2   3
ENDBRANCH   1   2
BRANCH   1  24
ATOM     24  C   UNL A   1      37.870  19.919  24.986  1.00  0.00     0.023 C 
BRANCH  24  25
ATOM     25  C   UNL A   1      39.106  20.313  25.779  1.00  0.00     0.116 C 
BRANCH  25  26
ATOM     26  N   UNL A   1      40.106  19.256  25.836  1.00  0.00    -0.352 N 
ATOM     27  C   UNL A   1      41.450  19.337  26.113  1.00  0.00     0.251 C 
ATOM     28  H   UNL A   1      39.769  18.350  25.650  1.00  0.00     0.163 HD
ATOM     29  O   UNL A   1      42.162  18.345  25.987  1.00  0.00    -0.269 OA
BRANCH  27  30
ATOM     30  C   UNL A   1      42.051  20.625  26.528  1.00  0.00     0.039 A 
ATOM     31  C   UNL A   1      42.567  21.477  25.549  1.00  0.00     0.014 A 
ATOM     32  C   UNL A   1      42.097  21.002  27.872  1.00  0.00     0.014 A 
ATOM     33  C   UNL A   1      43.057  22.735  25.910  1.00  0.00     0.010 A 
ATOM     34  C   UNL A   1      42.495  22.290  28.219  1.00  0.00     0.010 A 
ATOM     35  C   UNL A   1      42.986  23.170  27.243  1.00  0.00    -0.014 A 
BRANCH  35  36
ATOM     36  C   UNL A   1      43.418  24.537  27.635  1.00  0.00     0.031 A 
ATOM     37  C   UNL A   1      42.394  25.591  27.966  1.00  0.00     0.074 A 
ATOM     38  C   UNL A   1      44.729  24.851  27.635  1.00  0.00     0.049 A 
ATOM     39  N   UNL A   1      42.577  26.849  28.282  1.00  0.00    -0.248 NA
ATOM     40  C   UNL A   1      40.980  25.187  27.908  1.00  0.00     0.031 C 
ATOM     41  C   UNL A   1      45.821  23.937  27.294  1.00  0.00     0.029 A 
ATOM     42  N   UNL A   1      45.366  26.031  27.931  1.00  0.00    -0.354 N 
ATOM     43  C   UNL A   1      41.306  27.384  28.445  1.00  0.00     0.074 A 
ATOM     44  C   UNL A   1      40.360  26.334  28.136  1.00  0.00     0.031 C 
ATOM     45  C   UNL A   1      46.993  24.580  27.434  1.00  0.00     0.029 A 
ATOM     46  C   UNL A   1      46.734  25.961  27.828  1.00  0.00     0.049 A 
ATOM     47  H   UNL A   1      44.886  26.850  28.193  1.00  0.00     0.167 HD
ATOM     48  C   UNL A   1      40.953  28.632  28.839  1.00  0.00     0.031 A 
ATOM     49  C   UNL A   1      47.676  26.902  28.024  1.00  0.00     0.031 A 
ATOM     50  C   UNL A   1      41.891  29.676  29.152  1.00  0.00     0.049 A 
ATOM     51  C   UNL A   1      47.258  28.286  28.436  1.00  0.00     0.074 A 
ATOM     52  C   UNL A   1      41.633  30.957  29.610  1.00  0.00     0.029 A 
ATOM     53  N   UNL A   1      43.268  29.563  29.034  1.00  0.00    -0.354 N 
ATOM     54  N   UNL A   1      46.054  28.755  28.656  1.00  0.00    -0.248 NA
ATOM     55  C   UNL A   1      48.333  29.266  28.643  1.00  0.00     0.031 C 
ATOM     56  C   UNL A   1      42.850  31.638  29.711  1.00  0.00     0.029 A 
ATOM     57  C   UNL A   1      43.871  30.760  29.384  1.00  0.00     0.049 A 
ATOM     58  H   UNL A   1      43.745  28.753  28.745  1.00  0.00     0.167 HD
ATOM     59  C   UNL A   1      46.229  30.074  29.057  1.00  0.00     0.074 A 
ATOM     60  C   UNL A   1      47.655  30.322  29.067  1.00  0.00     0.031 C 
ATOM     61  C   UNL A   1      45.291  30.996  29.389  1.00  0.00     0.031 A 
BRANCH  48  62
ATOM     62  C   UNL A   1      39.482  28.936  28.943  1.00  0.00    -0.014 A 
ATOM     63  C   UNL A   1      38.759  29.427  27.843  1.00  0.00     0.009 A 
ATOM     64  C   UNL A   1      38.803  28.697  30.147  1.00  0.00     0.009 A 
ATOM     65  C   UNL A   1      37.396  29.709  27.960  1.00  0.00     0.001 A 
ATOM     66  C   UNL A   1      37.434  28.948  30.252  1.00  0.00     0.001 A 
ATOM     67  C   UNL A   1      36.734  29.464  29.162  1.00  0.00     0.000 A 
ENDBRANCH  48  62
BRANCH  49  68
ATOM     68  C   UNL A   1      49.115  26.568  27.845  1.00  0.00    -0.014 A 
ATOM     69  C   UNL A   1      49.890  26.142  28.936  1.00  0.00     0.009 A 
ATOM     70  C   UNL A   1      49.727  26.690  26.587  1.00  0.00     0.009 A 
ATOM     71  C   UNL A   1      51.252  25.876  28.776  1.00  0.00     0.001 A 
ATOM     72  C   UNL A   1      51.082  26.392  26.425  1.00  0.00     0.001 A 
ATOM     73  C   UNL A   1      51.845  25.996  27.521  1.00  0.00     0.000 A 
ENDBRANCH  49  68
BRANCH  61  74
ATOM     74  C   UNL A   1      45.782  32.346  29.835  1.00  0.00    -0.014 A 
ATOM     75  C   UNL A   1      46.023  32.632  31.188  1.00  0.00     0.009 A 
ATOM     76  C   UNL A   1      46.037  33.339  28.875  1.00  0.00     0.009 A 
ATOM     77  C   UNL A   1      46.471  33.897  31.573  1.00  0.00     0.001 A 
ATOM     78  C   UNL A   1      46.519  34.591  29.260  1.00  0.00     0.001 A 
ATOM     79  C   UNL A   1      46.724  34.873  30.610  1.00  0.00     0.000 A 
ENDBRANCH  61  74
ENDBRANCH  35  36
ENDBRANCH  27  30
ENDBRANCH  25  26
ENDBRANCH  24  25
ENDBRANCH   1  24
TORSDOF 15
ENDMDL
MODEL 3
REMARK VINA RESULT:     -10.4      4.891      9.842
REMARK SMILES CC(C)(C)OC(=O)[C@]1(C(=O)NCCCCNC(=O)c2ccc(-c3c4nc(c(-c5ccccc5)c5ccc([nH]5)c(-c5ccccc5)c5nc(c(-c6ccccc6)c6ccc3[nH]6)C=C5)C=C4)cc2)CC=CC[C@@H]1[NH3+]
REMARK SMILES IDX 13 1 12 2 11 3 9 4 10 5 8 7 67 8 71 9 68 10 70 11 69 12 6 13
REMARK SMILES IDX 7 14 5 15 2 16 1 17 3 18 4 19 72 20 14 24 15 25 16 26 17 27
REMARK SMILES IDX 18 29 19 30 20 31 66 32 21 33 65 34 22 35 23 36 24 37 59 38
REMARK SMILES IDX 25 39 64 40 58 41 60 42 26 43 63 44 57 45 56 46 27 48 49 49
REMARK SMILES IDX 34 50 48 51 35 52 38 53 47 54 61 55 36 56 37 57 46 59 62 60
REMARK SMILES IDX 39 61 28 62 29 63 33 64 30 65 32 66 31 67 50 68 51 69 55 70
REMARK SMILES IDX 52 71 54 72 53 73 40 74 41 75 45 76 42 77 44 78 43 79
REMARK H PARENT 11 6 72 21 72 22 72 23 16 28 60 47 38 58
REMARK Flexibility Score: inf
ROOT
ATOM      1  C   UNL A   1      31.386  30.672  26.581  1.00  0.00     0.023 C 
ENDROOT
BRANCH   1   2
ATOM      2  C   UNL A   1      32.702  29.963  26.261  1.00  0.00     0.116 C 
BRANCH   2   3
ATOM      3  N   UNL A   1      32.943  29.950  24.828  1.00  0.00    -0.355 N 
ATOM      4  C   UNL A   1      32.876  28.960  23.893  1.00  0.00     0.244 C 
ATOM      5  O   UNL A   1      33.341  29.267  22.788  1.00  0.00    -0.274 OA
ATOM      6  H   UNL A   1      33.205  30.825  24.461  1.00  0.00     0.163 HD
BRANCH   4   7
ATOM      7  C   UNL A   1      32.155  27.613  24.109  1.00  0.00     0.201 C 
ATOM      8  C   UNL A   1      32.745  26.620  23.053  1.00  0.00     0.062 C 
ATOM      9  C   UNL A   1      32.414  27.153  25.607  1.00  0.00     0.212 C 
ATOM     10  C   UNL A   1      33.622  25.508  23.553  1.00  0.00    -0.029 C 
ATOM     11  C   UNL A   1      33.768  26.453  25.839  1.00  0.00     0.093 C 
ATOM     12  C   UNL A   1      34.087  25.429  24.803  1.00  0.00    -0.025 C 
BRANCH   7  13
ATOM     13  C   UNL A   1      30.637  27.727  23.923  1.00  0.00     0.328 C 
ATOM     14  O   UNL A   1      29.878  26.786  23.704  1.00  0.00    -0.251 OA
BRANCH  13  15
ATOM     15  O   UNL A   1      30.209  29.010  24.079  1.00  0.00    -0.459 OA
BRANCH  15  16
ATOM     16  C   UNL A   1      29.353  29.676  23.107  1.00  0.00     0.104 C 
ATOM     17  C   UNL A   1      29.174  31.076  23.711  1.00  0.00     0.056 C 
ATOM     18  C   UNL A   1      27.976  29.010  22.979  1.00  0.00     0.056 C 
ATOM     19  C   UNL A   1      30.003  29.807  21.727  1.00  0.00     0.056 C 
ENDBRANCH  15  16
ENDBRANCH  13  15
ENDBRANCH   7  13
BRANCH   9  20
ATOM     20  N   UNL A   1      31.401  26.241  26.198  1.00  0.00    -0.353 N 
ATOM     21  H   UNL A   1      31.873  25.495  26.709  1.00  0.00     0.344 HD
ATOM     22  H   UNL A   1      30.832  25.837  25.454  1.00  0.00     0.344 HD
ATOM     23  H   UNL A   1      30.804  26.765  26.837  1.00  0.00     0.344 HD
ENDBRANCH   9  20
ENDBRANCH   4   7
ENDBRANCH   2   3
ENDBRANCH   1   2
BRANCH   1  24
ATOM     24  C   UNL A   1      31.420  32.196  26.521  1.00  0.00     0.023 C 
BRANCH  24  25
ATOM     25  C   UNL A   1      32.631  32.834  27.181  1.00  0.00     0.116 C 
BRANCH  25  26
ATOM     26  N   UNL A   1      32.375  34.188  27.651  1.00  0.00    -0.352 N 
ATOM     27  C   UNL A   1      33.029  34.918  28.616  1.00  0.00     0.251 C 
ATOM     28  H   UNL A   1      31.625  34.650  27.211  1.00  0.00     0.163 HD
ATOM     29  O   UNL A   1      32.582  36.006  28.968  1.00  0.00    -0.269 OA
BRANCH  27  30
ATOM     30  C   UNL A   1      34.248  34.381  29.261  1.00  0.00     0.039 A 
ATOM     31  C   UNL A   1      34.121  33.650  30.445  1.00  0.00     0.014 A 
ATOM     32  C   UNL A   1      35.512  34.581  28.700  1.00  0.00     0.014 A 
ATOM     33  C   UNL A   1      35.248  33.060  31.022  1.00  0.00     0.010 A 
ATOM     34  C   UNL A   1      36.616  33.913  29.219  1.00  0.00     0.010 A 
ATOM     35  C   UNL A   1      36.500  33.149  30.391  1.00  0.00    -0.014 A 
BRANCH  35  36
ATOM     36  C   UNL A   1      37.694  32.453  30.938  1.00  0.00     0.031 A 
ATOM     37  C   UNL A   1      38.379  32.979  32.171  1.00  0.00     0.074 A 
ATOM     38  C   UNL A   1      38.201  31.385  30.291  1.00  0.00     0.049 A 
ATOM     39  N   UNL A   1      39.457  32.536  32.769  1.00  0.00    -0.248 NA
ATOM     40  C   UNL A   1      37.791  34.172  32.803  1.00  0.00     0.031 C 
ATOM     41  C   UNL A   1      37.660  30.799  29.063  1.00  0.00     0.029 A 
ATOM     42  N   UNL A   1      39.290  30.600  30.579  1.00  0.00    -0.354 N 
ATOM     43  C   UNL A   1      39.683  33.402  33.830  1.00  0.00     0.074 A 
ATOM     44  C   UNL A   1      38.667  34.429  33.762  1.00  0.00     0.031 C 
ATOM     45  C   UNL A   1      38.397  29.729  28.723  1.00  0.00     0.029 A 
ATOM     46  C   UNL A   1      39.488  29.580  29.681  1.00  0.00     0.049 A 
ATOM     47  H   UNL A   1      39.873  30.753  31.358  1.00  0.00     0.167 HD
ATOM     48  C   UNL A   1      40.636  33.339  34.792  1.00  0.00     0.031 A 
ATOM     49  C   UNL A   1      40.444  28.633  29.628  1.00  0.00     0.031 A 
ATOM     50  C   UNL A   1      41.644  32.317  34.864  1.00  0.00     0.049 A 
ATOM     51  C   UNL A   1      41.505  28.599  30.692  1.00  0.00     0.074 A 
ATOM     52  C   UNL A   1      42.621  32.137  35.829  1.00  0.00     0.029 A 
ATOM     53  N   UNL A   1      41.810  31.303  33.934  1.00  0.00    -0.354 N 
ATOM     54  N   UNL A   1      41.660  29.384  31.730  1.00  0.00    -0.248 NA
ATOM     55  C   UNL A   1      42.515  27.537  30.584  1.00  0.00     0.031 C 
ATOM     56  C   UNL A   1      43.415  31.051  35.449  1.00  0.00     0.029 A 
ATOM     57  C   UNL A   1      42.890  30.511  34.286  1.00  0.00     0.049 A 
ATOM     58  H   UNL A   1      41.243  31.167  33.140  1.00  0.00     0.167 HD
ATOM     59  C   UNL A   1      42.764  28.891  32.416  1.00  0.00     0.074 A 
ATOM     60  C   UNL A   1      43.226  27.731  31.685  1.00  0.00     0.031 C 
ATOM     61  C   UNL A   1      43.341  29.359  33.550  1.00  0.00     0.031 A 
BRANCH  48  62
ATOM     62  C   UNL A   1      40.635  34.420  35.840  1.00  0.00    -0.014 A 
ATOM     63  C   UNL A   1      41.404  35.585  35.686  1.00  0.00     0.009 A 
ATOM     64  C   UNL A   1      39.829  34.286  36.980  1.00  0.00     0.009 A 
ATOM     65  C   UNL A   1      41.396  36.575  36.672  1.00  0.00     0.001 A 
ATOM     66  C   UNL A   1      39.797  35.292  37.948  1.00  0.00     0.001 A 
ATOM     67  C   UNL A   1      40.587  36.430  37.799  1.00  0.00     0.000 A 
ENDBRANCH  48  62
BRANCH  49  68
ATOM     68  C   UNL A   1      40.438  27.625  28.533  1.00  0.00    -0.014 A 
ATOM     69  C   UNL A   1      41.115  27.876  27.328  1.00  0.00     0.009 A 
ATOM     70  C   UNL A   1      39.743  26.414  28.678  1.00  0.00     0.009 A 
ATOM     71  C   UNL A   1      41.069  26.950  26.283  1.00  0.00     0.001 A 
ATOM     72  C   UNL A   1      39.727  25.476  27.644  1.00  0.00     0.001 A 
ATOM     73  C   UNL A   1      40.380  25.750  26.443  1.00  0.00     0.000 A 
ENDBRANCH  49  68
BRANCH  61  74
ATOM     74  C   UNL A   1      44.511  28.586  34.096  1.00  0.00    -0.014 A 
ATOM     75  C   UNL A   1      44.334  27.511  34.982  1.00  0.00     0.009 A 
ATOM     76  C   UNL A   1      45.812  28.921  33.687  1.00  0.00     0.009 A 
ATOM     77  C   UNL A   1      45.439  26.817  35.478  1.00  0.00     0.001 A 
ATOM     78  C   UNL A   1      46.912  28.202  34.157  1.00  0.00     0.001 A 
ATOM     79  C   UNL A   1      46.726  27.158  35.061  1.00  0.00     0.000 A 
ENDBRANCH  61  74
ENDBRANCH  35  36
ENDBRANCH  27  30
ENDBRANCH  25  26
ENDBRANCH  24  25
ENDBRANCH   1  24
TORSDOF 15
ENDMDL
