MODEL 1
REMARK VINA RESULT:     -13.0      0.000      0.000
REMARK SMILES O=C(NCCCCNC(=O)c1[nH]ncc1C[N@H+]1CCC[C@H](C(=O)c2ccc3ccccc3c2)C1)c1ccc(-c2c3nc(c(-c4ccccc4)c4ccc([nH]4)c(-c4ccccc4)c4nc(c(-c5ccccc5)c5ccc2[nH]5)C=C4)C=C3)cc1
REMARK SMILES IDX 6 1 5 2 4 3 3 4 1 5 2 6 35 8 36 9 82 10 37 11 81 12 38 13
REMARK SMILES IDX 39 14 40 15 75 16 41 17 80 18 74 19 76 20 42 21 79 22 73 23
REMARK SMILES IDX 72 24 43 26 65 27 50 28 64 29 51 30 54 31 63 32 77 33 52 34
REMARK SMILES IDX 53 35 62 37 78 38 55 39 44 40 45 41 49 42 46 43 48 44 47 45
REMARK SMILES IDX 66 46 67 47 71 48 68 49 70 50 69 51 56 52 57 53 61 54 58 55
REMARK SMILES IDX 60 56 59 57 7 58 8 59 9 60 10 62 11 63 12 64 15 65 13 66
REMARK SMILES IDX 14 68 16 69 17 70 18 71 34 72 19 74 21 75 20 76 22 77 23 78
REMARK SMILES IDX 24 79 25 80 33 81 26 82 32 83 27 84 31 85 28 86 30 87 29 88
REMARK H PARENT 3 7 76 25 54 36 8 61 12 67 17 73
REMARK Flexibility Score: inf
ROOT
ATOM      1  C   UNL A   1      36.638  20.155  25.045  1.00  0.00     0.023 C 
ENDROOT
BRANCH   1   2
ATOM      2  C   UNL A   1      38.068  19.771  24.668  1.00  0.00     0.023 C 
BRANCH   2   3
ATOM      3  C   UNL A   1      39.125  20.044  25.732  1.00  0.00     0.116 C 
BRANCH   3   4
ATOM      4  N   UNL A   1      40.186  19.052  25.751  1.00  0.00    -0.352 N 
ATOM      5  O   UNL A   1      42.299  18.265  25.843  1.00  0.00    -0.269 OA
ATOM      6  C   UNL A   1      41.530  19.212  25.984  1.00  0.00     0.251 C 
ATOM      7  H   UNL A   1      39.900  18.127  25.569  1.00  0.00     0.163 HD
BRANCH   6   8
ATOM      8  C   UNL A   1      42.059  20.535  26.376  1.00  0.00     0.039 A 
ATOM      9  C   UNL A   1      42.231  20.867  27.721  1.00  0.00     0.014 A 
ATOM     10  C   UNL A   1      42.385  21.458  25.376  1.00  0.00     0.014 A 
ATOM     11  C   UNL A   1      42.590  22.165  28.070  1.00  0.00     0.010 A 
ATOM     12  C   UNL A   1      42.815  22.740  25.728  1.00  0.00     0.010 A 
ATOM     13  C   UNL A   1      42.885  23.115  27.078  1.00  0.00    -0.014 A 
BRANCH  13  14
ATOM     14  C   UNL A   1      43.299  24.481  27.481  1.00  0.00     0.031 A 
ATOM     15  C   UNL A   1      44.732  24.922  27.381  1.00  0.00     0.074 A 
ATOM     16  C   UNL A   1      42.356  25.346  27.899  1.00  0.00     0.049 A 
ATOM     17  N   UNL A   1      45.250  26.096  27.644  1.00  0.00    -0.248 NA
ATOM     18  C   UNL A   1      45.712  23.920  26.930  1.00  0.00     0.031 C 
ATOM     19  C   UNL A   1      40.931  25.036  28.042  1.00  0.00     0.029 A 
ATOM     20  N   UNL A   1      42.447  26.668  28.251  1.00  0.00    -0.354 N 
ATOM     21  C   UNL A   1      46.614  25.971  27.410  1.00  0.00     0.074 A 
ATOM     22  C   UNL A   1      46.847  24.602  26.998  1.00  0.00     0.031 C 
ATOM     23  C   UNL A   1      40.274  26.150  28.398  1.00  0.00     0.029 A 
ATOM     24  C   UNL A   1      41.235  27.237  28.554  1.00  0.00     0.049 A 
ATOM     25  H   UNL A   1      43.299  27.160  28.283  1.00  0.00     0.167 HD
ATOM     26  C   UNL A   1      47.582  26.911  27.522  1.00  0.00     0.031 A 
ATOM     27  C   UNL A   1      40.928  28.493  28.920  1.00  0.00     0.031 A 
ATOM     28  C   UNL A   1      47.355  28.274  27.923  1.00  0.00     0.049 A 
ATOM     29  C   UNL A   1      42.020  29.511  29.046  1.00  0.00     0.074 A 
ATOM     30  C   UNL A   1      48.274  29.302  28.050  1.00  0.00     0.029 A 
ATOM     31  N   UNL A   1      46.117  28.800  28.259  1.00  0.00    -0.354 N 
ATOM     32  N   UNL A   1      43.302  29.376  28.809  1.00  0.00    -0.248 NA
ATOM     33  C   UNL A   1      41.623  30.853  29.493  1.00  0.00     0.031 C 
ATOM     34  C   UNL A   1      47.596  30.444  28.493  1.00  0.00     0.029 A 
ATOM     35  C   UNL A   1      46.251  30.134  28.607  1.00  0.00     0.049 A 
ATOM     36  H   UNL A   1      45.270  28.300  28.252  1.00  0.00     0.167 HD
ATOM     37  C   UNL A   1      43.865  30.615  29.076  1.00  0.00     0.074 A 
ATOM     38  C   UNL A   1      42.783  31.495  29.470  1.00  0.00     0.031 C 
ATOM     39  C   UNL A   1      45.165  30.989  29.007  1.00  0.00     0.031 A 
BRANCH  26  40
ATOM     40  C   UNL A   1      48.992  26.490  27.223  1.00  0.00    -0.014 A 
ATOM     41  C   UNL A   1      49.826  25.985  28.233  1.00  0.00     0.009 A 
ATOM     42  C   UNL A   1      49.477  26.558  25.909  1.00  0.00     0.009 A 
ATOM     43  C   UNL A   1      51.126  25.575  27.934  1.00  0.00     0.001 A 
ATOM     44  C   UNL A   1      50.773  26.131  25.610  1.00  0.00     0.001 A 
ATOM     45  C   UNL A   1      51.597  25.645  26.623  1.00  0.00     0.000 A 
ENDBRANCH  26  40
BRANCH  27  46
ATOM     46  C   UNL A   1      39.514  28.852  29.192  1.00  0.00    -0.014 A 
ATOM     47  C   UNL A   1      38.945  28.595  30.447  1.00  0.00     0.009 A 
ATOM     48  C   UNL A   1      38.738  29.476  28.203  1.00  0.00     0.009 A 
ATOM     49  C   UNL A   1      37.617  28.946  30.703  1.00  0.00     0.001 A 
ATOM     50  C   UNL A   1      37.420  29.846  28.470  1.00  0.00     0.001 A 
ATOM     51  C   UNL A   1      36.859  29.576  29.716  1.00  0.00     0.000 A 
ENDBRANCH  27  46
BRANCH  39  52
ATOM     52  C   UNL A   1      45.477  32.412  29.361  1.00  0.00    -0.014 A 
ATOM     53  C   UNL A   1      45.888  32.756  30.658  1.00  0.00     0.009 A 
ATOM     54  C   UNL A   1      45.374  33.414  28.386  1.00  0.00     0.009 A 
ATOM     55  C   UNL A   1      46.161  34.086  30.979  1.00  0.00     0.001 A 
ATOM     56  C   UNL A   1      45.666  34.740  28.705  1.00  0.00     0.001 A 
ATOM     57  C   UNL A   1      46.051  35.077  30.003  1.00  0.00     0.000 A 
ENDBRANCH  39  52
ENDBRANCH  13  14
ENDBRANCH   6   8
ENDBRANCH   3   4
ENDBRANCH   2   3
ENDBRANCH   1   2
BRANCH   1  58
ATOM     58  C   UNL A   1      36.378  21.652  25.187  1.00  0.00     0.116 C 
BRANCH  58  59
ATOM     59  N   UNL A   1      35.590  21.975  26.365  1.00  0.00    -0.351 N 
ATOM     60  C   UNL A   1      34.284  21.659  26.640  1.00  0.00     0.269 C 
ATOM     61  H   UNL A   1      36.058  22.490  27.060  1.00  0.00     0.163 HD
ATOM     62  O   UNL A   1      33.736  22.201  27.595  1.00  0.00    -0.268 OA
BRANCH  60  63
ATOM     63  C   UNL A   1      33.596  20.757  25.764  1.00  0.00     0.131 A 
ATOM     64  N   UNL A   1      33.275  19.485  26.148  1.00  0.00    -0.272 N 
ATOM     65  C   UNL A   1      33.183  20.864  24.440  1.00  0.00     0.057 A 
ATOM     66  N   UNL A   1      32.521  18.826  25.254  1.00  0.00    -0.183 NA
ATOM     67  H   UNL A   1      33.568  19.089  27.001  1.00  0.00     0.190 HD
ATOM     68  C   UNL A   1      32.472  19.661  24.214  1.00  0.00     0.145 A 
BRANCH  65  69
ATOM     69  C   UNL A   1      33.420  21.998  23.495  1.00  0.00     0.303 C 
BRANCH  69  70
ATOM     70  N   UNL A   1      32.532  23.150  23.683  1.00  0.00    -0.330 N 
ATOM     71  C   UNL A   1      32.350  23.969  22.482  1.00  0.00     0.262 C 
ATOM     72  C   UNL A   1      31.264  22.823  24.332  1.00  0.00     0.274 C 
ATOM     73  H   UNL A   1      33.039  23.740  24.342  1.00  0.00     0.348 HD
ATOM     74  C   UNL A   1      31.684  25.296  22.828  1.00  0.00     0.062 C 
ATOM     75  C   UNL A   1      30.506  24.082  24.767  1.00  0.00     0.116 C 
ATOM     76  C   UNL A   1      30.410  25.129  23.654  1.00  0.00     0.023 C 
BRANCH  75  77
ATOM     77  C   UNL A   1      30.981  24.572  26.137  1.00  0.00     0.171 C 
ATOM     78  O   UNL A   1      30.686  23.971  27.171  1.00  0.00    -0.294 OA
BRANCH  77  79
ATOM     79  C   UNL A   1      31.915  25.711  26.257  1.00  0.00     0.019 A 
ATOM     80  C   UNL A   1      33.263  25.566  25.940  1.00  0.00     0.012 A 
ATOM     81  C   UNL A   1      31.402  26.962  26.616  1.00  0.00     0.020 A 
ATOM     82  C   UNL A   1      34.126  26.655  26.078  1.00  0.00     0.009 A 
ATOM     83  C   UNL A   1      32.257  28.072  26.733  1.00  0.00    -0.018 A 
ATOM     84  C   UNL A   1      33.640  27.909  26.483  1.00  0.00    -0.018 A 
ATOM     85  C   UNL A   1      31.770  29.340  27.092  1.00  0.00     0.009 A 
ATOM     86  C   UNL A   1      34.498  29.010  26.627  1.00  0.00     0.009 A 
ATOM     87  C   UNL A   1      32.636  30.427  27.218  1.00  0.00     0.001 A 
ATOM     88  C   UNL A   1      33.999  30.261  26.995  1.00  0.00     0.001 A 
ENDBRANCH  77  79
ENDBRANCH  75  77
ENDBRANCH  69  70
ENDBRANCH  65  69
ENDBRANCH  60  63
ENDBRANCH  58  59
ENDBRANCH   1  58
TORSDOF 15
ENDMDL
MODEL 2
REMARK VINA RESULT:     -12.9      1.659      2.172
REMARK SMILES O=C(NCCCCNC(=O)c1[nH]ncc1C[N@H+]1CCC[C@H](C(=O)c2ccc3ccccc3c2)C1)c1ccc(-c2c3nc(c(-c4ccccc4)c4ccc([nH]4)c(-c4ccccc4)c4nc(c(-c5ccccc5)c5ccc2[nH]5)C=C4)C=C3)cc1
REMARK SMILES IDX 6 1 5 2 4 3 3 4 1 5 2 6 35 8 36 9 82 10 37 11 81 12 38 13
REMARK SMILES IDX 39 14 40 15 75 16 41 17 80 18 74 19 76 20 42 21 79 22 73 23
REMARK SMILES IDX 72 24 43 26 65 27 50 28 64 29 51 30 54 31 63 32 77 33 52 34
REMARK SMILES IDX 53 35 62 37 78 38 55 39 44 40 45 41 49 42 46 43 48 44 47 45
REMARK SMILES IDX 66 46 67 47 71 48 68 49 70 50 69 51 56 52 57 53 61 54 58 55
REMARK SMILES IDX 60 56 59 57 7 58 8 59 9 60 10 62 11 63 12 64 15 65 13 66
REMARK SMILES IDX 14 68 16 69 17 70 18 71 34 72 19 74 21 75 20 76 22 77 23 78
REMARK SMILES IDX 24 79 25 80 33 81 26 82 32 83 27 84 31 85 28 86 30 87 29 88
REMARK H PARENT 3 7 76 25 54 36 8 61 12 67 17 73
REMARK Flexibility Score: inf
ROOT
ATOM      1  C   UNL A   1      36.515  20.211  25.043  1.00  0.00     0.023 C 
ENDROOT
BRANCH   1   2
ATOM      2  C   UNL A   1      37.953  19.804  24.721  1.00  0.00     0.023 C 
BRANCH   2   3
ATOM      3  C   UNL A   1      38.978  20.096  25.810  1.00  0.00     0.116 C 
BRANCH   3   4
ATOM      4  N   UNL A   1      40.053  19.119  25.857  1.00  0.00    -0.352 N 
ATOM      5  O   UNL A   1      42.172  18.363  26.030  1.00  0.00    -0.269 OA
ATOM      6  C   UNL A   1      41.383  19.294  26.154  1.00  0.00     0.251 C 
ATOM      7  H   UNL A   1      39.790  18.194  25.646  1.00  0.00     0.163 HD
BRANCH   6   8
ATOM      8  C   UNL A   1      41.872  20.618  26.595  1.00  0.00     0.039 A 
ATOM      9  C   UNL A   1      41.972  20.928  27.953  1.00  0.00     0.014 A 
ATOM     10  C   UNL A   1      42.234  21.562  25.629  1.00  0.00     0.014 A 
ATOM     11  C   UNL A   1      42.294  22.224  28.342  1.00  0.00     0.010 A 
ATOM     12  C   UNL A   1      42.628  22.844  26.025  1.00  0.00     0.010 A 
ATOM     13  C   UNL A   1      42.625  23.195  27.382  1.00  0.00    -0.014 A 
BRANCH  13  14
ATOM     14  C   UNL A   1      42.998  24.559  27.829  1.00  0.00     0.031 A 
ATOM     15  C   UNL A   1      44.433  25.004  27.856  1.00  0.00     0.074 A 
ATOM     16  C   UNL A   1      42.020  25.419  28.170  1.00  0.00     0.049 A 
ATOM     17  N   UNL A   1      44.924  26.177  28.171  1.00  0.00    -0.248 NA
ATOM     18  C   UNL A   1      45.451  24.008  27.484  1.00  0.00     0.031 C 
ATOM     19  C   UNL A   1      40.589  25.105  28.188  1.00  0.00     0.029 A 
ATOM     20  N   UNL A   1      42.077  26.738  28.538  1.00  0.00    -0.354 N 
ATOM     21  C   UNL A   1      46.303  26.058  28.055  1.00  0.00     0.074 A 
ATOM     22  C   UNL A   1      46.575  24.692  27.655  1.00  0.00     0.031 C 
ATOM     23  C   UNL A   1      39.901  26.215  28.493  1.00  0.00     0.029 A 
ATOM     24  C   UNL A   1      40.842  27.302  28.740  1.00  0.00     0.049 A 
ATOM     25  H   UNL A   1      42.922  27.233  28.647  1.00  0.00     0.167 HD
ATOM     26  C   UNL A   1      47.255  26.999  28.256  1.00  0.00     0.031 A 
ATOM     27  C   UNL A   1      40.500  28.556  29.087  1.00  0.00     0.031 A 
ATOM     28  C   UNL A   1      46.990  28.358  28.646  1.00  0.00     0.049 A 
ATOM     29  C   UNL A   1      41.575  29.575  29.313  1.00  0.00     0.074 A 
ATOM     30  C   UNL A   1      47.892  29.387  28.859  1.00  0.00     0.029 A 
ATOM     31  N   UNL A   1      45.727  28.879  28.878  1.00  0.00    -0.354 N 
ATOM     32  N   UNL A   1      42.872  29.445  29.187  1.00  0.00    -0.248 NA
ATOM     33  C   UNL A   1      41.136  30.912  29.734  1.00  0.00     0.031 C 
ATOM     34  C   UNL A   1      47.174  30.525  29.250  1.00  0.00     0.029 A 
ATOM     35  C   UNL A   1      45.826  30.211  29.246  1.00  0.00     0.049 A 
ATOM     36  H   UNL A   1      44.884  28.377  28.795  1.00  0.00     0.167 HD
ATOM     37  C   UNL A   1      43.407  30.683  29.511  1.00  0.00     0.074 A 
ATOM     38  C   UNL A   1      42.293  31.557  29.816  1.00  0.00     0.031 C 
ATOM     39  C   UNL A   1      44.707  31.060  29.556  1.00  0.00     0.031 A 
BRANCH  26  40
ATOM     40  C   UNL A   1      48.687  26.584  28.077  1.00  0.00    -0.014 A 
ATOM     41  C   UNL A   1      49.443  26.111  29.161  1.00  0.00     0.009 A 
ATOM     42  C   UNL A   1      49.272  26.624  26.803  1.00  0.00     0.009 A 
ATOM     43  C   UNL A   1      50.766  25.705  28.973  1.00  0.00     0.001 A 
ATOM     44  C   UNL A   1      50.589  26.201  26.615  1.00  0.00     0.001 A 
ATOM     45  C   UNL A   1      51.336  25.748  27.701  1.00  0.00     0.000 A 
ENDBRANCH  26  40
BRANCH  27  46
ATOM     46  C   UNL A   1      39.068  28.909  29.239  1.00  0.00    -0.014 A 
ATOM     47  C   UNL A   1      38.422  28.743  30.471  1.00  0.00     0.009 A 
ATOM     48  C   UNL A   1      38.349  29.437  28.155  1.00  0.00     0.009 A 
ATOM     49  C   UNL A   1      37.075  29.089  30.613  1.00  0.00     0.001 A 
ATOM     50  C   UNL A   1      37.011  29.803  28.306  1.00  0.00     0.001 A 
ATOM     51  C   UNL A   1      36.375  29.624  29.532  1.00  0.00     0.000 A 
ENDBRANCH  27  46
BRANCH  39  52
ATOM     52  C   UNL A   1      44.983  32.482  29.947  1.00  0.00    -0.014 A 
ATOM     53  C   UNL A   1      45.167  32.835  31.292  1.00  0.00     0.009 A 
ATOM     54  C   UNL A   1      45.076  33.473  28.958  1.00  0.00     0.009 A 
ATOM     55  C   UNL A   1      45.408  34.163  31.643  1.00  0.00     0.001 A 
ATOM     56  C   UNL A   1      45.335  34.797  29.311  1.00  0.00     0.001 A 
ATOM     57  C   UNL A   1      45.494  35.142  30.653  1.00  0.00     0.000 A 
ENDBRANCH  39  52
ENDBRANCH  13  14
ENDBRANCH   6   8
ENDBRANCH   3   4
ENDBRANCH   2   3
ENDBRANCH   1   2
BRANCH   1  58
ATOM     58  C   UNL A   1      36.305  21.694  25.336  1.00  0.00     0.116 C 
BRANCH  58  59
ATOM     59  N   UNL A   1      35.591  21.923  26.582  1.00  0.00    -0.351 N 
ATOM     60  C   UNL A   1      34.272  21.688  26.873  1.00  0.00     0.269 C 
ATOM     61  H   UNL A   1      36.129  22.297  27.316  1.00  0.00     0.163 HD
ATOM     62  O   UNL A   1      33.810  22.142  27.915  1.00  0.00    -0.268 OA
BRANCH  60  63
ATOM     63  C   UNL A   1      33.473  20.976  25.920  1.00  0.00     0.131 A 
ATOM     64  N   UNL A   1      33.147  19.659  26.094  1.00  0.00    -0.272 N 
ATOM     65  C   UNL A   1      32.939  21.334  24.686  1.00  0.00     0.057 A 
ATOM     66  N   UNL A   1      32.289  19.191  25.174  1.00  0.00    -0.183 NA
ATOM     67  H   UNL A   1      33.507  19.107  26.825  1.00  0.00     0.190 HD
ATOM     68  C   UNL A   1      32.170  20.205  24.315  1.00  0.00     0.145 A 
BRANCH  65  69
ATOM     69  C   UNL A   1      33.124  22.620  23.947  1.00  0.00     0.303 C 
BRANCH  69  70
ATOM     70  N   UNL A   1      32.426  23.770  24.531  1.00  0.00    -0.330 N 
ATOM     71  C   UNL A   1      31.234  23.419  25.305  1.00  0.00     0.262 C 
ATOM     72  C   UNL A   1      33.303  24.695  25.248  1.00  0.00     0.274 C 
ATOM     73  H   UNL A   1      32.084  24.283  23.719  1.00  0.00     0.348 HD
ATOM     74  C   UNL A   1      30.400  24.660  25.609  1.00  0.00     0.062 C 
ATOM     75  C   UNL A   1      32.591  26.010  25.582  1.00  0.00     0.116 C 
ATOM     76  C   UNL A   1      31.218  25.793  26.226  1.00  0.00     0.023 C 
BRANCH  75  77
ATOM     77  C   UNL A   1      32.656  26.993  24.410  1.00  0.00     0.171 C 
ATOM     78  O   UNL A   1      33.394  26.792  23.445  1.00  0.00    -0.294 OA
BRANCH  77  79
ATOM     79  C   UNL A   1      31.743  28.152  24.336  1.00  0.00     0.019 A 
ATOM     80  C   UNL A   1      32.018  29.325  25.034  1.00  0.00     0.012 A 
ATOM     81  C   UNL A   1      30.636  28.079  23.483  1.00  0.00     0.020 A 
ATOM     82  C   UNL A   1      31.128  30.399  24.959  1.00  0.00     0.009 A 
ATOM     83  C   UNL A   1      29.747  29.163  23.379  1.00  0.00    -0.018 A 
ATOM     84  C   UNL A   1      29.986  30.329  24.145  1.00  0.00    -0.018 A 
ATOM     85  C   UNL A   1      28.629  29.117  22.531  1.00  0.00     0.009 A 
ATOM     86  C   UNL A   1      29.084  31.401  24.063  1.00  0.00     0.009 A 
ATOM     87  C   UNL A   1      27.749  30.198  22.452  1.00  0.00     0.001 A 
ATOM     88  C   UNL A   1      27.971  31.335  23.223  1.00  0.00     0.001 A 
ENDBRANCH  77  79
ENDBRANCH  75  77
ENDBRANCH  69  70
ENDBRANCH  65  69
ENDBRANCH  60  63
ENDBRANCH  58  59
ENDBRANCH   1  58
TORSDOF 15
ENDMDL
MODEL 3
REMARK VINA RESULT:     -12.8      1.981      2.788
REMARK SMILES O=C(NCCCCNC(=O)c1[nH]ncc1C[N@H+]1CCC[C@H](C(=O)c2ccc3ccccc3c2)C1)c1ccc(-c2c3nc(c(-c4ccccc4)c4ccc([nH]4)c(-c4ccccc4)c4nc(c(-c5ccccc5)c5ccc2[nH]5)C=C4)C=C3)cc1
REMARK SMILES IDX 6 1 5 2 4 3 3 4 1 5 2 6 35 8 36 9 82 10 37 11 81 12 38 13
REMARK SMILES IDX 39 14 40 15 75 16 41 17 80 18 74 19 76 20 42 21 79 22 73 23
REMARK SMILES IDX 72 24 43 26 65 27 50 28 64 29 51 30 54 31 63 32 77 33 52 34
REMARK SMILES IDX 53 35 62 37 78 38 55 39 44 40 45 41 49 42 46 43 48 44 47 45
REMARK SMILES IDX 66 46 67 47 71 48 68 49 70 50 69 51 56 52 57 53 61 54 58 55
REMARK SMILES IDX 60 56 59 57 7 58 8 59 9 60 10 62 11 63 12 64 15 65 13 66
REMARK SMILES IDX 14 68 16 69 17 70 18 71 34 72 19 74 21 75 20 76 22 77 23 78
REMARK SMILES IDX 24 79 25 80 33 81 26 82 32 83 27 84 31 85 28 86 30 87 29 88
REMARK H PARENT 3 7 76 25 54 36 8 61 12 67 17 73
REMARK Flexibility Score: inf
ROOT
ATOM      1  C   UNL A   1      36.801  19.987  25.006  1.00  0.00     0.023 C 
ENDROOT
BRANCH   1   2
ATOM      2  C   UNL A   1      38.260  19.599  24.768  1.00  0.00     0.023 C 
BRANCH   2   3
ATOM      3  C   UNL A   1      39.186  19.754  25.969  1.00  0.00     0.116 C 
BRANCH   3   4
ATOM      4  N   UNL A   1      40.470  19.099  25.787  1.00  0.00    -0.352 N 
ATOM      5  O   UNL A   1      42.716  18.920  25.661  1.00  0.00    -0.269 OA
ATOM      6  C   UNL A   1      41.739  19.590  25.980  1.00  0.00     0.251 C 
ATOM      7  H   UNL A   1      40.425  18.164  25.479  1.00  0.00     0.163 HD
BRANCH   6   8
ATOM      8  C   UNL A   1      41.928  20.942  26.546  1.00  0.00     0.039 A 
ATOM      9  C   UNL A   1      42.150  22.041  25.714  1.00  0.00     0.014 A 
ATOM     10  C   UNL A   1      41.883  21.108  27.934  1.00  0.00     0.014 A 
ATOM     11  C   UNL A   1      42.471  23.274  26.271  1.00  0.00     0.010 A 
ATOM     12  C   UNL A   1      42.134  22.365  28.491  1.00  0.00     0.010 A 
ATOM     13  C   UNL A   1      42.466  23.449  27.665  1.00  0.00    -0.014 A 
BRANCH  13  14
ATOM     14  C   UNL A   1      42.778  24.785  28.230  1.00  0.00     0.031 A 
ATOM     15  C   UNL A   1      44.191  25.187  28.544  1.00  0.00     0.074 A 
ATOM     16  C   UNL A   1      41.772  25.661  28.416  1.00  0.00     0.049 A 
ATOM     17  N   UNL A   1      44.639  26.333  28.993  1.00  0.00    -0.248 NA
ATOM     18  C   UNL A   1      45.239  24.175  28.329  1.00  0.00     0.031 C 
ATOM     19  C   UNL A   1      40.357  25.388  28.152  1.00  0.00     0.029 A 
ATOM     20  N   UNL A   1      41.788  26.963  28.841  1.00  0.00    -0.354 N 
ATOM     21  C   UNL A   1      46.012  26.177  29.132  1.00  0.00     0.074 A 
ATOM     22  C   UNL A   1      46.325  24.820  28.735  1.00  0.00     0.031 C 
ATOM     23  C   UNL A   1      39.648  26.506  28.368  1.00  0.00     0.029 A 
ATOM     24  C   UNL A   1      40.549  27.556  28.831  1.00  0.00     0.049 A 
ATOM     25  H   UNL A   1      42.607  27.429  29.127  1.00  0.00     0.167 HD
ATOM     26  C   UNL A   1      46.930  27.082  29.547  1.00  0.00     0.031 A 
ATOM     27  C   UNL A   1      40.176  28.805  29.158  1.00  0.00     0.031 A 
ATOM     28  C   UNL A   1      46.626  28.434  29.936  1.00  0.00     0.049 A 
ATOM     29  C   UNL A   1      41.211  29.784  29.623  1.00  0.00     0.074 A 
ATOM     30  C   UNL A   1      47.494  29.428  30.356  1.00  0.00     0.029 A 
ATOM     31  N   UNL A   1      45.353  28.983  29.947  1.00  0.00    -0.354 N 
ATOM     32  N   UNL A   1      42.506  29.620  29.738  1.00  0.00    -0.248 NA
ATOM     33  C   UNL A   1      40.730  31.118  30.009  1.00  0.00     0.031 C 
ATOM     34  C   UNL A   1      46.741  30.571  30.651  1.00  0.00     0.029 A 
ATOM     35  C   UNL A   1      45.411  30.297  30.381  1.00  0.00     0.049 A 
ATOM     36  H   UNL A   1      44.531  28.509  29.687  1.00  0.00     0.167 HD
ATOM     37  C   UNL A   1      42.997  30.830  30.206  1.00  0.00     0.074 A 
ATOM     38  C   UNL A   1      41.864  31.725  30.332  1.00  0.00     0.031 C 
ATOM     39  C   UNL A   1      44.273  31.167  30.510  1.00  0.00     0.031 A 
BRANCH  26  40
ATOM     40  C   UNL A   1      48.361  26.632  29.624  1.00  0.00    -0.014 A 
ATOM     41  C   UNL A   1      49.239  26.828  28.547  1.00  0.00     0.009 A 
ATOM     42  C   UNL A   1      48.846  26.046  30.802  1.00  0.00     0.009 A 
ATOM     43  C   UNL A   1      50.572  26.426  28.643  1.00  0.00     0.001 A 
ATOM     44  C   UNL A   1      50.184  25.661  30.901  1.00  0.00     0.001 A 
ATOM     45  C   UNL A   1      51.044  25.846  29.821  1.00  0.00     0.000 A 
ENDBRANCH  26  40
BRANCH  27  46
ATOM     46  C   UNL A   1      38.748  29.195  29.052  1.00  0.00    -0.014 A 
ATOM     47  C   UNL A   1      38.227  29.659  27.837  1.00  0.00     0.009 A 
ATOM     48  C   UNL A   1      37.898  29.079  30.163  1.00  0.00     0.009 A 
ATOM     49  C   UNL A   1      36.879  30.013  27.739  1.00  0.00     0.001 A 
ATOM     50  C   UNL A   1      36.547  29.411  30.055  1.00  0.00     0.001 A 
ATOM     51  C   UNL A   1      36.040  29.883  28.846  1.00  0.00     0.000 A 
ENDBRANCH  27  46
BRANCH  39  52
ATOM     52  C   UNL A   1      44.501  32.565  31.003  1.00  0.00    -0.014 A 
ATOM     53  C   UNL A   1      44.725  33.617  30.102  1.00  0.00     0.009 A 
ATOM     54  C   UNL A   1      44.477  32.834  32.379  1.00  0.00     0.009 A 
ATOM     55  C   UNL A   1      44.951  34.910  30.573  1.00  0.00     0.001 A 
ATOM     56  C   UNL A   1      44.685  34.132  32.846  1.00  0.00     0.001 A 
ATOM     57  C   UNL A   1      44.930  35.167  31.944  1.00  0.00     0.000 A 
ENDBRANCH  39  52
ENDBRANCH  13  14
ENDBRANCH   6   8
ENDBRANCH   3   4
ENDBRANCH   2   3
ENDBRANCH   1   2
BRANCH   1  58
ATOM     58  C   UNL A   1      36.528  21.486  25.094  1.00  0.00     0.116 C 
BRANCH  58  59
ATOM     59  N   UNL A   1      35.972  21.880  26.377  1.00  0.00    -0.351 N 
ATOM     60  C   UNL A   1      34.658  21.925  26.769  1.00  0.00     0.269 C 
ATOM     61  H   UNL A   1      36.628  22.152  27.059  1.00  0.00     0.163 HD
ATOM     62  O   UNL A   1      34.377  22.484  27.824  1.00  0.00    -0.268 OA
BRANCH  60  63
ATOM     63  C   UNL A   1      33.662  21.371  25.899  1.00  0.00     0.131 A 
ATOM     64  N   UNL A   1      33.200  20.093  26.056  1.00  0.00    -0.272 N 
ATOM     65  C   UNL A   1      33.025  21.864  24.765  1.00  0.00     0.057 A 
ATOM     66  N   UNL A   1      32.181  19.786  25.238  1.00  0.00    -0.183 NA
ATOM     67  H   UNL A   1      33.578  19.459  26.707  1.00  0.00     0.190 HD
ATOM     68  C   UNL A   1      32.081  20.858  24.450  1.00  0.00     0.145 A 
BRANCH  65  69
ATOM     69  C   UNL A   1      33.273  23.161  24.067  1.00  0.00     0.303 C 
BRANCH  69  70
ATOM     70  N   UNL A   1      32.696  24.336  24.729  1.00  0.00    -0.330 N 
ATOM     71  C   UNL A   1      31.605  24.026  25.655  1.00  0.00     0.262 C 
ATOM     72  C   UNL A   1      33.688  25.234  25.318  1.00  0.00     0.274 C 
ATOM     73  H   UNL A   1      32.267  24.857  23.964  1.00  0.00     0.348 HD
ATOM     74  C   UNL A   1      30.859  25.295  26.057  1.00  0.00     0.062 C 
ATOM     75  C   UNL A   1      33.070  26.572  25.733  1.00  0.00     0.116 C 
ATOM     76  C   UNL A   1      31.787  26.402  26.553  1.00  0.00     0.023 C 
BRANCH  75  77
ATOM     77  C   UNL A   1      33.012  27.549  24.555  1.00  0.00     0.171 C 
ATOM     78  O   UNL A   1      34.031  27.886  23.951  1.00  0.00    -0.294 OA
BRANCH  77  79
ATOM     79  C   UNL A   1      31.719  28.022  24.021  1.00  0.00     0.019 A 
ATOM     80  C   UNL A   1      30.891  27.171  23.293  1.00  0.00     0.012 A 
ATOM     81  C   UNL A   1      31.300  29.321  24.331  1.00  0.00     0.020 A 
ATOM     82  C   UNL A   1      29.681  27.650  22.786  1.00  0.00     0.009 A 
ATOM     83  C   UNL A   1      30.073  29.806  23.848  1.00  0.00    -0.018 A 
ATOM     84  C   UNL A   1      29.265  28.965  23.046  1.00  0.00    -0.018 A 
ATOM     85  C   UNL A   1      29.628  31.105  24.145  1.00  0.00     0.009 A 
ATOM     86  C   UNL A   1      28.052  29.458  22.540  1.00  0.00     0.009 A 
ATOM     87  C   UNL A   1      28.413  31.574  23.643  1.00  0.00     0.001 A 
ATOM     88  C   UNL A   1      27.630  30.756  22.835  1.00  0.00     0.001 A 
ENDBRANCH  77  79
ENDBRANCH  75  77
ENDBRANCH  69  70
ENDBRANCH  65  69
ENDBRANCH  60  63
ENDBRANCH  58  59
ENDBRANCH   1  58
TORSDOF 15
ENDMDL
