MODEL 1
REMARK VINA RESULT:     -11.6      0.000      0.000
REMARK SMILES CC(C)c1ccc(C(=O)N2CCC[C@@H](C(=O)NCCCCNC(=O)c3ccc(-c4c5nc(c(-c6ccccc6)c6ccc([nH]6)c(-c6ccccc6)c6nc(c(-c7ccccc7)c7ccc4[nH]7)C=C6)C=C5)cc3)C2)cc1
REMARK SMILES IDX 19 1 18 2 17 3 15 4 16 5 14 7 10 8 11 9 73 10 12 11 13 12
REMARK SMILES IDX 8 13 9 14 7 15 4 16 5 17 75 18 6 19 74 20 2 21 1 22 3 23
REMARK SMILES IDX 20 24 21 25 22 26 23 27 24 29 25 30 26 31 72 32 27 33 71 34
REMARK SMILES IDX 28 35 29 36 30 37 65 38 31 39 70 40 64 41 66 42 32 43 69 44
REMARK SMILES IDX 63 45 62 46 33 48 55 49 40 50 54 51 41 52 44 53 53 54 67 55
REMARK SMILES IDX 42 56 43 57 52 59 68 60 45 61 34 62 35 63 39 64 36 65 38 66
REMARK SMILES IDX 37 67 56 68 57 69 61 70 58 71 60 72 59 73 46 74 47 75 51 76
REMARK SMILES IDX 48 77 50 78 49 79
REMARK H PARENT 17 6 22 28 66 47 44 58
REMARK Flexibility Score: inf
ROOT
ATOM      1  C   UNL A   1      32.040  29.836  26.225  1.00  0.00     0.023 C 
ENDROOT
BRANCH   1   2
ATOM      2  C   UNL A   1      32.394  28.726  27.215  1.00  0.00     0.116 C 
BRANCH   2   3
ATOM      3  N   UNL A   1      31.421  27.654  27.188  1.00  0.00    -0.356 N 
ATOM      4  C   UNL A   1      31.099  26.689  26.291  1.00  0.00     0.224 C 
ATOM      5  O   UNL A   1      30.135  25.982  26.612  1.00  0.00    -0.275 OA
ATOM      6  H   UNL A   1      30.869  27.617  28.002  1.00  0.00     0.163 HD
BRANCH   4   7
ATOM      7  C   UNL A   1      31.816  26.412  24.963  1.00  0.00     0.098 C 
ATOM      8  N   UNL A   1      32.355  24.455  23.480  1.00  0.00    -0.338 N 
ATOM      9  C   UNL A   1      31.862  25.134  22.300  1.00  0.00     0.120 C 
ATOM     10  C   UNL A   1      31.833  24.877  24.779  1.00  0.00     0.133 C 
ATOM     11  C   UNL A   1      32.043  26.631  22.438  1.00  0.00     0.022 C 
ATOM     12  C   UNL A   1      31.334  27.120  23.697  1.00  0.00     0.017 C 
BRANCH   8  13
ATOM     13  C   UNL A   1      33.534  23.737  23.363  1.00  0.00     0.253 C 
ATOM     14  O   UNL A   1      34.517  24.183  22.780  1.00  0.00    -0.269 OA
BRANCH  13  15
ATOM     15  C   UNL A   1      33.472  22.298  23.767  1.00  0.00     0.040 A 
ATOM     16  C   UNL A   1      33.566  19.521  24.366  1.00  0.00    -0.045 A 
ATOM     17  C   UNL A   1      34.595  20.389  24.767  1.00  0.00     0.005 A 
ATOM     18  C   UNL A   1      32.502  20.078  23.636  1.00  0.00     0.005 A 
ATOM     19  C   UNL A   1      34.545  21.760  24.482  1.00  0.00     0.014 A 
ATOM     20  C   UNL A   1      32.451  21.444  23.344  1.00  0.00     0.014 A 
BRANCH  16  21
ATOM     21  C   UNL A   1      33.621  18.016  24.626  1.00  0.00     0.013 C 
ATOM     22  C   UNL A   1      32.680  17.534  25.741  1.00  0.00     0.012 C 
ATOM     23  C   UNL A   1      33.336  17.178  23.369  1.00  0.00     0.012 C 
ENDBRANCH  16  21
ENDBRANCH  13  15
ENDBRANCH   8  13
ENDBRANCH   4   7
ENDBRANCH   2   3
ENDBRANCH   1   2
BRANCH   1  24
ATOM     24  C   UNL A   1      31.710  31.182  26.881  1.00  0.00     0.023 C 
BRANCH  24  25
ATOM     25  C   UNL A   1      32.879  32.157  27.001  1.00  0.00     0.116 C 
BRANCH  25  26
ATOM     26  N   UNL A   1      32.496  33.473  27.488  1.00  0.00    -0.352 N 
ATOM     27  C   UNL A   1      33.144  34.280  28.391  1.00  0.00     0.251 C 
ATOM     28  H   UNL A   1      31.658  33.836  27.119  1.00  0.00     0.163 HD
ATOM     29  O   UNL A   1      32.628  35.329  28.761  1.00  0.00    -0.269 OA
BRANCH  27  30
ATOM     30  C   UNL A   1      34.442  33.855  28.953  1.00  0.00     0.039 A 
ATOM     31  C   UNL A   1      34.441  33.044  30.090  1.00  0.00     0.014 A 
ATOM     32  C   UNL A   1      35.648  34.228  28.354  1.00  0.00     0.014 A 
ATOM     33  C   UNL A   1      35.647  32.547  30.583  1.00  0.00     0.010 A 
ATOM     34  C   UNL A   1      36.843  33.674  28.804  1.00  0.00     0.010 A 
ATOM     35  C   UNL A   1      36.854  32.826  29.920  1.00  0.00    -0.014 A 
BRANCH  35  36
ATOM     36  C   UNL A   1      38.120  32.197  30.368  1.00  0.00     0.031 A 
ATOM     37  C   UNL A   1      38.944  32.819  31.460  1.00  0.00     0.074 A 
ATOM     38  C   UNL A   1      38.549  31.076  29.755  1.00  0.00     0.049 A 
ATOM     39  N   UNL A   1      40.052  32.381  32.004  1.00  0.00    -0.248 NA
ATOM     40  C   UNL A   1      38.479  34.108  31.996  1.00  0.00     0.031 C 
ATOM     41  C   UNL A   1      37.874  30.412  28.637  1.00  0.00     0.029 A 
ATOM     42  N   UNL A   1      39.650  30.293  29.990  1.00  0.00    -0.354 N 
ATOM     43  C   UNL A   1      40.419  33.343  32.937  1.00  0.00     0.074 A 
ATOM     44  C   UNL A   1      39.447  34.411  32.848  1.00  0.00     0.031 C 
ATOM     45  C   UNL A   1      38.551  29.299  28.313  1.00  0.00     0.029 A 
ATOM     46  C   UNL A   1      39.721  29.187  29.178  1.00  0.00     0.049 A 
ATOM     47  H   UNL A   1      40.324  30.503  30.677  1.00  0.00     0.167 HD
ATOM     48  C   UNL A   1      41.459  33.329  33.805  1.00  0.00     0.031 A 
ATOM     49  C   UNL A   1      40.622  28.189  29.139  1.00  0.00     0.031 A 
ATOM     50  C   UNL A   1      42.423  32.264  33.895  1.00  0.00     0.049 A 
ATOM     51  C   UNL A   1      41.759  28.190  30.120  1.00  0.00     0.074 A 
ATOM     52  C   UNL A   1      43.472  32.124  34.787  1.00  0.00     0.029 A 
ATOM     53  N   UNL A   1      42.461  31.161  33.057  1.00  0.00    -0.354 N 
ATOM     54  N   UNL A   1      42.037  29.058  31.062  1.00  0.00    -0.248 NA
ATOM     55  C   UNL A   1      42.698  27.061  30.042  1.00  0.00     0.031 C 
ATOM     56  C   UNL A   1      44.176  30.961  34.454  1.00  0.00     0.029 A 
ATOM     57  C   UNL A   1      43.532  30.349  33.391  1.00  0.00     0.049 A 
ATOM     58  H   UNL A   1      41.820  30.981  32.331  1.00  0.00     0.167 HD
ATOM     59  C   UNL A   1      43.170  28.573  31.700  1.00  0.00     0.074 A 
ATOM     60  C   UNL A   1      43.511  27.322  31.055  1.00  0.00     0.031 C 
ATOM     61  C   UNL A   1      43.868  29.116  32.727  1.00  0.00     0.031 A 
BRANCH  48  62
ATOM     62  C   UNL A   1      41.606  34.508  34.725  1.00  0.00    -0.014 A 
ATOM     63  C   UNL A   1      42.347  35.639  34.345  1.00  0.00     0.009 A 
ATOM     64  C   UNL A   1      40.972  34.503  35.977  1.00  0.00     0.009 A 
ATOM     65  C   UNL A   1      42.480  36.725  35.214  1.00  0.00     0.001 A 
ATOM     66  C   UNL A   1      41.083  35.602  36.833  1.00  0.00     0.001 A 
ATOM     67  C   UNL A   1      41.845  36.707  36.455  1.00  0.00     0.000 A 
ENDBRANCH  48  62
BRANCH  49  68
ATOM     68  C   UNL A   1      40.466  27.087  28.155  1.00  0.00    -0.014 A 
ATOM     69  C   UNL A   1      39.708  25.949  28.474  1.00  0.00     0.009 A 
ATOM     70  C   UNL A   1      41.070  27.168  26.891  1.00  0.00     0.009 A 
ATOM     71  C   UNL A   1      39.579  24.905  27.557  1.00  0.00     0.001 A 
ATOM     72  C   UNL A   1      40.916  26.134  25.965  1.00  0.00     0.001 A 
ATOM     73  C   UNL A   1      40.179  25.000  26.301  1.00  0.00     0.000 A 
ENDBRANCH  49  68
BRANCH  61  74
ATOM     74  C   UNL A   1      45.062  28.349  33.220  1.00  0.00    -0.014 A 
ATOM     75  C   UNL A   1      44.937  27.373  34.221  1.00  0.00     0.009 A 
ATOM     76  C   UNL A   1      46.327  28.593  32.663  1.00  0.00     0.009 A 
ATOM     77  C   UNL A   1      46.061  26.685  34.683  1.00  0.00     0.001 A 
ATOM     78  C   UNL A   1      47.444  27.883  33.105  1.00  0.00     0.001 A 
ATOM     79  C   UNL A   1      47.313  26.938  34.122  1.00  0.00     0.000 A 
ENDBRANCH  61  74
ENDBRANCH  35  36
ENDBRANCH  27  30
ENDBRANCH  25  26
ENDBRANCH  24  25
ENDBRANCH   1  24
TORSDOF 14
ENDMDL
MODEL 2
REMARK VINA RESULT:     -11.6      3.470      8.992
REMARK SMILES CC(C)c1ccc(C(=O)N2CCC[C@@H](C(=O)NCCCCNC(=O)c3ccc(-c4c5nc(c(-c6ccccc6)c6ccc([nH]6)c(-c6ccccc6)c6nc(c(-c7ccccc7)c7ccc4[nH]7)C=C6)C=C5)cc3)C2)cc1
REMARK SMILES IDX 19 1 18 2 17 3 15 4 16 5 14 7 10 8 11 9 73 10 12 11 13 12
REMARK SMILES IDX 8 13 9 14 7 15 4 16 5 17 75 18 6 19 74 20 2 21 1 22 3 23
REMARK SMILES IDX 20 24 21 25 22 26 23 27 24 29 25 30 26 31 72 32 27 33 71 34
REMARK SMILES IDX 28 35 29 36 30 37 65 38 31 39 70 40 64 41 66 42 32 43 69 44
REMARK SMILES IDX 63 45 62 46 33 48 55 49 40 50 54 51 41 52 44 53 53 54 67 55
REMARK SMILES IDX 42 56 43 57 52 59 68 60 45 61 34 62 35 63 39 64 36 65 38 66
REMARK SMILES IDX 37 67 56 68 57 69 61 70 58 71 60 72 59 73 46 74 47 75 51 76
REMARK SMILES IDX 48 77 50 78 49 79
REMARK H PARENT 17 6 22 28 66 47 44 58
REMARK Flexibility Score: inf
ROOT
ATOM      1  C   UNL A   1      38.375  21.864  25.720  1.00  0.00     0.023 C 
ENDROOT
BRANCH   1   2
ATOM      2  C   UNL A   1      36.930  22.304  25.485  1.00  0.00     0.116 C 
BRANCH   2   3
ATOM      3  N   UNL A   1      36.076  21.181  25.153  1.00  0.00    -0.356 N 
ATOM      4  C   UNL A   1      34.761  21.047  24.854  1.00  0.00     0.224 C 
ATOM      5  O   UNL A   1      34.381  19.880  24.690  1.00  0.00    -0.275 OA
ATOM      6  H   UNL A   1      36.560  20.323  25.141  1.00  0.00     0.163 HD
BRANCH   4   7
ATOM      7  C   UNL A   1      33.746  22.188  24.703  1.00  0.00     0.098 C 
ATOM      8  N   UNL A   1      32.781  23.628  22.883  1.00  0.00    -0.338 N 
ATOM      9  C   UNL A   1      31.423  23.378  23.319  1.00  0.00     0.120 C 
ATOM     10  C   UNL A   1      33.802  22.639  23.226  1.00  0.00     0.133 C 
ATOM     11  C   UNL A   1      31.385  23.132  24.812  1.00  0.00     0.022 C 
ATOM     12  C   UNL A   1      32.305  21.967  25.164  1.00  0.00     0.017 C 
BRANCH   8  13
ATOM     13  C   UNL A   1      33.110  24.923  22.517  1.00  0.00     0.253 C 
ATOM     14  O   UNL A   1      33.621  25.187  21.433  1.00  0.00    -0.269 OA
BRANCH  13  15
ATOM     15  C   UNL A   1      33.042  25.952  23.600  1.00  0.00     0.040 A 
ATOM     16  C   UNL A   1      32.859  27.701  25.833  1.00  0.00    -0.045 A 
ATOM     17  C   UNL A   1      33.909  26.776  25.716  1.00  0.00     0.005 A 
ATOM     18  C   UNL A   1      31.891  27.709  24.815  1.00  0.00     0.005 A 
ATOM     19  C   UNL A   1      34.007  25.920  24.611  1.00  0.00     0.014 A 
ATOM     20  C   UNL A   1      31.981  26.852  23.713  1.00  0.00     0.014 A 
BRANCH  16  21
ATOM     21  C   UNL A   1      32.707  28.613  27.050  1.00  0.00     0.013 C 
ATOM     22  C   UNL A   1      32.759  30.113  26.725  1.00  0.00     0.012 C 
ATOM     23  C   UNL A   1      31.419  28.343  27.846  1.00  0.00     0.012 C 
ENDBRANCH  16  21
ENDBRANCH  13  15
ENDBRANCH   8  13
ENDBRANCH   4   7
ENDBRANCH   2   3
ENDBRANCH   1   2
BRANCH   1  24
ATOM     24  C   UNL A   1      38.721  20.495  25.123  1.00  0.00     0.023 C 
BRANCH  24  25
ATOM     25  C   UNL A   1      39.252  19.463  26.117  1.00  0.00     0.116 C 
BRANCH  25  26
ATOM     26  N   UNL A   1      40.571  18.950  25.778  1.00  0.00    -0.352 N 
ATOM     27  C   UNL A   1      41.787  19.580  25.863  1.00  0.00     0.251 C 
ATOM     28  H   UNL A   1      40.594  18.024  25.443  1.00  0.00     0.163 HD
ATOM     29  O   UNL A   1      42.799  19.025  25.445  1.00  0.00    -0.269 OA
BRANCH  27  30
ATOM     30  C   UNL A   1      41.867  20.948  26.414  1.00  0.00     0.039 A 
ATOM     31  C   UNL A   1      41.661  21.127  27.784  1.00  0.00     0.014 A 
ATOM     32  C   UNL A   1      42.167  22.041  25.597  1.00  0.00     0.014 A 
ATOM     33  C   UNL A   1      41.828  22.392  28.346  1.00  0.00     0.010 A 
ATOM     34  C   UNL A   1      42.402  23.288  26.170  1.00  0.00     0.010 A 
ATOM     35  C   UNL A   1      42.240  23.474  27.550  1.00  0.00    -0.014 A 
BRANCH  35  36
ATOM     36  C   UNL A   1      42.539  24.790  28.166  1.00  0.00     0.031 A 
ATOM     37  C   UNL A   1      43.927  25.124  28.632  1.00  0.00     0.074 A 
ATOM     38  C   UNL A   1      41.536  25.673  28.343  1.00  0.00     0.049 A 
ATOM     39  N   UNL A   1      44.373  26.240  29.152  1.00  0.00    -0.248 NA
ATOM     40  C   UNL A   1      44.942  24.065  28.522  1.00  0.00     0.031 C 
ATOM     41  C   UNL A   1      40.133  25.441  27.995  1.00  0.00     0.029 A 
ATOM     42  N   UNL A   1      41.546  26.946  28.853  1.00  0.00    -0.354 N 
ATOM     43  C   UNL A   1      45.713  26.015  29.438  1.00  0.00     0.074 A 
ATOM     44  C   UNL A   1      45.995  24.640  29.083  1.00  0.00     0.031 C 
ATOM     45  C   UNL A   1      39.425  26.551  28.260  1.00  0.00     0.029 A 
ATOM     46  C   UNL A   1      40.316  27.558  28.823  1.00  0.00     0.049 A 
ATOM     47  H   UNL A   1      42.357  27.380  29.205  1.00  0.00     0.167 HD
ATOM     48  C   UNL A   1      46.633  26.879  29.929  1.00  0.00     0.031 A 
ATOM     49  C   UNL A   1      39.949  28.797  29.199  1.00  0.00     0.031 A 
ATOM     50  C   UNL A   1      46.352  28.246  30.278  1.00  0.00     0.049 A 
ATOM     51  C   UNL A   1      40.990  29.741  29.731  1.00  0.00     0.074 A 
ATOM     52  C   UNL A   1      47.230  29.221  30.720  1.00  0.00     0.029 A 
ATOM     53  N   UNL A   1      45.096  28.831  30.233  1.00  0.00    -0.354 N 
ATOM     54  N   UNL A   1      42.273  29.542  29.903  1.00  0.00    -0.248 NA
ATOM     55  C   UNL A   1      40.530  31.086  30.104  1.00  0.00     0.031 C 
ATOM     56  C   UNL A   1      46.495  30.381  30.991  1.00  0.00     0.029 A 
ATOM     57  C   UNL A   1      45.169  30.144  30.667  1.00  0.00     0.049 A 
ATOM     58  H   UNL A   1      44.273  28.378  29.937  1.00  0.00     0.167 HD
ATOM     59  C   UNL A   1      42.780  30.741  30.387  1.00  0.00     0.074 A 
ATOM     60  C   UNL A   1      41.668  31.668  30.455  1.00  0.00     0.031 C 
ATOM     61  C   UNL A   1      44.050  31.047  30.745  1.00  0.00     0.031 A 
BRANCH  48  62
ATOM     62  C   UNL A   1      48.032  26.363  30.123  1.00  0.00    -0.014 A 
ATOM     63  C   UNL A   1      48.435  25.793  31.342  1.00  0.00     0.009 A 
ATOM     64  C   UNL A   1      48.950  26.417  29.064  1.00  0.00     0.009 A 
ATOM     65  C   UNL A   1      49.740  25.324  31.508  1.00  0.00     0.001 A 
ATOM     66  C   UNL A   1      50.247  25.922  29.223  1.00  0.00     0.001 A 
ATOM     67  C   UNL A   1      50.643  25.385  30.447  1.00  0.00     0.000 A 
ENDBRANCH  48  62
BRANCH  49  68
ATOM     68  C   UNL A   1      38.534  29.227  29.055  1.00  0.00    -0.014 A 
ATOM     69  C   UNL A   1      37.655  29.158  30.148  1.00  0.00     0.009 A 
ATOM     70  C   UNL A   1      38.055  29.711  27.828  1.00  0.00     0.009 A 
ATOM     71  C   UNL A   1      36.320  29.541  30.007  1.00  0.00     0.001 A 
ATOM     72  C   UNL A   1      36.726  30.120  27.698  1.00  0.00     0.001 A 
ATOM     73  C   UNL A   1      35.858  30.027  28.784  1.00  0.00     0.000 A 
ENDBRANCH  49  68
BRANCH  61  74
ATOM     74  C   UNL A   1      44.303  32.447  31.231  1.00  0.00    -0.014 A 
ATOM     75  C   UNL A   1      44.625  33.479  30.336  1.00  0.00     0.009 A 
ATOM     76  C   UNL A   1      44.198  32.740  32.600  1.00  0.00     0.009 A 
ATOM     77  C   UNL A   1      44.878  34.769  30.808  1.00  0.00     0.001 A 
ATOM     78  C   UNL A   1      44.422  34.036  33.065  1.00  0.00     0.001 A 
ATOM     79  C   UNL A   1      44.773  35.047  32.171  1.00  0.00     0.000 A 
ENDBRANCH  61  74
ENDBRANCH  35  36
ENDBRANCH  27  30
ENDBRANCH  25  26
ENDBRANCH  24  25
ENDBRANCH   1  24
TORSDOF 14
ENDMDL
MODEL 3
REMARK VINA RESULT:     -11.6      4.233      9.791
REMARK SMILES CC(C)c1ccc(C(=O)N2CCC[C@@H](C(=O)NCCCCNC(=O)c3ccc(-c4c5nc(c(-c6ccccc6)c6ccc([nH]6)c(-c6ccccc6)c6nc(c(-c7ccccc7)c7ccc4[nH]7)C=C6)C=C5)cc3)C2)cc1
REMARK SMILES IDX 19 1 18 2 17 3 15 4 16 5 14 7 10 8 11 9 73 10 12 11 13 12
REMARK SMILES IDX 8 13 9 14 7 15 4 16 5 17 75 18 6 19 74 20 2 21 1 22 3 23
REMARK SMILES IDX 20 24 21 25 22 26 23 27 24 29 25 30 26 31 72 32 27 33 71 34
REMARK SMILES IDX 28 35 29 36 30 37 65 38 31 39 70 40 64 41 66 42 32 43 69 44
REMARK SMILES IDX 63 45 62 46 33 48 55 49 40 50 54 51 41 52 44 53 53 54 67 55
REMARK SMILES IDX 42 56 43 57 52 59 68 60 45 61 34 62 35 63 39 64 36 65 38 66
REMARK SMILES IDX 37 67 56 68 57 69 61 70 58 71 60 72 59 73 46 74 47 75 51 76
REMARK SMILES IDX 48 77 50 78 49 79
REMARK H PARENT 17 6 22 28 66 47 44 58
REMARK Flexibility Score: inf
ROOT
ATOM      1  C   UNL A   1      36.659  20.867  25.186  1.00  0.00     0.023 C 
ENDROOT
BRANCH   1   2
ATOM      2  C   UNL A   1      36.956  22.341  24.908  1.00  0.00     0.116 C 
BRANCH   2   3
ATOM      3  N   UNL A   1      36.245  22.819  23.740  1.00  0.00    -0.356 N 
ATOM      4  C   UNL A   1      34.953  23.141  23.483  1.00  0.00     0.224 C 
ATOM      5  O   UNL A   1      34.719  23.454  22.309  1.00  0.00    -0.275 OA
ATOM      6  H   UNL A   1      36.830  22.936  22.957  1.00  0.00     0.163 HD
BRANCH   4   7
ATOM      7  C   UNL A   1      33.804  23.153  24.500  1.00  0.00     0.098 C 
ATOM      8  N   UNL A   1      31.628  24.356  24.877  1.00  0.00    -0.338 N 
ATOM      9  C   UNL A   1      30.909  23.117  25.087  1.00  0.00     0.120 C 
ATOM     10  C   UNL A   1      32.859  24.306  24.088  1.00  0.00     0.133 C 
ATOM     11  C   UNL A   1      31.826  22.067  25.677  1.00  0.00     0.022 C 
ATOM     12  C   UNL A   1      33.028  21.861  24.760  1.00  0.00     0.017 C 
BRANCH   8  13
ATOM     13  C   UNL A   1      31.344  25.417  25.722  1.00  0.00     0.253 C 
ATOM     14  O   UNL A   1      31.323  25.293  26.943  1.00  0.00    -0.269 OA
BRANCH  13  15
ATOM     15  C   UNL A   1      30.824  26.657  25.069  1.00  0.00     0.040 A 
ATOM     16  C   UNL A   1      29.900  28.901  23.589  1.00  0.00    -0.045 A 
ATOM     17  C   UNL A   1      29.235  27.665  23.532  1.00  0.00     0.005 A 
ATOM     18  C   UNL A   1      31.053  28.975  24.388  1.00  0.00     0.005 A 
ATOM     19  C   UNL A   1      29.683  26.562  24.269  1.00  0.00     0.014 A 
ATOM     20  C   UNL A   1      31.507  27.874  25.121  1.00  0.00     0.014 A 
BRANCH  16  21
ATOM     21  C   UNL A   1      29.456  30.106  22.760  1.00  0.00     0.013 C 
ATOM     22  C   UNL A   1      28.393  29.783  21.699  1.00  0.00     0.012 C 
ATOM     23  C   UNL A   1      28.931  31.267  23.620  1.00  0.00     0.012 C 
ENDBRANCH  16  21
ENDBRANCH  13  15
ENDBRANCH   8  13
ENDBRANCH   4   7
ENDBRANCH   2   3
ENDBRANCH   1   2
BRANCH   1  24
ATOM     24  C   UNL A   1      37.854  19.932  24.960  1.00  0.00     0.023 C 
BRANCH  24  25
ATOM     25  C   UNL A   1      39.088  20.229  25.809  1.00  0.00     0.116 C 
BRANCH  25  26
ATOM     26  N   UNL A   1      40.084  19.169  25.784  1.00  0.00    -0.352 N 
ATOM     27  C   UNL A   1      41.430  19.246  26.048  1.00  0.00     0.251 C 
ATOM     28  H   UNL A   1      39.748  18.274  25.546  1.00  0.00     0.163 HD
ATOM     29  O   UNL A   1      42.146  18.262  25.888  1.00  0.00    -0.269 OA
BRANCH  27  30
ATOM     30  C   UNL A   1      42.020  20.530  26.475  1.00  0.00     0.039 A 
ATOM     31  C   UNL A   1      42.493  21.405  25.494  1.00  0.00     0.014 A 
ATOM     32  C   UNL A   1      42.087  20.882  27.826  1.00  0.00     0.014 A 
ATOM     33  C   UNL A   1      42.964  22.664  25.864  1.00  0.00     0.010 A 
ATOM     34  C   UNL A   1      42.490  22.165  28.187  1.00  0.00     0.010 A 
ATOM     35  C   UNL A   1      42.929  23.069  27.209  1.00  0.00    -0.014 A 
BRANCH  35  36
ATOM     36  C   UNL A   1      43.312  24.451  27.588  1.00  0.00     0.031 A 
ATOM     37  C   UNL A   1      44.745  24.896  27.531  1.00  0.00     0.074 A 
ATOM     38  C   UNL A   1      42.359  25.299  28.024  1.00  0.00     0.049 A 
ATOM     39  N   UNL A   1      45.250  26.077  27.785  1.00  0.00    -0.248 NA
ATOM     40  C   UNL A   1      45.746  23.880  27.166  1.00  0.00     0.031 C 
ATOM     41  C   UNL A   1      40.942  24.967  28.189  1.00  0.00     0.029 A 
ATOM     42  N   UNL A   1      42.438  26.614  28.403  1.00  0.00    -0.354 N 
ATOM     43  C   UNL A   1      46.623  25.945  27.618  1.00  0.00     0.074 A 
ATOM     44  C   UNL A   1      46.877  24.557  27.294  1.00  0.00     0.031 C 
ATOM     45  C   UNL A   1      40.278  26.062  28.592  1.00  0.00     0.029 A 
ATOM     46  C   UNL A   1      41.224  27.161  28.744  1.00  0.00     0.049 A 
ATOM     47  H   UNL A   1      43.283  27.119  28.427  1.00  0.00     0.167 HD
ATOM     48  C   UNL A   1      47.583  26.896  27.704  1.00  0.00     0.031 A 
ATOM     49  C   UNL A   1      40.907  28.412  29.126  1.00  0.00     0.031 A 
ATOM     50  C   UNL A   1      47.329  28.276  28.022  1.00  0.00     0.049 A 
ATOM     51  C   UNL A   1      41.989  29.451  29.203  1.00  0.00     0.074 A 
ATOM     52  C   UNL A   1      48.224  29.330  28.067  1.00  0.00     0.029 A 
ATOM     53  N   UNL A   1      46.087  28.792  28.359  1.00  0.00    -0.354 N 
ATOM     54  N   UNL A   1      43.268  29.332  28.947  1.00  0.00    -0.248 NA
ATOM     55  C   UNL A   1      41.575  30.803  29.606  1.00  0.00     0.031 C 
ATOM     56  C   UNL A   1      47.533  30.474  28.482  1.00  0.00     0.029 A 
ATOM     57  C   UNL A   1      46.197  30.144  28.642  1.00  0.00     0.049 A 
ATOM     58  H   UNL A   1      45.250  28.274  28.393  1.00  0.00     0.167 HD
ATOM     59  C   UNL A   1      43.811  30.595  29.140  1.00  0.00     0.074 A 
ATOM     60  C   UNL A   1      42.716  31.470  29.508  1.00  0.00     0.031 C 
ATOM     61  C   UNL A   1      45.101  30.996  29.024  1.00  0.00     0.031 A 
BRANCH  48  62
ATOM     62  C   UNL A   1      49.002  26.469  27.453  1.00  0.00    -0.014 A 
ATOM     63  C   UNL A   1      49.829  26.038  28.503  1.00  0.00     0.009 A 
ATOM     64  C   UNL A   1      49.512  26.467  26.145  1.00  0.00     0.009 A 
ATOM     65  C   UNL A   1      51.148  25.650  28.255  1.00  0.00     0.001 A 
ATOM     66  C   UNL A   1      50.823  26.053  25.896  1.00  0.00     0.001 A 
ATOM     67  C   UNL A   1      51.642  25.654  26.951  1.00  0.00     0.000 A 
ENDBRANCH  48  62
BRANCH  49  68
ATOM     68  C   UNL A   1      39.495  28.756  29.436  1.00  0.00    -0.014 A 
ATOM     69  C   UNL A   1      38.975  28.538  30.721  1.00  0.00     0.009 A 
ATOM     70  C   UNL A   1      38.663  29.310  28.451  1.00  0.00     0.009 A 
ATOM     71  C   UNL A   1      37.642  28.842  31.006  1.00  0.00     0.001 A 
ATOM     72  C   UNL A   1      37.338  29.639  28.748  1.00  0.00     0.001 A 
ATOM     73  C   UNL A   1      36.827  29.397  30.021  1.00  0.00     0.000 A 
ENDBRANCH  49  68
BRANCH  61  74
ATOM     74  C   UNL A   1      45.390  32.446  29.289  1.00  0.00    -0.014 A 
ATOM     75  C   UNL A   1      45.318  33.401  28.263  1.00  0.00     0.009 A 
ATOM     76  C   UNL A   1      45.721  32.866  30.587  1.00  0.00     0.009 A 
ATOM     77  C   UNL A   1      45.612  34.741  28.523  1.00  0.00     0.001 A 
ATOM     78  C   UNL A   1      45.984  34.210  30.850  1.00  0.00     0.001 A 
ATOM     79  C   UNL A   1      45.942  35.145  29.816  1.00  0.00     0.000 A 
ENDBRANCH  61  74
ENDBRANCH  35  36
ENDBRANCH  27  30
ENDBRANCH  25  26
ENDBRANCH  24  25
ENDBRANCH   1  24
TORSDOF 14
ENDMDL
