MODEL 1
REMARK VINA RESULT:     -11.6      0.000      0.000
REMARK SMILES Cc1cc(N2CC[C@H](CC(=O)NCCCCNC(=O)c3ccc(-c4c5nc(c(-c6ccccc6)c6ccc([nH]6)c(-c6ccccc6)c6nc(c(-c7ccccc7)c7ccc4[nH]7)C=C6)C=C5)cc3)C2)ncc1[N+](=O)[O-]
REMARK SMILES IDX 14 1 13 2 12 3 10 4 11 5 9 7 8 8 5 9 6 10 68 11 7 12 4 13
REMARK SMILES IDX 1 14 2 15 3 16 71 17 70 18 69 19 72 20 73 21 74 22 15 23
REMARK SMILES IDX 16 24 17 25 18 26 19 28 20 29 21 30 67 31 22 32 66 33 23 34
REMARK SMILES IDX 24 35 25 36 60 37 26 38 65 39 59 40 61 41 27 42 64 43 58 44
REMARK SMILES IDX 57 45 28 47 50 48 35 49 49 50 36 51 39 52 48 53 62 54 37 55
REMARK SMILES IDX 38 56 47 58 63 59 40 60 29 61 30 62 34 63 31 64 33 65 32 66
REMARK SMILES IDX 51 67 52 68 56 69 53 70 55 71 54 72 41 73 42 74 46 75 43 76
REMARK SMILES IDX 45 77 44 78
REMARK H PARENT 12 6 17 27 61 46 39 57
REMARK Flexibility Score: inf
ROOT
ATOM      1  C   UNL A   1      36.877  21.030  25.154  1.00  0.00     0.023 C 
ENDROOT
BRANCH   1   2
ATOM      2  C   UNL A   1      37.282  22.466  24.818  1.00  0.00     0.116 C 
BRANCH   2   3
ATOM      3  N   UNL A   1      36.374  23.416  25.436  1.00  0.00    -0.356 N 
ATOM      4  C   UNL A   1      35.261  24.017  24.929  1.00  0.00     0.220 C 
ATOM      5  O   UNL A   1      34.712  24.895  25.597  1.00  0.00    -0.275 OA
ATOM      6  H   UNL A   1      36.596  23.663  26.362  1.00  0.00     0.163 HD
BRANCH   4   7
ATOM      7  C   UNL A   1      34.709  23.610  23.577  1.00  0.00     0.105 C 
BRANCH   7   8
ATOM      8  C   UNL A   1      33.377  22.863  23.664  1.00  0.00     0.019 C 
ATOM      9  N   UNL A   1      32.420  20.754  24.133  1.00  0.00    -0.356 N 
ATOM     10  C   UNL A   1      32.003  21.086  22.780  1.00  0.00     0.118 C 
ATOM     11  C   UNL A   1      33.453  21.666  24.619  1.00  0.00     0.122 C 
ATOM     12  C   UNL A   1      32.944  22.201  22.363  1.00  0.00     0.027 C 
BRANCH   9  13
ATOM     13  C   UNL A   1      32.620  19.408  24.379  1.00  0.00     0.129 A 
ATOM     14  C   UNL A   1      34.325  16.581  22.552  1.00  0.00     0.052 C 
ATOM     15  C   UNL A   1      33.583  17.304  23.634  1.00  0.00     0.032 A 
ATOM     16  C   UNL A   1      33.266  18.651  23.405  1.00  0.00     0.057 A 
ATOM     17  C   UNL A   1      33.173  16.758  24.856  1.00  0.00     0.290 A 
ATOM     18  C   UNL A   1      32.524  17.569  25.779  1.00  0.00     0.199 A 
ATOM     19  N   UNL A   1      32.246  18.878  25.563  1.00  0.00    -0.232 NA
BRANCH  17  20
ATOM     20  N   UNL A   1      33.384  15.369  25.223  1.00  0.00     0.064 N 
ATOM     21  O   UNL A   1      34.555  14.993  25.368  1.00  0.00    -0.258 OA
ATOM     22  O   UNL A   1      32.386  14.658  25.399  1.00  0.00    -0.258 OA
ENDBRANCH  17  20
ENDBRANCH   9  13
ENDBRANCH   7   8
ENDBRANCH   4   7
ENDBRANCH   2   3
ENDBRANCH   1   2
BRANCH   1  23
ATOM     23  C   UNL A   1      37.971  19.990  24.982  1.00  0.00     0.023 C 
BRANCH  23  24
ATOM     24  C   UNL A   1      39.238  20.282  25.761  1.00  0.00     0.116 C 
BRANCH  24  25
ATOM     25  N   UNL A   1      40.164  19.158  25.824  1.00  0.00    -0.352 N 
ATOM     26  C   UNL A   1      41.513  19.180  26.099  1.00  0.00     0.251 C 
ATOM     27  H   UNL A   1      39.775  18.271  25.649  1.00  0.00     0.163 HD
ATOM     28  O   UNL A   1      42.186  18.161  26.045  1.00  0.00    -0.269 OA
BRANCH  26  29
ATOM     29  C   UNL A   1      42.142  20.478  26.413  1.00  0.00     0.039 A 
ATOM     30  C   UNL A   1      42.543  21.309  25.366  1.00  0.00     0.014 A 
ATOM     31  C   UNL A   1      42.223  20.910  27.739  1.00  0.00     0.014 A 
ATOM     32  C   UNL A   1      42.944  22.616  25.646  1.00  0.00     0.010 A 
ATOM     33  C   UNL A   1      42.517  22.239  28.004  1.00  0.00     0.010 A 
ATOM     34  C   UNL A   1      42.887  23.104  26.962  1.00  0.00    -0.014 A 
BRANCH  34  35
ATOM     35  C   UNL A   1      43.232  24.507  27.292  1.00  0.00     0.031 A 
ATOM     36  C   UNL A   1      44.668  24.947  27.232  1.00  0.00     0.074 A 
ATOM     37  C   UNL A   1      42.280  25.354  27.729  1.00  0.00     0.049 A 
ATOM     38  N   UNL A   1      45.200  26.085  27.591  1.00  0.00    -0.248 NA
ATOM     39  C   UNL A   1      45.641  23.955  26.742  1.00  0.00     0.031 C 
ATOM     40  C   UNL A   1      40.858  25.039  27.878  1.00  0.00     0.029 A 
ATOM     41  N   UNL A   1      42.375  26.662  28.134  1.00  0.00    -0.354 N 
ATOM     42  C   UNL A   1      46.569  25.932  27.408  1.00  0.00     0.074 A 
ATOM     43  C   UNL A   1      46.789  24.575  26.961  1.00  0.00     0.031 C 
ATOM     44  C   UNL A   1      40.207  26.135  28.303  1.00  0.00     0.029 A 
ATOM     45  C   UNL A   1      41.169  27.215  28.492  1.00  0.00     0.049 A 
ATOM     46  H   UNL A   1      43.225  27.157  28.165  1.00  0.00     0.167 HD
ATOM     47  C   UNL A   1      47.554  26.844  27.571  1.00  0.00     0.031 A 
ATOM     48  C   UNL A   1      40.876  28.456  28.923  1.00  0.00     0.031 A 
ATOM     49  C   UNL A   1      47.333  28.204  27.974  1.00  0.00     0.049 A 
ATOM     50  C   UNL A   1      41.982  29.461  29.073  1.00  0.00     0.074 A 
ATOM     51  C   UNL A   1      48.252  29.229  28.105  1.00  0.00     0.029 A 
ATOM     52  N   UNL A   1      46.093  28.731  28.303  1.00  0.00    -0.354 N 
ATOM     53  N   UNL A   1      43.265  29.317  28.847  1.00  0.00    -0.248 NA
ATOM     54  C   UNL A   1      41.596  30.804  29.529  1.00  0.00     0.031 C 
ATOM     55  C   UNL A   1      47.572  30.371  28.542  1.00  0.00     0.029 A 
ATOM     56  C   UNL A   1      46.225  30.065  28.644  1.00  0.00     0.049 A 
ATOM     57  H   UNL A   1      45.245  28.230  28.294  1.00  0.00     0.167 HD
ATOM     58  C   UNL A   1      43.837  30.556  29.107  1.00  0.00     0.074 A 
ATOM     59  C   UNL A   1      42.758  31.441  29.500  1.00  0.00     0.031 C 
ATOM     60  C   UNL A   1      45.137  30.928  29.026  1.00  0.00     0.031 A 
BRANCH  47  61
ATOM     61  C   UNL A   1      48.960  26.383  27.303  1.00  0.00    -0.014 A 
ATOM     62  C   UNL A   1      49.786  25.931  28.345  1.00  0.00     0.009 A 
ATOM     63  C   UNL A   1      49.469  26.417  25.998  1.00  0.00     0.009 A 
ATOM     64  C   UNL A   1      51.111  25.572  28.092  1.00  0.00     0.001 A 
ATOM     65  C   UNL A   1      50.785  26.029  25.743  1.00  0.00     0.001 A 
ATOM     66  C   UNL A   1      51.609  25.620  26.791  1.00  0.00     0.000 A 
ENDBRANCH  47  61
BRANCH  48  67
ATOM     67  C   UNL A   1      39.466  28.832  29.197  1.00  0.00    -0.014 A 
ATOM     68  C   UNL A   1      38.646  29.290  28.154  1.00  0.00     0.009 A 
ATOM     69  C   UNL A   1      38.930  28.731  30.490  1.00  0.00     0.009 A 
ATOM     70  C   UNL A   1      37.322  29.657  28.404  1.00  0.00     0.001 A 
ATOM     71  C   UNL A   1      37.598  29.079  30.732  1.00  0.00     0.001 A 
ATOM     72  C   UNL A   1      36.798  29.548  29.691  1.00  0.00     0.000 A 
ENDBRANCH  48  67
BRANCH  60  73
ATOM     73  C   UNL A   1      45.459  32.361  29.331  1.00  0.00    -0.014 A 
ATOM     74  C   UNL A   1      45.435  33.340  28.327  1.00  0.00     0.009 A 
ATOM     75  C   UNL A   1      45.743  32.741  30.651  1.00  0.00     0.009 A 
ATOM     76  C   UNL A   1      45.715  34.671  28.638  1.00  0.00     0.001 A 
ATOM     77  C   UNL A   1      46.000  34.075  30.963  1.00  0.00     0.001 A 
ATOM     78  C   UNL A   1      45.993  35.038  29.955  1.00  0.00     0.000 A 
ENDBRANCH  60  73
ENDBRANCH  34  35
ENDBRANCH  26  29
ENDBRANCH  24  25
ENDBRANCH  23  24
ENDBRANCH   1  23
TORSDOF 14
ENDMDL
MODEL 2
REMARK VINA RESULT:     -11.2      2.864      4.897
REMARK SMILES Cc1cc(N2CC[C@H](CC(=O)NCCCCNC(=O)c3ccc(-c4c5nc(c(-c6ccccc6)c6ccc([nH]6)c(-c6ccccc6)c6nc(c(-c7ccccc7)c7ccc4[nH]7)C=C6)C=C5)cc3)C2)ncc1[N+](=O)[O-]
REMARK SMILES IDX 14 1 13 2 12 3 10 4 11 5 9 7 8 8 5 9 6 10 68 11 7 12 4 13
REMARK SMILES IDX 1 14 2 15 3 16 71 17 70 18 69 19 72 20 73 21 74 22 15 23
REMARK SMILES IDX 16 24 17 25 18 26 19 28 20 29 21 30 67 31 22 32 66 33 23 34
REMARK SMILES IDX 24 35 25 36 60 37 26 38 65 39 59 40 61 41 27 42 64 43 58 44
REMARK SMILES IDX 57 45 28 47 50 48 35 49 49 50 36 51 39 52 48 53 62 54 37 55
REMARK SMILES IDX 38 56 47 58 63 59 40 60 29 61 30 62 34 63 31 64 33 65 32 66
REMARK SMILES IDX 51 67 52 68 56 69 53 70 55 71 54 72 41 73 42 74 46 75 43 76
REMARK SMILES IDX 45 77 44 78
REMARK H PARENT 12 6 17 27 61 46 39 57
REMARK Flexibility Score: inf
ROOT
ATOM      1  C   UNL A   1      36.756  19.891  24.981  1.00  0.00     0.023 C 
ENDROOT
BRANCH   1   2
ATOM      2  C   UNL A   1      35.483  20.739  25.015  1.00  0.00     0.116 C 
BRANCH   2   3
ATOM      3  N   UNL A   1      34.308  19.899  25.166  1.00  0.00    -0.356 N 
ATOM      4  C   UNL A   1      32.993  20.189  24.950  1.00  0.00     0.220 C 
ATOM      5  O   UNL A   1      32.148  19.351  25.269  1.00  0.00    -0.275 OA
ATOM      6  H   UNL A   1      34.488  18.980  25.469  1.00  0.00     0.163 HD
BRANCH   4   7
ATOM      7  C   UNL A   1      32.584  21.509  24.327  1.00  0.00     0.105 C 
BRANCH   7   8
ATOM      8  C   UNL A   1      31.915  22.465  25.315  1.00  0.00     0.019 C 
ATOM      9  N   UNL A   1      30.888  24.586  25.495  1.00  0.00    -0.356 N 
ATOM     10  C   UNL A   1      32.009  24.608  26.423  1.00  0.00     0.118 C 
ATOM     11  C   UNL A   1      30.936  23.418  24.619  1.00  0.00     0.122 C 
ATOM     12  C   UNL A   1      32.872  23.437  25.993  1.00  0.00     0.027 C 
BRANCH   9  13
ATOM     13  C   UNL A   1      30.592  25.796  24.893  1.00  0.00     0.129 A 
ATOM     14  C   UNL A   1      32.335  29.128  24.586  1.00  0.00     0.052 C 
ATOM     15  C   UNL A   1      31.292  28.069  24.395  1.00  0.00     0.032 A 
ATOM     16  C   UNL A   1      31.488  26.848  25.057  1.00  0.00     0.057 A 
ATOM     17  C   UNL A   1      30.135  28.187  23.616  1.00  0.00     0.290 A 
ATOM     18  C   UNL A   1      29.278  27.098  23.505  1.00  0.00     0.199 A 
ATOM     19  N   UNL A   1      29.488  25.911  24.124  1.00  0.00    -0.232 NA
BRANCH  17  20
ATOM     20  N   UNL A   1      29.766  29.398  22.907  1.00  0.00     0.064 N 
ATOM     21  O   UNL A   1      29.243  30.305  23.570  1.00  0.00    -0.258 OA
ATOM     22  O   UNL A   1      30.022  29.464  21.698  1.00  0.00    -0.258 OA
ENDBRANCH  17  20
ENDBRANCH   9  13
ENDBRANCH   7   8
ENDBRANCH   4   7
ENDBRANCH   2   3
ENDBRANCH   1   2
BRANCH   1  23
ATOM     23  C   UNL A   1      38.051  20.672  24.841  1.00  0.00     0.023 C 
BRANCH  23  24
ATOM     24  C   UNL A   1      38.988  20.545  26.026  1.00  0.00     0.116 C 
BRANCH  24  25
ATOM     25  N   UNL A   1      39.992  19.499  25.875  1.00  0.00    -0.352 N 
ATOM     26  C   UNL A   1      41.348  19.582  26.102  1.00  0.00     0.251 C 
ATOM     27  H   UNL A   1      39.659  18.624  25.573  1.00  0.00     0.163 HD
ATOM     28  O   UNL A   1      42.087  18.639  25.860  1.00  0.00    -0.269 OA
BRANCH  26  29
ATOM     29  C   UNL A   1      41.898  20.858  26.598  1.00  0.00     0.039 A 
ATOM     30  C   UNL A   1      42.301  21.827  25.677  1.00  0.00     0.014 A 
ATOM     31  C   UNL A   1      41.903  21.129  27.968  1.00  0.00     0.014 A 
ATOM     32  C   UNL A   1      42.625  23.106  26.130  1.00  0.00     0.010 A 
ATOM     33  C   UNL A   1      42.120  22.427  28.403  1.00  0.00     0.010 A 
ATOM     34  C   UNL A   1      42.489  23.428  27.491  1.00  0.00    -0.014 A 
BRANCH  34  35
ATOM     35  C   UNL A   1      42.751  24.794  28.002  1.00  0.00     0.031 A 
ATOM     36  C   UNL A   1      44.150  25.179  28.395  1.00  0.00     0.074 A 
ATOM     37  C   UNL A   1      41.731  25.652  28.198  1.00  0.00     0.049 A 
ATOM     38  N   UNL A   1      44.576  26.272  28.971  1.00  0.00    -0.248 NA
ATOM     39  C   UNL A   1      45.203  24.180  28.145  1.00  0.00     0.031 C 
ATOM     40  C   UNL A   1      40.321  25.385  27.902  1.00  0.00     0.029 A 
ATOM     41  N   UNL A   1      41.728  26.929  28.700  1.00  0.00    -0.354 N 
ATOM     42  C   UNL A   1      45.934  26.076  29.186  1.00  0.00     0.074 A 
ATOM     43  C   UNL A   1      46.249  24.740  28.732  1.00  0.00     0.031 C 
ATOM     44  C   UNL A   1      39.597  26.479  28.190  1.00  0.00     0.029 A 
ATOM     45  C   UNL A   1      40.483  27.506  28.726  1.00  0.00     0.049 A 
ATOM     46  H   UNL A   1      42.542  27.386  29.012  1.00  0.00     0.167 HD
ATOM     47  C   UNL A   1      46.847  26.937  29.692  1.00  0.00     0.031 A 
ATOM     48  C   UNL A   1      40.101  28.731  29.135  1.00  0.00     0.031 A 
ATOM     49  C   UNL A   1      46.544  28.279  30.104  1.00  0.00     0.049 A 
ATOM     50  C   UNL A   1      41.134  29.681  29.670  1.00  0.00     0.074 A 
ATOM     51  C   UNL A   1      47.406  29.256  30.568  1.00  0.00     0.029 A 
ATOM     52  N   UNL A   1      45.274  28.835  30.090  1.00  0.00    -0.354 N 
ATOM     53  N   UNL A   1      42.424  29.500  29.821  1.00  0.00    -0.248 NA
ATOM     54  C   UNL A   1      40.659  31.009  30.083  1.00  0.00     0.031 C 
ATOM     55  C   UNL A   1      46.651  30.397  30.862  1.00  0.00     0.029 A 
ATOM     56  C   UNL A   1      45.326  30.140  30.545  1.00  0.00     0.049 A 
ATOM     57  H   UNL A   1      44.456  28.369  29.800  1.00  0.00     0.167 HD
ATOM     58  C   UNL A   1      42.919  30.697  30.320  1.00  0.00     0.074 A 
ATOM     59  C   UNL A   1      41.791  31.600  30.439  1.00  0.00     0.031 C 
ATOM     60  C   UNL A   1      44.193  31.021  30.649  1.00  0.00     0.031 A 
BRANCH  47  61
ATOM     61  C   UNL A   1      48.258  26.437  29.817  1.00  0.00    -0.014 A 
ATOM     62  C   UNL A   1      48.709  25.822  30.996  1.00  0.00     0.009 A 
ATOM     63  C   UNL A   1      49.153  26.597  28.750  1.00  0.00     0.009 A 
ATOM     64  C   UNL A   1      50.041  25.426  31.123  1.00  0.00     0.001 A 
ATOM     65  C   UNL A   1      50.477  26.172  28.868  1.00  0.00     0.001 A 
ATOM     66  C   UNL A   1      50.924  25.600  30.059  1.00  0.00     0.000 A 
ENDBRANCH  47  61
BRANCH  48  67
ATOM     67  C   UNL A   1      38.681  29.146  29.009  1.00  0.00    -0.014 A 
ATOM     68  C   UNL A   1      38.212  29.688  27.802  1.00  0.00     0.009 A 
ATOM     69  C   UNL A   1      37.788  29.000  30.082  1.00  0.00     0.009 A 
ATOM     70  C   UNL A   1      36.882  30.092  27.678  1.00  0.00     0.001 A 
ATOM     71  C   UNL A   1      36.452  29.386  29.946  1.00  0.00     0.001 A 
ATOM     72  C   UNL A   1      36.002  29.937  28.747  1.00  0.00     0.000 A 
ENDBRANCH  48  67
BRANCH  60  73
ATOM     73  C   UNL A   1      44.440  32.420  31.131  1.00  0.00    -0.014 A 
ATOM     74  C   UNL A   1      44.459  32.724  32.500  1.00  0.00     0.009 A 
ATOM     75  C   UNL A   1      44.703  33.436  30.200  1.00  0.00     0.009 A 
ATOM     76  C   UNL A   1      44.713  34.028  32.926  1.00  0.00     0.001 A 
ATOM     77  C   UNL A   1      44.979  34.734  30.630  1.00  0.00     0.001 A 
ATOM     78  C   UNL A   1      44.977  35.030  31.992  1.00  0.00     0.000 A 
ENDBRANCH  60  73
ENDBRANCH  34  35
ENDBRANCH  26  29
ENDBRANCH  24  25
ENDBRANCH  23  24
ENDBRANCH   1  23
TORSDOF 14
ENDMDL
MODEL 3
REMARK VINA RESULT:     -11.1      3.720      6.399
REMARK SMILES Cc1cc(N2CC[C@H](CC(=O)NCCCCNC(=O)c3ccc(-c4c5nc(c(-c6ccccc6)c6ccc([nH]6)c(-c6ccccc6)c6nc(c(-c7ccccc7)c7ccc4[nH]7)C=C6)C=C5)cc3)C2)ncc1[N+](=O)[O-]
REMARK SMILES IDX 14 1 13 2 12 3 10 4 11 5 9 7 8 8 5 9 6 10 68 11 7 12 4 13
REMARK SMILES IDX 1 14 2 15 3 16 71 17 70 18 69 19 72 20 73 21 74 22 15 23
REMARK SMILES IDX 16 24 17 25 18 26 19 28 20 29 21 30 67 31 22 32 66 33 23 34
REMARK SMILES IDX 24 35 25 36 60 37 26 38 65 39 59 40 61 41 27 42 64 43 58 44
REMARK SMILES IDX 57 45 28 47 50 48 35 49 49 50 36 51 39 52 48 53 62 54 37 55
REMARK SMILES IDX 38 56 47 58 63 59 40 60 29 61 30 62 34 63 31 64 33 65 32 66
REMARK SMILES IDX 51 67 52 68 56 69 53 70 55 71 54 72 41 73 42 74 46 75 43 76
REMARK SMILES IDX 45 77 44 78
REMARK H PARENT 12 6 17 27 61 46 39 57
REMARK Flexibility Score: inf
ROOT
ATOM      1  C   UNL A   1      35.955  21.482  26.003  1.00  0.00     0.023 C 
ENDROOT
BRANCH   1   2
ATOM      2  C   UNL A   1      35.746  20.477  24.868  1.00  0.00     0.116 C 
BRANCH   2   3
ATOM      3  N   UNL A   1      34.628  19.597  25.157  1.00  0.00    -0.356 N 
ATOM      4  C   UNL A   1      33.289  19.806  25.004  1.00  0.00     0.220 C 
ATOM      5  O   UNL A   1      32.510  18.956  25.439  1.00  0.00    -0.275 OA
ATOM      6  H   UNL A   1      34.874  18.715  25.517  1.00  0.00     0.163 HD
BRANCH   4   7
ATOM      7  C   UNL A   1      32.775  21.052  24.311  1.00  0.00     0.105 C 
BRANCH   7   8
ATOM      8  C   UNL A   1      31.710  21.799  25.115  1.00  0.00     0.019 C 
ATOM      9  N   UNL A   1      30.826  23.948  25.543  1.00  0.00    -0.356 N 
ATOM     10  C   UNL A   1      31.264  23.436  26.832  1.00  0.00     0.118 C 
ATOM     11  C   UNL A   1      31.299  23.113  24.441  1.00  0.00     0.122 C 
ATOM     12  C   UNL A   1      32.181  22.279  26.482  1.00  0.00     0.027 C 
BRANCH   9  13
ATOM     13  C   UNL A   1      30.945  25.316  25.375  1.00  0.00     0.129 A 
ATOM     14  C   UNL A   1      31.756  28.226  27.635  1.00  0.00     0.052 C 
ATOM     15  C   UNL A   1      31.431  27.474  26.381  1.00  0.00     0.032 A 
ATOM     16  C   UNL A   1      31.205  26.095  26.499  1.00  0.00     0.057 A 
ATOM     17  C   UNL A   1      31.328  28.023  25.097  1.00  0.00     0.290 A 
ATOM     18  C   UNL A   1      31.056  27.187  24.021  1.00  0.00     0.199 A 
ATOM     19  N   UNL A   1      30.867  25.850  24.138  1.00  0.00    -0.232 NA
BRANCH  17  20
ATOM     20  N   UNL A   1      31.487  29.438  24.816  1.00  0.00     0.064 N 
ATOM     21  O   UNL A   1      32.597  29.940  25.043  1.00  0.00    -0.258 OA
ATOM     22  O   UNL A   1      30.521  30.048  24.340  1.00  0.00    -0.258 OA
ENDBRANCH  17  20
ENDBRANCH   9  13
ENDBRANCH   7   8
ENDBRANCH   4   7
ENDBRANCH   2   3
ENDBRANCH   1   2
BRANCH   1  23
ATOM     23  C   UNL A   1      35.886  22.943  25.596  1.00  0.00     0.023 C 
BRANCH  23  24
ATOM     24  C   UNL A   1      37.217  23.540  25.183  1.00  0.00     0.116 C 
BRANCH  24  25
ATOM     25  N   UNL A   1      38.364  22.699  25.499  1.00  0.00    -0.352 N 
ATOM     26  C   UNL A   1      39.469  23.015  26.258  1.00  0.00     0.251 C 
ATOM     27  H   UNL A   1      38.346  21.789  25.123  1.00  0.00     0.163 HD
ATOM     28  O   UNL A   1      40.398  22.230  26.379  1.00  0.00    -0.269 OA
BRANCH  26  29
ATOM     29  C   UNL A   1      39.529  24.351  26.882  1.00  0.00     0.039 A 
ATOM     30  C   UNL A   1      39.000  24.527  28.162  1.00  0.00     0.014 A 
ATOM     31  C   UNL A   1      40.212  25.388  26.244  1.00  0.00     0.014 A 
ATOM     32  C   UNL A   1      39.236  25.723  28.840  1.00  0.00     0.010 A 
ATOM     33  C   UNL A   1      40.537  26.530  26.959  1.00  0.00     0.010 A 
ATOM     34  C   UNL A   1      40.047  26.713  28.262  1.00  0.00    -0.014 A 
BRANCH  34  35
ATOM     35  C   UNL A   1      40.384  27.965  28.978  1.00  0.00     0.031 A 
ATOM     36  C   UNL A   1      41.726  28.097  29.643  1.00  0.00     0.074 A 
ATOM     37  C   UNL A   1      39.463  28.940  29.109  1.00  0.00     0.049 A 
ATOM     38  N   UNL A   1      42.176  29.050  30.416  1.00  0.00    -0.248 NA
ATOM     39  C   UNL A   1      42.671  26.984  29.448  1.00  0.00     0.031 C 
ATOM     40  C   UNL A   1      38.109  28.917  28.552  1.00  0.00     0.029 A 
ATOM     41  N   UNL A   1      39.533  30.145  29.762  1.00  0.00    -0.354 N 
ATOM     42  C   UNL A   1      43.436  28.633  30.827  1.00  0.00     0.074 A 
ATOM     43  C   UNL A   1      43.654  27.320  30.266  1.00  0.00     0.031 C 
ATOM     44  C   UNL A   1      37.490  30.071  28.853  1.00  0.00     0.029 A 
ATOM     45  C   UNL A   1      38.388  30.896  29.654  1.00  0.00     0.049 A 
ATOM     46  H   UNL A   1      40.328  30.443  30.260  1.00  0.00     0.167 HD
ATOM     47  C   UNL A   1      44.344  29.293  31.583  1.00  0.00     0.031 A 
ATOM     48  C   UNL A   1      38.098  32.115  30.145  1.00  0.00     0.031 A 
ATOM     49  C   UNL A   1      44.145  30.616  32.106  1.00  0.00     0.049 A 
ATOM     50  C   UNL A   1      39.130  32.841  30.961  1.00  0.00     0.074 A 
ATOM     51  C   UNL A   1      45.026  31.403  32.826  1.00  0.00     0.029 A 
ATOM     52  N   UNL A   1      42.980  31.353  31.951  1.00  0.00    -0.354 N 
ATOM     53  N   UNL A   1      40.336  32.456  31.300  1.00  0.00    -0.248 NA
ATOM     54  C   UNL A   1      38.761  34.176  31.454  1.00  0.00     0.031 C 
ATOM     55  C   UNL A   1      44.382  32.606  33.133  1.00  0.00     0.029 A 
ATOM     56  C   UNL A   1      43.116  32.582  32.571  1.00  0.00     0.049 A 
ATOM     57  H   UNL A   1      42.176  31.046  31.473  1.00  0.00     0.167 HD
ATOM     58  C   UNL A   1      40.881  33.510  32.022  1.00  0.00     0.074 A 
ATOM     59  C   UNL A   1      39.875  34.553  32.065  1.00  0.00     0.031 C 
ATOM     60  C   UNL A   1      42.105  33.606  32.596  1.00  0.00     0.031 A 
BRANCH  47  61
ATOM     61  C   UNL A   1      45.633  28.580  31.876  1.00  0.00    -0.014 A 
ATOM     62  C   UNL A   1      46.735  28.688  31.013  1.00  0.00     0.009 A 
ATOM     63  C   UNL A   1      45.741  27.775  33.019  1.00  0.00     0.009 A 
ATOM     64  C   UNL A   1      47.902  27.964  31.262  1.00  0.00     0.001 A 
ATOM     65  C   UNL A   1      46.920  27.076  33.282  1.00  0.00     0.001 A 
ATOM     66  C   UNL A   1      47.995  27.160  32.397  1.00  0.00     0.000 A 
ENDBRANCH  47  61
BRANCH  48  67
ATOM     67  C   UNL A   1      36.790  32.747  29.840  1.00  0.00    -0.014 A 
ATOM     68  C   UNL A   1      36.640  33.527  28.682  1.00  0.00     0.009 A 
ATOM     69  C   UNL A   1      35.687  32.571  30.689  1.00  0.00     0.009 A 
ATOM     70  C   UNL A   1      35.417  34.134  28.392  1.00  0.00     0.001 A 
ATOM     71  C   UNL A   1      34.459  33.164  30.384  1.00  0.00     0.001 A 
ATOM     72  C   UNL A   1      34.327  33.950  29.240  1.00  0.00     0.000 A 
ENDBRANCH  48  67
BRANCH  60  73
ATOM     73  C   UNL A   1      42.437  34.897  33.286  1.00  0.00    -0.014 A 
ATOM     74  C   UNL A   1      42.113  35.103  34.634  1.00  0.00     0.009 A 
ATOM     75  C   UNL A   1      43.124  35.899  32.585  1.00  0.00     0.009 A 
ATOM     76  C   UNL A   1      42.452  36.303  35.262  1.00  0.00     0.001 A 
ATOM     77  C   UNL A   1      43.482  37.087  33.221  1.00  0.00     0.001 A 
ATOM     78  C   UNL A   1      43.139  37.291  34.556  1.00  0.00     0.000 A 
ENDBRANCH  60  73
ENDBRANCH  34  35
ENDBRANCH  26  29
ENDBRANCH  24  25
ENDBRANCH  23  24
ENDBRANCH   1  23
TORSDOF 14
ENDMDL
