MODEL 1
REMARK VINA RESULT:     -11.2      0.000      0.000
REMARK SMILES CC[NH2+][C@@]1(C(=O)NCCCCNC(=O)c2ccc(-c3c4nc(c(-c5ccccc5)c5ccc([nH]5)c(-c5ccccc5)c5nc(c(-c6ccccc6)c6ccc3[nH]6)C=C5)C=C4)cc2)CCC[C@@H](Sc2ncc(C)cn2)C1
REMARK SMILES IDX 9 1 8 2 7 3 5 4 6 5 4 7 63 8 75 9 64 10 66 11 65 12 3 13
REMARK SMILES IDX 2 16 1 17 67 18 68 19 69 20 74 21 70 22 73 23 71 24 72 25
REMARK SMILES IDX 10 26 11 27 12 28 13 29 14 31 15 32 16 33 62 34 17 35 61 36
REMARK SMILES IDX 18 37 19 38 20 39 55 40 21 41 60 42 54 43 56 44 22 45 59 46
REMARK SMILES IDX 53 47 52 48 23 50 45 51 30 52 44 53 31 54 34 55 43 56 57 57
REMARK SMILES IDX 32 58 33 59 42 61 58 62 35 63 24 64 25 65 29 66 26 67 28 68
REMARK SMILES IDX 27 69 46 70 47 71 51 72 48 73 50 74 49 75 36 76 37 77 41 78
REMARK SMILES IDX 38 79 40 80 39 81
REMARK H PARENT 7 6 3 14 3 15 12 30 56 49 34 60
REMARK Flexibility Score: inf
ROOT
ATOM      1  C   UNL A   1      31.496  27.699  26.553  1.00  0.00     0.023 C 
ENDROOT
BRANCH   1   2
ATOM      2  C   UNL A   1      32.259  26.384  26.362  1.00  0.00     0.116 C 
BRANCH   2   3
ATOM      3  N   UNL A   1      31.516  25.260  26.876  1.00  0.00    -0.351 N 
ATOM      4  C   UNL A   1      31.572  23.920  26.708  1.00  0.00     0.281 C 
ATOM      5  O   UNL A   1      30.624  23.323  27.250  1.00  0.00    -0.268 OA
ATOM      6  H   UNL A   1      30.799  25.533  27.494  1.00  0.00     0.163 HD
BRANCH   4   7
ATOM      7  C   UNL A   1      32.637  23.077  25.851  1.00  0.00     0.176 C 
ATOM      8  C   UNL A   1      34.090  23.131  26.389  1.00  0.00     0.079 C 
ATOM      9  C   UNL A   1      32.468  23.483  24.369  1.00  0.00     0.094 C 
ATOM     10  C   UNL A   1      35.128  23.999  25.659  1.00  0.00     0.008 C 
ATOM     11  C   UNL A   1      33.379  24.631  23.955  1.00  0.00     0.061 C 
ATOM     12  C   UNL A   1      34.844  24.281  24.190  1.00  0.00     0.015 C 
BRANCH   7  13
ATOM     13  N   UNL A   1      32.145  21.670  26.087  1.00  0.00    -0.334 N 
ATOM     14  H   UNL A   1      32.721  21.278  26.832  1.00  0.00     0.347 HD
ATOM     15  H   UNL A   1      31.152  21.799  26.278  1.00  0.00     0.347 HD
BRANCH  13  16
ATOM     16  C   UNL A   1      32.153  20.703  24.999  1.00  0.00     0.257 C 
ATOM     17  C   UNL A   1      33.112  19.570  25.349  1.00  0.00     0.071 C 
ENDBRANCH  13  16
ENDBRANCH   7  13
BRANCH  11  18
ATOM     18  S   UNL A   1      32.998  25.253  22.271  1.00  0.00    -0.083 SA
BRANCH  18  19
ATOM     19  C   UNL A   1      31.975  26.638  22.662  1.00  0.00     0.187 A 
ATOM     20  N   UNL A   1      30.682  26.407  22.938  1.00  0.00    -0.231 NA
ATOM     21  N   UNL A   1      32.546  27.850  22.595  1.00  0.00    -0.231 NA
ATOM     22  C   UNL A   1      29.918  27.493  23.155  1.00  0.00     0.119 A 
ATOM     23  C   UNL A   1      31.739  28.900  22.824  1.00  0.00     0.119 A 
ATOM     24  C   UNL A   1      30.393  28.785  23.100  1.00  0.00    -0.014 A 
ATOM     25  C   UNL A   1      29.531  29.975  23.339  1.00  0.00     0.048 C 
ENDBRANCH  18  19
ENDBRANCH  11  18
ENDBRANCH   4   7
ENDBRANCH   2   3
ENDBRANCH   1   2
BRANCH   1  26
ATOM     26  C   UNL A   1      32.063  28.621  27.626  1.00  0.00     0.023 C 
BRANCH  26  27
ATOM     27  C   UNL A   1      33.403  29.256  27.280  1.00  0.00     0.116 C 
BRANCH  27  28
ATOM     28  N   UNL A   1      33.600  30.596  27.821  1.00  0.00    -0.352 N 
ATOM     29  C   UNL A   1      34.750  31.116  28.375  1.00  0.00     0.251 C 
ATOM     30  H   UNL A   1      32.821  31.198  27.787  1.00  0.00     0.163 HD
ATOM     31  O   UNL A   1      34.788  32.251  28.826  1.00  0.00    -0.269 OA
BRANCH  29  32
ATOM     32  C   UNL A   1      35.928  30.231  28.466  1.00  0.00     0.039 A 
ATOM     33  C   UNL A   1      36.776  30.129  27.362  1.00  0.00     0.014 A 
ATOM     34  C   UNL A   1      36.267  29.652  29.690  1.00  0.00     0.014 A 
ATOM     35  C   UNL A   1      38.028  29.535  27.519  1.00  0.00     0.010 A 
ATOM     36  C   UNL A   1      37.543  29.131  29.862  1.00  0.00     0.010 A 
ATOM     37  C   UNL A   1      38.443  29.091  28.785  1.00  0.00    -0.014 A 
BRANCH  37  38
ATOM     38  C   UNL A   1      39.827  28.614  29.024  1.00  0.00     0.031 A 
ATOM     39  C   UNL A   1      40.862  29.560  29.559  1.00  0.00     0.074 A 
ATOM     40  C   UNL A   1      40.177  27.365  28.656  1.00  0.00     0.049 A 
ATOM     41  N   UNL A   1      42.147  29.376  29.710  1.00  0.00    -0.248 NA
ATOM     42  C   UNL A   1      40.393  30.902  29.943  1.00  0.00     0.031 C 
ATOM     43  C   UNL A   1      39.280  26.364  28.071  1.00  0.00     0.029 A 
ATOM     44  N   UNL A   1      41.393  26.731  28.706  1.00  0.00    -0.354 N 
ATOM     45  C   UNL A   1      42.647  30.587  30.168  1.00  0.00     0.074 A 
ATOM     46  C   UNL A   1      41.533  31.508  30.238  1.00  0.00     0.031 C 
ATOM     47  C   UNL A   1      39.971  25.235  27.842  1.00  0.00     0.029 A 
ATOM     48  C   UNL A   1      41.363  25.444  28.226  1.00  0.00     0.049 A 
ATOM     49  H   UNL A   1      42.208  27.157  29.055  1.00  0.00     0.167 HD
ATOM     50  C   UNL A   1      43.916  30.903  30.515  1.00  0.00     0.031 A 
ATOM     51  C   UNL A   1      42.350  24.536  28.099  1.00  0.00     0.031 A 
ATOM     52  C   UNL A   1      45.017  29.980  30.484  1.00  0.00     0.049 A 
ATOM     53  C   UNL A   1      43.744  24.901  28.519  1.00  0.00     0.074 A 
ATOM     54  C   UNL A   1      46.323  30.183  30.894  1.00  0.00     0.029 A 
ATOM     55  N   UNL A   1      44.937  28.676  30.024  1.00  0.00    -0.354 N 
ATOM     56  N   UNL A   1      44.188  26.032  29.008  1.00  0.00    -0.248 NA
ATOM     57  C   UNL A   1      44.772  23.861  28.372  1.00  0.00     0.031 C 
ATOM     58  C   UNL A   1      47.042  29.006  30.654  1.00  0.00     0.029 A 
ATOM     59  C   UNL A   1      46.174  28.064  30.126  1.00  0.00     0.049 A 
ATOM     60  H   UNL A   1      44.120  28.248  29.676  1.00  0.00     0.167 HD
ATOM     61  C   UNL A   1      45.541  25.837  29.244  1.00  0.00     0.074 A 
ATOM     62  C   UNL A   1      45.844  24.474  28.856  1.00  0.00     0.031 C 
ATOM     63  C   UNL A   1      46.452  26.709  29.737  1.00  0.00     0.031 A 
BRANCH  50  64
ATOM     64  C   UNL A   1      44.173  32.313  30.957  1.00  0.00    -0.014 A 
ATOM     65  C   UNL A   1      44.064  32.679  32.308  1.00  0.00     0.009 A 
ATOM     66  C   UNL A   1      44.542  33.284  30.014  1.00  0.00     0.009 A 
ATOM     67  C   UNL A   1      44.280  34.001  32.700  1.00  0.00     0.001 A 
ATOM     68  C   UNL A   1      44.782  34.601  30.413  1.00  0.00     0.001 A 
ATOM     69  C   UNL A   1      44.641  34.960  31.753  1.00  0.00     0.000 A 
ENDBRANCH  50  64
BRANCH  51  70
ATOM     70  C   UNL A   1      42.052  23.183  27.565  1.00  0.00    -0.014 A 
ATOM     71  C   UNL A   1      42.359  22.869  26.233  1.00  0.00     0.009 A 
ATOM     72  C   UNL A   1      41.457  22.207  28.378  1.00  0.00     0.009 A 
ATOM     73  C   UNL A   1      42.055  21.606  25.717  1.00  0.00     0.001 A 
ATOM     74  C   UNL A   1      41.175  20.939  27.864  1.00  0.00     0.001 A 
ATOM     75  C   UNL A   1      41.467  20.641  26.534  1.00  0.00     0.000 A 
ENDBRANCH  51  70
BRANCH  63  76
ATOM     76  C   UNL A   1      47.856  26.208  29.909  1.00  0.00    -0.014 A 
ATOM     77  C   UNL A   1      48.758  26.210  28.834  1.00  0.00     0.009 A 
ATOM     78  C   UNL A   1      48.293  25.778  31.170  1.00  0.00     0.009 A 
ATOM     79  C   UNL A   1      50.070  25.771  29.018  1.00  0.00     0.001 A 
ATOM     80  C   UNL A   1      49.611  25.358  31.355  1.00  0.00     0.001 A 
ATOM     81  C   UNL A   1      50.496  25.350  30.278  1.00  0.00     0.000 A 
ENDBRANCH  63  76
ENDBRANCH  37  38
ENDBRANCH  29  32
ENDBRANCH  27  28
ENDBRANCH  26  27
ENDBRANCH   1  26
TORSDOF 15
ENDMDL
MODEL 2
REMARK VINA RESULT:     -11.2      2.266      7.817
REMARK SMILES CC[NH2+][C@@]1(C(=O)NCCCCNC(=O)c2ccc(-c3c4nc(c(-c5ccccc5)c5ccc([nH]5)c(-c5ccccc5)c5nc(c(-c6ccccc6)c6ccc3[nH]6)C=C5)C=C4)cc2)CCC[C@@H](Sc2ncc(C)cn2)C1
REMARK SMILES IDX 9 1 8 2 7 3 5 4 6 5 4 7 63 8 75 9 64 10 66 11 65 12 3 13
REMARK SMILES IDX 2 16 1 17 67 18 68 19 69 20 74 21 70 22 73 23 71 24 72 25
REMARK SMILES IDX 10 26 11 27 12 28 13 29 14 31 15 32 16 33 62 34 17 35 61 36
REMARK SMILES IDX 18 37 19 38 20 39 55 40 21 41 60 42 54 43 56 44 22 45 59 46
REMARK SMILES IDX 53 47 52 48 23 50 45 51 30 52 44 53 31 54 34 55 43 56 57 57
REMARK SMILES IDX 32 58 33 59 42 61 58 62 35 63 24 64 25 65 29 66 26 67 28 68
REMARK SMILES IDX 27 69 46 70 47 71 51 72 48 73 50 74 49 75 36 76 37 77 41 78
REMARK SMILES IDX 38 79 40 80 39 81
REMARK H PARENT 7 6 3 14 3 15 12 30 56 49 34 60
REMARK Flexibility Score: inf
ROOT
ATOM      1  C   UNL A   1      37.062  22.367  24.388  1.00  0.00     0.023 C 
ENDROOT
BRANCH   1   2
ATOM      2  C   UNL A   1      36.710  23.473  25.386  1.00  0.00     0.116 C 
BRANCH   2   3
ATOM      3  N   UNL A   1      35.908  22.970  26.475  1.00  0.00    -0.351 N 
ATOM      4  C   UNL A   1      34.607  23.070  26.828  1.00  0.00     0.281 C 
ATOM      5  O   UNL A   1      34.369  22.580  27.948  1.00  0.00    -0.268 OA
ATOM      6  H   UNL A   1      36.431  22.427  27.108  1.00  0.00     0.163 HD
BRANCH   4   7
ATOM      7  C   UNL A   1      33.420  23.795  26.027  1.00  0.00     0.176 C 
ATOM      8  C   UNL A   1      32.110  23.983  26.835  1.00  0.00     0.079 C 
ATOM      9  C   UNL A   1      33.259  23.066  24.672  1.00  0.00     0.094 C 
ATOM     10  C   UNL A   1      30.910  23.069  26.540  1.00  0.00     0.008 C 
ATOM     11  C   UNL A   1      32.237  21.938  24.717  1.00  0.00     0.061 C 
ATOM     12  C   UNL A   1      30.869  22.454  25.147  1.00  0.00     0.015 C 
BRANCH   7  13
ATOM     13  N   UNL A   1      34.004  25.174  25.834  1.00  0.00    -0.334 N 
ATOM     14  H   UNL A   1      34.581  25.365  26.653  1.00  0.00     0.347 HD
ATOM     15  H   UNL A   1      34.475  25.103  24.932  1.00  0.00     0.347 HD
BRANCH  13  16
ATOM     16  C   UNL A   1      33.126  26.321  25.662  1.00  0.00     0.257 C 
ATOM     17  C   UNL A   1      33.854  27.578  26.130  1.00  0.00     0.071 C 
ENDBRANCH  13  16
ENDBRANCH   7  13
BRANCH  11  18
ATOM     18  S   UNL A   1      32.233  20.938  23.179  1.00  0.00    -0.083 SA
BRANCH  18  19
ATOM     19  C   UNL A   1      32.462  19.318  23.846  1.00  0.00     0.187 A 
ATOM     20  N   UNL A   1      32.350  19.163  25.173  1.00  0.00    -0.231 NA
ATOM     21  N   UNL A   1      32.797  18.350  22.979  1.00  0.00    -0.231 NA
ATOM     22  C   UNL A   1      32.606  17.931  25.651  1.00  0.00     0.119 A 
ATOM     23  C   UNL A   1      33.039  17.138  23.508  1.00  0.00     0.119 A 
ATOM     24  C   UNL A   1      32.972  16.865  24.858  1.00  0.00    -0.014 A 
ATOM     25  C   UNL A   1      33.256  15.511  25.405  1.00  0.00     0.048 C 
ENDBRANCH  18  19
ENDBRANCH  11  18
ENDBRANCH   4   7
ENDBRANCH   2   3
ENDBRANCH   1   2
BRANCH   1  26
ATOM     26  C   UNL A   1      37.534  21.060  25.014  1.00  0.00     0.023 C 
BRANCH  26  27
ATOM     27  C   UNL A   1      38.878  21.143  25.727  1.00  0.00     0.116 C 
BRANCH  27  28
ATOM     28  N   UNL A   1      39.685  19.932  25.646  1.00  0.00    -0.352 N 
ATOM     29  C   UNL A   1      40.998  19.771  26.032  1.00  0.00     0.251 C 
ATOM     30  H   UNL A   1      39.240  19.136  25.272  1.00  0.00     0.163 HD
ATOM     31  O   UNL A   1      41.584  18.708  25.888  1.00  0.00    -0.269 OA
BRANCH  29  32
ATOM     32  C   UNL A   1      41.702  20.951  26.572  1.00  0.00     0.039 A 
ATOM     33  C   UNL A   1      42.272  21.858  25.678  1.00  0.00     0.014 A 
ATOM     34  C   UNL A   1      41.641  21.229  27.939  1.00  0.00     0.014 A 
ATOM     35  C   UNL A   1      42.685  23.106  26.145  1.00  0.00     0.010 A 
ATOM     36  C   UNL A   1      41.981  22.498  28.387  1.00  0.00     0.010 A 
ATOM     37  C   UNL A   1      42.483  23.456  27.490  1.00  0.00    -0.014 A 
BRANCH  37  38
ATOM     38  C   UNL A   1      42.749  24.829  27.983  1.00  0.00     0.031 A 
ATOM     39  C   UNL A   1      44.131  25.209  28.428  1.00  0.00     0.074 A 
ATOM     40  C   UNL A   1      41.727  25.695  28.135  1.00  0.00     0.049 A 
ATOM     41  N   UNL A   1      44.537  26.307  29.011  1.00  0.00    -0.248 NA
ATOM     42  C   UNL A   1      45.190  24.207  28.222  1.00  0.00     0.031 C 
ATOM     43  C   UNL A   1      40.326  25.431  27.793  1.00  0.00     0.029 A 
ATOM     44  N   UNL A   1      41.710  26.974  28.633  1.00  0.00    -0.354 N 
ATOM     45  C   UNL A   1      45.885  26.114  29.275  1.00  0.00     0.074 A 
ATOM     46  C   UNL A   1      46.222  24.782  28.820  1.00  0.00     0.031 C 
ATOM     47  C   UNL A   1      39.593  26.522  28.068  1.00  0.00     0.029 A 
ATOM     48  C   UNL A   1      40.461  27.546  28.639  1.00  0.00     0.049 A 
ATOM     49  H   UNL A   1      42.517  27.437  28.954  1.00  0.00     0.167 HD
ATOM     50  C   UNL A   1      46.771  26.972  29.832  1.00  0.00     0.031 A 
ATOM     51  C   UNL A   1      40.059  28.758  29.067  1.00  0.00     0.031 A 
ATOM     52  C   UNL A   1      46.450  28.309  30.247  1.00  0.00     0.049 A 
ATOM     53  C   UNL A   1      41.066  29.704  29.653  1.00  0.00     0.074 A 
ATOM     54  C   UNL A   1      47.296  29.283  30.747  1.00  0.00     0.029 A 
ATOM     55  N   UNL A   1      45.180  28.863  30.205  1.00  0.00    -0.354 N 
ATOM     56  N   UNL A   1      42.351  29.528  29.839  1.00  0.00    -0.248 NA
ATOM     57  C   UNL A   1      40.567  31.017  30.085  1.00  0.00     0.031 C 
ATOM     58  C   UNL A   1      46.532  30.420  31.034  1.00  0.00     0.029 A 
ATOM     59  C   UNL A   1      45.217  30.161  30.682  1.00  0.00     0.049 A 
ATOM     60  H   UNL A   1      44.373  28.400  29.882  1.00  0.00     0.167 HD
ATOM     61  C   UNL A   1      42.818  30.711  30.393  1.00  0.00     0.074 A 
ATOM     62  C   UNL A   1      41.682  31.604  30.501  1.00  0.00     0.031 C 
ATOM     63  C   UNL A   1      44.076  31.031  30.778  1.00  0.00     0.031 A 
BRANCH  50  64
ATOM     64  C   UNL A   1      48.175  26.479  30.020  1.00  0.00    -0.014 A 
ATOM     65  C   UNL A   1      48.563  25.837  31.207  1.00  0.00     0.009 A 
ATOM     66  C   UNL A   1      49.118  26.648  28.996  1.00  0.00     0.009 A 
ATOM     67  C   UNL A   1      49.880  25.408  31.378  1.00  0.00     0.001 A 
ATOM     68  C   UNL A   1      50.429  26.196  29.161  1.00  0.00     0.001 A 
ATOM     69  C   UNL A   1      50.811  25.586  30.355  1.00  0.00     0.000 A 
ENDBRANCH  50  64
BRANCH  51  70
ATOM     70  C   UNL A   1      38.634  29.156  28.940  1.00  0.00    -0.014 A 
ATOM     71  C   UNL A   1      38.156  29.683  27.731  1.00  0.00     0.009 A 
ATOM     72  C   UNL A   1      37.751  29.018  30.021  1.00  0.00     0.009 A 
ATOM     73  C   UNL A   1      36.823  30.086  27.614  1.00  0.00     0.001 A 
ATOM     74  C   UNL A   1      36.414  29.401  29.894  1.00  0.00     0.001 A 
ATOM     75  C   UNL A   1      35.953  29.941  28.694  1.00  0.00     0.000 A 
ENDBRANCH  51  70
BRANCH  63  76
ATOM     76  C   UNL A   1      44.294  32.409  31.329  1.00  0.00    -0.014 A 
ATOM     77  C   UNL A   1      44.209  32.656  32.707  1.00  0.00     0.009 A 
ATOM     78  C   UNL A   1      44.639  33.458  30.464  1.00  0.00     0.009 A 
ATOM     79  C   UNL A   1      44.446  33.939  33.206  1.00  0.00     0.001 A 
ATOM     80  C   UNL A   1      44.895  34.734  30.968  1.00  0.00     0.001 A 
ATOM     81  C   UNL A   1      44.793  34.973  32.338  1.00  0.00     0.000 A 
ENDBRANCH  63  76
ENDBRANCH  37  38
ENDBRANCH  29  32
ENDBRANCH  27  28
ENDBRANCH  26  27
ENDBRANCH   1  26
TORSDOF 15
ENDMDL
MODEL 3
REMARK VINA RESULT:     -10.9      2.450      6.970
REMARK SMILES CC[NH2+][C@@]1(C(=O)NCCCCNC(=O)c2ccc(-c3c4nc(c(-c5ccccc5)c5ccc([nH]5)c(-c5ccccc5)c5nc(c(-c6ccccc6)c6ccc3[nH]6)C=C5)C=C4)cc2)CCC[C@@H](Sc2ncc(C)cn2)C1
REMARK SMILES IDX 9 1 8 2 7 3 5 4 6 5 4 7 63 8 75 9 64 10 66 11 65 12 3 13
REMARK SMILES IDX 2 16 1 17 67 18 68 19 69 20 74 21 70 22 73 23 71 24 72 25
REMARK SMILES IDX 10 26 11 27 12 28 13 29 14 31 15 32 16 33 62 34 17 35 61 36
REMARK SMILES IDX 18 37 19 38 20 39 55 40 21 41 60 42 54 43 56 44 22 45 59 46
REMARK SMILES IDX 53 47 52 48 23 50 45 51 30 52 44 53 31 54 34 55 43 56 57 57
REMARK SMILES IDX 32 58 33 59 42 61 58 62 35 63 24 64 25 65 29 66 26 67 28 68
REMARK SMILES IDX 27 69 46 70 47 71 51 72 48 73 50 74 49 75 36 76 37 77 41 78
REMARK SMILES IDX 38 79 40 80 39 81
REMARK H PARENT 7 6 3 14 3 15 12 30 56 49 34 60
REMARK Flexibility Score: inf
ROOT
ATOM      1  C   UNL A   1      37.151  22.779  24.783  1.00  0.00     0.023 C 
ENDROOT
BRANCH   1   2
ATOM      2  C   UNL A   1      35.946  23.434  25.465  1.00  0.00     0.116 C 
BRANCH   2   3
ATOM      3  N   UNL A   1      35.464  22.639  26.569  1.00  0.00    -0.351 N 
ATOM      4  C   UNL A   1      34.393  21.840  26.776  1.00  0.00     0.281 C 
ATOM      5  O   UNL A   1      34.297  21.453  27.955  1.00  0.00    -0.268 OA
ATOM      6  H   UNL A   1      36.054  22.690  27.356  1.00  0.00     0.163 HD
BRANCH   4   7
ATOM      7  C   UNL A   1      33.248  21.436  25.726  1.00  0.00     0.176 C 
ATOM      8  C   UNL A   1      33.703  21.414  24.244  1.00  0.00     0.079 C 
ATOM      9  C   UNL A   1      32.012  22.317  26.023  1.00  0.00     0.094 C 
ATOM     10  C   UNL A   1      33.279  22.561  23.314  1.00  0.00     0.008 C 
ATOM     11  C   UNL A   1      31.987  23.606  25.212  1.00  0.00     0.061 C 
ATOM     12  C   UNL A   1      32.017  23.313  23.716  1.00  0.00     0.015 C 
BRANCH   7  13
ATOM     13  N   UNL A   1      32.995  19.999  26.117  1.00  0.00    -0.334 N 
ATOM     14  H   UNL A   1      33.755  19.727  26.740  1.00  0.00     0.347 HD
ATOM     15  H   UNL A   1      32.053  20.026  26.507  1.00  0.00     0.347 HD
BRANCH  13  16
ATOM     16  C   UNL A   1      32.902  18.971  25.092  1.00  0.00     0.257 C 
ATOM     17  C   UNL A   1      32.528  17.646  25.751  1.00  0.00     0.071 C 
ENDBRANCH  13  16
ENDBRANCH   7  13
BRANCH  11  18
ATOM     18  S   UNL A   1      30.649  24.741  25.746  1.00  0.00    -0.083 SA
BRANCH  18  19
ATOM     19  C   UNL A   1      31.586  26.189  26.126  1.00  0.00     0.187 A 
ATOM     20  N   UNL A   1      32.807  26.308  25.585  1.00  0.00    -0.231 NA
ATOM     21  N   UNL A   1      31.035  27.056  26.991  1.00  0.00    -0.231 NA
ATOM     22  C   UNL A   1      33.520  27.387  25.958  1.00  0.00     0.119 A 
ATOM     23  C   UNL A   1      31.788  28.117  27.328  1.00  0.00     0.119 A 
ATOM     24  C   UNL A   1      33.063  28.334  26.848  1.00  0.00    -0.014 A 
ATOM     25  C   UNL A   1      33.867  29.519  27.253  1.00  0.00     0.048 C 
ENDBRANCH  18  19
ENDBRANCH  11  18
ENDBRANCH   4   7
ENDBRANCH   2   3
ENDBRANCH   1   2
BRANCH   1  26
ATOM     26  C   UNL A   1      37.535  21.410  25.331  1.00  0.00     0.023 C 
BRANCH  26  27
ATOM     27  C   UNL A   1      38.934  21.331  25.931  1.00  0.00     0.116 C 
BRANCH  27  28
ATOM     28  N   UNL A   1      39.589  20.038  25.778  1.00  0.00    -0.352 N 
ATOM     29  C   UNL A   1      40.921  19.744  25.977  1.00  0.00     0.251 C 
ATOM     30  H   UNL A   1      39.014  19.288  25.501  1.00  0.00     0.163 HD
ATOM     31  O   UNL A   1      41.365  18.621  25.789  1.00  0.00    -0.269 OA
BRANCH  29  32
ATOM     32  C   UNL A   1      41.816  20.851  26.367  1.00  0.00     0.039 A 
ATOM     33  C   UNL A   1      42.284  21.715  25.376  1.00  0.00     0.014 A 
ATOM     34  C   UNL A   1      42.039  21.118  27.720  1.00  0.00     0.014 A 
ATOM     35  C   UNL A   1      42.887  22.916  25.749  1.00  0.00     0.010 A 
ATOM     36  C   UNL A   1      42.569  22.348  28.087  1.00  0.00     0.010 A 
ATOM     37  C   UNL A   1      42.975  23.267  27.106  1.00  0.00    -0.014 A 
BRANCH  37  38
ATOM     38  C   UNL A   1      43.450  24.606  27.532  1.00  0.00     0.031 A 
ATOM     39  C   UNL A   1      42.460  25.650  27.961  1.00  0.00     0.074 A 
ATOM     40  C   UNL A   1      44.757  24.917  27.425  1.00  0.00     0.049 A 
ATOM     41  N   UNL A   1      42.661  26.912  28.237  1.00  0.00    -0.248 NA
ATOM     42  C   UNL A   1      41.054  25.225  28.056  1.00  0.00     0.031 C 
ATOM     43  C   UNL A   1      45.816  24.011  26.967  1.00  0.00     0.029 A 
ATOM     44  N   UNL A   1      45.417  26.093  27.681  1.00  0.00    -0.354 N 
ATOM     45  C   UNL A   1      41.405  27.440  28.502  1.00  0.00     0.074 A 
ATOM     46  C   UNL A   1      40.446  26.372  28.320  1.00  0.00     0.031 C 
ATOM     47  C   UNL A   1      46.993  24.658  27.000  1.00  0.00     0.029 A 
ATOM     48  C   UNL A   1      46.769  26.030  27.443  1.00  0.00     0.049 A 
ATOM     49  H   UNL A   1      44.964  26.904  28.005  1.00  0.00     0.167 HD
ATOM     50  C   UNL A   1      41.078  28.698  28.879  1.00  0.00     0.031 A 
ATOM     51  C   UNL A   1      47.720  26.976  27.558  1.00  0.00     0.031 A 
ATOM     52  C   UNL A   1      42.031  29.750  29.100  1.00  0.00     0.049 A 
ATOM     53  C   UNL A   1      47.336  28.356  28.007  1.00  0.00     0.074 A 
ATOM     54  C   UNL A   1      41.805  31.035  29.562  1.00  0.00     0.029 A 
ATOM     55  N   UNL A   1      43.394  29.635  28.881  1.00  0.00    -0.354 N 
ATOM     56  N   UNL A   1      46.151  28.823  28.312  1.00  0.00    -0.248 NA
ATOM     57  C   UNL A   1      48.423  29.338  28.130  1.00  0.00     0.031 C 
ATOM     58  C   UNL A   1      43.031  31.708  29.596  1.00  0.00     0.029 A 
ATOM     59  C   UNL A   1      44.022  30.830  29.185  1.00  0.00     0.049 A 
ATOM     60  H   UNL A   1      43.848  28.823  28.558  1.00  0.00     0.167 HD
ATOM     61  C   UNL A   1      46.349  30.146  28.680  1.00  0.00     0.074 A 
ATOM     62  C   UNL A   1      47.771  30.405  28.572  1.00  0.00     0.031 C 
ATOM     63  C   UNL A   1      45.436  31.066  29.073  1.00  0.00     0.031 A 
BRANCH  50  64
ATOM     64  C   UNL A   1      39.621  28.996  29.074  1.00  0.00    -0.014 A 
ATOM     65  C   UNL A   1      39.007  28.819  30.325  1.00  0.00     0.009 A 
ATOM     66  C   UNL A   1      38.856  29.471  27.999  1.00  0.00     0.009 A 
ATOM     67  C   UNL A   1      37.645  29.075  30.484  1.00  0.00     0.001 A 
ATOM     68  C   UNL A   1      37.498  29.751  28.168  1.00  0.00     0.001 A 
ATOM     69  C   UNL A   1      36.892  29.543  29.406  1.00  0.00     0.000 A 
ENDBRANCH  50  64
BRANCH  51  70
ATOM     70  C   UNL A   1      49.137  26.646  27.260  1.00  0.00    -0.014 A 
ATOM     71  C   UNL A   1      49.621  26.744  25.946  1.00  0.00     0.009 A 
ATOM     72  C   UNL A   1      50.006  26.229  28.278  1.00  0.00     0.009 A 
ATOM     73  C   UNL A   1      50.945  26.408  25.655  1.00  0.00     0.001 A 
ATOM     74  C   UNL A   1      51.335  25.915  27.986  1.00  0.00     0.001 A 
ATOM     75  C   UNL A   1      51.802  25.997  26.675  1.00  0.00     0.000 A 
ENDBRANCH  51  70
BRANCH  63  76
ATOM     76  C   UNL A   1      45.948  32.428  29.437  1.00  0.00    -0.014 A 
ATOM     77  C   UNL A   1      46.017  33.451  28.480  1.00  0.00     0.009 A 
ATOM     78  C   UNL A   1      46.316  32.702  30.762  1.00  0.00     0.009 A 
ATOM     79  C   UNL A   1      46.466  34.722  28.843  1.00  0.00     0.001 A 
ATOM     80  C   UNL A   1      46.746  33.979  31.125  1.00  0.00     0.001 A 
ATOM     81  C   UNL A   1      46.825  34.986  30.164  1.00  0.00     0.000 A 
ENDBRANCH  63  76
ENDBRANCH  37  38
ENDBRANCH  29  32
ENDBRANCH  27  28
ENDBRANCH  26  27
ENDBRANCH   1  26
TORSDOF 15
ENDMDL
