MODEL 1
REMARK VINA RESULT:     -11.6      0.000      0.000
REMARK SMILES C[C@]12CCC(=O)N1[C@@H](C(=O)N1C[C@H](O)C[C@@H]1C(=O)NCCCCNC(=O)c1ccc(-c3c4nc(c(-c5ccccc5)c5ccc([nH]5)c(-c5ccccc5)c5nc(c(-c6ccccc6)c6ccc3[nH]6)C=C5)C=C4)cc1)CS2
REMARK SMILES IDX 21 1 20 2 19 3 17 4 18 5 16 7 11 8 12 9 13 10 15 11 9 12
REMARK SMILES IDX 10 13 8 14 1 15 2 16 3 17 7 18 76 19 4 20 5 21 75 22 6 23
REMARK SMILES IDX 14 24 22 26 23 27 24 28 25 29 26 31 27 32 28 33 74 34 29 35
REMARK SMILES IDX 73 36 30 37 31 38 32 39 67 40 33 41 72 42 66 43 68 44 34 45
REMARK SMILES IDX 71 46 65 47 64 48 35 50 57 51 42 52 56 53 43 54 46 55 55 56
REMARK SMILES IDX 69 57 44 58 45 59 54 61 70 62 47 63 36 64 37 65 41 66 38 67
REMARK SMILES IDX 40 68 39 69 58 70 59 71 63 72 60 73 62 74 61 75 48 76 49 77
REMARK SMILES IDX 53 78 50 79 52 80 51 81
REMARK H PARENT 19 6 14 25 24 30 68 49 46 60
REMARK Flexibility Score: inf
ROOT
ATOM      1  C   UNL A   1      37.060  21.191  24.417  1.00  0.00     0.023 C 
ENDROOT
BRANCH   1   2
ATOM      2  C   UNL A   1      36.799  22.333  25.397  1.00  0.00     0.116 C 
BRANCH   2   3
ATOM      3  N   UNL A   1      35.935  21.951  26.500  1.00  0.00    -0.354 N 
ATOM      4  C   UNL A   1      34.570  21.855  26.540  1.00  0.00     0.242 C 
ATOM      5  O   UNL A   1      34.039  21.453  27.577  1.00  0.00    -0.273 OA
ATOM      6  H   UNL A   1      36.397  21.728  27.341  1.00  0.00     0.163 HD
BRANCH   4   7
ATOM      7  C   UNL A   1      33.743  22.250  25.295  1.00  0.00     0.177 C 
ATOM      8  N   UNL A   1      32.374  22.663  25.653  1.00  0.00    -0.326 N 
ATOM      9  C   UNL A   1      31.413  21.627  25.282  1.00  0.00     0.152 C 
ATOM     10  C   UNL A   1      32.254  20.411  24.917  1.00  0.00     0.136 C 
ATOM     11  C   UNL A   1      33.551  21.021  24.399  1.00  0.00     0.069 C 
BRANCH   8  12
ATOM     12  C   UNL A   1      31.876  23.888  26.044  1.00  0.00     0.247 C 
ATOM     13  O   UNL A   1      31.704  24.128  27.248  1.00  0.00    -0.272 OA
BRANCH  12  14
ATOM     14  C   UNL A   1      31.386  24.935  25.021  1.00  0.00     0.186 C 
ATOM     15  C   UNL A   1      31.568  26.087  22.030  1.00  0.00     0.047 C 
ATOM     16  C   UNL A   1      31.867  26.693  23.402  1.00  0.00     0.087 C 
ATOM     17  C   UNL A   1      32.908  27.806  23.301  1.00  0.00     0.049 C 
ATOM     18  N   UNL A   1      32.401  25.736  24.330  1.00  0.00    -0.315 N 
ATOM     19  S   UNL A   1      30.288  27.226  24.170  1.00  0.00    -0.131 SA
ATOM     20  C   UNL A   1      33.923  27.526  24.396  1.00  0.00     0.103 C 
ATOM     21  C   UNL A   1      33.591  26.152  24.896  1.00  0.00     0.224 C 
ATOM     22  C   UNL A   1      30.255  25.877  25.413  1.00  0.00     0.107 C 
ATOM     23  O   UNL A   1      34.248  25.577  25.751  1.00  0.00    -0.275 OA
ENDBRANCH  12  14
ENDBRANCH   8  12
BRANCH  10  24
ATOM     24  O   UNL A   1      32.522  19.595  26.056  1.00  0.00    -0.391 OA
ATOM     25  H   UNL A   1      33.443  19.293  26.026  1.00  0.00     0.211 HD
ENDBRANCH  10  24
ENDBRANCH   4   7
ENDBRANCH   2   3
ENDBRANCH   1   2
BRANCH   1  26
ATOM     26  C   UNL A   1      37.757  19.958  25.002  1.00  0.00     0.023 C 
BRANCH  26  27
ATOM     27  C   UNL A   1      38.962  20.229  25.901  1.00  0.00     0.116 C 
BRANCH  27  28
ATOM     28  N   UNL A   1      39.994  19.211  25.812  1.00  0.00    -0.352 N 
ATOM     29  C   UNL A   1      41.354  19.325  25.986  1.00  0.00     0.251 C 
ATOM     30  H   UNL A   1      39.674  18.306  25.593  1.00  0.00     0.163 HD
ATOM     31  O   UNL A   1      42.074  18.352  25.777  1.00  0.00    -0.269 OA
BRANCH  29  32
ATOM     32  C   UNL A   1      41.965  20.615  26.382  1.00  0.00     0.039 A 
ATOM     33  C   UNL A   1      42.360  21.504  25.376  1.00  0.00     0.014 A 
ATOM     34  C   UNL A   1      42.172  20.950  27.723  1.00  0.00     0.014 A 
ATOM     35  C   UNL A   1      42.892  22.752  25.712  1.00  0.00     0.010 A 
ATOM     36  C   UNL A   1      42.656  22.216  28.059  1.00  0.00     0.010 A 
ATOM     37  C   UNL A   1      43.011  23.132  27.057  1.00  0.00    -0.014 A 
BRANCH  37  38
ATOM     38  C   UNL A   1      43.484  24.489  27.434  1.00  0.00     0.031 A 
ATOM     39  C   UNL A   1      42.509  25.544  27.874  1.00  0.00     0.074 A 
ATOM     40  C   UNL A   1      44.790  24.796  27.311  1.00  0.00     0.049 A 
ATOM     41  N   UNL A   1      42.729  26.803  28.162  1.00  0.00    -0.248 NA
ATOM     42  C   UNL A   1      41.099  25.138  27.987  1.00  0.00     0.031 C 
ATOM     43  C   UNL A   1      45.839  23.879  26.861  1.00  0.00     0.029 A 
ATOM     44  N   UNL A   1      45.456  25.974  27.544  1.00  0.00    -0.354 N 
ATOM     45  C   UNL A   1      41.486  27.345  28.464  1.00  0.00     0.074 A 
ATOM     46  C   UNL A   1      40.513  26.287  28.300  1.00  0.00     0.031 C 
ATOM     47  C   UNL A   1      47.017  24.524  26.864  1.00  0.00     0.029 A 
ATOM     48  C   UNL A   1      46.803  25.906  27.285  1.00  0.00     0.049 A 
ATOM     49  H   UNL A   1      45.009  26.791  27.865  1.00  0.00     0.167 HD
ATOM     50  C   UNL A   1      41.183  28.606  28.852  1.00  0.00     0.031 A 
ATOM     51  C   UNL A   1      47.759  26.849  27.370  1.00  0.00     0.031 A 
ATOM     52  C   UNL A   1      42.145  29.658  29.042  1.00  0.00     0.049 A 
ATOM     53  C   UNL A   1      47.398  28.235  27.820  1.00  0.00     0.074 A 
ATOM     54  C   UNL A   1      41.932  30.951  29.490  1.00  0.00     0.029 A 
ATOM     55  N   UNL A   1      43.502  29.537  28.797  1.00  0.00    -0.354 N 
ATOM     56  N   UNL A   1      46.225  28.714  28.152  1.00  0.00    -0.248 NA
ATOM     57  C   UNL A   1      48.497  29.208  27.914  1.00  0.00     0.031 C 
ATOM     58  C   UNL A   1      43.160  31.623  29.489  1.00  0.00     0.029 A 
ATOM     59  C   UNL A   1      44.139  30.736  29.074  1.00  0.00     0.049 A 
ATOM     60  H   UNL A   1      43.949  28.721  28.476  1.00  0.00     0.167 HD
ATOM     61  C   UNL A   1      46.447  30.035  28.517  1.00  0.00     0.074 A 
ATOM     62  C   UNL A   1      47.868  30.279  28.376  1.00  0.00     0.031 C 
ATOM     63  C   UNL A   1      45.553  30.962  28.935  1.00  0.00     0.031 A 
BRANCH  50  64
ATOM     64  C   UNL A   1      39.736  28.922  29.098  1.00  0.00    -0.014 A 
ATOM     65  C   UNL A   1      38.911  29.387  28.062  1.00  0.00     0.009 A 
ATOM     66  C   UNL A   1      39.181  28.712  30.370  1.00  0.00     0.009 A 
ATOM     67  C   UNL A   1      37.564  29.663  28.302  1.00  0.00     0.001 A 
ATOM     68  C   UNL A   1      37.828  28.969  30.602  1.00  0.00     0.001 A 
ATOM     69  C   UNL A   1      37.023  29.452  29.570  1.00  0.00     0.000 A 
ENDBRANCH  50  64
BRANCH  51  70
ATOM     70  C   UNL A   1      49.165  26.512  27.037  1.00  0.00    -0.014 A 
ATOM     71  C   UNL A   1      49.630  26.634  25.719  1.00  0.00     0.009 A 
ATOM     72  C   UNL A   1      50.044  26.057  28.032  1.00  0.00     0.009 A 
ATOM     73  C   UNL A   1      50.943  26.284  25.398  1.00  0.00     0.001 A 
ATOM     74  C   UNL A   1      51.364  25.728  27.711  1.00  0.00     0.001 A 
ATOM     75  C   UNL A   1      51.809  25.834  26.394  1.00  0.00     0.000 A 
ENDBRANCH  51  70
BRANCH  63  76
ATOM     76  C   UNL A   1      46.090  32.315  29.302  1.00  0.00    -0.014 A 
ATOM     77  C   UNL A   1      46.132  33.356  28.364  1.00  0.00     0.009 A 
ATOM     78  C   UNL A   1      46.525  32.556  30.613  1.00  0.00     0.009 A 
ATOM     79  C   UNL A   1      46.627  34.610  28.727  1.00  0.00     0.001 A 
ATOM     80  C   UNL A   1      47.001  33.816  30.979  1.00  0.00     0.001 A 
ATOM     81  C   UNL A   1      47.058  34.839  30.033  1.00  0.00     0.000 A 
ENDBRANCH  63  76
ENDBRANCH  37  38
ENDBRANCH  29  32
ENDBRANCH  27  28
ENDBRANCH  26  27
ENDBRANCH   1  26
TORSDOF 14
ENDMDL
MODEL 2
REMARK VINA RESULT:     -11.5      1.743      6.128
REMARK SMILES C[C@]12CCC(=O)N1[C@@H](C(=O)N1C[C@H](O)C[C@@H]1C(=O)NCCCCNC(=O)c1ccc(-c3c4nc(c(-c5ccccc5)c5ccc([nH]5)c(-c5ccccc5)c5nc(c(-c6ccccc6)c6ccc3[nH]6)C=C5)C=C4)cc1)CS2
REMARK SMILES IDX 21 1 20 2 19 3 17 4 18 5 16 7 11 8 12 9 13 10 15 11 9 12
REMARK SMILES IDX 10 13 8 14 1 15 2 16 3 17 7 18 76 19 4 20 5 21 75 22 6 23
REMARK SMILES IDX 14 24 22 26 23 27 24 28 25 29 26 31 27 32 28 33 74 34 29 35
REMARK SMILES IDX 73 36 30 37 31 38 32 39 67 40 33 41 72 42 66 43 68 44 34 45
REMARK SMILES IDX 71 46 65 47 64 48 35 50 57 51 42 52 56 53 43 54 46 55 55 56
REMARK SMILES IDX 69 57 44 58 45 59 54 61 70 62 47 63 36 64 37 65 41 66 38 67
REMARK SMILES IDX 40 68 39 69 58 70 59 71 63 72 60 73 62 74 61 75 48 76 49 77
REMARK SMILES IDX 53 78 50 79 52 80 51 81
REMARK H PARENT 19 6 14 25 24 30 68 49 46 60
REMARK Flexibility Score: inf
ROOT
ATOM      1  C   UNL A   1      36.277  20.806  24.723  1.00  0.00     0.023 C 
ENDROOT
BRANCH   1   2
ATOM      2  C   UNL A   1      34.884  20.343  25.146  1.00  0.00     0.116 C 
BRANCH   2   3
ATOM      3  N   UNL A   1      34.482  20.861  26.442  1.00  0.00    -0.354 N 
ATOM      4  C   UNL A   1      33.580  21.847  26.740  1.00  0.00     0.242 C 
ATOM      5  O   UNL A   1      33.347  22.091  27.926  1.00  0.00    -0.273 OA
ATOM      6  H   UNL A   1      34.921  20.443  27.218  1.00  0.00     0.163 HD
BRANCH   4   7
ATOM      7  C   UNL A   1      32.886  22.615  25.593  1.00  0.00     0.177 C 
ATOM      8  N   UNL A   1      32.737  24.049  25.903  1.00  0.00    -0.326 N 
ATOM      9  C   UNL A   1      31.346  24.363  26.216  1.00  0.00     0.152 C 
ATOM     10  C   UNL A   1      30.651  23.015  26.361  1.00  0.00     0.136 C 
ATOM     11  C   UNL A   1      31.448  22.107  25.434  1.00  0.00     0.069 C 
BRANCH   8  12
ATOM     12  C   UNL A   1      33.608  25.104  25.727  1.00  0.00     0.247 C 
ATOM     13  O   UNL A   1      34.831  24.912  25.806  1.00  0.00    -0.272 OA
BRANCH  12  14
ATOM     14  C   UNL A   1      33.112  26.557  25.572  1.00  0.00     0.186 C 
ATOM     15  C   UNL A   1      30.863  28.541  24.424  1.00  0.00     0.047 C 
ATOM     16  C   UNL A   1      32.361  28.394  24.155  1.00  0.00     0.087 C 
ATOM     17  C   UNL A   1      32.725  28.891  22.758  1.00  0.00     0.049 C 
ATOM     18  N   UNL A   1      32.809  27.030  24.218  1.00  0.00    -0.315 N 
ATOM     19  S   UNL A   1      33.288  29.230  25.501  1.00  0.00    -0.131 SA
ATOM     20  C   UNL A   1      33.602  27.811  22.148  1.00  0.00     0.103 C 
ATOM     21  C   UNL A   1      33.491  26.642  23.080  1.00  0.00     0.224 C 
ATOM     22  C   UNL A   1      33.862  27.673  26.285  1.00  0.00     0.107 C 
ATOM     23  O   UNL A   1      34.029  25.566  22.868  1.00  0.00    -0.275 OA
ENDBRANCH  12  14
ENDBRANCH   8  12
BRANCH  10  24
ATOM     24  O   UNL A   1      30.725  22.527  27.700  1.00  0.00    -0.391 OA
ATOM     25  H   UNL A   1      30.180  21.729  27.782  1.00  0.00     0.211 HD
ENDBRANCH  10  24
ENDBRANCH   4   7
ENDBRANCH   2   3
ENDBRANCH   1   2
BRANCH   1  26
ATOM     26  C   UNL A   1      37.408  19.792  24.932  1.00  0.00     0.023 C 
BRANCH  26  27
ATOM     27  C   UNL A   1      38.630  20.295  25.697  1.00  0.00     0.116 C 
BRANCH  27  28
ATOM     28  N   UNL A   1      39.748  19.367  25.682  1.00  0.00    -0.352 N 
ATOM     29  C   UNL A   1      41.060  19.572  26.039  1.00  0.00     0.251 C 
ATOM     30  H   UNL A   1      39.535  18.459  25.369  1.00  0.00     0.163 HD
ATOM     31  O   UNL A   1      41.881  18.674  25.868  1.00  0.00    -0.269 OA
BRANCH  29  32
ATOM     32  C   UNL A   1      41.506  20.873  26.590  1.00  0.00     0.039 A 
ATOM     33  C   UNL A   1      42.033  21.825  25.709  1.00  0.00     0.014 A 
ATOM     34  C   UNL A   1      41.432  21.158  27.956  1.00  0.00     0.014 A 
ATOM     35  C   UNL A   1      42.415  23.083  26.184  1.00  0.00     0.010 A 
ATOM     36  C   UNL A   1      41.765  22.432  28.422  1.00  0.00     0.010 A 
ATOM     37  C   UNL A   1      42.251  23.409  27.539  1.00  0.00    -0.014 A 
BRANCH  37  38
ATOM     38  C   UNL A   1      42.560  24.771  28.046  1.00  0.00     0.031 A 
ATOM     39  C   UNL A   1      43.954  25.126  28.481  1.00  0.00     0.074 A 
ATOM     40  C   UNL A   1      41.567  25.670  28.184  1.00  0.00     0.049 A 
ATOM     41  N   UNL A   1      44.392  26.235  29.025  1.00  0.00    -0.248 NA
ATOM     42  C   UNL A   1      44.988  24.094  28.302  1.00  0.00     0.031 C 
ATOM     43  C   UNL A   1      40.163  25.447  27.836  1.00  0.00     0.029 A 
ATOM     44  N   UNL A   1      41.589  26.956  28.668  1.00  0.00    -0.354 N 
ATOM     45  C   UNL A   1      45.742  26.026  29.275  1.00  0.00     0.074 A 
ATOM     46  C   UNL A   1      46.047  24.678  28.848  1.00  0.00     0.031 C 
ATOM     47  C   UNL A   1      39.461  26.559  28.103  1.00  0.00     0.029 A 
ATOM     48  C   UNL A   1      40.357  27.564  28.670  1.00  0.00     0.049 A 
ATOM     49  H   UNL A   1      42.409  27.398  28.984  1.00  0.00     0.167 HD
ATOM     50  C   UNL A   1      46.649  26.883  29.802  1.00  0.00     0.031 A 
ATOM     51  C   UNL A   1      39.986  28.788  29.087  1.00  0.00     0.031 A 
ATOM     52  C   UNL A   1      46.361  28.233  30.205  1.00  0.00     0.049 A 
ATOM     53  C   UNL A   1      41.015  29.724  29.652  1.00  0.00     0.074 A 
ATOM     54  C   UNL A   1      47.233  29.190  30.697  1.00  0.00     0.029 A 
ATOM     55  N   UNL A   1      45.107  28.817  30.162  1.00  0.00    -0.354 N 
ATOM     56  N   UNL A   1      42.298  29.527  29.831  1.00  0.00    -0.248 NA
ATOM     57  C   UNL A   1      40.545  31.055  30.064  1.00  0.00     0.031 C 
ATOM     58  C   UNL A   1      46.499  30.348  30.978  1.00  0.00     0.029 A 
ATOM     59  C   UNL A   1      45.179  30.119  30.629  1.00  0.00     0.049 A 
ATOM     60  H   UNL A   1      44.287  28.374  29.846  1.00  0.00     0.167 HD
ATOM     61  C   UNL A   1      42.792  30.715  30.353  1.00  0.00     0.074 A 
ATOM     62  C   UNL A   1      41.674  31.630  30.453  1.00  0.00     0.031 C 
ATOM     63  C   UNL A   1      44.060  31.020  30.716  1.00  0.00     0.031 A 
BRANCH  50  64
ATOM     64  C   UNL A   1      48.052  26.378  29.977  1.00  0.00    -0.014 A 
ATOM     65  C   UNL A   1      49.006  26.525  28.958  1.00  0.00     0.009 A 
ATOM     66  C   UNL A   1      48.434  25.785  31.190  1.00  0.00     0.009 A 
ATOM     67  C   UNL A   1      50.311  26.063  29.141  1.00  0.00     0.001 A 
ATOM     68  C   UNL A   1      49.745  25.343  31.378  1.00  0.00     0.001 A 
ATOM     69  C   UNL A   1      50.680  25.475  30.351  1.00  0.00     0.000 A 
ENDBRANCH  50  64
BRANCH  51  70
ATOM     70  C   UNL A   1      38.570  29.214  28.971  1.00  0.00    -0.014 A 
ATOM     71  C   UNL A   1      38.078  29.712  27.755  1.00  0.00     0.009 A 
ATOM     72  C   UNL A   1      37.708  29.135  30.075  1.00  0.00     0.009 A 
ATOM     73  C   UNL A   1      36.754  30.147  27.654  1.00  0.00     0.001 A 
ATOM     74  C   UNL A   1      36.379  29.550  29.964  1.00  0.00     0.001 A 
ATOM     75  C   UNL A   1      35.906  30.062  28.757  1.00  0.00     0.000 A 
ENDBRANCH  51  70
BRANCH  63  76
ATOM     76  C   UNL A   1      44.312  32.411  31.221  1.00  0.00    -0.014 A 
ATOM     77  C   UNL A   1      44.240  32.709  32.589  1.00  0.00     0.009 A 
ATOM     78  C   UNL A   1      44.661  33.425  30.316  1.00  0.00     0.009 A 
ATOM     79  C   UNL A   1      44.486  34.007  33.040  1.00  0.00     0.001 A 
ATOM     80  C   UNL A   1      44.927  34.717  30.772  1.00  0.00     0.001 A 
ATOM     81  C   UNL A   1      44.831  35.008  32.132  1.00  0.00     0.000 A 
ENDBRANCH  63  76
ENDBRANCH  37  38
ENDBRANCH  29  32
ENDBRANCH  27  28
ENDBRANCH  26  27
ENDBRANCH   1  26
TORSDOF 14
ENDMDL
MODEL 3
REMARK VINA RESULT:     -11.5      4.554      9.563
REMARK SMILES C[C@]12CCC(=O)N1[C@@H](C(=O)N1C[C@H](O)C[C@@H]1C(=O)NCCCCNC(=O)c1ccc(-c3c4nc(c(-c5ccccc5)c5ccc([nH]5)c(-c5ccccc5)c5nc(c(-c6ccccc6)c6ccc3[nH]6)C=C5)C=C4)cc1)CS2
REMARK SMILES IDX 21 1 20 2 19 3 17 4 18 5 16 7 11 8 12 9 13 10 15 11 9 12
REMARK SMILES IDX 10 13 8 14 1 15 2 16 3 17 7 18 76 19 4 20 5 21 75 22 6 23
REMARK SMILES IDX 14 24 22 26 23 27 24 28 25 29 26 31 27 32 28 33 74 34 29 35
REMARK SMILES IDX 73 36 30 37 31 38 32 39 67 40 33 41 72 42 66 43 68 44 34 45
REMARK SMILES IDX 71 46 65 47 64 48 35 50 57 51 42 52 56 53 43 54 46 55 55 56
REMARK SMILES IDX 69 57 44 58 45 59 54 61 70 62 47 63 36 64 37 65 41 66 38 67
REMARK SMILES IDX 40 68 39 69 58 70 59 71 63 72 60 73 62 74 61 75 48 76 49 77
REMARK SMILES IDX 53 78 50 79 52 80 51 81
REMARK H PARENT 19 6 14 25 24 30 68 49 46 60
REMARK Flexibility Score: inf
ROOT
ATOM      1  C   UNL A   1      31.666  30.123  26.614  1.00  0.00     0.023 C 
ENDROOT
BRANCH   1   2
ATOM      2  C   UNL A   1      33.023  29.487  26.318  1.00  0.00     0.116 C 
BRANCH   2   3
ATOM      3  N   UNL A   1      33.418  29.609  24.926  1.00  0.00    -0.354 N 
ATOM      4  C   UNL A   1      33.007  28.881  23.842  1.00  0.00     0.242 C 
ATOM      5  O   UNL A   1      33.435  29.194  22.728  1.00  0.00    -0.273 OA
ATOM      6  H   UNL A   1      34.076  30.316  24.735  1.00  0.00     0.163 HD
BRANCH   4   7
ATOM      7  C   UNL A   1      32.029  27.702  24.043  1.00  0.00     0.177 C 
ATOM      8  N   UNL A   1      32.136  26.708  22.958  1.00  0.00    -0.326 N 
ATOM      9  C   UNL A   1      30.981  26.795  22.069  1.00  0.00     0.152 C 
ATOM     10  C   UNL A   1      30.259  28.074  22.471  1.00  0.00     0.136 C 
ATOM     11  C   UNL A   1      30.587  28.214  23.952  1.00  0.00     0.069 C 
BRANCH   8  12
ATOM     12  C   UNL A   1      32.985  25.632  22.804  1.00  0.00     0.247 C 
ATOM     13  O   UNL A   1      33.997  25.742  22.098  1.00  0.00    -0.272 OA
BRANCH  12  14
ATOM     14  C   UNL A   1      32.645  24.236  23.370  1.00  0.00     0.186 C 
ATOM     15  C   UNL A   1      31.070  22.522  25.581  1.00  0.00     0.047 C 
ATOM     16  C   UNL A   1      32.553  22.681  25.246  1.00  0.00     0.087 C 
ATOM     17  C   UNL A   1      33.429  22.421  26.470  1.00  0.00     0.049 C 
ATOM     18  N   UNL A   1      32.885  24.005  24.798  1.00  0.00    -0.315 N 
ATOM     19  S   UNL A   1      32.953  21.611  23.810  1.00  0.00    -0.131 SA
ATOM     20  C   UNL A   1      34.421  23.571  26.523  1.00  0.00     0.103 C 
ATOM     21  C   UNL A   1      33.922  24.567  25.520  1.00  0.00     0.224 C 
ATOM     22  C   UNL A   1      33.128  23.000  22.624  1.00  0.00     0.107 C 
ATOM     23  O   UNL A   1      34.452  25.652  25.337  1.00  0.00    -0.275 OA
ENDBRANCH  12  14
ENDBRANCH   8  12
BRANCH  10  24
ATOM     24  O   UNL A   1      30.754  29.206  21.756  1.00  0.00    -0.391 OA
ATOM     25  H   UNL A   1      31.219  28.905  20.960  1.00  0.00     0.211 HD
ENDBRANCH  10  24
ENDBRANCH   4   7
ENDBRANCH   2   3
ENDBRANCH   1   2
BRANCH   1  26
ATOM     26  C   UNL A   1      31.615  31.653  26.530  1.00  0.00     0.023 C 
BRANCH  26  27
ATOM     27  C   UNL A   1      32.822  32.398  27.094  1.00  0.00     0.116 C 
BRANCH  27  28
ATOM     28  N   UNL A   1      32.496  33.704  27.641  1.00  0.00    -0.352 N 
ATOM     29  C   UNL A   1      33.172  34.457  28.572  1.00  0.00     0.251 C 
ATOM     30  H   UNL A   1      31.668  34.108  27.296  1.00  0.00     0.163 HD
ATOM     31  O   UNL A   1      32.679  35.508  28.973  1.00  0.00    -0.269 OA
BRANCH  29  32
ATOM     32  C   UNL A   1      34.468  33.999  29.126  1.00  0.00     0.039 A 
ATOM     33  C   UNL A   1      34.455  33.182  30.263  1.00  0.00     0.014 A 
ATOM     34  C   UNL A   1      35.687  34.378  28.559  1.00  0.00     0.014 A 
ATOM     35  C   UNL A   1      35.654  32.687  30.783  1.00  0.00     0.010 A 
ATOM     36  C   UNL A   1      36.880  33.843  29.048  1.00  0.00     0.010 A 
ATOM     37  C   UNL A   1      36.875  32.986  30.158  1.00  0.00    -0.014 A 
BRANCH  37  38
ATOM     38  C   UNL A   1      38.150  32.394  30.638  1.00  0.00     0.031 A 
ATOM     39  C   UNL A   1      38.674  31.119  30.039  1.00  0.00     0.074 A 
ATOM     40  C   UNL A   1      38.803  32.967  31.667  1.00  0.00     0.049 A 
ATOM     41  N   UNL A   1      39.724  30.415  30.385  1.00  0.00    -0.248 NA
ATOM     42  C   UNL A   1      37.910  30.549  28.918  1.00  0.00     0.031 C 
ATOM     43  C   UNL A   1      38.388  34.185  32.365  1.00  0.00     0.029 A 
ATOM     44  N   UNL A   1      39.955  32.590  32.314  1.00  0.00    -0.354 N 
ATOM     45  C   UNL A   1      39.731  29.309  29.545  1.00  0.00     0.074 A 
ATOM     46  C   UNL A   1      38.570  29.421  28.689  1.00  0.00     0.031 C 
ATOM     47  C   UNL A   1      39.277  34.463  33.332  1.00  0.00     0.029 A 
ATOM     48  C   UNL A   1      40.307  33.428  33.344  1.00  0.00     0.049 A 
ATOM     49  H   UNL A   1      40.477  31.794  32.064  1.00  0.00     0.167 HD
ATOM     50  C   UNL A   1      40.629  28.297  29.483  1.00  0.00     0.031 A 
ATOM     51  C   UNL A   1      41.339  33.369  34.206  1.00  0.00     0.031 A 
ATOM     52  C   UNL A   1      41.800  28.190  30.312  1.00  0.00     0.049 A 
ATOM     53  C   UNL A   1      42.329  32.246  34.104  1.00  0.00     0.074 A 
ATOM     54  C   UNL A   1      42.795  27.227  30.278  1.00  0.00     0.029 A 
ATOM     55  N   UNL A   1      42.133  29.076  31.321  1.00  0.00    -0.354 N 
ATOM     56  N   UNL A   1      42.348  31.237  33.268  1.00  0.00    -0.248 NA
ATOM     57  C   UNL A   1      43.445  32.258  35.061  1.00  0.00     0.031 C 
ATOM     58  C   UNL A   1      43.719  27.517  31.288  1.00  0.00     0.029 A 
ATOM     59  C   UNL A   1      43.314  28.677  31.926  1.00  0.00     0.049 A 
ATOM     60  H   UNL A   1      41.611  29.872  31.572  1.00  0.00     0.167 HD
ATOM     61  C   UNL A   1      43.488  30.510  33.582  1.00  0.00     0.074 A 
ATOM     62  C   UNL A   1      44.139  31.196  34.678  1.00  0.00     0.031 C 
ATOM     63  C   UNL A   1      43.954  29.374  33.010  1.00  0.00     0.031 A 
BRANCH  50  64
ATOM     64  C   UNL A   1      40.375  27.212  28.477  1.00  0.00    -0.014 A 
ATOM     65  C   UNL A   1      40.924  27.279  27.187  1.00  0.00     0.009 A 
ATOM     66  C   UNL A   1      39.612  26.091  28.838  1.00  0.00     0.009 A 
ATOM     67  C   UNL A   1      40.690  26.255  26.267  1.00  0.00     0.001 A 
ATOM     68  C   UNL A   1      39.397  25.058  27.922  1.00  0.00     0.001 A 
ATOM     69  C   UNL A   1      39.930  25.145  26.636  1.00  0.00     0.000 A 
ENDBRANCH  50  64
BRANCH  51  70
ATOM     70  C   UNL A   1      41.503  34.422  35.239  1.00  0.00    -0.014 A 
ATOM     71  C   UNL A   1      40.886  34.287  36.491  1.00  0.00     0.009 A 
ATOM     72  C   UNL A   1      42.267  35.568  34.974  1.00  0.00     0.009 A 
ATOM     73  C   UNL A   1      41.011  35.292  37.452  1.00  0.00     0.001 A 
ATOM     74  C   UNL A   1      42.408  36.562  35.945  1.00  0.00     0.001 A 
ATOM     75  C   UNL A   1      41.774  36.427  37.179  1.00  0.00     0.000 A 
ENDBRANCH  51  70
BRANCH  63  76
ATOM     76  C   UNL A   1      45.247  28.823  33.536  1.00  0.00    -0.014 A 
ATOM     77  C   UNL A   1      45.263  27.874  34.569  1.00  0.00     0.009 A 
ATOM     78  C   UNL A   1      46.460  29.235  32.966  1.00  0.00     0.009 A 
ATOM     79  C   UNL A   1      46.476  27.367  35.039  1.00  0.00     0.001 A 
ATOM     80  C   UNL A   1      47.670  28.711  33.424  1.00  0.00     0.001 A 
ATOM     81  C   UNL A   1      47.677  27.784  34.465  1.00  0.00     0.000 A 
ENDBRANCH  63  76
ENDBRANCH  37  38
ENDBRANCH  29  32
ENDBRANCH  27  28
ENDBRANCH  26  27
ENDBRANCH   1  26
TORSDOF 14
ENDMDL
