MODEL 1
REMARK VINA RESULT:     -12.2      0.000      0.000
REMARK SMILES C[C@H](C(=O)NCCCCNC(=O)c1ccc(-c2c3nc(c(-c4ccccc4)c4ccc([nH]4)c(-c4ccccc4)c4nc(c(-c5ccccc5)c5ccc2[nH]5)C=C4)C=C3)cc1)c1ccc2c3cc(Cl)ccc3n(C(=O)c3cocn3)c2c1
REMARK SMILES IDX 7 1 6 2 5 3 3 4 4 5 2 7 1 8 61 9 62 10 81 11 63 12 80 13
REMARK SMILES IDX 64 14 72 15 65 16 71 17 66 18 70 19 67 20 69 21 68 22 73 23
REMARK SMILES IDX 74 24 75 25 76 26 79 27 77 28 78 29 8 30 9 31 10 32 11 33
REMARK SMILES IDX 12 35 13 36 14 37 60 38 15 39 59 40 16 41 17 42 18 43 53 44
REMARK SMILES IDX 19 45 58 46 52 47 54 48 20 49 57 50 51 51 50 52 21 54 43 55
REMARK SMILES IDX 28 56 42 57 29 58 32 59 41 60 55 61 30 62 31 63 40 65 56 66
REMARK SMILES IDX 33 67 22 68 23 69 27 70 24 71 26 72 25 73 44 74 45 75 49 76
REMARK SMILES IDX 46 77 48 78 47 79 34 80 35 81 39 82 36 83 38 84 37 85
REMARK H PARENT 5 6 10 34 54 53 32 64
REMARK Flexibility Score: inf
ROOT
ATOM      1  C   UNL A   1      31.029  31.377  25.863  1.00  0.00     0.023 C 
ENDROOT
BRANCH   1   2
ATOM      2  C   UNL A   1      31.772  30.062  25.631  1.00  0.00     0.116 C 
BRANCH   2   3
ATOM      3  N   UNL A   1      31.507  29.505  24.317  1.00  0.00    -0.356 N 
ATOM      4  C   UNL A   1      31.167  28.233  23.950  1.00  0.00     0.227 C 
ATOM      5  O   UNL A   1      30.999  28.014  22.749  1.00  0.00    -0.274 OA
ATOM      6  H   UNL A   1      31.586  30.145  23.572  1.00  0.00     0.163 HD
BRANCH   4   7
ATOM      7  C   UNL A   1      31.026  27.131  25.011  1.00  0.00     0.105 C 
ATOM      8  C   UNL A   1      29.745  26.323  24.772  1.00  0.00     0.023 C 
BRANCH   7   9
ATOM      9  C   UNL A   1      32.278  26.261  25.048  1.00  0.00    -0.034 A 
ATOM     10  C   UNL A   1      33.546  26.797  25.280  1.00  0.00     0.005 A 
ATOM     11  C   UNL A   1      32.141  24.870  24.921  1.00  0.00     0.032 A 
ATOM     12  C   UNL A   1      34.663  25.965  25.417  1.00  0.00     0.011 A 
ATOM     13  C   UNL A   1      33.256  24.027  25.104  1.00  0.00     0.058 A 
ATOM     14  C   UNL A   1      34.514  24.563  25.358  1.00  0.00     0.008 A 
ATOM     15  N   UNL A   1      33.353  22.625  25.154  1.00  0.00    -0.274 N 
ATOM     16  C   UNL A   1      35.424  23.478  25.486  1.00  0.00     0.009 A 
ATOM     17  C   UNL A   1      34.708  22.288  25.294  1.00  0.00     0.057 A 
ATOM     18  C   UNL A   1      36.817  23.428  25.715  1.00  0.00     0.031 A 
ATOM     19  C   UNL A   1      35.388  21.055  25.220  1.00  0.00     0.029 A 
ATOM     20  C   UNL A   1      37.471  22.199  25.695  1.00  0.00     0.041 A 
ATOM     21  C   UNL A   1      36.771  21.029  25.437  1.00  0.00     0.023 A 
ATOM     22  Cl  UNL A   1      39.171  22.141  25.959  1.00  0.00    -0.084 Cl
BRANCH  15  23
ATOM     23  C   UNL A   1      32.233  21.747  25.074  1.00  0.00     0.284 C 
ATOM     24  O   UNL A   1      31.251  22.066  25.748  1.00  0.00    -0.266 OA
BRANCH  23  25
ATOM     25  C   UNL A   1      32.187  20.494  24.323  1.00  0.00     0.167 A 
ATOM     26  C   UNL A   1      32.191  20.285  22.959  1.00  0.00     0.231 A 
ATOM     27  N   UNL A   1      32.285  19.258  24.951  1.00  0.00    -0.211 NA
ATOM     28  O   UNL A   1      32.262  18.943  22.726  1.00  0.00    -0.451 OA
ATOM     29  C   UNL A   1      32.332  18.394  23.967  1.00  0.00     0.308 A 
ENDBRANCH  23  25
ENDBRANCH  15  23
ENDBRANCH   7   9
ENDBRANCH   4   7
ENDBRANCH   2   3
ENDBRANCH   1   2
BRANCH   1  30
ATOM     30  C   UNL A   1      31.398  32.110  27.156  1.00  0.00     0.023 C 
BRANCH  30  31
ATOM     31  C   UNL A   1      32.702  32.896  27.112  1.00  0.00     0.116 C 
BRANCH  31  32
ATOM     32  N   UNL A   1      32.616  34.192  27.763  1.00  0.00    -0.352 N 
ATOM     33  C   UNL A   1      33.382  34.699  28.785  1.00  0.00     0.251 C 
ATOM     34  H   UNL A   1      31.910  34.790  27.426  1.00  0.00     0.163 HD
ATOM     35  O   UNL A   1      33.090  35.777  29.294  1.00  0.00    -0.269 OA
BRANCH  33  36
ATOM     36  C   UNL A   1      34.542  33.936  29.299  1.00  0.00     0.039 A 
ATOM     37  C   UNL A   1      35.819  34.263  28.832  1.00  0.00     0.014 A 
ATOM     38  C   UNL A   1      34.381  32.894  30.216  1.00  0.00     0.014 A 
ATOM     39  C   UNL A   1      36.935  33.576  29.315  1.00  0.00     0.010 A 
ATOM     40  C   UNL A   1      35.499  32.261  30.754  1.00  0.00     0.010 A 
ATOM     41  C   UNL A   1      36.785  32.582  30.296  1.00  0.00    -0.014 A 
BRANCH  41  42
ATOM     42  C   UNL A   1      37.958  31.837  30.818  1.00  0.00     0.031 A 
ATOM     43  C   UNL A   1      38.504  32.154  32.185  1.00  0.00     0.074 A 
ATOM     44  C   UNL A   1      38.564  30.910  30.052  1.00  0.00     0.049 A 
ATOM     45  N   UNL A   1      39.529  31.631  32.809  1.00  0.00    -0.248 NA
ATOM     46  C   UNL A   1      37.823  33.220  32.939  1.00  0.00     0.031 C 
ATOM     47  C   UNL A   1      38.162  30.534  28.696  1.00  0.00     0.029 A 
ATOM     48  N   UNL A   1      39.650  30.111  30.311  1.00  0.00    -0.354 N 
ATOM     49  C   UNL A   1      39.631  32.321  34.011  1.00  0.00     0.074 A 
ATOM     50  C   UNL A   1      38.597  33.332  34.008  1.00  0.00     0.031 C 
ATOM     51  C   UNL A   1      38.966  29.552  28.257  1.00  0.00     0.029 A 
ATOM     52  C   UNL A   1      39.957  29.252  29.285  1.00  0.00     0.049 A 
ATOM     53  H   UNL A   1      40.160  30.151  31.153  1.00  0.00     0.167 HD
ATOM     54  C   UNL A   1      40.493  32.121  35.037  1.00  0.00     0.031 A 
ATOM     55  C   UNL A   1      40.924  28.319  29.188  1.00  0.00     0.031 A 
ATOM     56  C   UNL A   1      41.506  31.100  35.053  1.00  0.00     0.049 A 
ATOM     57  C   UNL A   1      41.860  28.104  30.346  1.00  0.00     0.074 A 
ATOM     58  C   UNL A   1      42.384  30.773  36.071  1.00  0.00     0.029 A 
ATOM     59  N   UNL A   1      41.774  30.241  34.001  1.00  0.00    -0.354 N 
ATOM     60  N   UNL A   1      41.896  28.716  31.504  1.00  0.00    -0.248 NA
ATOM     61  C   UNL A   1      42.876  27.055  30.184  1.00  0.00     0.031 C 
ATOM     62  C   UNL A   1      43.214  29.742  35.617  1.00  0.00     0.029 A 
ATOM     63  C   UNL A   1      42.815  29.393  34.337  1.00  0.00     0.049 A 
ATOM     64  H   UNL A   1      41.295  30.234  33.141  1.00  0.00     0.167 HD
ATOM     65  C   UNL A   1      42.910  28.097  32.226  1.00  0.00     0.074 A 
ATOM     66  C   UNL A   1      43.458  27.061  31.375  1.00  0.00     0.031 C 
ATOM     67  C   UNL A   1      43.343  28.361  33.483  1.00  0.00     0.031 A 
BRANCH  54  68
ATOM     68  C   UNL A   1      40.376  33.039  36.222  1.00  0.00    -0.014 A 
ATOM     69  C   UNL A   1      39.484  32.768  37.272  1.00  0.00     0.009 A 
ATOM     70  C   UNL A   1      41.179  34.188  36.295  1.00  0.00     0.009 A 
ATOM     71  C   UNL A   1      39.364  33.653  38.346  1.00  0.00     0.001 A 
ATOM     72  C   UNL A   1      41.079  35.054  37.386  1.00  0.00     0.001 A 
ATOM     73  C   UNL A   1      40.163  34.794  38.403  1.00  0.00     0.000 A 
ENDBRANCH  54  68
BRANCH  55  74
ATOM     74  C   UNL A   1      41.027  27.478  27.969  1.00  0.00    -0.014 A 
ATOM     75  C   UNL A   1      41.842  27.881  26.899  1.00  0.00     0.009 A 
ATOM     76  C   UNL A   1      40.311  26.277  27.860  1.00  0.00     0.009 A 
ATOM     77  C   UNL A   1      41.917  27.113  25.735  1.00  0.00     0.001 A 
ATOM     78  C   UNL A   1      40.409  25.496  26.706  1.00  0.00     0.001 A 
ATOM     79  C   UNL A   1      41.203  25.920  25.641  1.00  0.00     0.000 A 
ENDBRANCH  55  74
BRANCH  67  80
ATOM     80  C   UNL A   1      44.426  27.477  34.035  1.00  0.00    -0.014 A 
ATOM     81  C   UNL A   1      44.129  26.281  34.705  1.00  0.00     0.009 A 
ATOM     82  C   UNL A   1      45.771  27.840  33.854  1.00  0.00     0.009 A 
ATOM     83  C   UNL A   1      45.156  25.484  35.216  1.00  0.00     0.001 A 
ATOM     84  C   UNL A   1      46.796  27.027  34.339  1.00  0.00     0.001 A 
ATOM     85  C   UNL A   1      46.488  25.856  35.029  1.00  0.00     0.000 A 
ENDBRANCH  67  80
ENDBRANCH  41  42
ENDBRANCH  33  36
ENDBRANCH  31  32
ENDBRANCH  30  31
ENDBRANCH   1  30
TORSDOF 14
ENDMDL
MODEL 2
REMARK VINA RESULT:     -11.5      1.048      5.794
REMARK SMILES C[C@H](C(=O)NCCCCNC(=O)c1ccc(-c2c3nc(c(-c4ccccc4)c4ccc([nH]4)c(-c4ccccc4)c4nc(c(-c5ccccc5)c5ccc2[nH]5)C=C4)C=C3)cc1)c1ccc2c3cc(Cl)ccc3n(C(=O)c3cocn3)c2c1
REMARK SMILES IDX 7 1 6 2 5 3 3 4 4 5 2 7 1 8 61 9 62 10 81 11 63 12 80 13
REMARK SMILES IDX 64 14 72 15 65 16 71 17 66 18 70 19 67 20 69 21 68 22 73 23
REMARK SMILES IDX 74 24 75 25 76 26 79 27 77 28 78 29 8 30 9 31 10 32 11 33
REMARK SMILES IDX 12 35 13 36 14 37 60 38 15 39 59 40 16 41 17 42 18 43 53 44
REMARK SMILES IDX 19 45 58 46 52 47 54 48 20 49 57 50 51 51 50 52 21 54 43 55
REMARK SMILES IDX 28 56 42 57 29 58 32 59 41 60 55 61 30 62 31 63 40 65 56 66
REMARK SMILES IDX 33 67 22 68 23 69 27 70 24 71 26 72 25 73 44 74 45 75 49 76
REMARK SMILES IDX 46 77 48 78 47 79 34 80 35 81 39 82 36 83 38 84 37 85
REMARK H PARENT 5 6 10 34 54 53 32 64
REMARK Flexibility Score: inf
ROOT
ATOM      1  C   UNL A   1      31.494  30.099  26.307  1.00  0.00     0.023 C 
ENDROOT
BRANCH   1   2
ATOM      2  C   UNL A   1      32.637  29.716  25.367  1.00  0.00     0.116 C 
BRANCH   2   3
ATOM      3  N   UNL A   1      32.157  29.204  24.097  1.00  0.00    -0.356 N 
ATOM      4  C   UNL A   1      31.630  27.983  23.781  1.00  0.00     0.227 C 
ATOM      5  O   UNL A   1      31.298  27.795  22.608  1.00  0.00    -0.274 OA
ATOM      6  H   UNL A   1      32.223  29.836  23.344  1.00  0.00     0.163 HD
BRANCH   4   7
ATOM      7  C   UNL A   1      31.486  26.897  24.858  1.00  0.00     0.105 C 
ATOM      8  C   UNL A   1      30.229  26.057  24.601  1.00  0.00     0.023 C 
BRANCH   7   9
ATOM      9  C   UNL A   1      32.755  26.055  24.940  1.00  0.00    -0.034 A 
ATOM     10  C   UNL A   1      33.912  26.519  25.568  1.00  0.00     0.005 A 
ATOM     11  C   UNL A   1      32.733  24.745  24.437  1.00  0.00     0.032 A 
ATOM     12  C   UNL A   1      35.026  25.686  25.725  1.00  0.00     0.011 A 
ATOM     13  C   UNL A   1      33.837  23.890  24.634  1.00  0.00     0.058 A 
ATOM     14  C   UNL A   1      34.980  24.348  25.281  1.00  0.00     0.008 A 
ATOM     15  N   UNL A   1      34.008  22.524  24.346  1.00  0.00    -0.274 N 
ATOM     16  C   UNL A   1      35.909  23.272  25.321  1.00  0.00     0.009 A 
ATOM     17  C   UNL A   1      35.323  22.171  24.684  1.00  0.00     0.057 A 
ATOM     18  C   UNL A   1      37.225  23.172  25.824  1.00  0.00     0.031 A 
ATOM     19  C   UNL A   1      36.078  21.003  24.446  1.00  0.00     0.029 A 
ATOM     20  C   UNL A   1      37.945  21.996  25.633  1.00  0.00     0.041 A 
ATOM     21  C   UNL A   1      37.386  20.930  24.942  1.00  0.00     0.023 A 
ATOM     22  Cl  UNL A   1      39.554  21.880  26.233  1.00  0.00    -0.084 Cl
BRANCH  15  23
ATOM     23  C   UNL A   1      32.985  21.691  23.806  1.00  0.00     0.284 C 
ATOM     24  O   UNL A   1      32.294  22.196  22.918  1.00  0.00    -0.266 OA
BRANCH  23  25
ATOM     25  C   UNL A   1      32.660  20.341  24.262  1.00  0.00     0.167 A 
ATOM     26  C   UNL A   1      32.292  19.230  23.531  1.00  0.00     0.231 A 
ATOM     27  N   UNL A   1      32.834  19.951  25.584  1.00  0.00    -0.211 NA
ATOM     28  O   UNL A   1      32.209  18.163  24.376  1.00  0.00    -0.451 OA
ATOM     29  C   UNL A   1      32.564  18.669  25.586  1.00  0.00     0.308 A 
ENDBRANCH  23  25
ENDBRANCH  15  23
ENDBRANCH   7   9
ENDBRANCH   4   7
ENDBRANCH   2   3
ENDBRANCH   1   2
BRANCH   1  30
ATOM     30  C   UNL A   1      31.798  31.260  27.256  1.00  0.00     0.023 C 
BRANCH  30  31
ATOM     31  C   UNL A   1      32.619  32.396  26.658  1.00  0.00     0.116 C 
BRANCH  31  32
ATOM     32  N   UNL A   1      32.328  33.691  27.250  1.00  0.00    -0.352 N 
ATOM     33  C   UNL A   1      32.976  34.339  28.274  1.00  0.00     0.251 C 
ATOM     34  H   UNL A   1      31.559  34.171  26.864  1.00  0.00     0.163 HD
ATOM     35  O   UNL A   1      32.518  35.385  28.725  1.00  0.00    -0.269 OA
BRANCH  33  36
ATOM     36  C   UNL A   1      34.210  33.767  28.858  1.00  0.00     0.039 A 
ATOM     37  C   UNL A   1      35.446  34.256  28.424  1.00  0.00     0.014 A 
ATOM     38  C   UNL A   1      34.160  32.746  29.810  1.00  0.00     0.014 A 
ATOM     39  C   UNL A   1      36.627  33.751  28.973  1.00  0.00     0.010 A 
ATOM     40  C   UNL A   1      35.333  32.297  30.412  1.00  0.00     0.010 A 
ATOM     41  C   UNL A   1      36.579  32.780  29.987  1.00  0.00    -0.014 A 
BRANCH  41  42
ATOM     42  C   UNL A   1      37.823  32.229  30.579  1.00  0.00     0.031 A 
ATOM     43  C   UNL A   1      38.486  31.029  29.957  1.00  0.00     0.074 A 
ATOM     44  C   UNL A   1      38.334  32.772  31.701  1.00  0.00     0.049 A 
ATOM     45  N   UNL A   1      39.564  30.390  30.336  1.00  0.00    -0.248 NA
ATOM     46  C   UNL A   1      37.837  30.457  28.766  1.00  0.00     0.031 C 
ATOM     47  C   UNL A   1      37.769  33.910  32.428  1.00  0.00     0.029 A 
ATOM     48  N   UNL A   1      39.451  32.436  32.425  1.00  0.00    -0.354 N 
ATOM     49  C   UNL A   1      39.704  29.328  29.450  1.00  0.00     0.074 A 
ATOM     50  C   UNL A   1      38.575  29.380  28.547  1.00  0.00     0.031 C 
ATOM     51  C   UNL A   1      38.562  34.202  33.471  1.00  0.00     0.029 A 
ATOM     52  C   UNL A   1      39.671  33.253  33.506  1.00  0.00     0.049 A 
ATOM     53  H   UNL A   1      40.038  31.680  32.191  1.00  0.00     0.167 HD
ATOM     54  C   UNL A   1      40.691  28.404  29.378  1.00  0.00     0.031 A 
ATOM     55  C   UNL A   1      40.663  33.246  34.417  1.00  0.00     0.031 A 
ATOM     56  C   UNL A   1      41.827  28.365  30.259  1.00  0.00     0.049 A 
ATOM     57  C   UNL A   1      41.757  32.220  34.308  1.00  0.00     0.074 A 
ATOM     58  C   UNL A   1      42.915  27.510  30.227  1.00  0.00     0.029 A 
ATOM     59  N   UNL A   1      42.021  29.221  31.331  1.00  0.00    -0.354 N 
ATOM     60  N   UNL A   1      41.913  31.268  33.421  1.00  0.00    -0.248 NA
ATOM     61  C   UNL A   1      42.821  32.282  35.320  1.00  0.00     0.031 C 
ATOM     62  C   UNL A   1      43.747  27.822  31.308  1.00  0.00     0.029 A 
ATOM     63  C   UNL A   1      43.203  28.905  31.979  1.00  0.00     0.049 A 
ATOM     64  H   UNL A   1      41.409  29.946  31.593  1.00  0.00     0.167 HD
ATOM     65  C   UNL A   1      43.113  30.646  33.742  1.00  0.00     0.074 A 
ATOM     66  C   UNL A   1      43.644  31.332  34.901  1.00  0.00     0.031 C 
ATOM     67  C   UNL A   1      43.723  29.603  33.126  1.00  0.00     0.031 A 
BRANCH  54  68
ATOM     68  C   UNL A   1      40.572  27.352  28.309  1.00  0.00    -0.014 A 
ATOM     69  C   UNL A   1      41.165  27.521  27.048  1.00  0.00     0.009 A 
ATOM     70  C   UNL A   1      39.865  26.168  28.572  1.00  0.00     0.009 A 
ATOM     71  C   UNL A   1      41.011  26.550  26.057  1.00  0.00     0.001 A 
ATOM     72  C   UNL A   1      39.740  25.184  27.589  1.00  0.00     0.001 A 
ATOM     73  C   UNL A   1      40.301  25.381  26.329  1.00  0.00     0.000 A 
ENDBRANCH  54  68
BRANCH  55  74
ATOM     74  C   UNL A   1      40.699  34.277  35.486  1.00  0.00    -0.014 A 
ATOM     75  C   UNL A   1      40.054  34.047  36.712  1.00  0.00     0.009 A 
ATOM     76  C   UNL A   1      41.367  35.495  35.289  1.00  0.00     0.009 A 
ATOM     77  C   UNL A   1      40.054  35.025  37.708  1.00  0.00     0.001 A 
ATOM     78  C   UNL A   1      41.389  36.460  36.298  1.00  0.00     0.001 A 
ATOM     79  C   UNL A   1      40.725  36.229  37.502  1.00  0.00     0.000 A 
ENDBRANCH  55  74
BRANCH  67  80
ATOM     80  C   UNL A   1      45.061  29.178  33.660  1.00  0.00    -0.014 A 
ATOM     81  C   UNL A   1      46.254  29.751  33.194  1.00  0.00     0.009 A 
ATOM     82  C   UNL A   1      45.123  28.205  34.670  1.00  0.00     0.009 A 
ATOM     83  C   UNL A   1      47.485  29.329  33.703  1.00  0.00     0.001 A 
ATOM     84  C   UNL A   1      46.352  27.807  35.198  1.00  0.00     0.001 A 
ATOM     85  C   UNL A   1      47.532  28.361  34.706  1.00  0.00     0.000 A 
ENDBRANCH  67  80
ENDBRANCH  41  42
ENDBRANCH  33  36
ENDBRANCH  31  32
ENDBRANCH  30  31
ENDBRANCH   1  30
TORSDOF 14
ENDMDL
MODEL 3
REMARK VINA RESULT:     -11.5      7.086     12.224
REMARK SMILES C[C@H](C(=O)NCCCCNC(=O)c1ccc(-c2c3nc(c(-c4ccccc4)c4ccc([nH]4)c(-c4ccccc4)c4nc(c(-c5ccccc5)c5ccc2[nH]5)C=C4)C=C3)cc1)c1ccc2c3cc(Cl)ccc3n(C(=O)c3cocn3)c2c1
REMARK SMILES IDX 7 1 6 2 5 3 3 4 4 5 2 7 1 8 61 9 62 10 81 11 63 12 80 13
REMARK SMILES IDX 64 14 72 15 65 16 71 17 66 18 70 19 67 20 69 21 68 22 73 23
REMARK SMILES IDX 74 24 75 25 76 26 79 27 77 28 78 29 8 30 9 31 10 32 11 33
REMARK SMILES IDX 12 35 13 36 14 37 60 38 15 39 59 40 16 41 17 42 18 43 53 44
REMARK SMILES IDX 19 45 58 46 52 47 54 48 20 49 57 50 51 51 50 52 21 54 43 55
REMARK SMILES IDX 28 56 42 57 29 58 32 59 41 60 55 61 30 62 31 63 40 65 56 66
REMARK SMILES IDX 33 67 22 68 23 69 27 70 24 71 26 72 25 73 44 74 45 75 49 76
REMARK SMILES IDX 46 77 48 78 47 79 34 80 35 81 39 82 36 83 38 84 37 85
REMARK H PARENT 5 6 10 34 54 53 32 64
REMARK Flexibility Score: inf
ROOT
ATOM      1  C   UNL A   1      40.033  26.337  28.916  1.00  0.00     0.023 C 
ENDROOT
BRANCH   1   2
ATOM      2  C   UNL A   1      39.554  27.760  28.627  1.00  0.00     0.116 C 
BRANCH   2   3
ATOM      3  N   UNL A   1      40.107  28.726  29.559  1.00  0.00    -0.356 N 
ATOM      4  C   UNL A   1      39.595  29.218  30.727  1.00  0.00     0.227 C 
ATOM      5  O   UNL A   1      40.272  30.046  31.339  1.00  0.00    -0.274 OA
ATOM      6  H   UNL A   1      40.991  29.084  29.309  1.00  0.00     0.163 HD
BRANCH   4   7
ATOM      7  C   UNL A   1      38.217  28.757  31.226  1.00  0.00     0.105 C 
ATOM      8  C   UNL A   1      38.370  27.868  32.465  1.00  0.00     0.023 C 
BRANCH   7   9
ATOM      9  C   UNL A   1      37.306  29.956  31.465  1.00  0.00    -0.034 A 
ATOM     10  C   UNL A   1      37.224  30.589  32.706  1.00  0.00     0.005 A 
ATOM     11  C   UNL A   1      36.587  30.488  30.382  1.00  0.00     0.032 A 
ATOM     12  C   UNL A   1      36.465  31.753  32.870  1.00  0.00     0.011 A 
ATOM     13  C   UNL A   1      35.859  31.686  30.533  1.00  0.00     0.058 A 
ATOM     14  C   UNL A   1      35.798  32.326  31.766  1.00  0.00     0.008 A 
ATOM     15  N   UNL A   1      35.175  32.473  29.590  1.00  0.00    -0.274 N 
ATOM     16  C   UNL A   1      34.994  33.487  31.606  1.00  0.00     0.009 A 
ATOM     17  C   UNL A   1      34.561  33.534  30.274  1.00  0.00     0.057 A 
ATOM     18  C   UNL A   1      34.573  34.484  32.514  1.00  0.00     0.031 A 
ATOM     19  C   UNL A   1      33.624  34.505  29.864  1.00  0.00     0.029 A 
ATOM     20  C   UNL A   1      33.690  35.472  32.087  1.00  0.00     0.041 A 
ATOM     21  C   UNL A   1      33.209  35.476  30.785  1.00  0.00     0.023 A 
ATOM     22  Cl  UNL A   1      33.166  36.677  33.198  1.00  0.00    -0.084 Cl
BRANCH  15  23
ATOM     23  C   UNL A   1      35.147  32.195  28.192  1.00  0.00     0.284 C 
ATOM     24  O   UNL A   1      35.784  32.971  27.477  1.00  0.00    -0.266 OA
BRANCH  23  25
ATOM     25  C   UNL A   1      34.384  31.124  27.554  1.00  0.00     0.167 A 
ATOM     26  C   UNL A   1      34.756  29.827  27.271  1.00  0.00     0.231 A 
ATOM     27  N   UNL A   1      33.032  31.260  27.261  1.00  0.00    -0.211 NA
ATOM     28  O   UNL A   1      33.671  29.160  26.783  1.00  0.00    -0.451 OA
ATOM     29  C   UNL A   1      32.671  30.080  26.823  1.00  0.00     0.308 A 
ENDBRANCH  23  25
ENDBRANCH  15  23
ENDBRANCH   7   9
ENDBRANCH   4   7
ENDBRANCH   2   3
ENDBRANCH   1   2
BRANCH   1  30
ATOM     30  C   UNL A   1      39.329  25.242  28.111  1.00  0.00     0.023 C 
BRANCH  30  31
ATOM     31  C   UNL A   1      39.950  24.924  26.756  1.00  0.00     0.116 C 
BRANCH  31  32
ATOM     32  N   UNL A   1      40.673  23.664  26.735  1.00  0.00    -0.352 N 
ATOM     33  C   UNL A   1      42.022  23.443  26.598  1.00  0.00     0.251 C 
ATOM     34  H   UNL A   1      40.119  22.856  26.831  1.00  0.00     0.163 HD
ATOM     35  O   UNL A   1      42.448  22.297  26.484  1.00  0.00    -0.269 OA
BRANCH  33  36
ATOM     36  C   UNL A   1      42.965  24.584  26.556  1.00  0.00     0.039 A 
ATOM     37  C   UNL A   1      43.497  25.058  27.759  1.00  0.00     0.014 A 
ATOM     38  C   UNL A   1      43.314  25.197  25.349  1.00  0.00     0.014 A 
ATOM     39  C   UNL A   1      44.406  26.118  27.748  1.00  0.00     0.010 A 
ATOM     40  C   UNL A   1      44.278  26.202  25.332  1.00  0.00     0.010 A 
ATOM     41  C   UNL A   1      44.819  26.686  26.532  1.00  0.00    -0.014 A 
BRANCH  41  42
ATOM     42  C   UNL A   1      45.782  27.816  26.501  1.00  0.00     0.031 A 
ATOM     43  C   UNL A   1      47.257  27.545  26.369  1.00  0.00     0.074 A 
ATOM     44  C   UNL A   1      45.341  29.081  26.637  1.00  0.00     0.049 A 
ATOM     45  N   UNL A   1      48.254  28.393  26.342  1.00  0.00    -0.248 NA
ATOM     46  C   UNL A   1      47.666  26.134  26.282  1.00  0.00     0.031 C 
ATOM     47  C   UNL A   1      43.943  29.480  26.812  1.00  0.00     0.029 A 
ATOM     48  N   UNL A   1      46.029  30.269  26.646  1.00  0.00    -0.354 N 
ATOM     49  C   UNL A   1      49.406  27.618  26.265  1.00  0.00     0.074 A 
ATOM     50  C   UNL A   1      48.986  26.234  26.299  1.00  0.00     0.031 C 
ATOM     51  C   UNL A   1      43.873  30.820  26.873  1.00  0.00     0.029 A 
ATOM     52  C   UNL A   1      45.221  31.371  26.774  1.00  0.00     0.049 A 
ATOM     53  H   UNL A   1      47.009  30.324  26.569  1.00  0.00     0.167 HD
ATOM     54  C   UNL A   1      50.695  28.017  26.154  1.00  0.00     0.031 A 
ATOM     55  C   UNL A   1      45.531  32.682  26.799  1.00  0.00     0.031 A 
ATOM     56  C   UNL A   1      51.112  29.392  26.095  1.00  0.00     0.049 A 
ATOM     57  C   UNL A   1      46.968  33.103  26.659  1.00  0.00     0.074 A 
ATOM     58  C   UNL A   1      52.387  29.900  25.917  1.00  0.00     0.029 A 
ATOM     59  N   UNL A   1      50.261  30.478  26.212  1.00  0.00    -0.354 N 
ATOM     60  N   UNL A   1      48.037  32.359  26.513  1.00  0.00    -0.248 NA
ATOM     61  C   UNL A   1      47.235  34.548  26.669  1.00  0.00     0.031 C 
ATOM     62  C   UNL A   1      52.312  31.296  25.969  1.00  0.00     0.029 A 
ATOM     63  C   UNL A   1      50.984  31.656  26.126  1.00  0.00     0.049 A 
ATOM     64  H   UNL A   1      49.286  30.422  26.338  1.00  0.00     0.167 HD
ATOM     65  C   UNL A   1      49.097  33.246  26.372  1.00  0.00     0.074 A 
ATOM     66  C   UNL A   1      48.540  34.580  26.444  1.00  0.00     0.031 C 
ATOM     67  C   UNL A   1      50.414  32.977  26.191  1.00  0.00     0.031 A 
BRANCH  54  68
ATOM     68  C   UNL A   1      51.746  26.942  26.101  1.00  0.00    -0.014 A 
ATOM     69  C   UNL A   1      52.413  26.514  27.260  1.00  0.00     0.009 A 
ATOM     70  C   UNL A   1      52.067  26.342  24.874  1.00  0.00     0.009 A 
ATOM     71  C   UNL A   1      53.412  25.542  27.185  1.00  0.00     0.001 A 
ATOM     72  C   UNL A   1      53.045  25.348  24.806  1.00  0.00     0.001 A 
ATOM     73  C   UNL A   1      53.726  24.958  25.958  1.00  0.00     0.000 A 
ENDBRANCH  54  68
BRANCH  55  74
ATOM     74  C   UNL A   1      44.454  33.699  26.910  1.00  0.00    -0.014 A 
ATOM     75  C   UNL A   1      43.859  34.226  25.753  1.00  0.00     0.009 A 
ATOM     76  C   UNL A   1      44.020  34.155  28.164  1.00  0.00     0.009 A 
ATOM     77  C   UNL A   1      42.870  35.208  25.847  1.00  0.00     0.001 A 
ATOM     78  C   UNL A   1      43.012  35.117  28.256  1.00  0.00     0.001 A 
ATOM     79  C   UNL A   1      42.445  35.649  27.099  1.00  0.00     0.000 A 
ENDBRANCH  55  74
BRANCH  67  80
ATOM     80  C   UNL A   1      51.334  34.149  26.002  1.00  0.00    -0.014 A 
ATOM     81  C   UNL A   1      51.572  34.701  24.735  1.00  0.00     0.009 A 
ATOM     82  C   UNL A   1      51.952  34.728  27.123  1.00  0.00     0.009 A 
ATOM     83  C   UNL A   1      52.440  35.786  24.589  1.00  0.00     0.001 A 
ATOM     84  C   UNL A   1      52.795  35.830  26.979  1.00  0.00     0.001 A 
ATOM     85  C   UNL A   1      53.047  36.351  25.711  1.00  0.00     0.000 A 
ENDBRANCH  67  80
ENDBRANCH  41  42
ENDBRANCH  33  36
ENDBRANCH  31  32
ENDBRANCH  30  31
ENDBRANCH   1  30
TORSDOF 14
ENDMDL
