MODEL 1
REMARK VINA RESULT:     -12.5      0.000      0.000
REMARK SMILES COc1ccc(-c2ccc(/C=C3\SC(=S)N([C@H](Cc4ccccc4)C(=O)NCCCCNC(=O)c4ccc(-c5c6nc(c(-c7ccccc7)c7ccc([nH]7)c(-c7ccccc7)c7nc(c(-c8ccccc8)c8ccc5[nH]8)C=C7)C=C6)cc4)C3=O)o2)cc1
REMARK SMILES IDX 28 1 27 2 25 3 26 4 17 6 16 7 11 8 12 9 13 10 83 11 14 12
REMARK SMILES IDX 84 13 15 14 10 15 7 16 8 17 85 18 9 19 6 20 3 21 4 22 87 23
REMARK SMILES IDX 5 24 86 25 2 26 1 27 18 28 19 29 20 30 24 31 21 32 23 33
REMARK SMILES IDX 22 34 29 35 30 36 31 37 32 38 33 39 34 41 35 42 36 43 82 44
REMARK SMILES IDX 37 45 81 46 38 47 39 48 40 49 75 50 41 51 80 52 74 53 76 54
REMARK SMILES IDX 42 55 79 56 73 57 72 58 43 60 65 61 50 62 64 63 51 64 54 65
REMARK SMILES IDX 63 66 77 67 52 68 53 69 62 71 78 72 55 73 44 74 45 75 49 76
REMARK SMILES IDX 46 77 48 78 47 79 66 80 67 81 71 82 68 83 70 84 69 85 56 86
REMARK SMILES IDX 57 87 61 88 58 89 60 90 59 91
REMARK H PARENT 27 5 32 40 76 59 54 70
REMARK Flexibility Score: inf
ROOT
ATOM      1  C   UNL A   1      32.820  29.464  26.306  1.00  0.00     0.116 C 
ENDROOT
BRANCH   1   2
ATOM      2  N   UNL A   1      33.492  29.686  25.049  1.00  0.00    -0.354 N 
ATOM      3  C   UNL A   1      33.459  28.975  23.892  1.00  0.00     0.243 C 
ATOM      4  O   UNL A   1      34.350  29.232  23.074  1.00  0.00    -0.273 OA
ATOM      5  H   UNL A   1      34.067  30.486  25.026  1.00  0.00     0.163 HD
BRANCH   3   6
ATOM      6  C   UNL A   1      32.492  27.792  23.653  1.00  0.00     0.185 C 
BRANCH   6   7
ATOM      7  N   UNL A   1      33.200  26.492  23.459  1.00  0.00    -0.280 N 
ATOM      8  C   UNL A   1      35.011  24.002  25.386  1.00  0.00     0.068 C 
ATOM      9  C   UNL A   1      34.464  24.696  24.380  1.00  0.00     0.084 C 
ATOM     10  S   UNL A   1      34.207  24.210  22.763  1.00  0.00    -0.054 SA
ATOM     11  C   UNL A   1      33.883  26.045  24.595  1.00  0.00     0.267 C 
ATOM     12  C   UNL A   1      33.218  25.620  22.385  1.00  0.00     0.149 C 
ATOM     13  O   UNL A   1      34.001  26.649  25.647  1.00  0.00    -0.268 OA
ATOM     14  S   UNL A   1      32.492  25.682  20.885  1.00  0.00    -0.052 S 
BRANCH   8  15
ATOM     15  C   UNL A   1      35.491  22.672  25.256  1.00  0.00     0.128 A 
ATOM     16  C   UNL A   1      35.387  20.470  24.981  1.00  0.00     0.134 A 
ATOM     17  C   UNL A   1      36.724  20.777  25.063  1.00  0.00     0.051 A 
ATOM     18  O   UNL A   1      34.639  21.599  25.106  1.00  0.00    -0.457 OA
ATOM     19  C   UNL A   1      36.790  22.175  25.252  1.00  0.00     0.051 A 
BRANCH  16  20
ATOM     20  C   UNL A   1      34.660  19.224  24.831  1.00  0.00     0.017 A 
ATOM     21  C   UNL A   1      33.222  16.825  24.612  1.00  0.00     0.118 A 
ATOM     22  C   UNL A   1      34.610  16.826  24.473  1.00  0.00     0.047 A 
ATOM     23  C   UNL A   1      32.552  18.016  24.889  1.00  0.00     0.047 A 
ATOM     24  C   UNL A   1      35.327  18.024  24.564  1.00  0.00     0.016 A 
ATOM     25  C   UNL A   1      33.270  19.209  24.999  1.00  0.00     0.016 A 
BRANCH  21  26
ATOM     26  O   UNL A   1      32.606  15.606  24.525  1.00  0.00    -0.497 OA
ATOM     27  C   UNL A   1      32.735  14.808  25.699  1.00  0.00     0.278 C 
ENDBRANCH  21  26
ENDBRANCH  16  20
ENDBRANCH   8  15
ENDBRANCH   6   7
BRANCH   6  28
ATOM     28  C   UNL A   1      31.419  28.268  22.655  1.00  0.00     0.071 C 
BRANCH  28  29
ATOM     29  C   UNL A   1      29.977  27.972  23.008  1.00  0.00    -0.045 A 
ATOM     30  C   UNL A   1      29.017  28.958  22.728  1.00  0.00     0.004 A 
ATOM     31  C   UNL A   1      29.551  26.779  23.606  1.00  0.00     0.004 A 
ATOM     32  C   UNL A   1      27.681  28.782  23.088  1.00  0.00     0.000 A 
ATOM     33  C   UNL A   1      28.212  26.601  23.963  1.00  0.00     0.000 A 
ATOM     34  C   UNL A   1      27.281  27.606  23.716  1.00  0.00     0.000 A 
ENDBRANCH  28  29
ENDBRANCH   6  28
ENDBRANCH   3   6
ENDBRANCH   1   2
BRANCH   1  35
ATOM     35  C   UNL A   1      31.449  30.133  26.346  1.00  0.00     0.023 C 
BRANCH  35  36
ATOM     36  C   UNL A   1      31.485  31.660  26.398  1.00  0.00     0.023 C 
BRANCH  36  37
ATOM     37  C   UNL A   1      32.611  32.251  27.238  1.00  0.00     0.116 C 
BRANCH  37  38
ATOM     38  N   UNL A   1      32.375  33.637  27.613  1.00  0.00    -0.352 N 
ATOM     39  C   UNL A   1      33.136  34.453  28.415  1.00  0.00     0.251 C 
ATOM     40  H   UNL A   1      31.560  34.045  27.241  1.00  0.00     0.163 HD
ATOM     41  O   UNL A   1      32.734  35.568  28.727  1.00  0.00    -0.269 OA
BRANCH  39  42
ATOM     42  C   UNL A   1      34.428  33.958  28.929  1.00  0.00     0.039 A 
ATOM     43  C   UNL A   1      34.442  33.222  30.115  1.00  0.00     0.014 A 
ATOM     44  C   UNL A   1      35.612  34.186  28.222  1.00  0.00     0.014 A 
ATOM     45  C   UNL A   1      35.638  32.653  30.557  1.00  0.00     0.010 A 
ATOM     46  C   UNL A   1      36.783  33.550  28.619  1.00  0.00     0.010 A 
ATOM     47  C   UNL A   1      36.808  32.780  29.791  1.00  0.00    -0.014 A 
BRANCH  47  48
ATOM     48  C   UNL A   1      38.069  32.114  30.200  1.00  0.00     0.031 A 
ATOM     49  C   UNL A   1      38.988  32.778  31.188  1.00  0.00     0.074 A 
ATOM     50  C   UNL A   1      38.416  30.940  29.639  1.00  0.00     0.049 A 
ATOM     51  N   UNL A   1      40.149  32.373  31.637  1.00  0.00    -0.248 NA
ATOM     52  C   UNL A   1      38.556  34.080  31.722  1.00  0.00     0.031 C 
ATOM     53  C   UNL A   1      37.628  30.207  28.646  1.00  0.00     0.029 A 
ATOM     54  N   UNL A   1      39.525  30.153  29.830  1.00  0.00    -0.354 N 
ATOM     55  C   UNL A   1      40.589  33.372  32.496  1.00  0.00     0.074 A 
ATOM     56  C   UNL A   1      39.603  34.430  32.454  1.00  0.00     0.031 C 
ATOM     57  C   UNL A   1      38.258  29.059  28.347  1.00  0.00     0.029 A 
ATOM     58  C   UNL A   1      39.513  28.997  29.089  1.00  0.00     0.049 A 
ATOM     59  H   UNL A   1      40.260  30.396  30.438  1.00  0.00     0.167 HD
ATOM     60  C   UNL A   1      41.699  33.400  33.270  1.00  0.00     0.031 A 
ATOM     61  C   UNL A   1      40.412  27.997  29.017  1.00  0.00     0.031 A 
ATOM     62  C   UNL A   1      42.684  32.352  33.306  1.00  0.00     0.049 A 
ATOM     63  C   UNL A   1      41.662  28.074  29.847  1.00  0.00     0.074 A 
ATOM     64  C   UNL A   1      43.826  32.266  34.085  1.00  0.00     0.029 A 
ATOM     65  N   UNL A   1      42.647  31.209  32.522  1.00  0.00    -0.354 N 
ATOM     66  N   UNL A   1      42.034  28.996  30.702  1.00  0.00    -0.248 NA
ATOM     67  C   UNL A   1      42.615  26.963  29.706  1.00  0.00     0.031 C 
ATOM     68  C   UNL A   1      44.509  31.099  33.729  1.00  0.00     0.029 A 
ATOM     69  C   UNL A   1      43.760  30.425  32.778  1.00  0.00     0.049 A 
ATOM     70  H   UNL A   1      41.936  30.988  31.879  1.00  0.00     0.167 HD
ATOM     71  C   UNL A   1      43.245  28.560  31.227  1.00  0.00     0.074 A 
ATOM     72  C   UNL A   1      43.536  27.286  30.602  1.00  0.00     0.031 C 
ATOM     73  C   UNL A   1      44.040  29.161  32.146  1.00  0.00     0.031 A 
BRANCH  60  74
ATOM     74  C   UNL A   1      41.905  34.618  34.129  1.00  0.00    -0.014 A 
ATOM     75  C   UNL A   1      41.382  34.688  35.432  1.00  0.00     0.009 A 
ATOM     76  C   UNL A   1      42.634  35.710  33.635  1.00  0.00     0.009 A 
ATOM     77  C   UNL A   1      41.539  35.844  36.199  1.00  0.00     0.001 A 
ATOM     78  C   UNL A   1      42.820  36.851  34.418  1.00  0.00     0.001 A 
ATOM     79  C   UNL A   1      42.261  36.923  35.693  1.00  0.00     0.000 A 
ENDBRANCH  60  74
BRANCH  61  80
ATOM     80  C   UNL A   1      40.148  26.820  28.149  1.00  0.00    -0.014 A 
ATOM     81  C   UNL A   1      40.666  26.773  26.845  1.00  0.00     0.009 A 
ATOM     82  C   UNL A   1      39.379  25.741  28.612  1.00  0.00     0.009 A 
ATOM     83  C   UNL A   1      40.396  25.683  26.014  1.00  0.00     0.001 A 
ATOM     84  C   UNL A   1      39.137  24.639  27.789  1.00  0.00     0.001 A 
ATOM     85  C   UNL A   1      39.636  24.615  26.488  1.00  0.00     0.000 A 
ENDBRANCH  61  80
BRANCH  73  86
ATOM     86  C   UNL A   1      45.283  28.425  32.562  1.00  0.00    -0.014 A 
ATOM     87  C   UNL A   1      45.262  27.471  33.591  1.00  0.00     0.009 A 
ATOM     88  C   UNL A   1      46.491  28.668  31.886  1.00  0.00     0.009 A 
ATOM     89  C   UNL A   1      46.432  26.802  33.959  1.00  0.00     0.001 A 
ATOM     90  C   UNL A   1      47.651  27.974  32.234  1.00  0.00     0.001 A 
ATOM     91  C   UNL A   1      47.623  27.050  33.276  1.00  0.00     0.000 A 
ENDBRANCH  73  86
ENDBRANCH  47  48
ENDBRANCH  39  42
ENDBRANCH  37  38
ENDBRANCH  36  37
ENDBRANCH  35  36
ENDBRANCH   1  35
TORSDOF 17
ENDMDL
MODEL 2
REMARK VINA RESULT:     -12.5      1.145      5.748
REMARK SMILES COc1ccc(-c2ccc(/C=C3\SC(=S)N([C@H](Cc4ccccc4)C(=O)NCCCCNC(=O)c4ccc(-c5c6nc(c(-c7ccccc7)c7ccc([nH]7)c(-c7ccccc7)c7nc(c(-c8ccccc8)c8ccc5[nH]8)C=C7)C=C6)cc4)C3=O)o2)cc1
REMARK SMILES IDX 28 1 27 2 25 3 26 4 17 6 16 7 11 8 12 9 13 10 83 11 14 12
REMARK SMILES IDX 84 13 15 14 10 15 7 16 8 17 85 18 9 19 6 20 3 21 4 22 87 23
REMARK SMILES IDX 5 24 86 25 2 26 1 27 18 28 19 29 20 30 24 31 21 32 23 33
REMARK SMILES IDX 22 34 29 35 30 36 31 37 32 38 33 39 34 41 35 42 36 43 82 44
REMARK SMILES IDX 37 45 81 46 38 47 39 48 40 49 75 50 41 51 80 52 74 53 76 54
REMARK SMILES IDX 42 55 79 56 73 57 72 58 43 60 65 61 50 62 64 63 51 64 54 65
REMARK SMILES IDX 63 66 77 67 52 68 53 69 62 71 78 72 55 73 44 74 45 75 49 76
REMARK SMILES IDX 46 77 48 78 47 79 66 80 67 81 71 82 68 83 70 84 69 85 56 86
REMARK SMILES IDX 57 87 61 88 58 89 60 90 59 91
REMARK H PARENT 27 5 32 40 76 59 54 70
REMARK Flexibility Score: inf
ROOT
ATOM      1  C   UNL A   1      32.681  29.988  25.774  1.00  0.00     0.116 C 
ENDROOT
BRANCH   1   2
ATOM      2  N   UNL A   1      33.174  29.762  24.437  1.00  0.00    -0.354 N 
ATOM      3  C   UNL A   1      32.843  28.815  23.521  1.00  0.00     0.243 C 
ATOM      4  O   UNL A   1      33.624  28.684  22.571  1.00  0.00    -0.273 OA
ATOM      5  H   UNL A   1      33.862  30.401  24.140  1.00  0.00     0.163 HD
BRANCH   3   6
ATOM      6  C   UNL A   1      31.668  27.827  23.712  1.00  0.00     0.185 C 
BRANCH   6   7
ATOM      7  N   UNL A   1      32.093  26.526  24.310  1.00  0.00    -0.280 N 
ATOM      8  C   UNL A   1      33.898  23.509  23.398  1.00  0.00     0.068 C 
ATOM      9  C   UNL A   1      33.166  24.415  24.059  1.00  0.00     0.084 C 
ATOM     10  S   UNL A   1      32.767  24.462  25.720  1.00  0.00    -0.054 SA
ATOM     11  C   UNL A   1      32.656  25.637  23.388  1.00  0.00     0.267 C 
ATOM     12  C   UNL A   1      32.106  26.093  25.624  1.00  0.00     0.149 C 
ATOM     13  O   UNL A   1      32.745  25.810  22.185  1.00  0.00    -0.268 OA
ATOM     14  S   UNL A   1      31.633  26.825  27.045  1.00  0.00    -0.052 S 
BRANCH   8  15
ATOM     15  C   UNL A   1      34.491  22.375  24.015  1.00  0.00     0.128 A 
ATOM     16  C   UNL A   1      34.697  20.255  24.646  1.00  0.00     0.134 A 
ATOM     17  C   UNL A   1      35.828  20.895  25.095  1.00  0.00     0.051 A 
ATOM     18  O   UNL A   1      33.884  21.138  24.007  1.00  0.00    -0.457 OA
ATOM     19  C   UNL A   1      35.691  22.245  24.706  1.00  0.00     0.051 A 
BRANCH  16  20
ATOM     20  C   UNL A   1      34.215  18.892  24.756  1.00  0.00     0.017 A 
ATOM     21  C   UNL A   1      33.302  16.242  24.891  1.00  0.00     0.118 A 
ATOM     22  C   UNL A   1      32.451  17.296  25.226  1.00  0.00     0.047 A 
ATOM     23  C   UNL A   1      34.601  16.511  24.460  1.00  0.00     0.047 A 
ATOM     24  C   UNL A   1      32.910  18.616  25.177  1.00  0.00     0.016 A 
ATOM     25  C   UNL A   1      35.053  17.831  24.392  1.00  0.00     0.016 A 
BRANCH  21  26
ATOM     26  O   UNL A   1      32.764  14.986  24.953  1.00  0.00    -0.497 OA
ATOM     27  C   UNL A   1      32.107  14.699  26.185  1.00  0.00     0.278 C 
ENDBRANCH  21  26
ENDBRANCH  16  20
ENDBRANCH   8  15
ENDBRANCH   6   7
BRANCH   6  28
ATOM     28  C   UNL A   1      30.815  27.871  22.430  1.00  0.00     0.071 C 
BRANCH  28  29
ATOM     29  C   UNL A   1      29.719  28.913  22.373  1.00  0.00    -0.045 A 
ATOM     30  C   UNL A   1      28.512  28.632  23.034  1.00  0.00     0.004 A 
ATOM     31  C   UNL A   1      29.838  30.132  21.694  1.00  0.00     0.004 A 
ATOM     32  C   UNL A   1      27.435  29.516  22.967  1.00  0.00     0.000 A 
ATOM     33  C   UNL A   1      28.760  31.019  21.630  1.00  0.00     0.000 A 
ATOM     34  C   UNL A   1      27.556  30.706  22.255  1.00  0.00     0.000 A 
ENDBRANCH  28  29
ENDBRANCH   6  28
ENDBRANCH   3   6
ENDBRANCH   1   2
BRANCH   1  35
ATOM     35  C   UNL A   1      31.366  30.763  25.773  1.00  0.00     0.023 C 
BRANCH  35  36
ATOM     36  C   UNL A   1      31.306  31.916  26.774  1.00  0.00     0.023 C 
BRANCH  36  37
ATOM     37  C   UNL A   1      32.584  32.736  26.895  1.00  0.00     0.116 C 
BRANCH  37  38
ATOM     38  N   UNL A   1      32.409  33.957  27.666  1.00  0.00    -0.352 N 
ATOM     39  C   UNL A   1      33.189  34.451  28.684  1.00  0.00     0.251 C 
ATOM     40  H   UNL A   1      31.626  34.503  27.426  1.00  0.00     0.163 HD
ATOM     41  O   UNL A   1      32.835  35.442  29.313  1.00  0.00    -0.269 OA
BRANCH  39  42
ATOM     42  C   UNL A   1      34.439  33.753  29.040  1.00  0.00     0.039 A 
ATOM     43  C   UNL A   1      35.620  34.114  28.389  1.00  0.00     0.014 A 
ATOM     44  C   UNL A   1      34.451  32.775  30.039  1.00  0.00     0.014 A 
ATOM     45  C   UNL A   1      36.829  33.543  28.791  1.00  0.00     0.010 A 
ATOM     46  C   UNL A   1      35.664  32.270  30.493  1.00  0.00     0.010 A 
ATOM     47  C   UNL A   1      36.865  32.647  29.872  1.00  0.00    -0.014 A 
BRANCH  47  48
ATOM     48  C   UNL A   1      38.148  32.093  30.368  1.00  0.00     0.031 A 
ATOM     49  C   UNL A   1      38.675  30.798  29.814  1.00  0.00     0.074 A 
ATOM     50  C   UNL A   1      38.810  32.723  31.357  1.00  0.00     0.049 A 
ATOM     51  N   UNL A   1      39.755  30.136  30.147  1.00  0.00    -0.248 NA
ATOM     52  C   UNL A   1      37.871  30.150  28.766  1.00  0.00     0.031 C 
ATOM     53  C   UNL A   1      38.389  33.969  32.001  1.00  0.00     0.029 A 
ATOM     54  N   UNL A   1      39.983  32.401  31.992  1.00  0.00    -0.354 N 
ATOM     55  C   UNL A   1      39.753  28.993  29.358  1.00  0.00     0.074 A 
ATOM     56  C   UNL A   1      38.534  29.019  28.580  1.00  0.00     0.031 C 
ATOM     57  C   UNL A   1      39.312  34.327  32.908  1.00  0.00     0.029 A 
ATOM     58  C   UNL A   1      40.362  33.315  32.944  1.00  0.00     0.049 A 
ATOM     59  H   UNL A   1      40.503  31.590  31.786  1.00  0.00     0.167 HD
ATOM     60  C   UNL A   1      40.690  28.020  29.269  1.00  0.00     0.031 A 
ATOM     61  C   UNL A   1      41.437  33.336  33.755  1.00  0.00     0.031 A 
ATOM     62  C   UNL A   1      41.899  27.990  30.049  1.00  0.00     0.049 A 
ATOM     63  C   UNL A   1      42.439  32.219  33.675  1.00  0.00     0.074 A 
ATOM     64  C   UNL A   1      42.931  27.069  30.007  1.00  0.00     0.029 A 
ATOM     65  N   UNL A   1      42.233  28.922  31.021  1.00  0.00    -0.354 N 
ATOM     66  N   UNL A   1      42.455  31.176  32.879  1.00  0.00    -0.248 NA
ATOM     67  C   UNL A   1      43.577  32.287  34.602  1.00  0.00     0.031 C 
ATOM     68  C   UNL A   1      43.862  27.411  30.993  1.00  0.00     0.029 A 
ATOM     69  C   UNL A   1      43.442  28.582  31.604  1.00  0.00     0.049 A 
ATOM     70  H   UNL A   1      41.691  29.707  31.260  1.00  0.00     0.167 HD
ATOM     71  C   UNL A   1      43.620  30.484  33.185  1.00  0.00     0.074 A 
ATOM     72  C   UNL A   1      44.289  31.233  34.229  1.00  0.00     0.031 C 
ATOM     73  C   UNL A   1      44.095  29.334  32.646  1.00  0.00     0.031 A 
BRANCH  60  74
ATOM     74  C   UNL A   1      40.427  26.902  28.297  1.00  0.00    -0.014 A 
ATOM     75  C   UNL A   1      40.933  26.941  26.987  1.00  0.00     0.009 A 
ATOM     76  C   UNL A   1      39.666  25.792  28.694  1.00  0.00     0.009 A 
ATOM     77  C   UNL A   1      40.640  25.920  26.081  1.00  0.00     0.001 A 
ATOM     78  C   UNL A   1      39.404  24.755  27.797  1.00  0.00     0.001 A 
ATOM     79  C   UNL A   1      39.878  24.826  26.488  1.00  0.00     0.000 A 
ENDBRANCH  60  74
BRANCH  61  80
ATOM     80  C   UNL A   1      41.640  34.471  34.693  1.00  0.00    -0.014 A 
ATOM     81  C   UNL A   1      41.118  34.414  35.995  1.00  0.00     0.009 A 
ATOM     82  C   UNL A   1      42.350  35.615  34.297  1.00  0.00     0.009 A 
ATOM     83  C   UNL A   1      41.280  35.490  36.871  1.00  0.00     0.001 A 
ATOM     84  C   UNL A   1      42.535  36.677  35.186  1.00  0.00     0.001 A 
ATOM     85  C   UNL A   1      41.992  36.618  36.468  1.00  0.00     0.000 A 
ENDBRANCH  61  80
BRANCH  73  86
ATOM     86  C   UNL A   1      45.422  28.837  33.148  1.00  0.00    -0.014 A 
ATOM     87  C   UNL A   1      46.630  29.274  32.585  1.00  0.00     0.009 A 
ATOM     88  C   UNL A   1      45.461  27.941  34.230  1.00  0.00     0.009 A 
ATOM     89  C   UNL A   1      47.850  28.796  33.070  1.00  0.00     0.001 A 
ATOM     90  C   UNL A   1      46.682  27.491  34.734  1.00  0.00     0.001 A 
ATOM     91  C   UNL A   1      47.875  27.911  34.147  1.00  0.00     0.000 A 
ENDBRANCH  73  86
ENDBRANCH  47  48
ENDBRANCH  39  42
ENDBRANCH  37  38
ENDBRANCH  36  37
ENDBRANCH  35  36
ENDBRANCH   1  35
TORSDOF 17
ENDMDL
MODEL 3
REMARK VINA RESULT:     -12.3      2.043      2.500
REMARK SMILES COc1ccc(-c2ccc(/C=C3\SC(=S)N([C@H](Cc4ccccc4)C(=O)NCCCCNC(=O)c4ccc(-c5c6nc(c(-c7ccccc7)c7ccc([nH]7)c(-c7ccccc7)c7nc(c(-c8ccccc8)c8ccc5[nH]8)C=C7)C=C6)cc4)C3=O)o2)cc1
REMARK SMILES IDX 28 1 27 2 25 3 26 4 17 6 16 7 11 8 12 9 13 10 83 11 14 12
REMARK SMILES IDX 84 13 15 14 10 15 7 16 8 17 85 18 9 19 6 20 3 21 4 22 87 23
REMARK SMILES IDX 5 24 86 25 2 26 1 27 18 28 19 29 20 30 24 31 21 32 23 33
REMARK SMILES IDX 22 34 29 35 30 36 31 37 32 38 33 39 34 41 35 42 36 43 82 44
REMARK SMILES IDX 37 45 81 46 38 47 39 48 40 49 75 50 41 51 80 52 74 53 76 54
REMARK SMILES IDX 42 55 79 56 73 57 72 58 43 60 65 61 50 62 64 63 51 64 54 65
REMARK SMILES IDX 63 66 77 67 52 68 53 69 62 71 78 72 55 73 44 74 45 75 49 76
REMARK SMILES IDX 46 77 48 78 47 79 66 80 67 81 71 82 68 83 70 84 69 85 56 86
REMARK SMILES IDX 57 87 61 88 58 89 60 90 59 91
REMARK H PARENT 27 5 32 40 76 59 54 70
REMARK Flexibility Score: inf
ROOT
ATOM      1  C   UNL A   1      34.073  29.568  26.828  1.00  0.00     0.116 C 
ENDROOT
BRANCH   1   2
ATOM      2  N   UNL A   1      33.055  28.943  27.635  1.00  0.00    -0.354 N 
ATOM      3  C   UNL A   1      31.846  28.429  27.291  1.00  0.00     0.243 C 
ATOM      4  O   UNL A   1      31.062  28.217  28.223  1.00  0.00    -0.273 OA
ATOM      5  H   UNL A   1      33.273  28.878  28.594  1.00  0.00     0.163 HD
BRANCH   3   6
ATOM      6  C   UNL A   1      31.381  28.269  25.824  1.00  0.00     0.185 C 
BRANCH   6   7
ATOM      7  N   UNL A   1      31.951  27.059  25.162  1.00  0.00    -0.280 N 
ATOM      8  C   UNL A   1      31.272  23.510  24.802  1.00  0.00     0.068 C 
ATOM      9  C   UNL A   1      31.849  24.717  24.745  1.00  0.00     0.084 C 
ATOM     10  S   UNL A   1      33.148  25.236  23.765  1.00  0.00    -0.054 SA
ATOM     11  C   UNL A   1      31.320  25.864  25.523  1.00  0.00     0.267 C 
ATOM     12  C   UNL A   1      32.930  26.932  24.192  1.00  0.00     0.149 C 
ATOM     13  O   UNL A   1      30.438  25.742  26.356  1.00  0.00    -0.268 OA
ATOM     14  S   UNL A   1      33.874  28.059  23.405  1.00  0.00    -0.052 S 
BRANCH   8  15
ATOM     15  C   UNL A   1      31.677  22.405  24.005  1.00  0.00     0.128 A 
ATOM     16  C   UNL A   1      32.288  20.319  23.548  1.00  0.00     0.134 A 
ATOM     17  C   UNL A   1      32.253  20.975  22.341  1.00  0.00     0.051 A 
ATOM     18  O   UNL A   1      31.955  21.172  24.553  1.00  0.00    -0.457 OA
ATOM     19  C   UNL A   1      31.878  22.305  22.632  1.00  0.00     0.051 A 
BRANCH  16  20
ATOM     20  C   UNL A   1      32.634  18.965  23.934  1.00  0.00     0.017 A 
ATOM     21  C   UNL A   1      33.351  16.374  24.737  1.00  0.00     0.118 A 
ATOM     22  C   UNL A   1      33.529  16.773  23.412  1.00  0.00     0.047 A 
ATOM     23  C   UNL A   1      32.843  17.277  25.670  1.00  0.00     0.047 A 
ATOM     24  C   UNL A   1      33.155  18.057  23.006  1.00  0.00     0.016 A 
ATOM     25  C   UNL A   1      32.488  18.567  25.269  1.00  0.00     0.016 A 
BRANCH  21  26
ATOM     26  O   UNL A   1      33.760  15.106  25.048  1.00  0.00    -0.497 OA
ATOM     27  C   UNL A   1      32.735  14.291  25.611  1.00  0.00     0.278 C 
ENDBRANCH  21  26
ENDBRANCH  16  20
ENDBRANCH   8  15
ENDBRANCH   6   7
BRANCH   6  28
ATOM     28  C   UNL A   1      31.470  29.656  25.158  1.00  0.00     0.071 C 
BRANCH  28  29
ATOM     29  C   UNL A   1      30.389  30.005  24.158  1.00  0.00    -0.045 A 
ATOM     30  C   UNL A   1      29.676  31.200  24.352  1.00  0.00     0.004 A 
ATOM     31  C   UNL A   1      30.054  29.201  23.060  1.00  0.00     0.004 A 
ATOM     32  C   UNL A   1      28.622  31.551  23.510  1.00  0.00     0.000 A 
ATOM     33  C   UNL A   1      29.000  29.556  22.215  1.00  0.00     0.000 A 
ATOM     34  C   UNL A   1      28.277  30.723  22.446  1.00  0.00     0.000 A 
ENDBRANCH  28  29
ENDBRANCH   6  28
ENDBRANCH   3   6
ENDBRANCH   1   2
BRANCH   1  35
ATOM     35  C   UNL A   1      34.579  30.867  27.451  1.00  0.00     0.023 C 
BRANCH  35  36
ATOM     36  C   UNL A   1      33.489  31.894  27.756  1.00  0.00     0.023 C 
BRANCH  36  37
ATOM     37  C   UNL A   1      33.930  33.350  27.671  1.00  0.00     0.116 C 
BRANCH  37  38
ATOM     38  N   UNL A   1      33.336  34.186  28.703  1.00  0.00    -0.352 N 
ATOM     39  C   UNL A   1      33.730  34.351  30.009  1.00  0.00     0.251 C 
ATOM     40  H   UNL A   1      32.546  34.705  28.427  1.00  0.00     0.163 HD
ATOM     41  O   UNL A   1      33.047  35.009  30.786  1.00  0.00    -0.269 OA
BRANCH  39  42
ATOM     42  C   UNL A   1      34.966  33.694  30.479  1.00  0.00     0.039 A 
ATOM     43  C   UNL A   1      34.860  32.577  31.309  1.00  0.00     0.014 A 
ATOM     44  C   UNL A   1      36.220  34.156  30.069  1.00  0.00     0.014 A 
ATOM     45  C   UNL A   1      36.013  31.879  31.672  1.00  0.00     0.010 A 
ATOM     46  C   UNL A   1      37.357  33.412  30.363  1.00  0.00     0.010 A 
ATOM     47  C   UNL A   1      37.265  32.268  31.169  1.00  0.00    -0.014 A 
BRANCH  47  48
ATOM     48  C   UNL A   1      38.491  31.491  31.475  1.00  0.00     0.031 A 
ATOM     49  C   UNL A   1      39.344  31.861  32.657  1.00  0.00     0.074 A 
ATOM     50  C   UNL A   1      38.869  30.490  30.658  1.00  0.00     0.049 A 
ATOM     51  N   UNL A   1      40.469  31.328  33.063  1.00  0.00    -0.248 NA
ATOM     52  C   UNL A   1      38.884  32.994  33.476  1.00  0.00     0.031 C 
ATOM     53  C   UNL A   1      38.147  30.052  29.461  1.00  0.00     0.029 A 
ATOM     54  N   UNL A   1      39.957  29.655  30.713  1.00  0.00    -0.354 N 
ATOM     55  C   UNL A   1      40.855  32.066  34.175  1.00  0.00     0.074 A 
ATOM     56  C   UNL A   1      39.880  33.123  34.340  1.00  0.00     0.031 C 
ATOM     57  C   UNL A   1      38.788  29.003  28.921  1.00  0.00     0.029 A 
ATOM     58  C   UNL A   1      39.989  28.726  29.703  1.00  0.00     0.049 A 
ATOM     59  H   UNL A   1      40.650  29.719  31.410  1.00  0.00     0.167 HD
ATOM     60  C   UNL A   1      41.909  31.871  35.001  1.00  0.00     0.031 A 
ATOM     61  C   UNL A   1      40.885  27.756  29.437  1.00  0.00     0.031 A 
ATOM     62  C   UNL A   1      42.883  30.825  34.833  1.00  0.00     0.049 A 
ATOM     63  C   UNL A   1      42.075  27.590  30.338  1.00  0.00     0.074 A 
ATOM     64  C   UNL A   1      43.968  30.518  35.636  1.00  0.00     0.029 A 
ATOM     65  N   UNL A   1      42.893  29.920  33.782  1.00  0.00    -0.354 N 
ATOM     66  N   UNL A   1      42.393  28.256  31.422  1.00  0.00    -0.248 NA
ATOM     67  C   UNL A   1      43.029  26.530  29.981  1.00  0.00     0.031 C 
ATOM     68  C   UNL A   1      44.667  29.463  35.039  1.00  0.00     0.029 A 
ATOM     69  C   UNL A   1      43.981  29.071  33.901  1.00  0.00     0.049 A 
ATOM     70  H   UNL A   1      42.226  29.886  33.059  1.00  0.00     0.167 HD
ATOM     71  C   UNL A   1      43.562  27.674  31.896  1.00  0.00     0.074 A 
ATOM     72  C   UNL A   1      43.889  26.594  30.987  1.00  0.00     0.031 C 
ATOM     73  C   UNL A   1      44.296  28.002  32.987  1.00  0.00     0.031 A 
BRANCH  60  74
ATOM     74  C   UNL A   1      42.062  32.826  36.154  1.00  0.00    -0.014 A 
ATOM     75  C   UNL A   1      42.811  34.008  36.027  1.00  0.00     0.009 A 
ATOM     76  C   UNL A   1      41.449  32.543  37.383  1.00  0.00     0.009 A 
ATOM     77  C   UNL A   1      42.984  34.860  37.120  1.00  0.00     0.001 A 
ATOM     78  C   UNL A   1      41.594  33.415  38.465  1.00  0.00     0.001 A 
ATOM     79  C   UNL A   1      42.373  34.564  38.337  1.00  0.00     0.000 A 
ENDBRANCH  60  74
BRANCH  61  80
ATOM     80  C   UNL A   1      40.674  26.844  28.282  1.00  0.00    -0.014 A 
ATOM     81  C   UNL A   1      41.222  27.155  27.027  1.00  0.00     0.009 A 
ATOM     82  C   UNL A   1      39.926  25.665  28.422  1.00  0.00     0.009 A 
ATOM     83  C   UNL A   1      41.001  26.317  25.931  1.00  0.00     0.001 A 
ATOM     84  C   UNL A   1      39.734  24.814  27.331  1.00  0.00     0.001 A 
ATOM     85  C   UNL A   1      40.263  25.146  26.085  1.00  0.00     0.000 A 
ENDBRANCH  61  80
BRANCH  73  86
ATOM     86  C   UNL A   1      45.504  27.156  33.282  1.00  0.00    -0.014 A 
ATOM     87  C   UNL A   1      46.775  27.495  32.793  1.00  0.00     0.009 A 
ATOM     88  C   UNL A   1      45.370  26.018  34.094  1.00  0.00     0.009 A 
ATOM     89  C   UNL A   1      47.880  26.692  33.082  1.00  0.00     0.001 A 
ATOM     90  C   UNL A   1      46.482  25.235  34.408  1.00  0.00     0.001 A 
ATOM     91  C   UNL A   1      47.734  25.566  33.893  1.00  0.00     0.000 A 
ENDBRANCH  73  86
ENDBRANCH  47  48
ENDBRANCH  39  42
ENDBRANCH  37  38
ENDBRANCH  36  37
ENDBRANCH  35  36
ENDBRANCH   1  35
TORSDOF 17
ENDMDL
