MODEL 1
REMARK VINA RESULT:     -10.8      0.000      0.000
REMARK SMILES C[C@H]1OCC[C@H]1C(=O)Nc1ccsc1C(=O)NCCCCNC(=O)c1ccc(-c2c3nc(c(-c4ccccc4)c4ccc([nH]4)c(-c4ccccc4)c4nc(c(-c5ccccc5)c5ccc2[nH]5)C=C4)C=C3)cc1
REMARK SMILES IDX 19 1 18 2 17 3 15 4 16 5 14 7 10 8 11 9 12 10 13 11 9 12
REMARK SMILES IDX 7 13 8 14 6 16 1 17 2 18 3 19 4 20 5 21 20 22 21 23 22 24
REMARK SMILES IDX 23 25 24 27 25 28 26 29 72 30 27 31 71 32 28 33 29 34 30 35
REMARK SMILES IDX 65 36 31 37 70 38 64 39 66 40 32 41 69 42 63 43 62 44 33 46
REMARK SMILES IDX 55 47 40 48 54 49 41 50 44 51 53 52 67 53 42 54 43 55 52 57
REMARK SMILES IDX 68 58 45 59 34 60 35 61 39 62 36 63 38 64 37 65 56 66 57 67
REMARK SMILES IDX 61 68 58 69 60 70 59 71 46 72 47 73 51 74 48 75 50 76 49 77
REMARK H PARENT 17 6 9 15 22 26 66 45 44 56
REMARK Flexibility Score: inf
ROOT
ATOM      1  C   UNL A   1      35.996  21.131  25.673  1.00  0.00     0.023 C 
ENDROOT
BRANCH   1   2
ATOM      2  C   UNL A   1      35.381  22.465  26.065  1.00  0.00     0.116 C 
BRANCH   2   3
ATOM      3  N   UNL A   1      34.449  22.439  27.163  1.00  0.00    -0.351 N 
ATOM      4  C   UNL A   1      33.090  22.669  27.197  1.00  0.00     0.263 C 
ATOM      5  O   UNL A   1      32.593  22.533  28.321  1.00  0.00    -0.268 OA
ATOM      6  H   UNL A   1      34.850  22.220  28.034  1.00  0.00     0.163 HD
BRANCH   4   7
ATOM      7  C   UNL A   1      32.303  23.076  26.027  1.00  0.00     0.115 A 
ATOM      8  C   UNL A   1      31.421  24.115  25.732  1.00  0.00     0.065 A 
ATOM      9  C   UNL A   1      30.981  24.076  24.374  1.00  0.00     0.038 A 
ATOM     10  C   UNL A   1      31.460  22.994  23.680  1.00  0.00     0.068 A 
ATOM     11  S   UNL A   1      32.463  22.027  24.648  1.00  0.00    -0.137 S 
BRANCH   8  12
ATOM     12  N   UNL A   1      31.164  25.184  26.565  1.00  0.00    -0.324 N 
ATOM     13  C   UNL A   1      31.703  26.430  26.633  1.00  0.00     0.230 C 
ATOM     14  O   UNL A   1      31.246  27.153  27.532  1.00  0.00    -0.274 OA
ATOM     15  H   UNL A   1      30.461  25.014  27.233  1.00  0.00     0.169 HD
BRANCH  13  16
ATOM     16  C   UNL A   1      32.711  27.050  25.659  1.00  0.00     0.110 C 
ATOM     17  C   UNL A   1      30.711  27.799  24.211  1.00  0.00     0.039 C 
ATOM     18  C   UNL A   1      32.166  27.980  24.596  1.00  0.00     0.127 C 
ATOM     19  O   UNL A   1      32.430  29.310  25.059  1.00  0.00    -0.378 OA
ATOM     20  C   UNL A   1      33.623  29.270  25.852  1.00  0.00     0.161 C 
ATOM     21  C   UNL A   1      33.895  27.822  26.207  1.00  0.00     0.044 C 
ENDBRANCH  13  16
ENDBRANCH   8  12
ENDBRANCH   4   7
ENDBRANCH   2   3
ENDBRANCH   1   2
BRANCH   1  22
ATOM     22  C   UNL A   1      37.293  21.214  24.880  1.00  0.00     0.023 C 
BRANCH  22  23
ATOM     23  C   UNL A   1      38.567  21.324  25.709  1.00  0.00     0.116 C 
BRANCH  23  24
ATOM     24  N   UNL A   1      39.422  20.146  25.639  1.00  0.00    -0.352 N 
ATOM     25  C   UNL A   1      40.747  19.996  25.989  1.00  0.00     0.251 C 
ATOM     26  H   UNL A   1      38.988  19.336  25.287  1.00  0.00     0.163 HD
ATOM     27  O   UNL A   1      41.339  18.949  25.769  1.00  0.00    -0.269 OA
BRANCH  25  28
ATOM     28  C   UNL A   1      41.472  21.138  26.587  1.00  0.00     0.039 A 
ATOM     29  C   UNL A   1      42.016  22.110  25.745  1.00  0.00     0.014 A 
ATOM     30  C   UNL A   1      41.553  21.282  27.972  1.00  0.00     0.014 A 
ATOM     31  C   UNL A   1      42.526  23.289  26.292  1.00  0.00     0.010 A 
ATOM     32  C   UNL A   1      41.966  22.495  28.510  1.00  0.00     0.010 A 
ATOM     33  C   UNL A   1      42.441  23.520  27.675  1.00  0.00    -0.014 A 
BRANCH  33  34
ATOM     34  C   UNL A   1      42.808  24.826  28.280  1.00  0.00     0.031 A 
ATOM     35  C   UNL A   1      41.755  25.875  28.502  1.00  0.00     0.074 A 
ATOM     36  C   UNL A   1      44.104  25.113  28.523  1.00  0.00     0.049 A 
ATOM     37  N   UNL A   1      41.896  27.125  28.861  1.00  0.00    -0.248 NA
ATOM     38  C   UNL A   1      40.360  25.473  28.250  1.00  0.00     0.031 C 
ATOM     39  C   UNL A   1      45.234  24.206  28.312  1.00  0.00     0.029 A 
ATOM     40  N   UNL A   1      44.690  26.266  28.985  1.00  0.00    -0.354 N 
ATOM     41  C   UNL A   1      40.617  27.667  28.842  1.00  0.00     0.074 A 
ATOM     42  C   UNL A   1      39.720  26.623  28.396  1.00  0.00     0.031 C 
ATOM     43  C   UNL A   1      46.371  24.827  28.666  1.00  0.00     0.029 A 
ATOM     44  C   UNL A   1      46.059  26.190  29.081  1.00  0.00     0.049 A 
ATOM     45  H   UNL A   1      44.177  27.072  29.225  1.00  0.00     0.167 HD
ATOM     46  C   UNL A   1      40.220  28.917  29.178  1.00  0.00     0.031 A 
ATOM     47  C   UNL A   1      46.964  27.117  29.447  1.00  0.00     0.031 A 
ATOM     48  C   UNL A   1      41.103  29.947  29.653  1.00  0.00     0.049 A 
ATOM     49  C   UNL A   1      46.498  28.494  29.825  1.00  0.00     0.074 A 
ATOM     50  C   UNL A   1      40.785  31.223  30.083  1.00  0.00     0.029 A 
ATOM     51  N   UNL A   1      42.477  29.815  29.767  1.00  0.00    -0.354 N 
ATOM     52  N   UNL A   1      45.279  28.975  29.851  1.00  0.00    -0.248 NA
ATOM     53  C   UNL A   1      47.535  29.456  30.229  1.00  0.00     0.031 C 
ATOM     54  C   UNL A   1      41.974  31.877  30.425  1.00  0.00     0.029 A 
ATOM     55  C   UNL A   1      43.025  30.992  30.247  1.00  0.00     0.049 A 
ATOM     56  H   UNL A   1      42.989  29.005  29.540  1.00  0.00     0.167 HD
ATOM     57  C   UNL A   1      45.398  30.284  30.299  1.00  0.00     0.074 A 
ATOM     58  C   UNL A   1      46.806  30.519  30.543  1.00  0.00     0.031 C 
ATOM     59  C   UNL A   1      44.426  31.206  30.492  1.00  0.00     0.031 A 
BRANCH  46  60
ATOM     60  C   UNL A   1      38.759  29.236  29.038  1.00  0.00    -0.014 A 
ATOM     61  C   UNL A   1      37.876  29.086  30.120  1.00  0.00     0.009 A 
ATOM     62  C   UNL A   1      38.263  29.716  27.817  1.00  0.00     0.009 A 
ATOM     63  C   UNL A   1      36.518  29.370  29.969  1.00  0.00     0.001 A 
ATOM     64  C   UNL A   1      36.909  30.029  27.676  1.00  0.00     0.001 A 
ATOM     65  C   UNL A   1      36.037  29.846  28.749  1.00  0.00     0.000 A 
ENDBRANCH  46  60
BRANCH  47  66
ATOM     66  C   UNL A   1      48.409  26.772  29.486  1.00  0.00    -0.014 A 
ATOM     67  C   UNL A   1      49.218  26.990  28.360  1.00  0.00     0.009 A 
ATOM     68  C   UNL A   1      48.984  26.219  30.641  1.00  0.00     0.009 A 
ATOM     69  C   UNL A   1      50.570  26.637  28.382  1.00  0.00     0.001 A 
ATOM     70  C   UNL A   1      50.341  25.891  30.667  1.00  0.00     0.001 A 
ATOM     71  C   UNL A   1      51.131  26.092  29.536  1.00  0.00     0.000 A 
ENDBRANCH  47  66
BRANCH  59  72
ATOM     72  C   UNL A   1      44.843  32.544  31.033  1.00  0.00    -0.014 A 
ATOM     73  C   UNL A   1      45.154  33.609  30.176  1.00  0.00     0.009 A 
ATOM     74  C   UNL A   1      44.871  32.752  32.421  1.00  0.00     0.009 A 
ATOM     75  C   UNL A   1      45.506  34.855  30.700  1.00  0.00     0.001 A 
ATOM     76  C   UNL A   1      45.199  34.003  32.942  1.00  0.00     0.001 A 
ATOM     77  C   UNL A   1      45.523  35.051  32.082  1.00  0.00     0.000 A 
ENDBRANCH  59  72
ENDBRANCH  33  34
ENDBRANCH  25  28
ENDBRANCH  23  24
ENDBRANCH  22  23
ENDBRANCH   1  22
TORSDOF 13
ENDMDL
MODEL 2
REMARK VINA RESULT:     -10.7      2.077      3.228
REMARK SMILES C[C@H]1OCC[C@H]1C(=O)Nc1ccsc1C(=O)NCCCCNC(=O)c1ccc(-c2c3nc(c(-c4ccccc4)c4ccc([nH]4)c(-c4ccccc4)c4nc(c(-c5ccccc5)c5ccc2[nH]5)C=C4)C=C3)cc1
REMARK SMILES IDX 19 1 18 2 17 3 15 4 16 5 14 7 10 8 11 9 12 10 13 11 9 12
REMARK SMILES IDX 7 13 8 14 6 16 1 17 2 18 3 19 4 20 5 21 20 22 21 23 22 24
REMARK SMILES IDX 23 25 24 27 25 28 26 29 72 30 27 31 71 32 28 33 29 34 30 35
REMARK SMILES IDX 65 36 31 37 70 38 64 39 66 40 32 41 69 42 63 43 62 44 33 46
REMARK SMILES IDX 55 47 40 48 54 49 41 50 44 51 53 52 67 53 42 54 43 55 52 57
REMARK SMILES IDX 68 58 45 59 34 60 35 61 39 62 36 63 38 64 37 65 56 66 57 67
REMARK SMILES IDX 61 68 58 69 60 70 59 71 46 72 47 73 51 74 48 75 50 76 49 77
REMARK H PARENT 17 6 9 15 22 26 66 45 44 56
REMARK Flexibility Score: inf
ROOT
ATOM      1  C   UNL A   1      34.488  22.778  26.023  1.00  0.00     0.023 C 
ENDROOT
BRANCH   1   2
ATOM      2  C   UNL A   1      33.229  21.943  25.850  1.00  0.00     0.116 C 
BRANCH   2   3
ATOM      3  N   UNL A   1      32.136  22.247  26.737  1.00  0.00    -0.351 N 
ATOM      4  C   UNL A   1      31.113  23.166  26.627  1.00  0.00     0.263 C 
ATOM      5  O   UNL A   1      30.320  23.139  27.575  1.00  0.00    -0.268 OA
ATOM      6  H   UNL A   1      32.117  21.709  27.561  1.00  0.00     0.163 HD
BRANCH   4   7
ATOM      7  C   UNL A   1      30.988  24.115  25.516  1.00  0.00     0.115 A 
ATOM      8  C   UNL A   1      30.750  25.484  25.397  1.00  0.00     0.065 A 
ATOM      9  C   UNL A   1      30.803  25.923  24.039  1.00  0.00     0.038 A 
ATOM     10  C   UNL A   1      31.004  24.900  23.146  1.00  0.00     0.068 A 
ATOM     11  S   UNL A   1      31.153  23.406  23.936  1.00  0.00    -0.137 S 
BRANCH   8  12
ATOM     12  N   UNL A   1      30.689  26.363  26.458  1.00  0.00    -0.324 N 
ATOM     13  C   UNL A   1      31.516  27.367  26.852  1.00  0.00     0.230 C 
ATOM     14  O   UNL A   1      31.168  27.961  27.885  1.00  0.00    -0.274 OA
ATOM     15  H   UNL A   1      29.901  26.241  27.037  1.00  0.00     0.169 HD
BRANCH  13  16
ATOM     16  C   UNL A   1      32.741  27.898  26.100  1.00  0.00     0.110 C 
ATOM     17  C   UNL A   1      31.149  29.446  24.786  1.00  0.00     0.039 C 
ATOM     18  C   UNL A   1      32.555  29.148  25.267  1.00  0.00     0.127 C 
ATOM     19  O   UNL A   1      33.089  30.226  26.046  1.00  0.00    -0.378 OA
ATOM     20  C   UNL A   1      34.146  29.700  26.858  1.00  0.00     0.161 C 
ATOM     21  C   UNL A   1      34.014  28.191  26.868  1.00  0.00     0.044 C 
ENDBRANCH  13  16
ENDBRANCH   8  12
ENDBRANCH   4   7
ENDBRANCH   2   3
ENDBRANCH   1   2
BRANCH   1  22
ATOM     22  C   UNL A   1      35.794  22.074  25.682  1.00  0.00     0.023 C 
BRANCH  22  23
ATOM     23  C   UNL A   1      37.021  22.972  25.582  1.00  0.00     0.116 C 
BRANCH  23  24
ATOM     24  N   UNL A   1      38.285  22.269  25.757  1.00  0.00    -0.352 N 
ATOM     25  C   UNL A   1      39.478  22.717  26.285  1.00  0.00     0.251 C 
ATOM     26  H   UNL A   1      38.288  21.333  25.452  1.00  0.00     0.163 HD
ATOM     27  O   UNL A   1      40.476  22.011  26.264  1.00  0.00    -0.269 OA
BRANCH  25  28
ATOM     28  C   UNL A   1      39.559  24.088  26.831  1.00  0.00     0.039 A 
ATOM     29  C   UNL A   1      39.151  24.317  28.147  1.00  0.00     0.014 A 
ATOM     30  C   UNL A   1      40.098  25.126  26.071  1.00  0.00     0.014 A 
ATOM     31  C   UNL A   1      39.405  25.555  28.742  1.00  0.00     0.010 A 
ATOM     32  C   UNL A   1      40.441  26.321  26.692  1.00  0.00     0.010 A 
ATOM     33  C   UNL A   1      40.116  26.543  28.041  1.00  0.00    -0.014 A 
BRANCH  33  34
ATOM     34  C   UNL A   1      40.560  27.803  28.689  1.00  0.00     0.031 A 
ATOM     35  C   UNL A   1      39.584  28.930  28.888  1.00  0.00     0.074 A 
ATOM     36  C   UNL A   1      41.862  27.980  28.992  1.00  0.00     0.049 A 
ATOM     37  N   UNL A   1      39.809  30.157  29.281  1.00  0.00    -0.248 NA
ATOM     38  C   UNL A   1      38.175  28.646  28.569  1.00  0.00     0.031 C 
ATOM     39  C   UNL A   1      42.924  26.989  28.810  1.00  0.00     0.029 A 
ATOM     40  N   UNL A   1      42.517  29.074  29.503  1.00  0.00    -0.354 N 
ATOM     41  C   UNL A   1      38.580  30.802  29.219  1.00  0.00     0.074 A 
ATOM     42  C   UNL A   1      37.622  29.841  28.713  1.00  0.00     0.031 C 
ATOM     43  C   UNL A   1      44.091  27.510  29.225  1.00  0.00     0.029 A 
ATOM     44  C   UNL A   1      43.870  28.886  29.655  1.00  0.00     0.049 A 
ATOM     45  H   UNL A   1      42.060  29.914  29.739  1.00  0.00     0.167 HD
ATOM     46  C   UNL A   1      38.270  32.073  29.565  1.00  0.00     0.031 A 
ATOM     47  C   UNL A   1      44.830  29.730  30.079  1.00  0.00     0.031 A 
ATOM     48  C   UNL A   1      39.210  33.019  30.099  1.00  0.00     0.049 A 
ATOM     49  C   UNL A   1      44.459  31.133  30.467  1.00  0.00     0.074 A 
ATOM     50  C   UNL A   1      38.976  34.309  30.543  1.00  0.00     0.029 A 
ATOM     51  N   UNL A   1      40.563  32.775  30.268  1.00  0.00    -0.354 N 
ATOM     52  N   UNL A   1      43.283  31.710  30.452  1.00  0.00    -0.248 NA
ATOM     53  C   UNL A   1      45.551  32.000  30.935  1.00  0.00     0.031 C 
ATOM     54  C   UNL A   1      40.198  34.858  30.948  1.00  0.00     0.029 A 
ATOM     55  C   UNL A   1      41.182  33.895  30.796  1.00  0.00     0.049 A 
ATOM     56  H   UNL A   1      41.018  31.930  30.045  1.00  0.00     0.167 HD
ATOM     57  C   UNL A   1      43.486  32.996  30.933  1.00  0.00     0.074 A 
ATOM     58  C   UNL A   1      44.896  33.113  31.241  1.00  0.00     0.031 C 
ATOM     59  C   UNL A   1      42.583  33.991  31.105  1.00  0.00     0.031 A 
BRANCH  46  60
ATOM     60  C   UNL A   1      36.846  32.512  29.371  1.00  0.00    -0.014 A 
ATOM     61  C   UNL A   1      36.419  33.075  28.158  1.00  0.00     0.009 A 
ATOM     62  C   UNL A   1      35.914  32.338  30.405  1.00  0.00     0.009 A 
ATOM     63  C   UNL A   1      35.097  33.493  27.999  1.00  0.00     0.001 A 
ATOM     64  C   UNL A   1      34.585  32.730  30.234  1.00  0.00     0.001 A 
ATOM     65  C   UNL A   1      34.181  33.316  29.035  1.00  0.00     0.000 A 
ENDBRANCH  46  60
BRANCH  47  66
ATOM     66  C   UNL A   1      46.240  29.269  30.172  1.00  0.00    -0.014 A 
ATOM     67  C   UNL A   1      47.103  29.409  29.074  1.00  0.00     0.009 A 
ATOM     68  C   UNL A   1      46.727  28.682  31.350  1.00  0.00     0.009 A 
ATOM     69  C   UNL A   1      48.420  28.947  29.146  1.00  0.00     0.001 A 
ATOM     70  C   UNL A   1      48.051  28.245  31.426  1.00  0.00     0.001 A 
ATOM     71  C   UNL A   1      48.893  28.369  30.322  1.00  0.00     0.000 A 
ENDBRANCH  47  66
BRANCH  59  72
ATOM     72  C   UNL A   1      43.082  35.280  31.691  1.00  0.00    -0.014 A 
ATOM     73  C   UNL A   1      43.654  36.273  30.883  1.00  0.00     0.009 A 
ATOM     74  C   UNL A   1      42.924  35.523  33.065  1.00  0.00     0.009 A 
ATOM     75  C   UNL A   1      44.079  37.479  31.445  1.00  0.00     0.001 A 
ATOM     76  C   UNL A   1      43.328  36.737  33.619  1.00  0.00     0.001 A 
ATOM     77  C   UNL A   1      43.911  37.712  32.811  1.00  0.00     0.000 A 
ENDBRANCH  59  72
ENDBRANCH  33  34
ENDBRANCH  25  28
ENDBRANCH  23  24
ENDBRANCH  22  23
ENDBRANCH   1  22
TORSDOF 13
ENDMDL
MODEL 3
REMARK VINA RESULT:     -10.6      1.922      7.666
REMARK SMILES C[C@H]1OCC[C@H]1C(=O)Nc1ccsc1C(=O)NCCCCNC(=O)c1ccc(-c2c3nc(c(-c4ccccc4)c4ccc([nH]4)c(-c4ccccc4)c4nc(c(-c5ccccc5)c5ccc2[nH]5)C=C4)C=C3)cc1
REMARK SMILES IDX 19 1 18 2 17 3 15 4 16 5 14 7 10 8 11 9 12 10 13 11 9 12
REMARK SMILES IDX 7 13 8 14 6 16 1 17 2 18 3 19 4 20 5 21 20 22 21 23 22 24
REMARK SMILES IDX 23 25 24 27 25 28 26 29 72 30 27 31 71 32 28 33 29 34 30 35
REMARK SMILES IDX 65 36 31 37 70 38 64 39 66 40 32 41 69 42 63 43 62 44 33 46
REMARK SMILES IDX 55 47 40 48 54 49 41 50 44 51 53 52 67 53 42 54 43 55 52 57
REMARK SMILES IDX 68 58 45 59 34 60 35 61 39 62 36 63 38 64 37 65 56 66 57 67
REMARK SMILES IDX 61 68 58 69 60 70 59 71 46 72 47 73 51 74 48 75 50 76 49 77
REMARK H PARENT 17 6 9 15 22 26 66 45 44 56
REMARK Flexibility Score: inf
ROOT
ATOM      1  C   UNL A   1      32.416  27.937  26.902  1.00  0.00     0.023 C 
ENDROOT
BRANCH   1   2
ATOM      2  C   UNL A   1      33.515  27.224  26.128  1.00  0.00     0.116 C 
BRANCH   2   3
ATOM      3  N   UNL A   1      33.425  27.283  24.692  1.00  0.00    -0.351 N 
ATOM      4  C   UNL A   1      33.028  26.334  23.773  1.00  0.00     0.263 C 
ATOM      5  O   UNL A   1      33.046  26.739  22.605  1.00  0.00    -0.268 OA
ATOM      6  H   UNL A   1      33.691  28.146  24.301  1.00  0.00     0.163 HD
BRANCH   4   7
ATOM      7  C   UNL A   1      32.655  24.961  24.131  1.00  0.00     0.115 A 
ATOM      8  C   UNL A   1      33.170  23.691  23.878  1.00  0.00     0.065 A 
ATOM      9  C   UNL A   1      32.433  22.668  24.549  1.00  0.00     0.038 A 
ATOM     10  C   UNL A   1      31.342  23.146  25.232  1.00  0.00     0.068 A 
ATOM     11  S   UNL A   1      31.210  24.831  25.092  1.00  0.00    -0.137 S 
BRANCH   8  12
ATOM     12  N   UNL A   1      34.371  23.445  23.246  1.00  0.00    -0.324 N 
ATOM     13  C   UNL A   1      35.624  23.233  23.730  1.00  0.00     0.230 C 
ATOM     14  O   UNL A   1      36.499  23.059  22.868  1.00  0.00    -0.274 OA
ATOM     15  H   UNL A   1      34.311  23.418  22.263  1.00  0.00     0.169 HD
BRANCH  13  16
ATOM     16  C   UNL A   1      36.027  23.076  25.201  1.00  0.00     0.110 C 
ATOM     17  C   UNL A   1      35.429  20.574  25.003  1.00  0.00     0.039 C 
ATOM     18  C   UNL A   1      36.187  21.667  25.729  1.00  0.00     0.127 C 
ATOM     19  O   UNL A   1      37.597  21.409  25.751  1.00  0.00    -0.378 OA
ATOM     20  C   UNL A   1      38.268  22.656  25.974  1.00  0.00     0.161 C 
ATOM     21  C   UNL A   1      37.277  23.770  25.705  1.00  0.00     0.044 C 
ENDBRANCH  13  16
ENDBRANCH   8  12
ENDBRANCH   4   7
ENDBRANCH   2   3
ENDBRANCH   1   2
BRANCH   1  22
ATOM     22  C   UNL A   1      32.484  29.457  26.887  1.00  0.00     0.023 C 
BRANCH  22  23
ATOM     23  C   UNL A   1      33.873  30.057  27.071  1.00  0.00     0.116 C 
BRANCH  23  24
ATOM     24  N   UNL A   1      33.961  31.024  28.157  1.00  0.00    -0.352 N 
ATOM     25  C   UNL A   1      34.957  31.212  29.092  1.00  0.00     0.251 C 
ATOM     26  H   UNL A   1      33.193  31.635  28.235  1.00  0.00     0.163 HD
ATOM     27  O   UNL A   1      34.818  32.016  30.003  1.00  0.00    -0.269 OA
BRANCH  25  28
ATOM     28  C   UNL A   1      36.182  30.387  29.021  1.00  0.00     0.039 A 
ATOM     29  C   UNL A   1      36.909  30.359  27.829  1.00  0.00     0.014 A 
ATOM     30  C   UNL A   1      36.646  29.704  30.145  1.00  0.00     0.014 A 
ATOM     31  C   UNL A   1      38.167  29.751  27.803  1.00  0.00     0.010 A 
ATOM     32  C   UNL A   1      37.937  29.190  30.147  1.00  0.00     0.010 A 
ATOM     33  C   UNL A   1      38.720  29.224  28.981  1.00  0.00    -0.014 A 
BRANCH  33  34
ATOM     34  C   UNL A   1      40.119  28.727  29.041  1.00  0.00     0.031 A 
ATOM     35  C   UNL A   1      41.239  29.673  29.373  1.00  0.00     0.074 A 
ATOM     36  C   UNL A   1      40.397  27.456  28.684  1.00  0.00     0.049 A 
ATOM     37  N   UNL A   1      42.531  29.476  29.317  1.00  0.00    -0.248 NA
ATOM     38  C   UNL A   1      40.853  31.032  29.789  1.00  0.00     0.031 C 
ATOM     39  C   UNL A   1      39.413  26.443  28.296  1.00  0.00     0.029 A 
ATOM     40  N   UNL A   1      41.600  26.804  28.573  1.00  0.00    -0.354 N 
ATOM     41  C   UNL A   1      43.111  30.693  29.652  1.00  0.00     0.074 A 
ATOM     42  C   UNL A   1      42.031  31.632  29.870  1.00  0.00     0.031 C 
ATOM     43  C   UNL A   1      40.049  25.294  28.013  1.00  0.00     0.029 A 
ATOM     44  C   UNL A   1      41.487  25.501  28.151  1.00  0.00     0.049 A 
ATOM     45  H   UNL A   1      42.465  27.231  28.776  1.00  0.00     0.167 HD
ATOM     46  C   UNL A   1      44.422  31.001  29.782  1.00  0.00     0.031 A 
ATOM     47  C   UNL A   1      42.432  24.579  27.889  1.00  0.00     0.031 A 
ATOM     48  C   UNL A   1      45.496  30.064  29.599  1.00  0.00     0.049 A 
ATOM     49  C   UNL A   1      43.881  24.942  28.051  1.00  0.00     0.074 A 
ATOM     50  C   UNL A   1      46.854  30.265  29.776  1.00  0.00     0.029 A 
ATOM     51  N   UNL A   1      45.333  28.746  29.206  1.00  0.00    -0.354 N 
ATOM     52  N   UNL A   1      44.409  26.083  28.419  1.00  0.00    -0.248 NA
ATOM     53  C   UNL A   1      44.863  23.886  27.764  1.00  0.00     0.031 C 
ATOM     54  C   UNL A   1      47.516  29.075  29.454  1.00  0.00     0.029 A 
ATOM     55  C   UNL A   1      46.566  28.124  29.119  1.00  0.00     0.049 A 
ATOM     56  H   UNL A   1      44.468  28.315  29.016  1.00  0.00     0.167 HD
ATOM     57  C   UNL A   1      45.782  25.876  28.435  1.00  0.00     0.074 A 
ATOM     58  C   UNL A   1      46.005  24.498  28.049  1.00  0.00     0.031 C 
ATOM     59  C   UNL A   1      46.769  26.750  28.743  1.00  0.00     0.031 A 
BRANCH  46  60
ATOM     60  C   UNL A   1      44.764  32.420  30.138  1.00  0.00    -0.014 A 
ATOM     61  C   UNL A   1      44.963  33.391  29.143  1.00  0.00     0.009 A 
ATOM     62  C   UNL A   1      44.866  32.797  31.486  1.00  0.00     0.009 A 
ATOM     63  C   UNL A   1      45.297  34.701  29.490  1.00  0.00     0.001 A 
ATOM     64  C   UNL A   1      45.171  34.115  31.832  1.00  0.00     0.001 A 
ATOM     65  C   UNL A   1      45.396  35.062  30.834  1.00  0.00     0.000 A 
ENDBRANCH  46  60
BRANCH  47  66
ATOM     66  C   UNL A   1      42.040  23.212  27.457  1.00  0.00    -0.014 A 
ATOM     67  C   UNL A   1      41.491  22.309  28.381  1.00  0.00     0.009 A 
ATOM     68  C   UNL A   1      42.220  22.800  26.128  1.00  0.00     0.009 A 
ATOM     69  C   UNL A   1      41.153  21.012  27.988  1.00  0.00     0.001 A 
ATOM     70  C   UNL A   1      41.856  21.511  25.733  1.00  0.00     0.001 A 
ATOM     71  C   UNL A   1      41.332  20.616  26.663  1.00  0.00     0.000 A 
ENDBRANCH  47  66
BRANCH  59  72
ATOM     72  C   UNL A   1      48.179  26.235  28.719  1.00  0.00    -0.014 A 
ATOM     73  C   UNL A   1      48.782  25.712  29.872  1.00  0.00     0.009 A 
ATOM     74  C   UNL A   1      48.892  26.223  27.509  1.00  0.00     0.009 A 
ATOM     75  C   UNL A   1      50.083  25.206  29.818  1.00  0.00     0.001 A 
ATOM     76  C   UNL A   1      50.181  25.695  27.453  1.00  0.00     0.001 A 
ATOM     77  C   UNL A   1      50.778  25.194  28.608  1.00  0.00     0.000 A 
ENDBRANCH  59  72
ENDBRANCH  33  34
ENDBRANCH  25  28
ENDBRANCH  23  24
ENDBRANCH  22  23
ENDBRANCH   1  22
TORSDOF 13
ENDMDL
