MODEL 1
REMARK VINA RESULT:     -12.5      0.000      0.000
REMARK SMILES CC1=Nc2nc(NC(=O)CCC(=O)NCCCCNC(=O)c3ccc(-c4c5nc(c(-c6ccccc6)c6ccc([nH]6)c(-c6ccccc6)c6nc(c(-c7ccccc7)c7ccc4[nH]7)C=C6)C=C5)cc3)nn2[C@@H](c2ccc(Cl)cc2)C1
REMARK SMILES IDX 15 1 14 2 12 3 13 4 11 6 10 7 8 8 7 9 9 11 6 12 1 13 2 14
REMARK SMILES IDX 3 15 80 16 4 17 72 18 5 19 71 20 70 21 73 22 74 23 79 24
REMARK SMILES IDX 75 25 78 26 76 27 77 28 16 29 17 30 18 31 19 32 20 33 21 35
REMARK SMILES IDX 22 36 23 37 69 38 24 39 68 40 25 41 26 42 27 43 62 44 28 45
REMARK SMILES IDX 67 46 61 47 63 48 29 49 66 50 60 51 59 52 30 54 52 55 37 56
REMARK SMILES IDX 51 57 38 58 41 59 50 60 64 61 39 62 40 63 49 65 65 66 42 67
REMARK SMILES IDX 31 68 32 69 36 70 33 71 35 72 34 73 53 74 54 75 58 76 55 77
REMARK SMILES IDX 57 78 56 79 43 80 44 81 48 82 45 83 47 84 46 85
REMARK H PARENT 14 5 7 10 19 34 63 53 41 64
REMARK Flexibility Score: inf
ROOT
ATOM      1  C   UNL A   1      40.029  21.084  26.386  1.00  0.00     0.116 C 
ENDROOT
BRANCH   1   2
ATOM      2  N   UNL A   1      39.500  22.401  26.083  1.00  0.00    -0.356 N 
ATOM      3  C   UNL A   1      38.199  22.771  25.890  1.00  0.00     0.220 C 
ATOM      4  O   UNL A   1      37.875  23.925  26.170  1.00  0.00    -0.275 OA
ATOM      5  H   UNL A   1      40.166  23.122  26.007  1.00  0.00     0.163 HD
BRANCH   3   6
ATOM      6  C   UNL A   1      37.187  21.809  25.313  1.00  0.00     0.110 C 
BRANCH   6   7
ATOM      7  C   UNL A   1      35.871  22.485  24.935  1.00  0.00     0.110 C 
BRANCH   7   8
ATOM      8  C   UNL A   1      35.843  22.919  23.492  1.00  0.00     0.227 C 
ATOM      9  N   UNL A   1      34.894  23.758  23.007  1.00  0.00    -0.293 N 
ATOM     10  H   UNL A   1      34.980  23.961  22.048  1.00  0.00     0.173 HD
ATOM     11  O   UNL A   1      36.769  22.590  22.741  1.00  0.00    -0.275 OA
BRANCH   9  12
ATOM     12  C   UNL A   1      33.845  24.369  23.623  1.00  0.00     0.250 A 
ATOM     13  C   UNL A   1      28.588  26.682  23.943  1.00  0.00     0.062 C 
ATOM     14  C   UNL A   1      29.953  26.132  24.264  1.00  0.00     0.021 C 
ATOM     15  N   UNL A   1      30.703  25.740  23.282  1.00  0.00    -0.221 NA
ATOM     16  C   UNL A   1      30.319  25.953  25.725  1.00  0.00     0.083 C 
ATOM     17  C   UNL A   1      31.910  25.221  23.602  1.00  0.00     0.250 A 
ATOM     18  C   UNL A   1      31.834  25.989  25.959  1.00  0.00     0.147 C 
ATOM     19  N   UNL A   1      32.686  24.429  22.902  1.00  0.00    -0.174 NA
ATOM     20  N   UNL A   1      32.543  25.479  24.791  1.00  0.00    -0.220 N 
ATOM     21  N   UNL A   1      33.788  24.959  24.818  1.00  0.00    -0.130 NA
BRANCH  18  22
ATOM     22  C   UNL A   1      32.296  27.348  26.462  1.00  0.00    -0.023 A 
ATOM     23  C   UNL A   1      31.429  28.337  26.935  1.00  0.00     0.007 A 
ATOM     24  C   UNL A   1      33.677  27.630  26.453  1.00  0.00     0.007 A 
ATOM     25  C   UNL A   1      31.908  29.610  27.276  1.00  0.00     0.021 A 
ATOM     26  C   UNL A   1      34.162  28.886  26.828  1.00  0.00     0.021 A 
ATOM     27  C   UNL A   1      33.271  29.881  27.213  1.00  0.00     0.041 A 
ATOM     28  Cl  UNL A   1      33.856  31.450  27.604  1.00  0.00    -0.084 Cl
ENDBRANCH  18  22
ENDBRANCH   9  12
ENDBRANCH   7   8
ENDBRANCH   6   7
ENDBRANCH   3   6
ENDBRANCH   1   2
BRANCH   1  29
ATOM     29  C   UNL A   1      41.182  21.027  27.395  1.00  0.00     0.023 C 
BRANCH  29  30
ATOM     30  C   UNL A   1      42.313  20.020  27.153  1.00  0.00     0.023 C 
BRANCH  30  31
ATOM     31  C   UNL A   1      42.415  19.522  25.725  1.00  0.00     0.116 C 
BRANCH  31  32
ATOM     32  N   UNL A   1      43.795  19.232  25.293  1.00  0.00    -0.352 N 
ATOM     33  C   UNL A   1      44.746  20.108  24.788  1.00  0.00     0.251 C 
ATOM     34  H   UNL A   1      44.078  18.292  25.373  1.00  0.00     0.163 HD
ATOM     35  O   UNL A   1      45.725  19.712  24.158  1.00  0.00    -0.269 OA
BRANCH  33  36
ATOM     36  C   UNL A   1      44.562  21.540  25.056  1.00  0.00     0.039 A 
ATOM     37  C   UNL A   1      43.570  22.336  24.480  1.00  0.00     0.014 A 
ATOM     38  C   UNL A   1      45.360  22.029  26.072  1.00  0.00     0.014 A 
ATOM     39  C   UNL A   1      43.356  23.603  25.022  1.00  0.00     0.010 A 
ATOM     40  C   UNL A   1      44.859  23.037  26.826  1.00  0.00     0.010 A 
ATOM     41  C   UNL A   1      44.006  23.933  26.223  1.00  0.00    -0.014 A 
BRANCH  41  42
ATOM     42  C   UNL A   1      43.806  25.169  26.956  1.00  0.00     0.031 A 
ATOM     43  C   UNL A   1      44.785  26.220  26.621  1.00  0.00     0.074 A 
ATOM     44  C   UNL A   1      42.689  25.418  27.680  1.00  0.00     0.049 A 
ATOM     45  N   UNL A   1      45.837  26.536  27.294  1.00  0.00    -0.248 NA
ATOM     46  C   UNL A   1      44.702  26.855  25.296  1.00  0.00     0.031 C 
ATOM     47  C   UNL A   1      41.461  24.610  27.805  1.00  0.00     0.029 A 
ATOM     48  N   UNL A   1      42.376  26.524  28.400  1.00  0.00    -0.354 N 
ATOM     49  C   UNL A   1      46.409  27.597  26.607  1.00  0.00     0.074 A 
ATOM     50  C   UNL A   1      45.821  27.584  25.291  1.00  0.00     0.031 C 
ATOM     51  C   UNL A   1      40.473  25.349  28.357  1.00  0.00     0.029 A 
ATOM     52  C   UNL A   1      41.051  26.596  28.815  1.00  0.00     0.049 A 
ATOM     53  H   UNL A   1      43.035  27.223  28.613  1.00  0.00     0.167 HD
ATOM     54  C   UNL A   1      47.059  28.584  27.284  1.00  0.00     0.031 A 
ATOM     55  C   UNL A   1      40.474  27.606  29.507  1.00  0.00     0.031 A 
ATOM     56  C   UNL A   1      47.264  28.211  28.667  1.00  0.00     0.049 A 
ATOM     57  C   UNL A   1      41.571  28.344  30.167  1.00  0.00     0.074 A 
ATOM     58  C   UNL A   1      47.965  27.232  29.336  1.00  0.00     0.029 A 
ATOM     59  N   UNL A   1      46.300  28.668  29.535  1.00  0.00    -0.354 N 
ATOM     60  N   UNL A   1      42.333  27.822  31.087  1.00  0.00    -0.248 NA
ATOM     61  C   UNL A   1      42.116  29.514  29.499  1.00  0.00     0.031 C 
ATOM     62  C   UNL A   1      47.139  26.871  30.445  1.00  0.00     0.029 A 
ATOM     63  C   UNL A   1      46.009  27.693  30.452  1.00  0.00     0.049 A 
ATOM     64  H   UNL A   1      45.883  29.559  29.503  1.00  0.00     0.167 HD
ATOM     65  C   UNL A   1      43.604  28.303  30.809  1.00  0.00     0.074 A 
ATOM     66  C   UNL A   1      43.383  29.442  29.920  1.00  0.00     0.031 C 
ATOM     67  C   UNL A   1      44.713  27.554  31.092  1.00  0.00     0.031 A 
BRANCH  54  68
ATOM     68  C   UNL A   1      47.041  30.036  26.867  1.00  0.00    -0.014 A 
ATOM     69  C   UNL A   1      48.186  30.814  27.116  1.00  0.00     0.009 A 
ATOM     70  C   UNL A   1      45.871  30.735  26.515  1.00  0.00     0.009 A 
ATOM     71  C   UNL A   1      48.140  32.213  27.088  1.00  0.00     0.001 A 
ATOM     72  C   UNL A   1      45.828  32.131  26.450  1.00  0.00     0.001 A 
ATOM     73  C   UNL A   1      46.958  32.871  26.764  1.00  0.00     0.000 A 
ENDBRANCH  54  68
BRANCH  55  74
ATOM     74  C   UNL A   1      39.107  28.153  29.372  1.00  0.00    -0.014 A 
ATOM     75  C   UNL A   1      38.279  28.323  30.493  1.00  0.00     0.009 A 
ATOM     76  C   UNL A   1      38.726  28.784  28.172  1.00  0.00     0.009 A 
ATOM     77  C   UNL A   1      37.135  29.131  30.425  1.00  0.00     0.001 A 
ATOM     78  C   UNL A   1      37.587  29.595  28.107  1.00  0.00     0.001 A 
ATOM     79  C   UNL A   1      36.800  29.780  29.239  1.00  0.00     0.000 A 
ENDBRANCH  55  74
BRANCH  67  80
ATOM     80  C   UNL A   1      44.534  26.362  32.007  1.00  0.00    -0.014 A 
ATOM     81  C   UNL A   1      44.387  25.039  31.554  1.00  0.00     0.009 A 
ATOM     82  C   UNL A   1      44.634  26.580  33.389  1.00  0.00     0.009 A 
ATOM     83  C   UNL A   1      44.314  23.973  32.461  1.00  0.00     0.001 A 
ATOM     84  C   UNL A   1      44.581  25.517  34.293  1.00  0.00     0.001 A 
ATOM     85  C   UNL A   1      44.415  24.214  33.830  1.00  0.00     0.000 A 
ENDBRANCH  67  80
ENDBRANCH  41  42
ENDBRANCH  33  36
ENDBRANCH  31  32
ENDBRANCH  30  31
ENDBRANCH  29  30
ENDBRANCH   1  29
TORSDOF 15
ENDMDL
MODEL 2
REMARK VINA RESULT:     -12.4      1.388      2.202
REMARK SMILES CC1=Nc2nc(NC(=O)CCC(=O)NCCCCNC(=O)c3ccc(-c4c5nc(c(-c6ccccc6)c6ccc([nH]6)c(-c6ccccc6)c6nc(c(-c7ccccc7)c7ccc4[nH]7)C=C6)C=C5)cc3)nn2[C@@H](c2ccc(Cl)cc2)C1
REMARK SMILES IDX 15 1 14 2 12 3 13 4 11 6 10 7 8 8 7 9 9 11 6 12 1 13 2 14
REMARK SMILES IDX 3 15 80 16 4 17 72 18 5 19 71 20 70 21 73 22 74 23 79 24
REMARK SMILES IDX 75 25 78 26 76 27 77 28 16 29 17 30 18 31 19 32 20 33 21 35
REMARK SMILES IDX 22 36 23 37 69 38 24 39 68 40 25 41 26 42 27 43 62 44 28 45
REMARK SMILES IDX 67 46 61 47 63 48 29 49 66 50 60 51 59 52 30 54 52 55 37 56
REMARK SMILES IDX 51 57 38 58 41 59 50 60 64 61 39 62 40 63 49 65 65 66 42 67
REMARK SMILES IDX 31 68 32 69 36 70 33 71 35 72 34 73 53 74 54 75 58 76 55 77
REMARK SMILES IDX 57 78 56 79 43 80 44 81 48 82 45 83 47 84 46 85
REMARK H PARENT 14 5 7 10 19 34 63 53 41 64
REMARK Flexibility Score: inf
ROOT
ATOM      1  C   UNL A   1      39.898  21.232  26.278  1.00  0.00     0.116 C 
ENDROOT
BRANCH   1   2
ATOM      2  N   UNL A   1      39.244  22.516  26.099  1.00  0.00    -0.356 N 
ATOM      3  C   UNL A   1      37.958  22.768  25.715  1.00  0.00     0.220 C 
ATOM      4  O   UNL A   1      37.424  23.803  26.112  1.00  0.00    -0.275 OA
ATOM      5  H   UNL A   1      39.800  23.308  26.280  1.00  0.00     0.163 HD
BRANCH   3   6
ATOM      6  C   UNL A   1      37.215  21.827  24.795  1.00  0.00     0.110 C 
BRANCH   6   7
ATOM      7  C   UNL A   1      36.038  22.492  24.086  1.00  0.00     0.110 C 
BRANCH   7   8
ATOM      8  C   UNL A   1      34.709  21.959  24.557  1.00  0.00     0.227 C 
ATOM      9  N   UNL A   1      33.660  22.772  24.834  1.00  0.00    -0.293 N 
ATOM     10  H   UNL A   1      32.850  22.304  25.140  1.00  0.00     0.173 HD
ATOM     11  O   UNL A   1      34.525  20.736  24.596  1.00  0.00    -0.275 OA
BRANCH   9  12
ATOM     12  C   UNL A   1      33.537  24.126  24.760  1.00  0.00     0.250 A 
ATOM     13  C   UNL A   1      34.059  29.540  26.633  1.00  0.00     0.062 C 
ATOM     14  C   UNL A   1      33.807  28.311  25.799  1.00  0.00     0.021 C 
ATOM     15  N   UNL A   1      33.955  27.150  26.356  1.00  0.00    -0.221 NA
ATOM     16  C   UNL A   1      33.518  28.505  24.322  1.00  0.00     0.083 C 
ATOM     17  C   UNL A   1      33.754  26.065  25.574  1.00  0.00     0.250 A 
ATOM     18  C   UNL A   1      32.708  27.346  23.726  1.00  0.00     0.147 C 
ATOM     19  N   UNL A   1      34.179  24.835  25.735  1.00  0.00    -0.174 NA
ATOM     20  N   UNL A   1      33.010  26.101  24.423  1.00  0.00    -0.220 N 
ATOM     21  N   UNL A   1      32.844  24.869  23.896  1.00  0.00    -0.130 NA
BRANCH  18  22
ATOM     22  C   UNL A   1      31.230  27.690  23.613  1.00  0.00    -0.023 A 
ATOM     23  C   UNL A   1      30.201  26.769  23.826  1.00  0.00     0.007 A 
ATOM     24  C   UNL A   1      30.876  29.010  23.273  1.00  0.00     0.007 A 
ATOM     25  C   UNL A   1      28.864  27.120  23.593  1.00  0.00     0.021 A 
ATOM     26  C   UNL A   1      29.540  29.374  23.077  1.00  0.00     0.021 A 
ATOM     27  C   UNL A   1      28.540  28.417  23.211  1.00  0.00     0.041 A 
ATOM     28  Cl  UNL A   1      26.903  28.840  22.898  1.00  0.00    -0.084 Cl
ENDBRANCH  18  22
ENDBRANCH   9  12
ENDBRANCH   7   8
ENDBRANCH   6   7
ENDBRANCH   3   6
ENDBRANCH   1   2
BRANCH   1  29
ATOM     29  C   UNL A   1      40.995  21.169  27.347  1.00  0.00     0.023 C 
BRANCH  29  30
ATOM     30  C   UNL A   1      42.112  20.130  27.184  1.00  0.00     0.023 C 
BRANCH  30  31
ATOM     31  C   UNL A   1      42.278  19.603  25.773  1.00  0.00     0.116 C 
BRANCH  31  32
ATOM     32  N   UNL A   1      43.674  19.297  25.412  1.00  0.00    -0.352 N 
ATOM     33  C   UNL A   1      44.656  20.161  24.946  1.00  0.00     0.251 C 
ATOM     34  H   UNL A   1      43.945  18.356  25.514  1.00  0.00     0.163 HD
ATOM     35  O   UNL A   1      45.662  19.751  24.369  1.00  0.00    -0.269 OA
BRANCH  33  36
ATOM     36  C   UNL A   1      44.472  21.597  25.192  1.00  0.00     0.039 A 
ATOM     37  C   UNL A   1      43.489  22.387  24.591  1.00  0.00     0.014 A 
ATOM     38  C   UNL A   1      45.257  22.098  26.212  1.00  0.00     0.014 A 
ATOM     39  C   UNL A   1      43.271  23.661  25.113  1.00  0.00     0.010 A 
ATOM     40  C   UNL A   1      44.748  23.118  26.944  1.00  0.00     0.010 A 
ATOM     41  C   UNL A   1      43.905  24.007  26.317  1.00  0.00    -0.014 A 
BRANCH  41  42
ATOM     42  C   UNL A   1      43.698  25.253  27.030  1.00  0.00     0.031 A 
ATOM     43  C   UNL A   1      44.679  26.300  26.689  1.00  0.00     0.074 A 
ATOM     44  C   UNL A   1      42.575  25.511  27.742  1.00  0.00     0.049 A 
ATOM     45  N   UNL A   1      45.724  26.627  27.366  1.00  0.00    -0.248 NA
ATOM     46  C   UNL A   1      44.606  26.916  25.354  1.00  0.00     0.031 C 
ATOM     47  C   UNL A   1      41.346  24.704  27.868  1.00  0.00     0.029 A 
ATOM     48  N   UNL A   1      42.254  26.628  28.443  1.00  0.00    -0.354 N 
ATOM     49  C   UNL A   1      46.301  27.679  26.668  1.00  0.00     0.074 A 
ATOM     50  C   UNL A   1      45.725  27.646  25.348  1.00  0.00     0.031 C 
ATOM     51  C   UNL A   1      40.353  25.450  28.401  1.00  0.00     0.029 A 
ATOM     52  C   UNL A   1      40.925  26.704  28.845  1.00  0.00     0.049 A 
ATOM     53  H   UNL A   1      42.910  27.331  28.650  1.00  0.00     0.167 HD
ATOM     54  C   UNL A   1      46.944  28.676  27.336  1.00  0.00     0.031 A 
ATOM     55  C   UNL A   1      40.342  27.723  29.517  1.00  0.00     0.031 A 
ATOM     56  C   UNL A   1      47.138  28.324  28.725  1.00  0.00     0.049 A 
ATOM     57  C   UNL A   1      41.432  28.473  30.175  1.00  0.00     0.074 A 
ATOM     58  C   UNL A   1      47.835  27.355  29.415  1.00  0.00     0.029 A 
ATOM     59  N   UNL A   1      46.166  28.793  29.579  1.00  0.00    -0.354 N 
ATOM     60  N   UNL A   1      42.187  27.965  31.110  1.00  0.00    -0.248 NA
ATOM     61  C   UNL A   1      41.982  29.634  29.495  1.00  0.00     0.031 C 
ATOM     62  C   UNL A   1      47.000  27.010  30.522  1.00  0.00     0.029 A 
ATOM     63  C   UNL A   1      45.868  27.831  30.508  1.00  0.00     0.049 A 
ATOM     64  H   UNL A   1      45.749  29.682  29.530  1.00  0.00     0.167 HD
ATOM     65  C   UNL A   1      43.460  28.444  30.835  1.00  0.00     0.074 A 
ATOM     66  C   UNL A   1      43.245  29.569  29.927  1.00  0.00     0.031 C 
ATOM     67  C   UNL A   1      44.567  27.701  31.139  1.00  0.00     0.031 A 
BRANCH  54  68
ATOM     68  C   UNL A   1      46.928  30.122  26.897  1.00  0.00    -0.014 A 
ATOM     69  C   UNL A   1      48.086  30.893  27.106  1.00  0.00     0.009 A 
ATOM     70  C   UNL A   1      45.756  30.826  26.564  1.00  0.00     0.009 A 
ATOM     71  C   UNL A   1      48.051  32.292  27.058  1.00  0.00     0.001 A 
ATOM     72  C   UNL A   1      45.724  32.221  26.478  1.00  0.00     0.001 A 
ATOM     73  C   UNL A   1      46.867  32.956  26.752  1.00  0.00     0.000 A 
ENDBRANCH  54  68
BRANCH  55  74
ATOM     74  C   UNL A   1      38.976  28.267  29.363  1.00  0.00    -0.014 A 
ATOM     75  C   UNL A   1      38.141  28.459  30.474  1.00  0.00     0.009 A 
ATOM     76  C   UNL A   1      38.602  28.874  28.148  1.00  0.00     0.009 A 
ATOM     77  C   UNL A   1      36.997  29.265  30.383  1.00  0.00     0.001 A 
ATOM     78  C   UNL A   1      37.463  29.683  28.059  1.00  0.00     0.001 A 
ATOM     79  C   UNL A   1      36.668  29.890  29.182  1.00  0.00     0.000 A 
ENDBRANCH  55  74
BRANCH  67  80
ATOM     80  C   UNL A   1      44.382  26.522  32.070  1.00  0.00    -0.014 A 
ATOM     81  C   UNL A   1      44.466  25.178  31.662  1.00  0.00     0.009 A 
ATOM     82  C   UNL A   1      44.228  26.789  33.438  1.00  0.00     0.009 A 
ATOM     83  C   UNL A   1      44.371  24.138  32.596  1.00  0.00     0.001 A 
ATOM     84  C   UNL A   1      44.154  25.754  34.372  1.00  0.00     0.001 A 
ATOM     85  C   UNL A   1      44.219  24.427  33.951  1.00  0.00     0.000 A 
ENDBRANCH  67  80
ENDBRANCH  41  42
ENDBRANCH  33  36
ENDBRANCH  31  32
ENDBRANCH  30  31
ENDBRANCH  29  30
ENDBRANCH   1  29
TORSDOF 15
ENDMDL
MODEL 3
REMARK VINA RESULT:     -12.3      4.566      9.943
REMARK SMILES CC1=Nc2nc(NC(=O)CCC(=O)NCCCCNC(=O)c3ccc(-c4c5nc(c(-c6ccccc6)c6ccc([nH]6)c(-c6ccccc6)c6nc(c(-c7ccccc7)c7ccc4[nH]7)C=C6)C=C5)cc3)nn2[C@@H](c2ccc(Cl)cc2)C1
REMARK SMILES IDX 15 1 14 2 12 3 13 4 11 6 10 7 8 8 7 9 9 11 6 12 1 13 2 14
REMARK SMILES IDX 3 15 80 16 4 17 72 18 5 19 71 20 70 21 73 22 74 23 79 24
REMARK SMILES IDX 75 25 78 26 76 27 77 28 16 29 17 30 18 31 19 32 20 33 21 35
REMARK SMILES IDX 22 36 23 37 69 38 24 39 68 40 25 41 26 42 27 43 62 44 28 45
REMARK SMILES IDX 67 46 61 47 63 48 29 49 66 50 60 51 59 52 30 54 52 55 37 56
REMARK SMILES IDX 51 57 38 58 41 59 50 60 64 61 39 62 40 63 49 65 65 66 42 67
REMARK SMILES IDX 31 68 32 69 36 70 33 71 35 72 34 73 53 74 54 75 58 76 55 77
REMARK SMILES IDX 57 78 56 79 43 80 44 81 48 82 45 83 47 84 46 85
REMARK H PARENT 14 5 7 10 19 34 63 53 41 64
REMARK Flexibility Score: inf
ROOT
ATOM      1  C   UNL A   1      33.799  32.806  27.825  1.00  0.00     0.116 C 
ENDROOT
BRANCH   1   2
ATOM      2  N   UNL A   1      34.220  31.480  28.240  1.00  0.00    -0.356 N 
ATOM      3  C   UNL A   1      33.945  30.279  27.651  1.00  0.00     0.220 C 
ATOM      4  O   UNL A   1      34.761  29.367  27.781  1.00  0.00    -0.275 OA
ATOM      5  H   UNL A   1      34.778  31.443  29.050  1.00  0.00     0.163 HD
BRANCH   3   6
ATOM      6  C   UNL A   1      32.657  30.053  26.893  1.00  0.00     0.110 C 
BRANCH   6   7
ATOM      7  C   UNL A   1      32.537  28.638  26.332  1.00  0.00     0.110 C 
BRANCH   7   8
ATOM      8  C   UNL A   1      31.557  27.795  27.107  1.00  0.00     0.227 C 
ATOM      9  N   UNL A   1      31.336  26.489  26.815  1.00  0.00    -0.293 N 
ATOM     10  H   UNL A   1      30.668  26.050  27.388  1.00  0.00     0.173 HD
ATOM     11  O   UNL A   1      31.008  28.269  28.109  1.00  0.00    -0.275 OA
BRANCH   9  12
ATOM     12  C   UNL A   1      31.883  25.684  25.863  1.00  0.00     0.250 A 
ATOM     13  C   UNL A   1      32.055  21.188  22.279  1.00  0.00     0.062 C 
ATOM     14  C   UNL A   1      32.352  22.466  23.019  1.00  0.00     0.021 C 
ATOM     15  N   UNL A   1      31.567  22.809  23.991  1.00  0.00    -0.221 NA
ATOM     16  C   UNL A   1      33.479  23.339  22.499  1.00  0.00     0.083 C 
ATOM     17  C   UNL A   1      31.839  23.977  24.616  1.00  0.00     0.250 A 
ATOM     18  C   UNL A   1      34.085  24.227  23.593  1.00  0.00     0.147 C 
ATOM     19  N   UNL A   1      31.050  24.739  25.335  1.00  0.00    -0.174 NA
ATOM     20  N   UNL A   1      33.077  24.567  24.591  1.00  0.00    -0.220 N 
ATOM     21  N   UNL A   1      33.132  25.649  25.397  1.00  0.00    -0.130 NA
BRANCH  18  22
ATOM     22  C   UNL A   1      35.378  23.643  24.143  1.00  0.00    -0.023 A 
ATOM     23  C   UNL A   1      36.092  22.614  23.522  1.00  0.00     0.007 A 
ATOM     24  C   UNL A   1      35.887  24.166  25.348  1.00  0.00     0.007 A 
ATOM     25  C   UNL A   1      37.212  22.043  24.139  1.00  0.00     0.021 A 
ATOM     26  C   UNL A   1      37.028  23.624  25.948  1.00  0.00     0.021 A 
ATOM     27  C   UNL A   1      37.670  22.544  25.353  1.00  0.00     0.041 A 
ATOM     28  Cl  UNL A   1      39.029  21.825  26.125  1.00  0.00    -0.084 Cl
ENDBRANCH  18  22
ENDBRANCH   9  12
ENDBRANCH   7   8
ENDBRANCH   6   7
ENDBRANCH   3   6
ENDBRANCH   1   2
BRANCH   1  29
ATOM     29  C   UNL A   1      34.779  33.952  28.104  1.00  0.00     0.023 C 
BRANCH  29  30
ATOM     30  C   UNL A   1      34.256  35.200  28.824  1.00  0.00     0.023 C 
BRANCH  30  31
ATOM     31  C   UNL A   1      33.160  34.928  29.836  1.00  0.00     0.116 C 
BRANCH  31  32
ATOM     32  N   UNL A   1      33.175  35.845  30.990  1.00  0.00    -0.352 N 
ATOM     33  C   UNL A   1      33.695  35.630  32.259  1.00  0.00     0.251 C 
ATOM     34  H   UNL A   1      32.760  36.725  30.841  1.00  0.00     0.163 HD
ATOM     35  O   UNL A   1      33.361  36.316  33.224  1.00  0.00    -0.269 OA
BRANCH  33  36
ATOM     36  C   UNL A   1      34.692  34.562  32.415  1.00  0.00     0.039 A 
ATOM     37  C   UNL A   1      34.428  33.199  32.260  1.00  0.00     0.014 A 
ATOM     38  C   UNL A   1      35.985  35.020  32.570  1.00  0.00     0.014 A 
ATOM     39  C   UNL A   1      35.516  32.331  32.180  1.00  0.00     0.010 A 
ATOM     40  C   UNL A   1      36.981  34.248  32.070  1.00  0.00     0.010 A 
ATOM     41  C   UNL A   1      36.803  32.884  32.067  1.00  0.00    -0.014 A 
BRANCH  41  42
ATOM     42  C   UNL A   1      38.017  32.112  31.876  1.00  0.00     0.031 A 
ATOM     43  C   UNL A   1      38.694  31.755  33.136  1.00  0.00     0.074 A 
ATOM     44  C   UNL A   1      38.355  31.563  30.685  1.00  0.00     0.049 A 
ATOM     45  N   UNL A   1      39.709  32.349  33.660  1.00  0.00    -0.248 NA
ATOM     46  C   UNL A   1      38.059  30.757  34.011  1.00  0.00     0.031 C 
ATOM     47  C   UNL A   1      37.588  31.524  29.425  1.00  0.00     0.029 A 
ATOM     48  N   UNL A   1      39.447  30.820  30.375  1.00  0.00    -0.354 N 
ATOM     49  C   UNL A   1      40.004  31.629  34.810  1.00  0.00     0.074 A 
ATOM     50  C   UNL A   1      38.834  30.837  35.095  1.00  0.00     0.031 C 
ATOM     51  C   UNL A   1      38.128  30.619  28.580  1.00  0.00     0.029 A 
ATOM     52  C   UNL A   1      39.385  30.175  29.145  1.00  0.00     0.049 A 
ATOM     53  H   UNL A   1      40.224  30.743  30.974  1.00  0.00     0.167 HD
ATOM     54  C   UNL A   1      41.294  31.499  35.227  1.00  0.00     0.031 A 
ATOM     55  C   UNL A   1      40.318  29.347  28.619  1.00  0.00     0.031 A 
ATOM     56  C   UNL A   1      42.165  32.389  34.493  1.00  0.00     0.049 A 
ATOM     57  C   UNL A   1      41.588  29.646  29.315  1.00  0.00     0.074 A 
ATOM     58  C   UNL A   1      42.302  33.754  34.358  1.00  0.00     0.029 A 
ATOM     59  N   UNL A   1      42.781  31.822  33.402  1.00  0.00    -0.354 N 
ATOM     60  N   UNL A   1      42.201  30.794  29.223  1.00  0.00    -0.248 NA
ATOM     61  C   UNL A   1      41.953  28.837  30.465  1.00  0.00     0.031 C 
ATOM     62  C   UNL A   1      42.656  33.961  32.988  1.00  0.00     0.029 A 
ATOM     63  C   UNL A   1      42.796  32.718  32.366  1.00  0.00     0.049 A 
ATOM     64  H   UNL A   1      43.154  30.912  33.371  1.00  0.00     0.167 HD
ATOM     65  C   UNL A   1      42.674  31.046  30.503  1.00  0.00     0.074 A 
ATOM     66  C   UNL A   1      42.617  29.751  31.180  1.00  0.00     0.031 C 
ATOM     67  C   UNL A   1      42.787  32.327  30.967  1.00  0.00     0.031 A 
BRANCH  54  68
ATOM     68  C   UNL A   1      41.837  30.254  35.890  1.00  0.00    -0.014 A 
ATOM     69  C   UNL A   1      43.013  30.366  36.653  1.00  0.00     0.009 A 
ATOM     70  C   UNL A   1      41.420  28.949  35.566  1.00  0.00     0.009 A 
ATOM     71  C   UNL A   1      43.766  29.240  37.004  1.00  0.00     0.001 A 
ATOM     72  C   UNL A   1      42.148  27.819  35.946  1.00  0.00     0.001 A 
ATOM     73  C   UNL A   1      43.338  27.967  36.642  1.00  0.00     0.000 A 
ENDBRANCH  54  68
BRANCH  55  74
ATOM     74  C   UNL A   1      40.116  28.126  27.811  1.00  0.00    -0.014 A 
ATOM     75  C   UNL A   1      40.889  27.876  26.666  1.00  0.00     0.009 A 
ATOM     76  C   UNL A   1      39.360  27.061  28.338  1.00  0.00     0.009 A 
ATOM     77  C   UNL A   1      40.936  26.596  26.096  1.00  0.00     0.001 A 
ATOM     78  C   UNL A   1      39.413  25.782  27.772  1.00  0.00     0.001 A 
ATOM     79  C   UNL A   1      40.212  25.546  26.658  1.00  0.00     0.000 A 
ENDBRANCH  55  74
BRANCH  67  80
ATOM     80  C   UNL A   1      42.706  33.446  29.952  1.00  0.00    -0.014 A 
ATOM     81  C   UNL A   1      43.726  33.747  29.032  1.00  0.00     0.009 A 
ATOM     82  C   UNL A   1      41.497  34.150  29.852  1.00  0.00     0.009 A 
ATOM     83  C   UNL A   1      43.546  34.742  28.061  1.00  0.00     0.001 A 
ATOM     84  C   UNL A   1      41.309  35.127  28.873  1.00  0.00     0.001 A 
ATOM     85  C   UNL A   1      42.336  35.427  27.980  1.00  0.00     0.000 A 
ENDBRANCH  67  80
ENDBRANCH  41  42
ENDBRANCH  33  36
ENDBRANCH  31  32
ENDBRANCH  30  31
ENDBRANCH  29  30
ENDBRANCH   1  29
TORSDOF 15
ENDMDL
