MODEL 1
REMARK VINA RESULT:     -11.9      0.000      0.000
REMARK SMILES Cc1cc(N2N=C(C(=O)NCCCCNC(=O)c3ccc(-c4c5nc(c(-c6ccccc6)c6ccc([nH]6)c(-c6ccccc6)c6nc(c(-c7ccccc7)c7ccc4[nH]7)C=C6)C=C5)cc3)C[C@H]2c2ccccc2)c([N+](=O)[O-])cc1C
REMARK SMILES IDX 12 1 11 2 10 3 8 4 9 5 7 7 5 8 6 9 67 10 66 11 4 12 1 13
REMARK SMILES IDX 2 14 3 15 79 16 78 17 80 18 74 19 75 20 76 21 77 22 68 23
REMARK SMILES IDX 69 24 73 25 70 26 72 27 71 28 13 29 14 30 15 31 16 32 17 34
REMARK SMILES IDX 18 35 19 36 65 37 20 38 64 39 21 40 22 41 23 42 58 43 24 44
REMARK SMILES IDX 63 45 57 46 59 47 25 48 62 49 56 50 55 51 26 53 48 54 33 55
REMARK SMILES IDX 47 56 34 57 37 58 46 59 60 60 35 61 36 62 45 64 61 65 38 66
REMARK SMILES IDX 27 67 28 68 32 69 29 70 31 71 30 72 49 73 50 74 54 75 51 76
REMARK SMILES IDX 53 77 52 78 39 79 40 80 44 81 41 82 43 83 42 84
REMARK H PARENT 10 6 15 33 59 52 37 63
REMARK Flexibility Score: inf
ROOT
ATOM      1  C   UNL A   1      35.217  22.374  23.821  1.00  0.00     0.023 C 
ENDROOT
BRANCH   1   2
ATOM      2  C   UNL A   1      34.114  23.426  23.881  1.00  0.00     0.116 C 
BRANCH   2   3
ATOM      3  N   UNL A   1      32.909  22.906  24.490  1.00  0.00    -0.351 N 
ATOM      4  C   UNL A   1      31.818  23.475  25.097  1.00  0.00     0.267 C 
ATOM      5  O   UNL A   1      30.962  22.712  25.539  1.00  0.00    -0.268 OA
ATOM      6  H   UNL A   1      32.861  21.924  24.462  1.00  0.00     0.163 HD
BRANCH   4   7
ATOM      7  C   UNL A   1      31.581  24.975  25.216  1.00  0.00     0.128 C 
ATOM      8  N   UNL A   1      31.316  26.998  24.567  1.00  0.00    -0.250 N 
ATOM      9  N   UNL A   1      31.458  25.711  24.150  1.00  0.00    -0.171 NA
ATOM     10  C   UNL A   1      31.270  27.141  26.025  1.00  0.00     0.144 C 
ATOM     11  C   UNL A   1      31.408  25.697  26.511  1.00  0.00     0.096 C 
BRANCH   8  12
ATOM     12  C   UNL A   1      30.604  27.905  23.780  1.00  0.00     0.138 A 
ATOM     13  C   UNL A   1      26.884  28.503  23.176  1.00  0.00     0.045 C 
ATOM     14  C   UNL A   1      28.373  28.670  23.049  1.00  0.00    -0.046 A 
ATOM     15  C   UNL A   1      29.203  27.882  23.867  1.00  0.00     0.039 A 
ATOM     16  C   UNL A   1      28.959  29.568  22.142  1.00  0.00    -0.041 A 
ATOM     17  C   UNL A   1      30.361  29.642  22.070  1.00  0.00     0.091 A 
ATOM     18  C   UNL A   1      28.156  30.467  21.242  1.00  0.00     0.045 C 
ATOM     19  C   UNL A   1      31.163  28.812  22.874  1.00  0.00     0.294 A 
BRANCH  19  20
ATOM     20  N   UNL A   1      32.601  28.862  22.649  1.00  0.00     0.065 N 
ATOM     21  O   UNL A   1      33.064  28.116  21.772  1.00  0.00    -0.258 OA
ATOM     22  O   UNL A   1      33.284  29.552  23.424  1.00  0.00    -0.258 OA
ENDBRANCH  19  20
ENDBRANCH   8  12
BRANCH  10  23
ATOM     23  C   UNL A   1      32.346  28.102  26.522  1.00  0.00    -0.023 A 
ATOM     24  C   UNL A   1      33.714  27.784  26.557  1.00  0.00     0.006 A 
ATOM     25  C   UNL A   1      31.961  29.393  26.929  1.00  0.00     0.006 A 
ATOM     26  C   UNL A   1      34.654  28.705  27.026  1.00  0.00     0.000 A 
ATOM     27  C   UNL A   1      32.906  30.326  27.358  1.00  0.00     0.000 A 
ATOM     28  C   UNL A   1      34.251  29.977  27.420  1.00  0.00     0.000 A 
ENDBRANCH  10  23
ENDBRANCH   4   7
ENDBRANCH   2   3
ENDBRANCH   1   2
BRANCH   1  29
ATOM     29  C   UNL A   1      36.629  22.948  23.746  1.00  0.00     0.023 C 
BRANCH  29  30
ATOM     30  C   UNL A   1      37.244  23.339  25.087  1.00  0.00     0.116 C 
BRANCH  30  31
ATOM     31  N   UNL A   1      38.262  22.409  25.557  1.00  0.00    -0.352 N 
ATOM     32  C   UNL A   1      39.367  22.666  26.332  1.00  0.00     0.251 C 
ATOM     33  H   UNL A   1      38.142  21.470  25.283  1.00  0.00     0.163 HD
ATOM     34  O   UNL A   1      40.184  21.782  26.571  1.00  0.00    -0.269 OA
BRANCH  32  35
ATOM     35  C   UNL A   1      39.582  24.034  26.838  1.00  0.00     0.039 A 
ATOM     36  C   UNL A   1      39.118  24.361  28.114  1.00  0.00     0.014 A 
ATOM     37  C   UNL A   1      40.299  24.963  26.080  1.00  0.00     0.014 A 
ATOM     38  C   UNL A   1      39.443  25.602  28.664  1.00  0.00     0.010 A 
ATOM     39  C   UNL A   1      40.685  26.165  26.659  1.00  0.00     0.010 A 
ATOM     40  C   UNL A   1      40.265  26.495  27.957  1.00  0.00    -0.014 A 
BRANCH  40  41
ATOM     41  C   UNL A   1      40.709  27.773  28.561  1.00  0.00     0.031 A 
ATOM     42  C   UNL A   1      39.724  28.885  28.782  1.00  0.00     0.074 A 
ATOM     43  C   UNL A   1      42.016  27.965  28.827  1.00  0.00     0.049 A 
ATOM     44  N   UNL A   1      39.934  30.097  29.229  1.00  0.00    -0.248 NA
ATOM     45  C   UNL A   1      38.324  28.610  28.421  1.00  0.00     0.031 C 
ATOM     46  C   UNL A   1      43.082  26.988  28.597  1.00  0.00     0.029 A 
ATOM     47  N   UNL A   1      42.672  29.058  29.335  1.00  0.00    -0.354 N 
ATOM     48  C   UNL A   1      38.701  30.734  29.178  1.00  0.00     0.074 A 
ATOM     49  C   UNL A   1      37.760  29.793  28.613  1.00  0.00     0.031 C 
ATOM     50  C   UNL A   1      44.255  27.519  28.979  1.00  0.00     0.029 A 
ATOM     51  C   UNL A   1      44.028  28.883  29.448  1.00  0.00     0.049 A 
ATOM     52  H   UNL A   1      42.212  29.890  29.593  1.00  0.00     0.167 HD
ATOM     53  C   UNL A   1      38.377  31.985  29.583  1.00  0.00     0.031 A 
ATOM     54  C   UNL A   1      44.986  29.727  29.876  1.00  0.00     0.031 A 
ATOM     55  C   UNL A   1      39.309  32.913  30.162  1.00  0.00     0.049 A 
ATOM     56  C   UNL A   1      44.600  31.100  30.343  1.00  0.00     0.074 A 
ATOM     57  C   UNL A   1      39.062  34.174  30.678  1.00  0.00     0.029 A 
ATOM     58  N   UNL A   1      40.669  32.683  30.296  1.00  0.00    -0.354 N 
ATOM     59  N   UNL A   1      43.414  31.658  30.374  1.00  0.00    -0.248 NA
ATOM     60  C   UNL A   1      45.682  31.957  30.848  1.00  0.00     0.031 C 
ATOM     61  C   UNL A   1      40.283  34.725  31.083  1.00  0.00     0.029 A 
ATOM     62  C   UNL A   1      41.281  33.788  30.864  1.00  0.00     0.049 A 
ATOM     63  H   UNL A   1      41.132  31.857  30.028  1.00  0.00     0.167 HD
ATOM     64  C   UNL A   1      43.603  32.921  30.919  1.00  0.00     0.074 A 
ATOM     65  C   UNL A   1      45.015  33.040  31.221  1.00  0.00     0.031 C 
ATOM     66  C   UNL A   1      42.688  33.893  31.151  1.00  0.00     0.031 A 
BRANCH  53  67
ATOM     67  C   UNL A   1      36.949  32.417  29.399  1.00  0.00    -0.014 A 
ATOM     68  C   UNL A   1      35.979  32.167  30.383  1.00  0.00     0.009 A 
ATOM     69  C   UNL A   1      36.570  33.092  28.228  1.00  0.00     0.009 A 
ATOM     70  C   UNL A   1      34.649  32.544  30.178  1.00  0.00     0.001 A 
ATOM     71  C   UNL A   1      35.246  33.494  28.039  1.00  0.00     0.001 A 
ATOM     72  C   UNL A   1      34.286  33.209  29.009  1.00  0.00     0.000 A 
ENDBRANCH  53  67
BRANCH  54  73
ATOM     73  C   UNL A   1      46.403  29.283  29.898  1.00  0.00    -0.014 A 
ATOM     74  C   UNL A   1      46.936  28.654  31.034  1.00  0.00     0.009 A 
ATOM     75  C   UNL A   1      47.226  29.472  28.777  1.00  0.00     0.009 A 
ATOM     76  C   UNL A   1      48.270  28.242  31.053  1.00  0.00     0.001 A 
ATOM     77  C   UNL A   1      48.553  29.035  28.790  1.00  0.00     0.001 A 
ATOM     78  C   UNL A   1      49.075  28.426  29.931  1.00  0.00     0.000 A 
ENDBRANCH  54  73
BRANCH  66  79
ATOM     79  C   UNL A   1      43.183  35.164  31.781  1.00  0.00    -0.014 A 
ATOM     80  C   UNL A   1      43.650  36.230  30.996  1.00  0.00     0.009 A 
ATOM     81  C   UNL A   1      43.141  35.311  33.176  1.00  0.00     0.009 A 
ATOM     82  C   UNL A   1      44.092  37.408  31.600  1.00  0.00     0.001 A 
ATOM     83  C   UNL A   1      43.560  36.499  33.775  1.00  0.00     0.001 A 
ATOM     84  C   UNL A   1      44.042  37.543  32.988  1.00  0.00     0.000 A 
ENDBRANCH  66  79
ENDBRANCH  40  41
ENDBRANCH  32  35
ENDBRANCH  30  31
ENDBRANCH  29  30
ENDBRANCH   1  29
TORSDOF 14
ENDMDL
MODEL 2
REMARK VINA RESULT:     -11.7      0.753      5.747
REMARK SMILES Cc1cc(N2N=C(C(=O)NCCCCNC(=O)c3ccc(-c4c5nc(c(-c6ccccc6)c6ccc([nH]6)c(-c6ccccc6)c6nc(c(-c7ccccc7)c7ccc4[nH]7)C=C6)C=C5)cc3)C[C@H]2c2ccccc2)c([N+](=O)[O-])cc1C
REMARK SMILES IDX 12 1 11 2 10 3 8 4 9 5 7 7 5 8 6 9 67 10 66 11 4 12 1 13
REMARK SMILES IDX 2 14 3 15 79 16 78 17 80 18 74 19 75 20 76 21 77 22 68 23
REMARK SMILES IDX 69 24 73 25 70 26 72 27 71 28 13 29 14 30 15 31 16 32 17 34
REMARK SMILES IDX 18 35 19 36 65 37 20 38 64 39 21 40 22 41 23 42 58 43 24 44
REMARK SMILES IDX 63 45 57 46 59 47 25 48 62 49 56 50 55 51 26 53 48 54 33 55
REMARK SMILES IDX 47 56 34 57 37 58 46 59 60 60 35 61 36 62 45 64 61 65 38 66
REMARK SMILES IDX 27 67 28 68 32 69 29 70 31 71 30 72 49 73 50 74 54 75 51 76
REMARK SMILES IDX 53 77 52 78 39 79 40 80 44 81 41 82 43 83 42 84
REMARK H PARENT 10 6 15 33 59 52 37 63
REMARK Flexibility Score: inf
ROOT
ATOM      1  C   UNL A   1      35.454  22.540  23.582  1.00  0.00     0.023 C 
ENDROOT
BRANCH   1   2
ATOM      2  C   UNL A   1      34.280  23.507  23.690  1.00  0.00     0.116 C 
BRANCH   2   3
ATOM      3  N   UNL A   1      33.211  22.965  24.501  1.00  0.00    -0.351 N 
ATOM      4  C   UNL A   1      32.195  23.515  25.243  1.00  0.00     0.267 C 
ATOM      5  O   UNL A   1      31.460  22.737  25.847  1.00  0.00    -0.268 OA
ATOM      6  H   UNL A   1      33.213  21.982  24.528  1.00  0.00     0.163 HD
BRANCH   4   7
ATOM      7  C   UNL A   1      31.897  25.006  25.326  1.00  0.00     0.128 C 
ATOM      8  N   UNL A   1      31.545  27.000  24.629  1.00  0.00    -0.250 N 
ATOM      9  N   UNL A   1      31.737  25.710  24.243  1.00  0.00    -0.171 NA
ATOM     10  C   UNL A   1      31.502  27.177  26.084  1.00  0.00     0.144 C 
ATOM     11  C   UNL A   1      31.702  25.752  26.604  1.00  0.00     0.096 C 
BRANCH   8  12
ATOM     12  C   UNL A   1      30.791  27.857  23.826  1.00  0.00     0.138 A 
ATOM     13  C   UNL A   1      27.044  28.312  23.264  1.00  0.00     0.045 C 
ATOM     14  C   UNL A   1      28.525  28.524  23.107  1.00  0.00    -0.046 A 
ATOM     15  C   UNL A   1      29.392  27.790  23.936  1.00  0.00     0.039 A 
ATOM     16  C   UNL A   1      29.066  29.410  22.162  1.00  0.00    -0.041 A 
ATOM     17  C   UNL A   1      30.464  29.527  22.064  1.00  0.00     0.091 A 
ATOM     18  C   UNL A   1      28.220  30.252  21.247  1.00  0.00     0.045 C 
ATOM     19  C   UNL A   1      31.305  28.750  22.881  1.00  0.00     0.294 A 
BRANCH  19  20
ATOM     20  N   UNL A   1      32.737  28.840  22.631  1.00  0.00     0.065 N 
ATOM     21  O   UNL A   1      33.384  29.641  23.322  1.00  0.00    -0.258 OA
ATOM     22  O   UNL A   1      33.196  28.204  21.667  1.00  0.00    -0.258 OA
ENDBRANCH  19  20
ENDBRANCH   8  12
BRANCH  10  23
ATOM     23  C   UNL A   1      32.540  28.193  26.549  1.00  0.00    -0.023 A 
ATOM     24  C   UNL A   1      33.926  27.992  26.442  1.00  0.00     0.006 A 
ATOM     25  C   UNL A   1      32.093  29.420  27.075  1.00  0.00     0.006 A 
ATOM     26  C   UNL A   1      34.830  28.958  26.889  1.00  0.00     0.000 A 
ATOM     27  C   UNL A   1      32.998  30.403  27.482  1.00  0.00     0.000 A 
ATOM     28  C   UNL A   1      34.367  30.165  27.403  1.00  0.00     0.000 A 
ENDBRANCH  10  23
ENDBRANCH   4   7
ENDBRANCH   2   3
ENDBRANCH   1   2
BRANCH   1  29
ATOM     29  C   UNL A   1      36.821  23.184  23.801  1.00  0.00     0.023 C 
BRANCH  29  30
ATOM     30  C   UNL A   1      37.280  23.256  25.254  1.00  0.00     0.116 C 
BRANCH  30  31
ATOM     31  N   UNL A   1      38.443  22.426  25.542  1.00  0.00    -0.352 N 
ATOM     32  C   UNL A   1      39.593  22.764  26.212  1.00  0.00     0.251 C 
ATOM     33  H   UNL A   1      38.397  21.499  25.214  1.00  0.00     0.163 HD
ATOM     34  O   UNL A   1      40.525  21.971  26.295  1.00  0.00    -0.269 OA
BRANCH  32  35
ATOM     35  C   UNL A   1      39.711  24.114  26.793  1.00  0.00     0.039 A 
ATOM     36  C   UNL A   1      39.199  24.345  28.072  1.00  0.00     0.014 A 
ATOM     37  C   UNL A   1      40.386  25.124  26.103  1.00  0.00     0.014 A 
ATOM     38  C   UNL A   1      39.434  25.572  28.693  1.00  0.00     0.010 A 
ATOM     39  C   UNL A   1      40.684  26.315  26.752  1.00  0.00     0.010 A 
ATOM     40  C   UNL A   1      40.215  26.549  28.054  1.00  0.00    -0.014 A 
BRANCH  40  41
ATOM     41  C   UNL A   1      40.566  27.819  28.733  1.00  0.00     0.031 A 
ATOM     42  C   UNL A   1      41.904  27.974  29.397  1.00  0.00     0.074 A 
ATOM     43  C   UNL A   1      39.646  28.799  28.829  1.00  0.00     0.049 A 
ATOM     44  N   UNL A   1      42.365  28.978  30.099  1.00  0.00    -0.248 NA
ATOM     45  C   UNL A   1      42.834  26.839  29.286  1.00  0.00     0.031 C 
ATOM     46  C   UNL A   1      38.288  28.745  28.283  1.00  0.00     0.029 A 
ATOM     47  N   UNL A   1      39.712  30.028  29.436  1.00  0.00    -0.354 N 
ATOM     48  C   UNL A   1      43.624  28.584  30.534  1.00  0.00     0.074 A 
ATOM     49  C   UNL A   1      43.834  27.234  30.058  1.00  0.00     0.031 C 
ATOM     50  C   UNL A   1      37.656  29.896  28.565  1.00  0.00     0.029 A 
ATOM     51  C   UNL A   1      38.550  30.753  29.339  1.00  0.00     0.049 A 
ATOM     52  H   UNL A   1      40.516  30.357  29.900  1.00  0.00     0.167 HD
ATOM     53  C   UNL A   1      44.533  29.289  31.249  1.00  0.00     0.031 A 
ATOM     54  C   UNL A   1      38.236  31.969  29.822  1.00  0.00     0.031 A 
ATOM     55  C   UNL A   1      44.330  30.637  31.706  1.00  0.00     0.049 A 
ATOM     56  C   UNL A   1      39.267  32.742  30.592  1.00  0.00     0.074 A 
ATOM     57  C   UNL A   1      45.220  31.465  32.368  1.00  0.00     0.029 A 
ATOM     58  N   UNL A   1      43.153  31.352  31.552  1.00  0.00    -0.354 N 
ATOM     59  N   UNL A   1      40.487  32.393  30.917  1.00  0.00    -0.248 NA
ATOM     60  C   UNL A   1      38.882  34.085  31.049  1.00  0.00     0.031 C 
ATOM     61  C   UNL A   1      44.563  32.667  32.656  1.00  0.00     0.029 A 
ATOM     62  C   UNL A   1      43.283  32.604  32.129  1.00  0.00     0.049 A 
ATOM     63  H   UNL A   1      42.344  31.019  31.101  1.00  0.00     0.167 HD
ATOM     64  C   UNL A   1      41.024  33.477  31.599  1.00  0.00     0.074 A 
ATOM     65  C   UNL A   1      40.002  34.503  31.623  1.00  0.00     0.031 C 
ATOM     66  C   UNL A   1      42.254  33.611  32.152  1.00  0.00     0.031 A 
BRANCH  53  67
ATOM     67  C   UNL A   1      45.825  28.599  31.587  1.00  0.00    -0.014 A 
ATOM     68  C   UNL A   1      45.960  27.837  32.758  1.00  0.00     0.009 A 
ATOM     69  C   UNL A   1      46.920  28.706  30.716  1.00  0.00     0.009 A 
ATOM     70  C   UNL A   1      47.180  27.234  33.073  1.00  0.00     0.001 A 
ATOM     71  C   UNL A   1      48.129  28.077  31.019  1.00  0.00     0.001 A 
ATOM     72  C   UNL A   1      48.261  27.352  32.202  1.00  0.00     0.000 A 
ENDBRANCH  53  67
BRANCH  54  73
ATOM     73  C   UNL A   1      36.885  32.534  29.573  1.00  0.00    -0.014 A 
ATOM     74  C   UNL A   1      35.835  32.295  30.474  1.00  0.00     0.009 A 
ATOM     75  C   UNL A   1      36.642  33.328  28.442  1.00  0.00     0.009 A 
ATOM     76  C   UNL A   1      34.565  32.823  30.236  1.00  0.00     0.001 A 
ATOM     77  C   UNL A   1      35.377  33.877  28.220  1.00  0.00     0.001 A 
ATOM     78  C   UNL A   1      34.338  33.618  29.113  1.00  0.00     0.000 A 
ENDBRANCH  54  73
BRANCH  66  79
ATOM     79  C   UNL A   1      42.569  34.923  32.812  1.00  0.00    -0.014 A 
ATOM     80  C   UNL A   1      42.201  35.172  34.143  1.00  0.00     0.009 A 
ATOM     81  C   UNL A   1      43.281  35.903  32.106  1.00  0.00     0.009 A 
ATOM     82  C   UNL A   1      42.516  36.393  34.744  1.00  0.00     0.001 A 
ATOM     83  C   UNL A   1      43.618  37.112  32.717  1.00  0.00     0.001 A 
ATOM     84  C   UNL A   1      43.228  37.359  34.032  1.00  0.00     0.000 A 
ENDBRANCH  66  79
ENDBRANCH  40  41
ENDBRANCH  32  35
ENDBRANCH  30  31
ENDBRANCH  29  30
ENDBRANCH   1  29
TORSDOF 14
ENDMDL
MODEL 3
REMARK VINA RESULT:     -11.3      3.487      8.347
REMARK SMILES Cc1cc(N2N=C(C(=O)NCCCCNC(=O)c3ccc(-c4c5nc(c(-c6ccccc6)c6ccc([nH]6)c(-c6ccccc6)c6nc(c(-c7ccccc7)c7ccc4[nH]7)C=C6)C=C5)cc3)C[C@H]2c2ccccc2)c([N+](=O)[O-])cc1C
REMARK SMILES IDX 12 1 11 2 10 3 8 4 9 5 7 7 5 8 6 9 67 10 66 11 4 12 1 13
REMARK SMILES IDX 2 14 3 15 79 16 78 17 80 18 74 19 75 20 76 21 77 22 68 23
REMARK SMILES IDX 69 24 73 25 70 26 72 27 71 28 13 29 14 30 15 31 16 32 17 34
REMARK SMILES IDX 18 35 19 36 65 37 20 38 64 39 21 40 22 41 23 42 58 43 24 44
REMARK SMILES IDX 63 45 57 46 59 47 25 48 62 49 56 50 55 51 26 53 48 54 33 55
REMARK SMILES IDX 47 56 34 57 37 58 46 59 60 60 35 61 36 62 45 64 61 65 38 66
REMARK SMILES IDX 27 67 28 68 32 69 29 70 31 71 30 72 49 73 50 74 54 75 51 76
REMARK SMILES IDX 53 77 52 78 39 79 40 80 44 81 41 82 43 83 42 84
REMARK H PARENT 10 6 15 33 59 52 37 63
REMARK Flexibility Score: inf
ROOT
ATOM      1  C   UNL A   1      40.293  19.717  26.109  1.00  0.00     0.023 C 
ENDROOT
BRANCH   1   2
ATOM      2  C   UNL A   1      39.132  20.615  25.701  1.00  0.00     0.116 C 
BRANCH   2   3
ATOM      3  N   UNL A   1      39.340  21.985  26.117  1.00  0.00    -0.351 N 
ATOM      4  C   UNL A   1      38.579  23.127  26.078  1.00  0.00     0.267 C 
ATOM      5  O   UNL A   1      39.094  24.157  26.508  1.00  0.00    -0.268 OA
ATOM      6  H   UNL A   1      40.226  22.132  26.517  1.00  0.00     0.163 HD
BRANCH   4   7
ATOM      7  C   UNL A   1      37.140  23.188  25.585  1.00  0.00     0.128 C 
ATOM      8  N   UNL A   1      35.038  23.597  25.647  1.00  0.00    -0.250 N 
ATOM      9  N   UNL A   1      36.215  23.744  26.313  1.00  0.00    -0.171 NA
ATOM     10  C   UNL A   1      35.183  22.954  24.336  1.00  0.00     0.144 C 
ATOM     11  C   UNL A   1      36.689  22.698  24.250  1.00  0.00     0.096 C 
BRANCH   8  12
ATOM     12  C   UNL A   1      34.019  24.533  25.827  1.00  0.00     0.138 A 
ATOM     13  C   UNL A   1      33.779  28.297  25.245  1.00  0.00     0.045 C 
ATOM     14  C   UNL A   1      33.367  26.908  25.650  1.00  0.00    -0.046 A 
ATOM     15  C   UNL A   1      34.272  25.855  25.423  1.00  0.00     0.039 A 
ATOM     16  C   UNL A   1      32.129  26.631  26.251  1.00  0.00    -0.041 A 
ATOM     17  C   UNL A   1      31.835  25.307  26.621  1.00  0.00     0.091 A 
ATOM     18  C   UNL A   1      31.090  27.686  26.513  1.00  0.00     0.045 C 
ATOM     19  C   UNL A   1      32.777  24.282  26.418  1.00  0.00     0.294 A 
BRANCH  19  20
ATOM     20  N   UNL A   1      32.445  22.965  26.942  1.00  0.00     0.065 N 
ATOM     21  O   UNL A   1      31.532  22.343  26.378  1.00  0.00    -0.258 OA
ATOM     22  O   UNL A   1      33.009  22.600  27.988  1.00  0.00    -0.258 OA
ENDBRANCH  19  20
ENDBRANCH   8  12
BRANCH  10  23
ATOM     23  C   UNL A   1      34.303  21.713  24.227  1.00  0.00    -0.023 A 
ATOM     24  C   UNL A   1      33.109  21.671  23.487  1.00  0.00     0.006 A 
ATOM     25  C   UNL A   1      34.723  20.530  24.864  1.00  0.00     0.006 A 
ATOM     26  C   UNL A   1      32.342  20.505  23.426  1.00  0.00     0.000 A 
ATOM     27  C   UNL A   1      33.977  19.355  24.767  1.00  0.00     0.000 A 
ATOM     28  C   UNL A   1      32.778  19.346  24.061  1.00  0.00     0.000 A 
ENDBRANCH  10  23
ENDBRANCH   4   7
ENDBRANCH   2   3
ENDBRANCH   1   2
BRANCH   1  29
ATOM     29  C   UNL A   1      41.671  20.346  25.920  1.00  0.00     0.023 C 
BRANCH  29  30
ATOM     30  C   UNL A   1      42.850  19.458  26.310  1.00  0.00     0.116 C 
BRANCH  30  31
ATOM     31  N   UNL A   1      43.612  18.963  25.171  1.00  0.00    -0.352 N 
ATOM     32  C   UNL A   1      44.516  19.636  24.387  1.00  0.00     0.251 C 
ATOM     33  H   UNL A   1      43.458  18.021  24.932  1.00  0.00     0.163 HD
ATOM     34  O   UNL A   1      45.013  19.099  23.402  1.00  0.00    -0.269 OA
BRANCH  32  35
ATOM     35  C   UNL A   1      44.853  21.033  24.721  1.00  0.00     0.039 A 
ATOM     36  C   UNL A   1      44.389  22.055  23.892  1.00  0.00     0.014 A 
ATOM     37  C   UNL A   1      45.565  21.328  25.886  1.00  0.00     0.014 A 
ATOM     38  C   UNL A   1      44.572  23.385  24.274  1.00  0.00     0.010 A 
ATOM     39  C   UNL A   1      45.679  22.648  26.303  1.00  0.00     0.010 A 
ATOM     40  C   UNL A   1      45.180  23.689  25.503  1.00  0.00    -0.014 A 
BRANCH  40  41
ATOM     41  C   UNL A   1      45.294  25.088  25.980  1.00  0.00     0.031 A 
ATOM     42  C   UNL A   1      46.620  25.790  25.945  1.00  0.00     0.074 A 
ATOM     43  C   UNL A   1      44.222  25.694  26.526  1.00  0.00     0.049 A 
ATOM     44  N   UNL A   1      46.934  26.983  26.381  1.00  0.00    -0.248 NA
ATOM     45  C   UNL A   1      47.751  25.041  25.374  1.00  0.00     0.031 C 
ATOM     46  C   UNL A   1      42.894  25.096  26.678  1.00  0.00     0.029 A 
ATOM     47  N   UNL A   1      44.087  26.946  27.072  1.00  0.00    -0.354 N 
ATOM     48  C   UNL A   1      48.299  27.116  26.163  1.00  0.00     0.074 A 
ATOM     49  C   UNL A   1      48.762  25.866  25.601  1.00  0.00     0.031 C 
ATOM     50  C   UNL A   1      42.075  25.988  27.260  1.00  0.00     0.029 A 
ATOM     51  C   UNL A   1      42.828  27.204  27.552  1.00  0.00     0.049 A 
ATOM     52  H   UNL A   1      44.825  27.597  27.115  1.00  0.00     0.167 HD
ATOM     53  C   UNL A   1      49.094  28.188  26.392  1.00  0.00     0.031 A 
ATOM     54  C   UNL A   1      42.333  28.296  28.166  1.00  0.00     0.031 A 
ATOM     55  C   UNL A   1      48.630  29.436  26.934  1.00  0.00     0.049 A 
ATOM     56  C   UNL A   1      43.226  29.481  28.388  1.00  0.00     0.074 A 
ATOM     57  C   UNL A   1      49.339  30.608  27.129  1.00  0.00     0.029 A 
ATOM     58  N   UNL A   1      47.337  29.671  27.372  1.00  0.00    -0.354 N 
ATOM     59  N   UNL A   1      44.495  29.625  28.093  1.00  0.00    -0.248 NA
ATOM     60  C   UNL A   1      42.616  30.662  29.015  1.00  0.00     0.031 C 
ATOM     61  C   UNL A   1      48.485  31.539  27.729  1.00  0.00     0.029 A 
ATOM     62  C   UNL A   1      47.232  30.962  27.861  1.00  0.00     0.049 A 
ATOM     63  H   UNL A   1      46.601  29.017  27.341  1.00  0.00     0.167 HD
ATOM     64  C   UNL A   1      44.831  30.916  28.479  1.00  0.00     0.074 A 
ATOM     65  C   UNL A   1      43.627  31.520  29.012  1.00  0.00     0.031 C 
ATOM     66  C   UNL A   1      46.028  31.545  28.396  1.00  0.00     0.031 A 
BRANCH  53  67
ATOM     67  C   UNL A   1      50.554  28.043  26.063  1.00  0.00    -0.014 A 
ATOM     68  C   UNL A   1      51.039  28.302  24.772  1.00  0.00     0.009 A 
ATOM     69  C   UNL A   1      51.458  27.650  27.062  1.00  0.00     0.009 A 
ATOM     70  C   UNL A   1      52.393  28.127  24.476  1.00  0.00     0.001 A 
ATOM     71  C   UNL A   1      52.816  27.505  26.771  1.00  0.00     0.001 A 
ATOM     72  C   UNL A   1      53.279  27.732  25.476  1.00  0.00     0.000 A 
ENDBRANCH  53  67
BRANCH  54  73
ATOM     73  C   UNL A   1      40.912  28.318  28.597  1.00  0.00    -0.014 A 
ATOM     74  C   UNL A   1      39.922  28.857  27.759  1.00  0.00     0.009 A 
ATOM     75  C   UNL A   1      40.535  27.788  29.840  1.00  0.00     0.009 A 
ATOM     76  C   UNL A   1      38.587  28.881  28.169  1.00  0.00     0.001 A 
ATOM     77  C   UNL A   1      39.196  27.790  30.236  1.00  0.00     0.001 A 
ATOM     78  C   UNL A   1      38.224  28.343  29.402  1.00  0.00     0.000 A 
ENDBRANCH  54  73
BRANCH  66  79
ATOM     79  C   UNL A   1      46.089  32.968  28.874  1.00  0.00    -0.014 A 
ATOM     80  C   UNL A   1      45.885  34.040  27.992  1.00  0.00     0.009 A 
ATOM     81  C   UNL A   1      46.311  33.236  30.233  1.00  0.00     0.009 A 
ATOM     82  C   UNL A   1      45.931  35.355  28.459  1.00  0.00     0.001 A 
ATOM     83  C   UNL A   1      46.331  34.550  30.702  1.00  0.00     0.001 A 
ATOM     84  C   UNL A   1      46.149  35.608  29.814  1.00  0.00     0.000 A 
ENDBRANCH  66  79
ENDBRANCH  40  41
ENDBRANCH  32  35
ENDBRANCH  30  31
ENDBRANCH  29  30
ENDBRANCH   1  29
TORSDOF 14
ENDMDL
