MODEL 1
REMARK VINA RESULT:     -11.8      0.000      0.000
REMARK SMILES CCN(CC)c1ccc([C@@H]2c3[nH]c4ccccc4c3C[C@@H](C(=O)NCCCCNC(=O)c3ccc(-c4c5nc(c(-c6ccccc6)c6ccc([nH]6)c(-c6ccccc6)c6nc(c(-c7ccccc7)c7ccc4[nH]7)C=C6)C=C5)cc3)N2C(C)=O)cc1
REMARK SMILES IDX 26 1 25 2 24 3 22 4 23 5 21 7 10 8 11 9 80 10 12 11 19 12
REMARK SMILES IDX 13 13 18 15 20 16 14 17 17 18 15 19 16 20 9 21 6 22 7 23
REMARK SMILES IDX 85 24 8 25 84 26 3 27 2 28 1 29 4 30 5 31 81 32 82 33 83 34
REMARK SMILES IDX 27 35 28 36 29 37 30 38 31 40 32 41 33 42 79 43 34 44 78 45
REMARK SMILES IDX 35 46 36 47 37 48 72 49 38 50 77 51 71 52 73 53 39 54 76 55
REMARK SMILES IDX 70 56 69 57 40 59 62 60 47 61 61 62 48 63 51 64 60 65 74 66
REMARK SMILES IDX 49 67 50 68 59 70 75 71 52 72 41 73 42 74 46 75 43 76 45 77
REMARK SMILES IDX 44 78 63 79 64 80 68 81 65 82 67 83 66 84 53 85 54 86 58 87
REMARK SMILES IDX 55 88 57 89 56 90
REMARK H PARENT 24 6 12 14 29 39 73 58 51 69
REMARK Flexibility Score: inf
ROOT
ATOM      1  C   UNL A   1      39.091  20.170  25.534  1.00  0.00     0.023 C 
ENDROOT
BRANCH   1   2
ATOM      2  C   UNL A   1      37.616  20.777  25.028  1.00  0.00     0.116 C 
BRANCH   2   3
ATOM      3  N   UNL A   1      37.384  22.316  25.323  1.00  0.00    -0.354 N 
ATOM      4  C   UNL A   1      36.355  23.249  26.082  1.00  0.00     0.243 C 
ATOM      5  O   UNL A   1      36.593  24.445  25.817  1.00  0.00    -0.273 OA
ATOM      6  H   UNL A   1      38.096  22.856  24.910  1.00  0.00     0.163 HD
BRANCH   4   7
ATOM      7  C   UNL A   1      34.704  22.718  27.043  1.00  0.00     0.179 C 
ATOM      8  C   UNL A   1      33.179  24.457  26.334  1.00  0.00     0.163 C 
ATOM      9  C   UNL A   1      34.117  23.313  25.407  1.00  0.00     0.047 A 
ATOM     10  N   UNL A   1      32.913  23.188  26.200  1.00  0.00    -0.318 N 
ATOM     11  N   UNL A   1      34.373  22.855  24.219  1.00  0.00    -0.356 N 
ATOM     12  C   UNL A   1      34.199  21.571  25.564  1.00  0.00    -0.014 A 
ATOM     13  C   UNL A   1      33.500  21.791  23.747  1.00  0.00     0.046 A 
ATOM     14  H   UNL A   1      35.113  23.206  23.672  1.00  0.00     0.166 HD
ATOM     15  C   UNL A   1      33.700  20.639  24.544  1.00  0.00     0.003 A 
ATOM     16  C   UNL A   1      34.767  21.251  26.872  1.00  0.00     0.073 C 
ATOM     17  C   UNL A   1      32.559  21.955  22.558  1.00  0.00     0.026 A 
ATOM     18  C   UNL A   1      33.192  19.752  23.530  1.00  0.00     0.010 A 
ATOM     19  C   UNL A   1      31.598  21.080  22.242  1.00  0.00     0.002 A 
ATOM     20  C   UNL A   1      32.153  19.898  22.487  1.00  0.00     0.001 A 
BRANCH   8  21
ATOM     21  C   UNL A   1      32.631  25.709  25.722  1.00  0.00    -0.019 A 
ATOM     22  C   UNL A   1      31.883  28.372  25.601  1.00  0.00     0.037 A 
ATOM     23  C   UNL A   1      33.151  28.019  25.455  1.00  0.00     0.026 A 
ATOM     24  C   UNL A   1      31.011  27.305  25.929  1.00  0.00     0.026 A 
ATOM     25  C   UNL A   1      33.152  26.767  24.971  1.00  0.00     0.008 A 
ATOM     26  C   UNL A   1      31.385  25.991  26.091  1.00  0.00     0.008 A 
BRANCH  22  27
ATOM     27  N   UNL A   1      31.507  29.655  25.337  1.00  0.00    -0.372 N 
BRANCH  27  28
ATOM     28  C   UNL A   1      30.584  29.833  24.242  1.00  0.00     0.113 C 
ATOM     29  C   UNL A   1      31.109  29.255  22.942  1.00  0.00     0.027 C 
ENDBRANCH  27  28
BRANCH  27  30
ATOM     30  C   UNL A   1      31.987  30.789  26.152  1.00  0.00     0.113 C 
ATOM     31  C   UNL A   1      31.025  31.968  26.279  1.00  0.00     0.027 C 
ENDBRANCH  27  30
ENDBRANCH  22  27
ENDBRANCH   8  21
BRANCH  10  32
ATOM     32  C   UNL A   1      32.434  23.706  24.487  1.00  0.00     0.220 C 
ATOM     33  C   UNL A   1      31.091  23.586  24.035  1.00  0.00     0.114 C 
ATOM     34  O   UNL A   1      33.180  24.280  23.564  1.00  0.00    -0.275 OA
ENDBRANCH  10  32
ENDBRANCH   4   7
ENDBRANCH   2   3
ENDBRANCH   1   2
BRANCH   1  35
ATOM     35  C   UNL A   1      39.816  21.243  26.137  1.00  0.00     0.023 C 
BRANCH  35  36
ATOM     36  C   UNL A   1      40.769  20.486  26.968  1.00  0.00     0.116 C 
BRANCH  36  37
ATOM     37  N   UNL A   1      41.813  19.812  26.216  1.00  0.00    -0.352 N 
ATOM     38  C   UNL A   1      42.902  20.459  25.709  1.00  0.00     0.251 C 
ATOM     39  H   UNL A   1      41.730  18.842  26.065  1.00  0.00     0.163 HD
ATOM     40  O   UNL A   1      43.738  19.895  25.018  1.00  0.00    -0.269 OA
BRANCH  38  41
ATOM     41  C   UNL A   1      43.047  21.882  26.091  1.00  0.00     0.039 A 
ATOM     42  C   UNL A   1      43.007  22.896  25.148  1.00  0.00     0.014 A 
ATOM     43  C   UNL A   1      43.254  22.194  27.444  1.00  0.00     0.014 A 
ATOM     44  C   UNL A   1      43.249  24.205  25.570  1.00  0.00     0.010 A 
ATOM     45  C   UNL A   1      43.264  23.501  27.877  1.00  0.00     0.010 A 
ATOM     46  C   UNL A   1      43.276  24.526  26.934  1.00  0.00    -0.014 A 
BRANCH  46  47
ATOM     47  C   UNL A   1      43.346  25.923  27.406  1.00  0.00     0.031 A 
ATOM     48  C   UNL A   1      44.681  26.547  27.612  1.00  0.00     0.074 A 
ATOM     49  C   UNL A   1      42.228  26.612  27.714  1.00  0.00     0.049 A 
ATOM     50  N   UNL A   1      44.933  27.739  28.072  1.00  0.00    -0.248 NA
ATOM     51  C   UNL A   1      45.875  25.755  27.265  1.00  0.00     0.031 C 
ATOM     52  C   UNL A   1      40.871  26.102  27.544  1.00  0.00     0.029 A 
ATOM     53  N   UNL A   1      42.043  27.875  28.235  1.00  0.00    -0.354 N 
ATOM     54  C   UNL A   1      46.307  27.850  28.061  1.00  0.00     0.074 A 
ATOM     55  C   UNL A   1      46.846  26.592  27.592  1.00  0.00     0.031 C 
ATOM     56  C   UNL A   1      39.996  27.037  27.938  1.00  0.00     0.029 A 
ATOM     57  C   UNL A   1      40.720  28.208  28.416  1.00  0.00     0.049 A 
ATOM     58  H   UNL A   1      42.787  28.480  28.457  1.00  0.00     0.167 HD
ATOM     59  C   UNL A   1      47.034  28.928  28.411  1.00  0.00     0.031 A 
ATOM     60  C   UNL A   1      40.127  29.313  28.910  1.00  0.00     0.031 A 
ATOM     61  C   UNL A   1      46.481  30.140  28.914  1.00  0.00     0.049 A 
ATOM     62  C   UNL A   1      40.963  30.455  29.395  1.00  0.00     0.074 A 
ATOM     63  C   UNL A   1      47.188  31.262  29.291  1.00  0.00     0.029 A 
ATOM     64  N   UNL A   1      45.140  30.397  29.129  1.00  0.00    -0.354 N 
ATOM     65  N   UNL A   1      42.266  30.542  29.358  1.00  0.00    -0.248 NA
ATOM     66  C   UNL A   1      40.294  31.628  29.988  1.00  0.00     0.031 C 
ATOM     67  C   UNL A   1      46.292  32.188  29.776  1.00  0.00     0.029 A 
ATOM     68  C   UNL A   1      45.020  31.661  29.670  1.00  0.00     0.049 A 
ATOM     69  H   UNL A   1      44.397  29.782  28.929  1.00  0.00     0.167 HD
ATOM     70  C   UNL A   1      42.573  31.777  29.890  1.00  0.00     0.074 A 
ATOM     71  C   UNL A   1      41.327  32.423  30.244  1.00  0.00     0.031 C 
ATOM     72  C   UNL A   1      43.802  32.309  30.045  1.00  0.00     0.031 A 
BRANCH  59  73
ATOM     73  C   UNL A   1      48.517  28.830  28.312  1.00  0.00    -0.014 A 
ATOM     74  C   UNL A   1      49.196  29.309  27.190  1.00  0.00     0.009 A 
ATOM     75  C   UNL A   1      49.242  28.254  29.366  1.00  0.00     0.009 A 
ATOM     76  C   UNL A   1      50.549  29.033  27.045  1.00  0.00     0.001 A 
ATOM     77  C   UNL A   1      50.619  28.101  29.272  1.00  0.00     0.001 A 
ATOM     78  C   UNL A   1      51.270  28.486  28.105  1.00  0.00     0.000 A 
ENDBRANCH  59  73
BRANCH  60  79
ATOM     79  C   UNL A   1      38.652  29.386  29.015  1.00  0.00    -0.014 A 
ATOM     80  C   UNL A   1      37.869  29.734  27.909  1.00  0.00     0.009 A 
ATOM     81  C   UNL A   1      38.030  29.182  30.256  1.00  0.00     0.009 A 
ATOM     82  C   UNL A   1      36.513  30.003  28.078  1.00  0.00     0.001 A 
ATOM     83  C   UNL A   1      36.653  29.329  30.390  1.00  0.00     0.001 A 
ATOM     84  C   UNL A   1      35.895  29.736  29.297  1.00  0.00     0.000 A 
ENDBRANCH  60  79
BRANCH  72  85
ATOM     85  C   UNL A   1      43.917  33.712  30.538  1.00  0.00    -0.014 A 
ATOM     86  C   UNL A   1      43.855  34.823  29.696  1.00  0.00     0.009 A 
ATOM     87  C   UNL A   1      44.034  33.902  31.925  1.00  0.00     0.009 A 
ATOM     88  C   UNL A   1      44.065  36.091  30.231  1.00  0.00     0.001 A 
ATOM     89  C   UNL A   1      44.110  35.176  32.465  1.00  0.00     0.001 A 
ATOM     90  C   UNL A   1      44.128  36.273  31.614  1.00  0.00     0.000 A 
ENDBRANCH  72  85
ENDBRANCH  46  47
ENDBRANCH  38  41
ENDBRANCH  36  37
ENDBRANCH  35  36
ENDBRANCH   1  35
TORSDOF 16
ENDMDL
MODEL 2
REMARK VINA RESULT:     -11.6      3.647      9.156
REMARK SMILES CCN(CC)c1ccc([C@@H]2c3[nH]c4ccccc4c3C[C@@H](C(=O)NCCCCNC(=O)c3ccc(-c4c5nc(c(-c6ccccc6)c6ccc([nH]6)c(-c6ccccc6)c6nc(c(-c7ccccc7)c7ccc4[nH]7)C=C6)C=C5)cc3)N2C(C)=O)cc1
REMARK SMILES IDX 26 1 25 2 24 3 22 4 23 5 21 7 10 8 11 9 80 10 12 11 19 12
REMARK SMILES IDX 13 13 18 15 20 16 14 17 17 18 15 19 16 20 9 21 6 22 7 23
REMARK SMILES IDX 85 24 8 25 84 26 3 27 2 28 1 29 4 30 5 31 81 32 82 33 83 34
REMARK SMILES IDX 27 35 28 36 29 37 30 38 31 40 32 41 33 42 79 43 34 44 78 45
REMARK SMILES IDX 35 46 36 47 37 48 72 49 38 50 77 51 71 52 73 53 39 54 76 55
REMARK SMILES IDX 70 56 69 57 40 59 62 60 47 61 61 62 48 63 51 64 60 65 74 66
REMARK SMILES IDX 49 67 50 68 59 70 75 71 52 72 41 73 42 74 46 75 43 76 45 77
REMARK SMILES IDX 44 78 63 79 64 80 68 81 65 82 67 83 66 84 53 85 54 86 58 87
REMARK SMILES IDX 55 88 57 89 56 90
REMARK H PARENT 24 6 12 14 29 39 73 58 51 69
REMARK Flexibility Score: inf
ROOT
ATOM      1  C   UNL A   1      33.137  30.838  27.483  1.00  0.00     0.023 C 
ENDROOT
BRANCH   1   2
ATOM      2  C   UNL A   1      33.302  29.961  26.067  1.00  0.00     0.116 C 
BRANCH   2   3
ATOM      3  N   UNL A   1      33.829  28.478  26.252  1.00  0.00    -0.354 N 
ATOM      4  C   UNL A   1      34.134  27.197  25.375  1.00  0.00     0.243 C 
ATOM      5  O   UNL A   1      34.374  26.223  26.117  1.00  0.00    -0.273 OA
ATOM      6  H   UNL A   1      34.028  28.300  27.200  1.00  0.00     0.163 HD
BRANCH   4   7
ATOM      7  C   UNL A   1      33.871  26.962  23.423  1.00  0.00     0.179 C 
ATOM      8  C   UNL A   1      33.042  24.690  23.342  1.00  0.00     0.163 C 
ATOM      9  C   UNL A   1      32.445  26.094  24.191  1.00  0.00     0.047 A 
ATOM     10  N   UNL A   1      32.407  25.692  22.802  1.00  0.00    -0.318 N 
ATOM     11  N   UNL A   1      31.494  26.566  24.940  1.00  0.00    -0.356 N 
ATOM     12  C   UNL A   1      32.079  27.688  23.567  1.00  0.00    -0.014 A 
ATOM     13  C   UNL A   1      30.336  27.095  24.236  1.00  0.00     0.046 A 
ATOM     14  H   UNL A   1      31.555  26.566  25.923  1.00  0.00     0.166 HD
ATOM     15  C   UNL A   1      30.722  28.246  23.509  1.00  0.00     0.003 A 
ATOM     16  C   UNL A   1      33.319  28.288  23.077  1.00  0.00     0.073 C 
ATOM     17  C   UNL A   1      28.948  26.470  24.333  1.00  0.00     0.026 A 
ATOM     18  C   UNL A   1      29.378  28.760  23.457  1.00  0.00     0.010 A 
ATOM     19  C   UNL A   1      27.927  26.799  23.536  1.00  0.00     0.002 A 
ATOM     20  C   UNL A   1      28.049  28.113  23.388  1.00  0.00     0.001 A 
BRANCH   8  21
ATOM     21  C   UNL A   1      32.651  23.300  23.741  1.00  0.00    -0.019 A 
ATOM     22  C   UNL A   1      32.906  20.556  23.998  1.00  0.00     0.037 A 
ATOM     23  C   UNL A   1      33.531  21.373  24.832  1.00  0.00     0.026 A 
ATOM     24  C   UNL A   1      32.224  21.205  22.940  1.00  0.00     0.026 A 
ATOM     25  C   UNL A   1      32.810  22.504  24.879  1.00  0.00     0.008 A 
ATOM     26  C   UNL A   1      32.172  22.565  22.741  1.00  0.00     0.008 A 
BRANCH  22  27
ATOM     27  N   UNL A   1      32.877  19.219  24.262  1.00  0.00    -0.372 N 
BRANCH  27  28
ATOM     28  C   UNL A   1      33.047  18.840  25.644  1.00  0.00     0.113 C 
ATOM     29  C   UNL A   1      32.571  17.427  25.920  1.00  0.00     0.027 C 
ENDBRANCH  27  28
BRANCH  27  30
ATOM     30  C   UNL A   1      32.646  18.222  23.198  1.00  0.00     0.113 C 
ATOM     31  C   UNL A   1      33.758  17.195  22.998  1.00  0.00     0.027 C 
ENDBRANCH  27  30
ENDBRANCH  22  27
ENDBRANCH   8  21
BRANCH  10  32
ATOM     32  C   UNL A   1      30.953  24.939  23.668  1.00  0.00     0.220 C 
ATOM     33  C   UNL A   1      29.861  24.403  22.933  1.00  0.00     0.114 C 
ATOM     34  O   UNL A   1      30.781  24.738  24.959  1.00  0.00    -0.275 OA
ENDBRANCH  10  32
ENDBRANCH   4   7
ENDBRANCH   2   3
ENDBRANCH   1   2
BRANCH   1  35
ATOM     35  C   UNL A   1      32.157  31.851  27.250  1.00  0.00     0.023 C 
BRANCH  35  36
ATOM     36  C   UNL A   1      33.024  33.039  27.143  1.00  0.00     0.116 C 
BRANCH  36  37
ATOM     37  N   UNL A   1      32.543  34.197  27.876  1.00  0.00    -0.352 N 
ATOM     38  C   UNL A   1      33.174  34.696  28.978  1.00  0.00     0.251 C 
ATOM     39  H   UNL A   1      31.722  34.642  27.563  1.00  0.00     0.163 HD
ATOM     40  O   UNL A   1      32.721  35.627  29.628  1.00  0.00    -0.269 OA
BRANCH  38  41
ATOM     41  C   UNL A   1      34.477  34.079  29.315  1.00  0.00     0.039 A 
ATOM     42  C   UNL A   1      35.636  34.409  28.631  1.00  0.00     0.014 A 
ATOM     43  C   UNL A   1      34.518  33.120  30.339  1.00  0.00     0.014 A 
ATOM     44  C   UNL A   1      36.808  33.715  28.938  1.00  0.00     0.010 A 
ATOM     45  C   UNL A   1      35.718  32.610  30.785  1.00  0.00     0.010 A 
ATOM     46  C   UNL A   1      36.880  32.894  30.073  1.00  0.00    -0.014 A 
BRANCH  46  47
ATOM     47  C   UNL A   1      38.152  32.297  30.523  1.00  0.00     0.031 A 
ATOM     48  C   UNL A   1      38.592  31.006  29.927  1.00  0.00     0.074 A 
ATOM     49  C   UNL A   1      38.880  32.864  31.507  1.00  0.00     0.049 A 
ATOM     50  N   UNL A   1      39.648  30.310  30.240  1.00  0.00    -0.248 NA
ATOM     51  C   UNL A   1      37.763  30.422  28.858  1.00  0.00     0.031 C 
ATOM     52  C   UNL A   1      38.547  34.129  32.156  1.00  0.00     0.029 A 
ATOM     53  N   UNL A   1      40.037  32.464  32.141  1.00  0.00    -0.354 N 
ATOM     54  C   UNL A   1      39.622  29.216  29.404  1.00  0.00     0.074 A 
ATOM     55  C   UNL A   1      38.425  29.306  28.596  1.00  0.00     0.031 C 
ATOM     56  C   UNL A   1      39.475  34.408  33.081  1.00  0.00     0.029 A 
ATOM     57  C   UNL A   1      40.461  33.335  33.118  1.00  0.00     0.049 A 
ATOM     58  H   UNL A   1      40.514  31.633  31.915  1.00  0.00     0.167 HD
ATOM     59  C   UNL A   1      40.539  28.233  29.331  1.00  0.00     0.031 A 
ATOM     60  C   UNL A   1      41.508  33.301  33.965  1.00  0.00     0.031 A 
ATOM     61  C   UNL A   1      41.687  28.141  30.170  1.00  0.00     0.049 A 
ATOM     62  C   UNL A   1      42.453  32.141  33.937  1.00  0.00     0.074 A 
ATOM     63  C   UNL A   1      42.644  27.149  30.134  1.00  0.00     0.029 A 
ATOM     64  N   UNL A   1      42.031  29.021  31.178  1.00  0.00    -0.354 N 
ATOM     65  N   UNL A   1      42.416  31.121  33.122  1.00  0.00    -0.248 NA
ATOM     66  C   UNL A   1      43.557  32.096  34.914  1.00  0.00     0.031 C 
ATOM     67  C   UNL A   1      43.549  27.394  31.143  1.00  0.00     0.029 A 
ATOM     68  C   UNL A   1      43.179  28.558  31.788  1.00  0.00     0.049 A 
ATOM     69  H   UNL A   1      41.541  29.841  31.420  1.00  0.00     0.167 HD
ATOM     70  C   UNL A   1      43.495  30.332  33.462  1.00  0.00     0.074 A 
ATOM     71  C   UNL A   1      44.185  30.981  34.555  1.00  0.00     0.031 C 
ATOM     72  C   UNL A   1      43.865  29.172  32.882  1.00  0.00     0.031 A 
BRANCH  59  73
ATOM     73  C   UNL A   1      40.315  27.142  28.341  1.00  0.00    -0.014 A 
ATOM     74  C   UNL A   1      39.583  26.003  28.681  1.00  0.00     0.009 A 
ATOM     75  C   UNL A   1      40.844  27.265  27.047  1.00  0.00     0.009 A 
ATOM     76  C   UNL A   1      39.555  24.927  27.804  1.00  0.00     0.001 A 
ATOM     77  C   UNL A   1      40.696  26.236  26.127  1.00  0.00     0.001 A 
ATOM     78  C   UNL A   1      40.056  25.063  26.511  1.00  0.00     0.000 A 
ENDBRANCH  59  73
BRANCH  60  79
ATOM     79  C   UNL A   1      41.706  34.386  34.953  1.00  0.00    -0.014 A 
ATOM     80  C   UNL A   1      41.065  34.351  36.196  1.00  0.00     0.009 A 
ATOM     81  C   UNL A   1      42.483  35.504  34.615  1.00  0.00     0.009 A 
ATOM     82  C   UNL A   1      41.094  35.472  37.021  1.00  0.00     0.001 A 
ATOM     83  C   UNL A   1      42.610  36.570  35.500  1.00  0.00     0.001 A 
ATOM     84  C   UNL A   1      41.918  36.550  36.706  1.00  0.00     0.000 A 
ENDBRANCH  60  79
BRANCH  72  85
ATOM     85  C   UNL A   1      45.134  28.526  33.322  1.00  0.00    -0.014 A 
ATOM     86  C   UNL A   1      45.184  27.534  34.303  1.00  0.00     0.009 A 
ATOM     87  C   UNL A   1      46.317  28.907  32.665  1.00  0.00     0.009 A 
ATOM     88  C   UNL A   1      46.424  27.053  34.717  1.00  0.00     0.001 A 
ATOM     89  C   UNL A   1      47.532  28.327  32.992  1.00  0.00     0.001 A 
ATOM     90  C   UNL A   1      47.584  27.399  34.023  1.00  0.00     0.000 A 
ENDBRANCH  72  85
ENDBRANCH  46  47
ENDBRANCH  38  41
ENDBRANCH  36  37
ENDBRANCH  35  36
ENDBRANCH   1  35
TORSDOF 16
ENDMDL
MODEL 3
REMARK VINA RESULT:     -11.6      3.761      9.567
REMARK SMILES CCN(CC)c1ccc([C@@H]2c3[nH]c4ccccc4c3C[C@@H](C(=O)NCCCCNC(=O)c3ccc(-c4c5nc(c(-c6ccccc6)c6ccc([nH]6)c(-c6ccccc6)c6nc(c(-c7ccccc7)c7ccc4[nH]7)C=C6)C=C5)cc3)N2C(C)=O)cc1
REMARK SMILES IDX 26 1 25 2 24 3 22 4 23 5 21 7 10 8 11 9 80 10 12 11 19 12
REMARK SMILES IDX 13 13 18 15 20 16 14 17 17 18 15 19 16 20 9 21 6 22 7 23
REMARK SMILES IDX 85 24 8 25 84 26 3 27 2 28 1 29 4 30 5 31 81 32 82 33 83 34
REMARK SMILES IDX 27 35 28 36 29 37 30 38 31 40 32 41 33 42 79 43 34 44 78 45
REMARK SMILES IDX 35 46 36 47 37 48 72 49 38 50 77 51 71 52 73 53 39 54 76 55
REMARK SMILES IDX 70 56 69 57 40 59 62 60 47 61 61 62 48 63 51 64 60 65 74 66
REMARK SMILES IDX 49 67 50 68 59 70 75 71 52 72 41 73 42 74 46 75 43 76 45 77
REMARK SMILES IDX 44 78 63 79 64 80 68 81 65 82 67 83 66 84 53 85 54 86 58 87
REMARK SMILES IDX 55 88 57 89 56 90
REMARK H PARENT 24 6 12 14 29 39 73 58 51 69
REMARK Flexibility Score: inf
ROOT
ATOM      1  C   UNL A   1      40.174  27.754  27.741  1.00  0.00     0.023 C 
ENDROOT
BRANCH   1   2
ATOM      2  C   UNL A   1      39.274  28.967  28.461  1.00  0.00     0.116 C 
BRANCH   2   3
ATOM      3  N   UNL A   1      39.954  29.657  29.714  1.00  0.00    -0.354 N 
ATOM      4  C   UNL A   1      40.074  31.089  30.376  1.00  0.00     0.243 C 
ATOM      5  O   UNL A   1      40.917  31.062  31.295  1.00  0.00    -0.273 OA
ATOM      6  H   UNL A   1      40.453  28.992  30.243  1.00  0.00     0.163 HD
BRANCH   4   7
ATOM      7  C   UNL A   1      39.323  32.804  29.720  1.00  0.00     0.179 C 
ATOM      8  C   UNL A   1      37.130  32.095  28.985  1.00  0.00     0.163 C 
ATOM      9  C   UNL A   1      37.911  31.963  30.541  1.00  0.00     0.047 A 
ATOM     10  N   UNL A   1      37.309  33.070  29.830  1.00  0.00    -0.318 N 
ATOM     11  N   UNL A   1      37.768  31.604  31.782  1.00  0.00    -0.356 N 
ATOM     12  C   UNL A   1      38.674  33.213  31.500  1.00  0.00    -0.014 A 
ATOM     13  C   UNL A   1      37.225  32.615  32.676  1.00  0.00     0.046 A 
ATOM     14  H   UNL A   1      38.013  30.704  32.096  1.00  0.00     0.166 HD
ATOM     15  C   UNL A   1      38.153  33.677  32.793  1.00  0.00     0.003 A 
ATOM     16  C   UNL A   1      39.828  33.721  30.763  1.00  0.00     0.073 C 
ATOM     17  C   UNL A   1      35.871  32.474  33.364  1.00  0.00     0.026 A 
ATOM     18  C   UNL A   1      37.611  34.117  34.053  1.00  0.00     0.010 A 
ATOM     19  C   UNL A   1      35.257  33.471  34.009  1.00  0.00     0.002 A 
ATOM     20  C   UNL A   1      36.246  34.109  34.624  1.00  0.00     0.001 A 
BRANCH   8  21
ATOM     21  C   UNL A   1      35.960  31.236  28.614  1.00  0.00    -0.019 A 
ATOM     22  C   UNL A   1      34.276  29.806  26.946  1.00  0.00     0.037 A 
ATOM     23  C   UNL A   1      35.422  29.285  27.356  1.00  0.00     0.026 A 
ATOM     24  C   UNL A   1      34.069  31.152  27.335  1.00  0.00     0.026 A 
ATOM     25  C   UNL A   1      35.712  29.863  28.532  1.00  0.00     0.008 A 
ATOM     26  C   UNL A   1      34.944  31.909  28.080  1.00  0.00     0.008 A 
BRANCH  22  27
ATOM     27  N   UNL A   1      33.371  29.017  26.299  1.00  0.00    -0.372 N 
BRANCH  27  28
ATOM     28  C   UNL A   1      31.988  29.209  26.661  1.00  0.00     0.113 C 
ATOM     29  C   UNL A   1      31.515  28.204  27.694  1.00  0.00     0.027 C 
ENDBRANCH  27  28
BRANCH  27  30
ATOM     30  C   UNL A   1      33.784  28.053  25.260  1.00  0.00     0.113 C 
ATOM     31  C   UNL A   1      33.374  28.402  23.831  1.00  0.00     0.027 C 
ENDBRANCH  27  30
ENDBRANCH  22  27
ENDBRANCH   8  21
BRANCH  10  32
ATOM     32  C   UNL A   1      35.979  32.190  30.774  1.00  0.00     0.220 C 
ATOM     33  C   UNL A   1      34.722  32.807  31.013  1.00  0.00     0.114 C 
ATOM     34  O   UNL A   1      35.983  30.957  31.239  1.00  0.00    -0.275 OA
ENDBRANCH  10  32
ENDBRANCH   4   7
ENDBRANCH   2   3
ENDBRANCH   1   2
BRANCH   1  35
ATOM     35  C   UNL A   1      39.356  26.584  27.685  1.00  0.00     0.023 C 
BRANCH  35  36
ATOM     36  C   UNL A   1      40.218  25.623  28.398  1.00  0.00     0.116 C 
BRANCH  36  37
ATOM     37  N   UNL A   1      40.337  24.331  27.746  1.00  0.00    -0.352 N 
ATOM     38  C   UNL A   1      41.368  24.010  26.911  1.00  0.00     0.251 C 
ATOM     39  H   UNL A   1      39.641  23.656  27.914  1.00  0.00     0.163 HD
ATOM     40  O   UNL A   1      41.421  22.945  26.314  1.00  0.00    -0.269 OA
BRANCH  38  41
ATOM     41  C   UNL A   1      42.457  25.008  26.812  1.00  0.00     0.039 A 
ATOM     42  C   UNL A   1      42.725  25.677  25.628  1.00  0.00     0.014 A 
ATOM     43  C   UNL A   1      43.245  25.255  27.947  1.00  0.00     0.014 A 
ATOM     44  C   UNL A   1      43.829  26.531  25.583  1.00  0.00     0.010 A 
ATOM     45  C   UNL A   1      44.183  26.263  27.954  1.00  0.00     0.010 A 
ATOM     46  C   UNL A   1      44.495  26.905  26.758  1.00  0.00    -0.014 A 
BRANCH  46  47
ATOM     47  C   UNL A   1      45.544  27.944  26.764  1.00  0.00     0.031 A 
ATOM     48  C   UNL A   1      45.138  29.375  26.822  1.00  0.00     0.074 A 
ATOM     49  C   UNL A   1      46.848  27.620  26.649  1.00  0.00     0.049 A 
ATOM     50  N   UNL A   1      45.916  30.418  26.780  1.00  0.00    -0.248 NA
ATOM     51  C   UNL A   1      43.702  29.681  26.944  1.00  0.00     0.031 C 
ATOM     52  C   UNL A   1      47.357  26.253  26.590  1.00  0.00     0.029 A 
ATOM     53  N   UNL A   1      47.982  28.398  26.553  1.00  0.00    -0.354 N 
ATOM     54  C   UNL A   1      45.073  31.504  26.881  1.00  0.00     0.074 A 
ATOM     55  C   UNL A   1      43.717  31.004  26.943  1.00  0.00     0.031 C 
ATOM     56  C   UNL A   1      48.692  26.284  26.483  1.00  0.00     0.029 A 
ATOM     57  C   UNL A   1      49.143  27.669  26.436  1.00  0.00     0.049 A 
ATOM     58  H   UNL A   1      47.962  29.382  26.568  1.00  0.00     0.167 HD
ATOM     59  C   UNL A   1      45.428  32.802  26.925  1.00  0.00     0.031 A 
ATOM     60  C   UNL A   1      50.431  28.039  26.299  1.00  0.00     0.031 A 
ATOM     61  C   UNL A   1      46.769  33.271  26.816  1.00  0.00     0.049 A 
ATOM     62  C   UNL A   1      50.788  29.491  26.241  1.00  0.00     0.074 A 
ATOM     63  C   UNL A   1      47.174  34.589  26.848  1.00  0.00     0.029 A 
ATOM     64  N   UNL A   1      47.895  32.489  26.642  1.00  0.00    -0.354 N 
ATOM     65  N   UNL A   1      49.970  30.503  26.357  1.00  0.00    -0.248 NA
ATOM     66  C   UNL A   1      52.197  29.872  26.030  1.00  0.00     0.031 C 
ATOM     67  C   UNL A   1      48.537  34.620  26.651  1.00  0.00     0.029 A 
ATOM     68  C   UNL A   1      48.990  33.321  26.531  1.00  0.00     0.049 A 
ATOM     69  H   UNL A   1      47.912  31.505  26.604  1.00  0.00     0.167 HD
ATOM     70  C   UNL A   1      50.758  31.632  26.261  1.00  0.00     0.074 A 
ATOM     71  C   UNL A   1      52.126  31.197  26.085  1.00  0.00     0.031 C 
ATOM     72  C   UNL A   1      50.347  32.914  26.335  1.00  0.00     0.031 A 
BRANCH  59  73
ATOM     73  C   UNL A   1      44.345  33.817  27.047  1.00  0.00    -0.014 A 
ATOM     74  C   UNL A   1      43.729  34.350  25.913  1.00  0.00     0.009 A 
ATOM     75  C   UNL A   1      43.935  34.240  28.321  1.00  0.00     0.009 A 
ATOM     76  C   UNL A   1      42.863  35.426  26.053  1.00  0.00     0.001 A 
ATOM     77  C   UNL A   1      42.968  35.227  28.457  1.00  0.00     0.001 A 
ATOM     78  C   UNL A   1      42.438  35.824  27.319  1.00  0.00     0.000 A 
ENDBRANCH  59  73
BRANCH  60  79
ATOM     79  C   UNL A   1      51.493  27.016  26.164  1.00  0.00    -0.014 A 
ATOM     80  C   UNL A   1      52.212  26.574  27.280  1.00  0.00     0.009 A 
ATOM     81  C   UNL A   1      51.842  26.537  24.893  1.00  0.00     0.009 A 
ATOM     82  C   UNL A   1      53.340  25.777  27.106  1.00  0.00     0.001 A 
ATOM     83  C   UNL A   1      52.893  25.639  24.739  1.00  0.00     0.001 A 
ATOM     84  C   UNL A   1      53.639  25.256  25.849  1.00  0.00     0.000 A 
ENDBRANCH  60  79
BRANCH  72  85
ATOM     85  C   UNL A   1      51.373  33.995  26.324  1.00  0.00    -0.014 A 
ATOM     86  C   UNL A   1      52.031  34.434  27.474  1.00  0.00     0.009 A 
ATOM     87  C   UNL A   1      51.721  34.545  25.078  1.00  0.00     0.009 A 
ATOM     88  C   UNL A   1      52.907  35.513  27.384  1.00  0.00     0.001 A 
ATOM     89  C   UNL A   1      52.691  35.529  24.979  1.00  0.00     0.001 A 
ATOM     90  C   UNL A   1      53.284  36.015  26.137  1.00  0.00     0.000 A 
ENDBRANCH  72  85
ENDBRANCH  46  47
ENDBRANCH  38  41
ENDBRANCH  36  37
ENDBRANCH  35  36
ENDBRANCH   1  35
TORSDOF 16
ENDMDL
