MODEL 1
REMARK VINA RESULT:     -10.4      0.000      0.000
REMARK SMILES C[C@@](O)(CNC(=O)c1ccc(Br)cc1N)CC(=O)NCCCCNC(=O)c1ccc(-c2c3nc(c(-c4ccccc4)c4ccc([nH]4)c(-c4ccccc4)c4nc(c(-c5ccccc5)c5ccc2[nH]5)C=C4)C=C3)cc1
REMARK SMILES IDX 20 1 19 2 17 3 18 4 16 6 2 7 1 8 3 9 4 11 5 12 6 13 7 15
REMARK SMILES IDX 8 16 9 17 14 18 10 19 13 20 11 21 12 22 15 23 21 26 22 27
REMARK SMILES IDX 23 28 24 29 25 30 26 32 27 33 28 34 74 35 29 36 73 37 30 38
REMARK SMILES IDX 31 39 32 40 67 41 33 42 72 43 66 44 68 45 34 46 71 47 65 48
REMARK SMILES IDX 64 49 35 51 57 52 42 53 56 54 43 55 46 56 55 57 69 58 44 59
REMARK SMILES IDX 45 60 54 62 70 63 47 64 36 65 37 66 41 67 38 68 40 69 39 70
REMARK SMILES IDX 58 71 59 72 63 73 60 74 62 75 61 76 48 77 49 78 53 79 50 80
REMARK SMILES IDX 52 81 51 82
REMARK H PARENT 19 5 3 10 5 14 15 24 15 25 24 31 68 50 46 61
REMARK Flexibility Score: inf
ROOT
ATOM      1  C   UNL A   1      34.024  21.667  27.347  1.00  0.00     0.116 C 
ENDROOT
BRANCH   1   2
ATOM      2  N   UNL A   1      32.772  22.431  27.503  1.00  0.00    -0.356 N 
ATOM      3  C   UNL A   1      31.666  22.715  26.761  1.00  0.00     0.222 C 
ATOM      4  O   UNL A   1      30.763  23.385  27.269  1.00  0.00    -0.275 OA
ATOM      5  H   UNL A   1      32.722  22.855  28.390  1.00  0.00     0.163 HD
BRANCH   3   6
ATOM      6  C   UNL A   1      31.488  22.198  25.380  1.00  0.00     0.136 C 
BRANCH   6   7
ATOM      7  C   UNL A   1      31.839  23.210  24.320  1.00  0.00     0.088 C 
ATOM      8  C   UNL A   1      32.919  22.646  23.371  1.00  0.00     0.044 C 
BRANCH   7   9
ATOM      9  O   UNL A   1      32.572  24.279  24.992  1.00  0.00    -0.388 OA
ATOM     10  H   UNL A   1      31.997  24.702  25.650  1.00  0.00     0.211 HD
ENDBRANCH   7   9
BRANCH   7  11
ATOM     11  C   UNL A   1      30.643  23.877  23.529  1.00  0.00     0.151 C 
BRANCH  11  12
ATOM     12  N   UNL A   1      29.941  25.236  23.747  1.00  0.00    -0.349 N 
ATOM     13  C   UNL A   1      29.989  26.624  24.013  1.00  0.00     0.253 C 
ATOM     14  H   UNL A   1      28.982  25.035  23.654  1.00  0.00     0.163 HD
ATOM     15  O   UNL A   1      28.992  27.201  23.534  1.00  0.00    -0.269 OA
BRANCH  13  16
ATOM     16  C   UNL A   1      30.904  27.600  24.806  1.00  0.00     0.062 A 
ATOM     17  C   UNL A   1      31.342  28.889  24.439  1.00  0.00     0.017 A 
ATOM     18  C   UNL A   1      31.252  27.269  26.136  1.00  0.00     0.045 A 
ATOM     19  C   UNL A   1      32.296  29.655  25.135  1.00  0.00     0.016 A 
ATOM     20  C   UNL A   1      32.249  28.003  26.834  1.00  0.00     0.042 A 
ATOM     21  C   UNL A   1      32.797  29.169  26.316  1.00  0.00     0.020 A 
ATOM     22  Br  UNL A   1      34.172  30.099  27.210  1.00  0.00    -0.051 Br
BRANCH  18  23
ATOM     23  N   UNL A   1      30.715  26.152  26.780  1.00  0.00    -0.398 N 
ATOM     24  H   UNL A   1      29.764  26.140  27.036  1.00  0.00     0.156 HD
ATOM     25  H   UNL A   1      31.288  25.377  26.980  1.00  0.00     0.156 HD
ENDBRANCH  18  23
ENDBRANCH  13  16
ENDBRANCH  11  12
ENDBRANCH   7  11
ENDBRANCH   6   7
ENDBRANCH   3   6
ENDBRANCH   1   2
BRANCH   1  26
ATOM     26  C   UNL A   1      35.129  21.654  26.125  1.00  0.00     0.023 C 
BRANCH  26  27
ATOM     27  C   UNL A   1      35.900  22.683  25.127  1.00  0.00     0.023 C 
BRANCH  27  28
ATOM     28  C   UNL A   1      37.288  23.406  25.235  1.00  0.00     0.116 C 
BRANCH  28  29
ATOM     29  N   UNL A   1      38.468  22.574  25.383  1.00  0.00    -0.352 N 
ATOM     30  C   UNL A   1      39.629  22.851  26.080  1.00  0.00     0.251 C 
ATOM     31  H   UNL A   1      38.438  21.701  24.929  1.00  0.00     0.163 HD
ATOM     32  O   UNL A   1      40.545  22.023  26.086  1.00  0.00    -0.269 OA
BRANCH  30  33
ATOM     33  C   UNL A   1      39.842  24.156  26.759  1.00  0.00     0.039 A 
ATOM     34  C   UNL A   1      40.541  25.209  26.164  1.00  0.00     0.014 A 
ATOM     35  C   UNL A   1      39.258  24.349  28.018  1.00  0.00     0.014 A 
ATOM     36  C   UNL A   1      40.757  26.402  26.877  1.00  0.00     0.010 A 
ATOM     37  C   UNL A   1      39.454  25.549  28.718  1.00  0.00     0.010 A 
ATOM     38  C   UNL A   1      40.247  26.573  28.175  1.00  0.00    -0.014 A 
BRANCH  38  39
ATOM     39  C   UNL A   1      40.581  27.774  29.001  1.00  0.00     0.031 A 
ATOM     40  C   UNL A   1      39.588  28.907  29.116  1.00  0.00     0.074 A 
ATOM     41  C   UNL A   1      41.764  27.874  29.643  1.00  0.00     0.049 A 
ATOM     42  N   UNL A   1      39.718  30.071  29.704  1.00  0.00    -0.248 NA
ATOM     43  C   UNL A   1      38.273  28.707  28.483  1.00  0.00     0.031 C 
ATOM     44  C   UNL A   1      42.808  26.852  29.647  1.00  0.00     0.029 A 
ATOM     45  N   UNL A   1      42.290  28.889  30.412  1.00  0.00    -0.354 N 
ATOM     46  C   UNL A   1      38.516  30.740  29.502  1.00  0.00     0.074 A 
ATOM     47  C   UNL A   1      37.676  29.870  28.710  1.00  0.00     0.031 C 
ATOM     48  C   UNL A   1      43.842  27.284  30.387  1.00  0.00     0.029 A 
ATOM     49  C   UNL A   1      43.566  28.638  30.862  1.00  0.00     0.049 A 
ATOM     50  H   UNL A   1      41.799  29.717  30.621  1.00  0.00     0.167 HD
ATOM     51  C   UNL A   1      38.141  31.963  29.948  1.00  0.00     0.031 A 
ATOM     52  C   UNL A   1      44.432  29.413  31.551  1.00  0.00     0.031 A 
ATOM     53  C   UNL A   1      38.966  32.820  30.758  1.00  0.00     0.049 A 
ATOM     54  C   UNL A   1      44.016  30.798  31.976  1.00  0.00     0.074 A 
ATOM     55  C   UNL A   1      38.645  34.061  31.283  1.00  0.00     0.029 A 
ATOM     56  N   UNL A   1      40.258  32.534  31.160  1.00  0.00    -0.354 N 
ATOM     57  N   UNL A   1      42.865  31.400  31.802  1.00  0.00    -0.248 NA
ATOM     58  C   UNL A   1      45.011  31.611  32.694  1.00  0.00     0.031 C 
ATOM     59  C   UNL A   1      39.770  34.559  31.939  1.00  0.00     0.029 A 
ATOM     60  C   UNL A   1      40.762  33.594  31.895  1.00  0.00     0.049 A 
ATOM     61  H   UNL A   1      40.745  31.703  30.956  1.00  0.00     0.167 HD
ATOM     62  C   UNL A   1      42.991  32.647  32.402  1.00  0.00     0.074 A 
ATOM     63  C   UNL A   1      44.321  32.712  32.966  1.00  0.00     0.031 C 
ATOM     64  C   UNL A   1      42.082  33.650  32.469  1.00  0.00     0.031 A 
BRANCH  51  65
ATOM     65  C   UNL A   1      36.771  32.479  29.595  1.00  0.00    -0.014 A 
ATOM     66  C   UNL A   1      36.601  33.264  28.442  1.00  0.00     0.009 A 
ATOM     67  C   UNL A   1      35.697  32.345  30.488  1.00  0.00     0.009 A 
ATOM     68  C   UNL A   1      35.398  33.935  28.210  1.00  0.00     0.001 A 
ATOM     69  C   UNL A   1      34.485  32.995  30.238  1.00  0.00     0.001 A 
ATOM     70  C   UNL A   1      34.342  33.801  29.108  1.00  0.00     0.000 A 
ENDBRANCH  51  65
BRANCH  52  71
ATOM     71  C   UNL A   1      45.798  28.897  31.855  1.00  0.00    -0.014 A 
ATOM     72  C   UNL A   1      46.081  28.329  33.110  1.00  0.00     0.009 A 
ATOM     73  C   UNL A   1      46.834  28.993  30.914  1.00  0.00     0.009 A 
ATOM     74  C   UNL A   1      47.372  27.902  33.428  1.00  0.00     0.001 A 
ATOM     75  C   UNL A   1      48.118  28.528  31.222  1.00  0.00     0.001 A 
ATOM     76  C   UNL A   1      48.388  27.996  32.481  1.00  0.00     0.000 A 
ENDBRANCH  52  71
BRANCH  64  77
ATOM     77  C   UNL A   1      42.456  34.919  33.184  1.00  0.00    -0.014 A 
ATOM     78  C   UNL A   1      41.957  35.165  34.475  1.00  0.00     0.009 A 
ATOM     79  C   UNL A   1      43.159  35.938  32.524  1.00  0.00     0.009 A 
ATOM     80  C   UNL A   1      42.119  36.416  35.073  1.00  0.00     0.001 A 
ATOM     81  C   UNL A   1      43.349  37.178  33.138  1.00  0.00     0.001 A 
ATOM     82  C   UNL A   1      42.815  37.421  34.405  1.00  0.00     0.000 A 
ENDBRANCH  64  77
ENDBRANCH  38  39
ENDBRANCH  30  33
ENDBRANCH  28  29
ENDBRANCH  27  28
ENDBRANCH  26  27
ENDBRANCH   1  26
TORSDOF 17
ENDMDL
MODEL 2
REMARK VINA RESULT:     -10.3      0.540      5.981
REMARK SMILES C[C@@](O)(CNC(=O)c1ccc(Br)cc1N)CC(=O)NCCCCNC(=O)c1ccc(-c2c3nc(c(-c4ccccc4)c4ccc([nH]4)c(-c4ccccc4)c4nc(c(-c5ccccc5)c5ccc2[nH]5)C=C4)C=C3)cc1
REMARK SMILES IDX 20 1 19 2 17 3 18 4 16 6 2 7 1 8 3 9 4 11 5 12 6 13 7 15
REMARK SMILES IDX 8 16 9 17 14 18 10 19 13 20 11 21 12 22 15 23 21 26 22 27
REMARK SMILES IDX 23 28 24 29 25 30 26 32 27 33 28 34 74 35 29 36 73 37 30 38
REMARK SMILES IDX 31 39 32 40 67 41 33 42 72 43 66 44 68 45 34 46 71 47 65 48
REMARK SMILES IDX 64 49 35 51 57 52 42 53 56 54 43 55 46 56 55 57 69 58 44 59
REMARK SMILES IDX 45 60 54 62 70 63 47 64 36 65 37 66 41 67 38 68 40 69 39 70
REMARK SMILES IDX 58 71 59 72 63 73 60 74 62 75 61 76 48 77 49 78 53 79 50 80
REMARK SMILES IDX 52 81 51 82
REMARK H PARENT 19 5 3 10 5 14 15 24 15 25 24 31 68 50 46 61
REMARK Flexibility Score: inf
ROOT
ATOM      1  C   UNL A   1      33.580  22.190  27.575  1.00  0.00     0.116 C 
ENDROOT
BRANCH   1   2
ATOM      2  N   UNL A   1      32.165  22.580  27.424  1.00  0.00    -0.356 N 
ATOM      3  C   UNL A   1      31.223  22.592  26.441  1.00  0.00     0.222 C 
ATOM      4  O   UNL A   1      30.080  22.969  26.716  1.00  0.00    -0.275 OA
ATOM      5  H   UNL A   1      31.801  22.930  28.269  1.00  0.00     0.163 HD
BRANCH   3   6
ATOM      6  C   UNL A   1      31.512  22.115  25.065  1.00  0.00     0.136 C 
BRANCH   6   7
ATOM      7  C   UNL A   1      31.865  23.231  24.115  1.00  0.00     0.088 C 
ATOM      8  C   UNL A   1      33.004  22.794  23.168  1.00  0.00     0.044 C 
BRANCH   7   9
ATOM      9  O   UNL A   1      32.527  24.261  24.910  1.00  0.00    -0.388 OA
ATOM     10  H   UNL A   1      31.943  24.536  25.634  1.00  0.00     0.211 HD
ENDBRANCH   7   9
BRANCH   7  11
ATOM     11  C   UNL A   1      30.676  23.922  23.334  1.00  0.00     0.151 C 
BRANCH  11  12
ATOM     12  N   UNL A   1      29.898  25.219  23.651  1.00  0.00    -0.349 N 
ATOM     13  C   UNL A   1      29.869  26.591  23.991  1.00  0.00     0.253 C 
ATOM     14  H   UNL A   1      28.951  24.960  23.583  1.00  0.00     0.163 HD
ATOM     15  O   UNL A   1      28.818  27.125  23.581  1.00  0.00    -0.269 OA
BRANCH  13  16
ATOM     16  C   UNL A   1      30.750  27.583  24.802  1.00  0.00     0.062 A 
ATOM     17  C   UNL A   1      31.130  28.899  24.467  1.00  0.00     0.017 A 
ATOM     18  C   UNL A   1      31.128  27.230  26.118  1.00  0.00     0.045 A 
ATOM     19  C   UNL A   1      32.058  29.685  25.175  1.00  0.00     0.016 A 
ATOM     20  C   UNL A   1      32.101  27.987  26.827  1.00  0.00     0.042 A 
ATOM     21  C   UNL A   1      32.593  29.189  26.335  1.00  0.00     0.020 A 
ATOM     22  Br  UNL A   1      33.938  30.151  27.241  1.00  0.00    -0.051 Br
BRANCH  18  23
ATOM     23  N   UNL A   1      30.646  26.074  26.737  1.00  0.00    -0.398 N 
ATOM     24  H   UNL A   1      29.683  25.870  26.716  1.00  0.00     0.156 HD
ATOM     25  H   UNL A   1      31.269  25.464  27.193  1.00  0.00     0.156 HD
ENDBRANCH  18  23
ENDBRANCH  13  16
ENDBRANCH  11  12
ENDBRANCH   7  11
ENDBRANCH   6   7
ENDBRANCH   3   6
ENDBRANCH   1   2
BRANCH   1  26
ATOM     26  C   UNL A   1      34.947  22.830  26.914  1.00  0.00     0.023 C 
BRANCH  26  27
ATOM     27  C   UNL A   1      36.016  22.531  25.724  1.00  0.00     0.023 C 
BRANCH  27  28
ATOM     28  C   UNL A   1      37.345  23.252  25.303  1.00  0.00     0.116 C 
BRANCH  28  29
ATOM     29  N   UNL A   1      38.585  22.510  25.446  1.00  0.00    -0.352 N 
ATOM     30  C   UNL A   1      39.733  22.885  26.116  1.00  0.00     0.251 C 
ATOM     31  H   UNL A   1      38.609  21.627  25.010  1.00  0.00     0.163 HD
ATOM     32  O   UNL A   1      40.707  22.125  26.122  1.00  0.00    -0.269 OA
BRANCH  30  33
ATOM     33  C   UNL A   1      39.862  24.216  26.765  1.00  0.00     0.039 A 
ATOM     34  C   UNL A   1      40.508  25.293  26.151  1.00  0.00     0.014 A 
ATOM     35  C   UNL A   1      39.253  24.405  28.012  1.00  0.00     0.014 A 
ATOM     36  C   UNL A   1      40.646  26.513  26.836  1.00  0.00     0.010 A 
ATOM     37  C   UNL A   1      39.371  25.631  28.684  1.00  0.00     0.010 A 
ATOM     38  C   UNL A   1      40.111  26.686  28.125  1.00  0.00    -0.014 A 
BRANCH  38  39
ATOM     39  C   UNL A   1      40.365  27.924  28.924  1.00  0.00     0.031 A 
ATOM     40  C   UNL A   1      41.625  28.040  29.749  1.00  0.00     0.074 A 
ATOM     41  C   UNL A   1      39.483  28.945  28.931  1.00  0.00     0.049 A 
ATOM     42  N   UNL A   1      41.992  28.985  30.579  1.00  0.00    -0.248 NA
ATOM     43  C   UNL A   1      42.605  26.946  29.628  1.00  0.00     0.031 C 
ATOM     44  C   UNL A   1      38.240  28.988  28.165  1.00  0.00     0.029 A 
ATOM     45  N   UNL A   1      39.494  30.142  29.613  1.00  0.00    -0.354 N 
ATOM     46  C   UNL A   1      43.228  28.596  31.084  1.00  0.00     0.074 A 
ATOM     47  C   UNL A   1      43.540  27.313  30.494  1.00  0.00     0.031 C 
ATOM     48  C   UNL A   1      37.613  30.150  28.410  1.00  0.00     0.029 A 
ATOM     49  C   UNL A   1      38.375  30.913  29.397  1.00  0.00     0.049 A 
ATOM     50  H   UNL A   1      40.233  30.420  30.202  1.00  0.00     0.167 HD
ATOM     51  C   UNL A   1      44.036  29.253  31.949  1.00  0.00     0.031 A 
ATOM     52  C   UNL A   1      37.984  32.084  29.946  1.00  0.00     0.031 A 
ATOM     53  C   UNL A   1      43.739  30.542  32.518  1.00  0.00     0.049 A 
ATOM     54  C   UNL A   1      38.869  32.762  30.960  1.00  0.00     0.074 A 
ATOM     55  C   UNL A   1      44.524  31.295  33.375  1.00  0.00     0.029 A 
ATOM     56  N   UNL A   1      42.582  31.266  32.291  1.00  0.00    -0.354 N 
ATOM     57  N   UNL A   1      40.047  32.393  31.400  1.00  0.00    -0.248 NA
ATOM     58  C   UNL A   1      38.379  34.018  31.551  1.00  0.00     0.031 C 
ATOM     59  C   UNL A   1      43.809  32.438  33.728  1.00  0.00     0.029 A 
ATOM     60  C   UNL A   1      42.617  32.440  33.025  1.00  0.00     0.049 A 
ATOM     61  H   UNL A   1      41.847  30.989  31.698  1.00  0.00     0.167 HD
ATOM     62  C   UNL A   1      40.444  33.375  32.301  1.00  0.00     0.074 A 
ATOM     63  C   UNL A   1      39.394  34.370  32.330  1.00  0.00     0.031 C 
ATOM     64  C   UNL A   1      41.577  33.437  33.040  1.00  0.00     0.031 A 
BRANCH  51  65
ATOM     65  C   UNL A   1      45.342  28.621  32.352  1.00  0.00    -0.014 A 
ATOM     66  C   UNL A   1      45.452  27.992  33.604  1.00  0.00     0.009 A 
ATOM     67  C   UNL A   1      46.501  28.804  31.582  1.00  0.00     0.009 A 
ATOM     68  C   UNL A   1      46.698  27.595  34.093  1.00  0.00     0.001 A 
ATOM     69  C   UNL A   1      47.742  28.379  32.062  1.00  0.00     0.001 A 
ATOM     70  C   UNL A   1      47.842  27.790  33.323  1.00  0.00     0.000 A 
ENDBRANCH  51  65
BRANCH  52  71
ATOM     71  C   UNL A   1      36.669  32.673  29.563  1.00  0.00    -0.014 A 
ATOM     72  C   UNL A   1      35.553  32.532  30.407  1.00  0.00     0.009 A 
ATOM     73  C   UNL A   1      36.507  33.352  28.346  1.00  0.00     0.009 A 
ATOM     74  C   UNL A   1      34.302  33.024  30.028  1.00  0.00     0.001 A 
ATOM     75  C   UNL A   1      35.261  33.878  27.987  1.00  0.00     0.001 A 
ATOM     76  C   UNL A   1      34.158  33.702  28.821  1.00  0.00     0.000 A 
ENDBRANCH  52  71
BRANCH  64  77
ATOM     77  C   UNL A   1      41.783  34.615  33.952  1.00  0.00    -0.014 A 
ATOM     78  C   UNL A   1      42.378  35.787  33.451  1.00  0.00     0.009 A 
ATOM     79  C   UNL A   1      41.546  34.511  35.330  1.00  0.00     0.009 A 
ATOM     80  C   UNL A   1      42.765  36.812  34.316  1.00  0.00     0.001 A 
ATOM     81  C   UNL A   1      41.905  35.553  36.189  1.00  0.00     0.001 A 
ATOM     82  C   UNL A   1      42.528  36.694  35.684  1.00  0.00     0.000 A 
ENDBRANCH  64  77
ENDBRANCH  38  39
ENDBRANCH  30  33
ENDBRANCH  28  29
ENDBRANCH  27  28
ENDBRANCH  26  27
ENDBRANCH   1  26
TORSDOF 17
ENDMDL
MODEL 3
REMARK VINA RESULT:      -9.9      3.117      8.073
REMARK SMILES C[C@@](O)(CNC(=O)c1ccc(Br)cc1N)CC(=O)NCCCCNC(=O)c1ccc(-c2c3nc(c(-c4ccccc4)c4ccc([nH]4)c(-c4ccccc4)c4nc(c(-c5ccccc5)c5ccc2[nH]5)C=C4)C=C3)cc1
REMARK SMILES IDX 20 1 19 2 17 3 18 4 16 6 2 7 1 8 3 9 4 11 5 12 6 13 7 15
REMARK SMILES IDX 8 16 9 17 14 18 10 19 13 20 11 21 12 22 15 23 21 26 22 27
REMARK SMILES IDX 23 28 24 29 25 30 26 32 27 33 28 34 74 35 29 36 73 37 30 38
REMARK SMILES IDX 31 39 32 40 67 41 33 42 72 43 66 44 68 45 34 46 71 47 65 48
REMARK SMILES IDX 64 49 35 51 57 52 42 53 56 54 43 55 46 56 55 57 69 58 44 59
REMARK SMILES IDX 45 60 54 62 70 63 47 64 36 65 37 66 41 67 38 68 40 69 39 70
REMARK SMILES IDX 58 71 59 72 63 73 60 74 62 75 61 76 48 77 49 78 53 79 50 80
REMARK SMILES IDX 52 81 51 82
REMARK H PARENT 19 5 3 10 5 14 15 24 15 25 24 31 68 50 46 61
REMARK Flexibility Score: inf
ROOT
ATOM      1  C   UNL A   1      30.932  26.311  25.315  1.00  0.00     0.116 C 
ENDROOT
BRANCH   1   2
ATOM      2  N   UNL A   1      30.363  26.962  24.120  1.00  0.00    -0.356 N 
ATOM      3  C   UNL A   1      30.784  27.335  22.880  1.00  0.00     0.222 C 
ATOM      4  O   UNL A   1      29.970  27.841  22.102  1.00  0.00    -0.275 OA
ATOM      5  H   UNL A   1      29.417  27.193  24.258  1.00  0.00     0.163 HD
BRANCH   3   6
ATOM      6  C   UNL A   1      32.176  27.102  22.416  1.00  0.00     0.136 C 
BRANCH   6   7
ATOM      7  C   UNL A   1      32.433  25.673  22.013  1.00  0.00     0.088 C 
ATOM      8  C   UNL A   1      32.650  25.573  20.487  1.00  0.00     0.044 C 
BRANCH   7   9
ATOM      9  O   UNL A   1      31.168  24.960  22.174  1.00  0.00    -0.388 OA
ATOM     10  H   UNL A   1      30.914  24.961  23.110  1.00  0.00     0.211 HD
ENDBRANCH   7   9
BRANCH   7  11
ATOM     11  C   UNL A   1      33.534  24.878  22.823  1.00  0.00     0.151 C 
BRANCH  11  12
ATOM     12  N   UNL A   1      33.469  24.243  24.230  1.00  0.00    -0.349 N 
ATOM     13  C   UNL A   1      33.717  23.166  25.113  1.00  0.00     0.253 C 
ATOM     14  H   UNL A   1      33.043  24.930  24.791  1.00  0.00     0.163 HD
ATOM     15  O   UNL A   1      33.843  23.576  26.285  1.00  0.00    -0.269 OA
BRANCH  13  16
ATOM     16  C   UNL A   1      33.792  21.615  25.026  1.00  0.00     0.062 A 
ATOM     17  C   UNL A   1      34.928  20.797  24.857  1.00  0.00     0.017 A 
ATOM     18  C   UNL A   1      32.622  20.867  25.290  1.00  0.00     0.045 A 
ATOM     19  C   UNL A   1      34.907  19.409  24.629  1.00  0.00     0.016 A 
ATOM     20  C   UNL A   1      32.570  19.472  25.020  1.00  0.00     0.042 A 
ATOM     21  C   UNL A   1      33.701  18.756  24.651  1.00  0.00     0.020 A 
ATOM     22  Br  UNL A   1      33.613  16.923  24.219  1.00  0.00    -0.051 Br
BRANCH  18  23
ATOM     23  N   UNL A   1      31.443  21.476  25.726  1.00  0.00    -0.398 N 
ATOM     24  H   UNL A   1      30.581  21.010  25.623  1.00  0.00     0.156 HD
ATOM     25  H   UNL A   1      31.473  22.370  26.136  1.00  0.00     0.156 HD
ENDBRANCH  18  23
ENDBRANCH  13  16
ENDBRANCH  11  12
ENDBRANCH   7  11
ENDBRANCH   6   7
ENDBRANCH   3   6
ENDBRANCH   1   2
BRANCH   1  26
ATOM     26  C   UNL A   1      31.630  26.957  26.661  1.00  0.00     0.023 C 
BRANCH  26  27
ATOM     27  C   UNL A   1      32.108  28.396  27.251  1.00  0.00     0.023 C 
BRANCH  27  28
ATOM     28  C   UNL A   1      33.514  29.089  27.315  1.00  0.00     0.116 C 
BRANCH  28  29
ATOM     29  N   UNL A   1      33.580  30.422  27.887  1.00  0.00    -0.352 N 
ATOM     30  C   UNL A   1      34.667  31.053  28.460  1.00  0.00     0.251 C 
ATOM     31  H   UNL A   1      32.744  30.941  27.864  1.00  0.00     0.163 HD
ATOM     32  O   UNL A   1      34.536  32.195  28.913  1.00  0.00    -0.269 OA
BRANCH  30  33
ATOM     33  C   UNL A   1      35.976  30.367  28.623  1.00  0.00     0.039 A 
ATOM     34  C   UNL A   1      36.349  29.730  29.809  1.00  0.00     0.014 A 
ATOM     35  C   UNL A   1      36.833  30.309  27.516  1.00  0.00     0.014 A 
ATOM     36  C   UNL A   1      37.622  29.143  29.921  1.00  0.00     0.010 A 
ATOM     37  C   UNL A   1      38.094  29.703  27.623  1.00  0.00     0.010 A 
ATOM     38  C   UNL A   1      38.523  29.154  28.842  1.00  0.00    -0.014 A 
BRANCH  38  39
ATOM     39  C   UNL A   1      39.928  28.661  28.985  1.00  0.00     0.031 A 
ATOM     40  C   UNL A   1      41.012  29.605  29.453  1.00  0.00     0.074 A 
ATOM     41  C   UNL A   1      40.254  27.384  28.693  1.00  0.00     0.049 A 
ATOM     42  N   UNL A   1      42.302  29.403  29.556  1.00  0.00    -0.248 NA
ATOM     43  C   UNL A   1      40.589  30.957  29.857  1.00  0.00     0.031 C 
ATOM     44  C   UNL A   1      39.314  26.355  28.258  1.00  0.00     0.029 A 
ATOM     45  N   UNL A   1      41.470  26.737  28.714  1.00  0.00    -0.354 N 
ATOM     46  C   UNL A   1      42.842  30.598  30.021  1.00  0.00     0.074 A 
ATOM     47  C   UNL A   1      41.747  31.533  30.151  1.00  0.00     0.031 C 
ATOM     48  C   UNL A   1      39.981  25.206  28.061  1.00  0.00     0.029 A 
ATOM     49  C   UNL A   1      41.407  25.427  28.296  1.00  0.00     0.049 A 
ATOM     50  H   UNL A   1      42.307  27.170  28.999  1.00  0.00     0.167 HD
ATOM     51  C   UNL A   1      44.130  30.885  30.325  1.00  0.00     0.031 A 
ATOM     52  C   UNL A   1      42.380  24.512  28.093  1.00  0.00     0.031 A 
ATOM     53  C   UNL A   1      45.217  29.948  30.220  1.00  0.00     0.049 A 
ATOM     54  C   UNL A   1      43.815  24.878  28.373  1.00  0.00     0.074 A 
ATOM     55  C   UNL A   1      46.549  30.149  30.545  1.00  0.00     0.029 A 
ATOM     56  N   UNL A   1      45.107  28.646  29.765  1.00  0.00    -0.354 N 
ATOM     57  N   UNL A   1      44.300  26.002  28.840  1.00  0.00    -0.248 NA
ATOM     58  C   UNL A   1      44.838  23.854  28.102  1.00  0.00     0.031 C 
ATOM     59  C   UNL A   1      47.257  28.994  30.213  1.00  0.00     0.029 A 
ATOM     60  C   UNL A   1      46.354  28.045  29.763  1.00  0.00     0.049 A 
ATOM     61  H   UNL A   1      44.268  28.213  29.485  1.00  0.00     0.167 HD
ATOM     62  C   UNL A   1      45.674  25.815  28.937  1.00  0.00     0.074 A 
ATOM     63  C   UNL A   1      45.948  24.463  28.501  1.00  0.00     0.031 C 
ATOM     64  C   UNL A   1      46.622  26.694  29.344  1.00  0.00     0.031 A 
BRANCH  51  65
ATOM     65  C   UNL A   1      44.474  32.266  30.816  1.00  0.00    -0.014 A 
ATOM     66  C   UNL A   1      44.348  32.569  32.182  1.00  0.00     0.009 A 
ATOM     67  C   UNL A   1      44.743  33.306  29.913  1.00  0.00     0.009 A 
ATOM     68  C   UNL A   1      44.446  33.888  32.630  1.00  0.00     0.001 A 
ATOM     69  C   UNL A   1      44.869  34.621  30.369  1.00  0.00     0.001 A 
ATOM     70  C   UNL A   1      44.704  34.913  31.724  1.00  0.00     0.000 A 
ENDBRANCH  51  65
BRANCH  52  71
ATOM     71  C   UNL A   1      42.023  23.163  27.568  1.00  0.00    -0.014 A 
ATOM     72  C   UNL A   1      42.037  22.911  26.184  1.00  0.00     0.009 A 
ATOM     73  C   UNL A   1      41.639  22.128  28.434  1.00  0.00     0.009 A 
ATOM     74  C   UNL A   1      41.642  21.671  25.679  1.00  0.00     0.001 A 
ATOM     75  C   UNL A   1      41.282  20.874  27.926  1.00  0.00     0.001 A 
ATOM     76  C   UNL A   1      41.271  20.650  26.550  1.00  0.00     0.000 A 
ENDBRANCH  52  71
BRANCH  64  77
ATOM     77  C   UNL A   1      48.059  26.250  29.364  1.00  0.00    -0.014 A 
ATOM     78  C   UNL A   1      48.628  25.786  30.563  1.00  0.00     0.009 A 
ATOM     79  C   UNL A   1      48.889  26.446  28.251  1.00  0.00     0.009 A 
ATOM     80  C   UNL A   1      50.003  25.565  30.657  1.00  0.00     0.001 A 
ATOM     81  C   UNL A   1      50.260  26.193  28.339  1.00  0.00     0.001 A 
ATOM     82  C   UNL A   1      50.818  25.768  29.546  1.00  0.00     0.000 A 
ENDBRANCH  64  77
ENDBRANCH  38  39
ENDBRANCH  30  33
ENDBRANCH  28  29
ENDBRANCH  27  28
ENDBRANCH  26  27
ENDBRANCH   1  26
TORSDOF 17
ENDMDL
