MODEL 1
REMARK VINA RESULT:     -10.7      0.000      0.000
REMARK SMILES CCCC[C@H](CC)C(=O)N1[C@H](C(=O)NCCCCNC(=O)c2ccc(-c3c4nc(c(-c5ccccc5)c5ccc([nH]5)c(-c5ccccc5)c5nc(c(-c6ccccc6)c6ccc3[nH]6)C=C5)C=C4)cc2)COC12CCCCC2
REMARK SMILES IDX 15 1 14 2 12 3 13 4 11 6 10 7 72 8 70 9 71 10 73 11 77 12
REMARK SMILES IDX 74 13 76 14 75 15 8 16 9 17 5 18 4 19 3 20 2 21 1 22 6 23
REMARK SMILES IDX 7 24 16 25 17 26 18 27 19 28 20 29 21 31 22 32 23 33 69 34
REMARK SMILES IDX 24 35 68 36 25 37 26 38 27 39 62 40 28 41 67 42 61 43 63 44
REMARK SMILES IDX 29 45 66 46 60 47 59 48 30 50 52 51 37 52 51 53 38 54 41 55
REMARK SMILES IDX 50 56 64 57 39 58 40 59 49 61 65 62 42 63 31 64 32 65 36 66
REMARK SMILES IDX 33 67 35 68 34 69 53 70 54 71 58 72 55 73 57 74 56 75 43 76
REMARK SMILES IDX 44 77 48 78 45 79 47 80 46 81
REMARK H PARENT 14 5 19 30 63 49 41 60
REMARK Flexibility Score: inf
ROOT
ATOM      1  C   UNL A   1      36.278  21.931  25.597  1.00  0.00     0.116 C 
ENDROOT
BRANCH   1   2
ATOM      2  N   UNL A   1      35.299  21.874  26.669  1.00  0.00    -0.354 N 
ATOM      3  C   UNL A   1      34.221  22.708  26.848  1.00  0.00     0.245 C 
ATOM      4  O   UNL A   1      33.806  22.900  27.990  1.00  0.00    -0.273 OA
ATOM      5  H   UNL A   1      35.422  21.163  27.338  1.00  0.00     0.163 HD
BRANCH   3   6
ATOM      6  C   UNL A   1      33.659  23.406  25.600  1.00  0.00     0.203 C 
ATOM      7  N   UNL A   1      32.230  23.320  25.307  1.00  0.00    -0.299 N 
ATOM      8  C   UNL A   1      31.767  24.643  24.859  1.00  0.00     0.144 C 
ATOM      9  C   UNL A   1      33.894  24.888  25.758  1.00  0.00     0.198 C 
ATOM     10  O   UNL A   1      32.948  25.497  24.895  1.00  0.00    -0.353 OA
ATOM     11  C   UNL A   1      31.368  24.703  23.383  1.00  0.00     0.059 C 
ATOM     12  C   UNL A   1      30.770  25.329  25.806  1.00  0.00     0.059 C 
ATOM     13  C   UNL A   1      30.943  26.101  22.936  1.00  0.00     0.005 C 
ATOM     14  C   UNL A   1      30.325  26.705  25.298  1.00  0.00     0.005 C 
ATOM     15  C   UNL A   1      29.856  26.655  23.847  1.00  0.00     0.000 C 
BRANCH   7  16
ATOM     16  C   UNL A   1      31.706  22.045  25.244  1.00  0.00     0.228 C 
ATOM     17  O   UNL A   1      30.905  21.686  26.126  1.00  0.00    -0.274 OA
BRANCH  16  18
ATOM     18  C   UNL A   1      32.150  20.920  24.292  1.00  0.00     0.078 C 
BRANCH  18  19
ATOM     19  C   UNL A   1      32.856  19.867  25.188  1.00  0.00     0.013 C 
BRANCH  19  20
ATOM     20  C   UNL A   1      32.821  18.394  24.772  1.00  0.00     0.001 C 
BRANCH  20  21
ATOM     21  C   UNL A   1      34.163  17.794  24.344  1.00  0.00    -0.003 C 
ATOM     22  C   UNL A   1      34.038  16.577  23.435  1.00  0.00     0.004 C 
ENDBRANCH  20  21
ENDBRANCH  19  20
ENDBRANCH  18  19
BRANCH  18  23
ATOM     23  C   UNL A   1      32.766  21.258  22.936  1.00  0.00     0.010 C 
ATOM     24  C   UNL A   1      31.779  21.125  21.780  1.00  0.00     0.005 C 
ENDBRANCH  18  23
ENDBRANCH  16  18
ENDBRANCH   7  16
ENDBRANCH   3   6
ENDBRANCH   1   2
BRANCH   1  25
ATOM     25  C   UNL A   1      36.461  20.535  24.998  1.00  0.00     0.023 C 
BRANCH  25  26
ATOM     26  C   UNL A   1      37.910  20.213  24.627  1.00  0.00     0.023 C 
BRANCH  26  27
ATOM     27  C   UNL A   1      38.907  20.440  25.754  1.00  0.00     0.116 C 
BRANCH  27  28
ATOM     28  N   UNL A   1      39.951  19.429  25.776  1.00  0.00    -0.352 N 
ATOM     29  C   UNL A   1      41.282  19.568  26.080  1.00  0.00     0.251 C 
ATOM     30  H   UNL A   1      39.664  18.517  25.542  1.00  0.00     0.163 HD
ATOM     31  O   UNL A   1      42.058  18.644  25.884  1.00  0.00    -0.269 OA
BRANCH  29  32
ATOM     32  C   UNL A   1      41.775  20.856  26.612  1.00  0.00     0.039 A 
ATOM     33  C   UNL A   1      42.201  21.829  25.707  1.00  0.00     0.014 A 
ATOM     34  C   UNL A   1      41.803  21.106  27.987  1.00  0.00     0.014 A 
ATOM     35  C   UNL A   1      42.603  23.075  26.181  1.00  0.00     0.010 A 
ATOM     36  C   UNL A   1      42.124  22.378  28.452  1.00  0.00     0.010 A 
ATOM     37  C   UNL A   1      42.532  23.373  27.554  1.00  0.00    -0.014 A 
BRANCH  37  38
ATOM     38  C   UNL A   1      42.855  24.737  28.040  1.00  0.00     0.031 A 
ATOM     39  C   UNL A   1      44.279  25.171  28.233  1.00  0.00     0.074 A 
ATOM     40  C   UNL A   1      41.846  25.582  28.328  1.00  0.00     0.049 A 
ATOM     41  N   UNL A   1      44.741  26.350  28.569  1.00  0.00    -0.248 NA
ATOM     42  C   UNL A   1      45.319  24.149  28.046  1.00  0.00     0.031 C 
ATOM     43  C   UNL A   1      40.420  25.258  28.237  1.00  0.00     0.029 A 
ATOM     44  N   UNL A   1      41.867  26.890  28.736  1.00  0.00    -0.354 N 
ATOM     45  C   UNL A   1      46.120  26.208  28.639  1.00  0.00     0.074 A 
ATOM     46  C   UNL A   1      46.415  24.817  28.372  1.00  0.00     0.031 C 
ATOM     47  C   UNL A   1      39.704  26.357  28.516  1.00  0.00     0.029 A 
ATOM     48  C   UNL A   1      40.616  27.447  28.846  1.00  0.00     0.049 A 
ATOM     49  H   UNL A   1      42.696  27.382  28.932  1.00  0.00     0.167 HD
ATOM     50  C   UNL A   1      47.060  27.154  28.882  1.00  0.00     0.031 A 
ATOM     51  C   UNL A   1      40.243  28.701  29.161  1.00  0.00     0.031 A 
ATOM     52  C   UNL A   1      46.763  28.534  29.166  1.00  0.00     0.049 A 
ATOM     53  C   UNL A   1      41.302  29.729  29.443  1.00  0.00     0.074 A 
ATOM     54  C   UNL A   1      47.641  29.583  29.370  1.00  0.00     0.029 A 
ATOM     55  N   UNL A   1      45.483  29.054  29.302  1.00  0.00    -0.354 N 
ATOM     56  N   UNL A   1      42.606  29.604  29.414  1.00  0.00    -0.248 NA
ATOM     57  C   UNL A   1      40.829  31.076  29.789  1.00  0.00     0.031 C 
ATOM     58  C   UNL A   1      46.895  30.722  29.697  1.00  0.00     0.029 A 
ATOM     59  C   UNL A   1      45.549  30.400  29.626  1.00  0.00     0.049 A 
ATOM     60  H   UNL A   1      44.650  28.541  29.185  1.00  0.00     0.167 HD
ATOM     61  C   UNL A   1      43.114  30.861  29.717  1.00  0.00     0.074 A 
ATOM     62  C   UNL A   1      41.973  31.737  29.896  1.00  0.00     0.031 C 
ATOM     63  C   UNL A   1      44.406  31.254  29.833  1.00  0.00     0.031 A 
BRANCH  50  64
ATOM     64  C   UNL A   1      48.500  26.709  28.875  1.00  0.00    -0.014 A 
ATOM     65  C   UNL A   1      49.275  26.754  27.703  1.00  0.00     0.009 A 
ATOM     66  C   UNL A   1      49.092  26.239  30.057  1.00  0.00     0.009 A 
ATOM     67  C   UNL A   1      50.592  26.286  27.704  1.00  0.00     0.001 A 
ATOM     68  C   UNL A   1      50.420  25.807  30.064  1.00  0.00     0.001 A 
ATOM     69  C   UNL A   1      51.163  25.816  28.884  1.00  0.00     0.000 A 
ENDBRANCH  50  64
BRANCH  51  70
ATOM     70  C   UNL A   1      38.802  29.060  29.181  1.00  0.00    -0.014 A 
ATOM     71  C   UNL A   1      38.145  29.424  27.995  1.00  0.00     0.009 A 
ATOM     72  C   UNL A   1      38.071  29.021  30.378  1.00  0.00     0.009 A 
ATOM     73  C   UNL A   1      36.789  29.760  28.012  1.00  0.00     0.001 A 
ATOM     74  C   UNL A   1      36.709  29.329  30.386  1.00  0.00     0.001 A 
ATOM     75  C   UNL A   1      36.071  29.705  29.205  1.00  0.00     0.000 A 
ENDBRANCH  51  70
BRANCH  63  76
ATOM     76  C   UNL A   1      44.646  32.704  30.162  1.00  0.00    -0.014 A 
ATOM     77  C   UNL A   1      44.767  33.144  31.490  1.00  0.00     0.009 A 
ATOM     78  C   UNL A   1      44.749  33.645  29.124  1.00  0.00     0.009 A 
ATOM     79  C   UNL A   1      44.930  34.501  31.774  1.00  0.00     0.001 A 
ATOM     80  C   UNL A   1      44.950  34.995  29.410  1.00  0.00     0.001 A 
ATOM     81  C   UNL A   1      45.025  35.425  30.734  1.00  0.00     0.000 A 
ENDBRANCH  63  76
ENDBRANCH  37  38
ENDBRANCH  29  32
ENDBRANCH  27  28
ENDBRANCH  26  27
ENDBRANCH  25  26
ENDBRANCH   1  25
TORSDOF 17
ENDMDL
MODEL 2
REMARK VINA RESULT:     -10.4      4.613      9.514
REMARK SMILES CCCC[C@H](CC)C(=O)N1[C@H](C(=O)NCCCCNC(=O)c2ccc(-c3c4nc(c(-c5ccccc5)c5ccc([nH]5)c(-c5ccccc5)c5nc(c(-c6ccccc6)c6ccc3[nH]6)C=C5)C=C4)cc2)COC12CCCCC2
REMARK SMILES IDX 15 1 14 2 12 3 13 4 11 6 10 7 72 8 70 9 71 10 73 11 77 12
REMARK SMILES IDX 74 13 76 14 75 15 8 16 9 17 5 18 4 19 3 20 2 21 1 22 6 23
REMARK SMILES IDX 7 24 16 25 17 26 18 27 19 28 20 29 21 31 22 32 23 33 69 34
REMARK SMILES IDX 24 35 68 36 25 37 26 38 27 39 62 40 28 41 67 42 61 43 63 44
REMARK SMILES IDX 29 45 66 46 60 47 59 48 30 50 52 51 37 52 51 53 38 54 41 55
REMARK SMILES IDX 50 56 64 57 39 58 40 59 49 61 65 62 42 63 31 64 32 65 36 66
REMARK SMILES IDX 33 67 35 68 34 69 53 70 54 71 58 72 55 73 57 74 56 75 43 76
REMARK SMILES IDX 44 77 48 78 45 79 47 80 46 81
REMARK H PARENT 14 5 19 30 63 49 41 60
REMARK Flexibility Score: inf
ROOT
ATOM      1  C   UNL A   1      32.489  30.074  25.429  1.00  0.00     0.116 C 
ENDROOT
BRANCH   1   2
ATOM      2  N   UNL A   1      31.654  29.744  24.288  1.00  0.00    -0.354 N 
ATOM      3  C   UNL A   1      31.958  28.878  23.265  1.00  0.00     0.245 C 
ATOM      4  O   UNL A   1      31.454  29.071  22.159  1.00  0.00    -0.273 OA
ATOM      5  H   UNL A   1      30.777  30.189  24.243  1.00  0.00     0.163 HD
BRANCH   3   6
ATOM      6  C   UNL A   1      32.977  27.768  23.564  1.00  0.00     0.203 C 
ATOM      7  N   UNL A   1      32.511  26.474  24.055  1.00  0.00    -0.299 N 
ATOM      8  C   UNL A   1      33.271  25.416  23.370  1.00  0.00     0.144 C 
ATOM      9  C   UNL A   1      33.672  27.422  22.270  1.00  0.00     0.198 C 
ATOM     10  O   UNL A   1      34.185  26.115  22.476  1.00  0.00    -0.353 OA
ATOM     11  C   UNL A   1      34.230  24.643  24.277  1.00  0.00     0.059 C 
ATOM     12  C   UNL A   1      32.433  24.524  22.439  1.00  0.00     0.059 C 
ATOM     13  C   UNL A   1      35.043  23.589  23.526  1.00  0.00     0.005 C 
ATOM     14  C   UNL A   1      33.272  23.445  21.745  1.00  0.00     0.005 C 
ATOM     15  C   UNL A   1      34.129  22.662  22.735  1.00  0.00     0.000 C 
BRANCH   7  16
ATOM     16  C   UNL A   1      31.712  26.510  25.180  1.00  0.00     0.228 C 
ATOM     17  O   UNL A   1      32.256  26.620  26.293  1.00  0.00    -0.274 OA
BRANCH  16  18
ATOM     18  C   UNL A   1      30.198  26.232  25.235  1.00  0.00     0.078 C 
BRANCH  18  19
ATOM     19  C   UNL A   1      30.036  24.968  26.122  1.00  0.00     0.013 C 
BRANCH  19  20
ATOM     20  C   UNL A   1      30.467  23.609  25.564  1.00  0.00     0.001 C 
BRANCH  20  21
ATOM     21  C   UNL A   1      31.760  23.033  26.147  1.00  0.00    -0.003 C 
ATOM     22  C   UNL A   1      32.149  21.675  25.575  1.00  0.00     0.004 C 
ENDBRANCH  20  21
ENDBRANCH  19  20
ENDBRANCH  18  19
BRANCH  18  23
ATOM     23  C   UNL A   1      29.348  26.355  23.973  1.00  0.00     0.010 C 
ATOM     24  C   UNL A   1      27.848  26.318  24.256  1.00  0.00     0.005 C 
ENDBRANCH  18  23
ENDBRANCH  16  18
ENDBRANCH   7  16
ENDBRANCH   3   6
ENDBRANCH   1   2
BRANCH   1  25
ATOM     25  C   UNL A   1      31.609  30.552  26.586  1.00  0.00     0.023 C 
BRANCH  25  26
ATOM     26  C   UNL A   1      31.465  32.074  26.659  1.00  0.00     0.023 C 
BRANCH  26  27
ATOM     27  C   UNL A   1      32.685  32.790  27.218  1.00  0.00     0.116 C 
BRANCH  27  28
ATOM     28  N   UNL A   1      32.383  34.148  27.637  1.00  0.00    -0.352 N 
ATOM     29  C   UNL A   1      32.992  34.911  28.601  1.00  0.00     0.251 C 
ATOM     30  H   UNL A   1      31.638  34.582  27.162  1.00  0.00     0.163 HD
ATOM     31  O   UNL A   1      32.500  35.977  28.944  1.00  0.00    -0.269 OA
BRANCH  29  32
ATOM     32  C   UNL A   1      34.227  34.417  29.245  1.00  0.00     0.039 A 
ATOM     33  C   UNL A   1      34.119  33.764  30.473  1.00  0.00     0.014 A 
ATOM     34  C   UNL A   1      35.475  34.584  28.638  1.00  0.00     0.014 A 
ATOM     35  C   UNL A   1      35.260  33.228  31.066  1.00  0.00     0.010 A 
ATOM     36  C   UNL A   1      36.598  33.975  29.188  1.00  0.00     0.010 A 
ATOM     37  C   UNL A   1      36.503  33.296  30.411  1.00  0.00    -0.014 A 
BRANCH  37  38
ATOM     38  C   UNL A   1      37.691  32.626  30.993  1.00  0.00     0.031 A 
ATOM     39  C   UNL A   1      38.283  33.095  32.290  1.00  0.00     0.074 A 
ATOM     40  C   UNL A   1      38.252  31.598  30.328  1.00  0.00     0.049 A 
ATOM     41  N   UNL A   1      39.266  32.574  32.982  1.00  0.00    -0.248 NA
ATOM     42  C   UNL A   1      37.714  34.316  32.881  1.00  0.00     0.031 C 
ATOM     43  C   UNL A   1      37.804  31.087  29.029  1.00  0.00     0.029 A 
ATOM     44  N   UNL A   1      39.304  30.786  30.662  1.00  0.00    -0.354 N 
ATOM     45  C   UNL A   1      39.436  33.404  34.081  1.00  0.00     0.074 A 
ATOM     46  C   UNL A   1      38.499  34.496  33.933  1.00  0.00     0.031 C 
ATOM     47  C   UNL A   1      38.535  30.009  28.708  1.00  0.00     0.029 A 
ATOM     48  C   UNL A   1      39.526  29.780  29.754  1.00  0.00     0.049 A 
ATOM     49  H   UNL A   1      39.848  30.912  31.472  1.00  0.00     0.167 HD
ATOM     50  C   UNL A   1      40.281  33.262  35.131  1.00  0.00     0.031 A 
ATOM     51  C   UNL A   1      40.418  28.772  29.768  1.00  0.00     0.031 A 
ATOM     52  C   UNL A   1      41.226  32.184  35.267  1.00  0.00     0.049 A 
ATOM     53  C   UNL A   1      41.357  28.643  30.934  1.00  0.00     0.074 A 
ATOM     54  C   UNL A   1      42.087  31.916  36.316  1.00  0.00     0.029 A 
ATOM     55  N   UNL A   1      41.446  31.202  34.311  1.00  0.00    -0.354 N 
ATOM     56  N   UNL A   1      41.443  29.383  32.013  1.00  0.00    -0.248 NA
ATOM     57  C   UNL A   1      42.311  27.528  30.885  1.00  0.00     0.031 C 
ATOM     58  C   UNL A   1      42.875  30.813  35.966  1.00  0.00     0.029 A 
ATOM     59  C   UNL A   1      42.456  30.350  34.729  1.00  0.00     0.049 A 
ATOM     60  H   UNL A   1      40.956  31.122  33.460  1.00  0.00     0.167 HD
ATOM     61  C   UNL A   1      42.447  28.812  32.784  1.00  0.00     0.074 A 
ATOM     62  C   UNL A   1      42.916  27.647  32.058  1.00  0.00     0.031 C 
ATOM     63  C   UNL A   1      42.935  29.213  33.983  1.00  0.00     0.031 A 
BRANCH  50  64
ATOM     64  C   UNL A   1      40.230  34.321  36.201  1.00  0.00    -0.014 A 
ATOM     65  C   UNL A   1      39.363  34.209  37.303  1.00  0.00     0.009 A 
ATOM     66  C   UNL A   1      41.062  35.447  36.111  1.00  0.00     0.009 A 
ATOM     67  C   UNL A   1      39.293  35.228  38.257  1.00  0.00     0.001 A 
ATOM     68  C   UNL A   1      41.015  36.447  37.085  1.00  0.00     0.001 A 
ATOM     69  C   UNL A   1      40.120  36.343  38.149  1.00  0.00     0.000 A 
ENDBRANCH  50  64
BRANCH  51  70
ATOM     70  C   UNL A   1      40.432  27.783  28.660  1.00  0.00    -0.014 A 
ATOM     71  C   UNL A   1      41.225  28.002  27.522  1.00  0.00     0.009 A 
ATOM     72  C   UNL A   1      39.671  26.607  28.741  1.00  0.00     0.009 A 
ATOM     73  C   UNL A   1      41.239  27.072  26.481  1.00  0.00     0.001 A 
ATOM     74  C   UNL A   1      39.711  25.665  27.711  1.00  0.00     0.001 A 
ATOM     75  C   UNL A   1      40.489  25.901  26.579  1.00  0.00     0.000 A 
ENDBRANCH  51  70
BRANCH  63  76
ATOM     76  C   UNL A   1      44.029  28.371  34.585  1.00  0.00    -0.014 A 
ATOM     77  C   UNL A   1      45.385  28.647  34.342  1.00  0.00     0.009 A 
ATOM     78  C   UNL A   1      43.697  27.281  35.407  1.00  0.00     0.009 A 
ATOM     79  C   UNL A   1      46.380  27.818  34.863  1.00  0.00     0.001 A 
ATOM     80  C   UNL A   1      44.696  26.478  35.956  1.00  0.00     0.001 A 
ATOM     81  C   UNL A   1      46.036  26.737  35.672  1.00  0.00     0.000 A 
ENDBRANCH  63  76
ENDBRANCH  37  38
ENDBRANCH  29  32
ENDBRANCH  27  28
ENDBRANCH  26  27
ENDBRANCH  25  26
ENDBRANCH   1  25
TORSDOF 17
ENDMDL
MODEL 3
REMARK VINA RESULT:      -9.7      2.432      7.568
REMARK SMILES CCCC[C@H](CC)C(=O)N1[C@H](C(=O)NCCCCNC(=O)c2ccc(-c3c4nc(c(-c5ccccc5)c5ccc([nH]5)c(-c5ccccc5)c5nc(c(-c6ccccc6)c6ccc3[nH]6)C=C5)C=C4)cc2)COC12CCCCC2
REMARK SMILES IDX 15 1 14 2 12 3 13 4 11 6 10 7 72 8 70 9 71 10 73 11 77 12
REMARK SMILES IDX 74 13 76 14 75 15 8 16 9 17 5 18 4 19 3 20 2 21 1 22 6 23
REMARK SMILES IDX 7 24 16 25 17 26 18 27 19 28 20 29 21 31 22 32 23 33 69 34
REMARK SMILES IDX 24 35 68 36 25 37 26 38 27 39 62 40 28 41 67 42 61 43 63 44
REMARK SMILES IDX 29 45 66 46 60 47 59 48 30 50 52 51 37 52 51 53 38 54 41 55
REMARK SMILES IDX 50 56 64 57 39 58 40 59 49 61 65 62 42 63 31 64 32 65 36 66
REMARK SMILES IDX 33 67 35 68 34 69 53 70 54 71 58 72 55 73 57 74 56 75 43 76
REMARK SMILES IDX 44 77 48 78 45 79 47 80 46 81
REMARK H PARENT 14 5 19 30 63 49 41 60
REMARK Flexibility Score: inf
ROOT
ATOM      1  C   UNL A   1      31.458  28.432  26.052  1.00  0.00     0.116 C 
ENDROOT
BRANCH   1   2
ATOM      2  N   UNL A   1      31.068  27.196  26.707  1.00  0.00    -0.354 N 
ATOM      3  C   UNL A   1      30.760  26.002  26.099  1.00  0.00     0.245 C 
ATOM      4  O   UNL A   1      29.977  25.237  26.663  1.00  0.00    -0.273 OA
ATOM      5  H   UNL A   1      31.019  27.216  27.689  1.00  0.00     0.163 HD
BRANCH   3   6
ATOM      6  C   UNL A   1      31.361  25.745  24.710  1.00  0.00     0.203 C 
ATOM      7  N   UNL A   1      32.493  24.831  24.571  1.00  0.00    -0.299 N 
ATOM      8  C   UNL A   1      32.275  24.000  23.376  1.00  0.00     0.144 C 
ATOM      9  C   UNL A   1      30.292  25.108  23.856  1.00  0.00     0.198 C 
ATOM     10  O   UNL A   1      31.002  24.445  22.823  1.00  0.00    -0.353 OA
ATOM     11  C   UNL A   1      33.245  24.283  22.228  1.00  0.00     0.059 C 
ATOM     12  C   UNL A   1      32.064  22.505  23.664  1.00  0.00     0.059 C 
ATOM     13  C   UNL A   1      32.959  23.443  20.984  1.00  0.00     0.005 C 
ATOM     14  C   UNL A   1      31.834  21.686  22.389  1.00  0.00     0.005 C 
ATOM     15  C   UNL A   1      32.900  21.962  21.332  1.00  0.00     0.000 C 
BRANCH   7  16
ATOM     16  C   UNL A   1      33.587  25.104  25.366  1.00  0.00     0.228 C 
ATOM     17  O   UNL A   1      34.189  26.180  25.202  1.00  0.00    -0.274 OA
BRANCH  16  18
ATOM     18  C   UNL A   1      34.283  24.125  26.330  1.00  0.00     0.078 C 
BRANCH  18  19
ATOM     19  C   UNL A   1      35.675  23.841  25.705  1.00  0.00     0.013 C 
BRANCH  19  20
ATOM     20  C   UNL A   1      35.765  23.499  24.215  1.00  0.00     0.001 C 
BRANCH  20  21
ATOM     21  C   UNL A   1      36.596  22.261  23.868  1.00  0.00    -0.003 C 
ATOM     22  C   UNL A   1      37.499  21.782  24.999  1.00  0.00     0.004 C 
ENDBRANCH  20  21
ENDBRANCH  19  20
ENDBRANCH  18  19
BRANCH  18  23
ATOM     23  C   UNL A   1      33.504  22.963  26.941  1.00  0.00     0.010 C 
ATOM     24  C   UNL A   1      34.381  21.753  27.254  1.00  0.00     0.005 C 
ENDBRANCH  18  23
ENDBRANCH  16  18
ENDBRANCH   7  16
ENDBRANCH   3   6
ENDBRANCH   1   2
BRANCH   1  25
ATOM     25  C   UNL A   1      32.286  29.283  27.018  1.00  0.00     0.023 C 
BRANCH  25  26
ATOM     26  C   UNL A   1      33.618  28.642  27.413  1.00  0.00     0.023 C 
BRANCH  26  27
ATOM     27  C   UNL A   1      34.799  29.600  27.400  1.00  0.00     0.116 C 
BRANCH  27  28
ATOM     28  N   UNL A   1      34.833  30.448  28.580  1.00  0.00    -0.352 N 
ATOM     29  C   UNL A   1      35.830  30.593  29.511  1.00  0.00     0.251 C 
ATOM     30  H   UNL A   1      34.029  30.995  28.732  1.00  0.00     0.163 HD
ATOM     31  O   UNL A   1      35.626  31.225  30.539  1.00  0.00    -0.269 OA
BRANCH  29  32
ATOM     32  C   UNL A   1      37.141  29.952  29.278  1.00  0.00     0.039 A 
ATOM     33  C   UNL A   1      37.706  30.041  28.006  1.00  0.00     0.014 A 
ATOM     34  C   UNL A   1      37.811  29.283  30.306  1.00  0.00     0.014 A 
ATOM     35  C   UNL A   1      38.972  29.504  27.780  1.00  0.00     0.010 A 
ATOM     36  C   UNL A   1      39.108  28.824  30.101  1.00  0.00     0.010 A 
ATOM     37  C   UNL A   1      39.700  28.925  28.835  1.00  0.00    -0.014 A 
BRANCH  37  38
ATOM     38  C   UNL A   1      41.089  28.458  28.615  1.00  0.00     0.031 A 
ATOM     39  C   UNL A   1      41.375  27.031  28.246  1.00  0.00     0.074 A 
ATOM     40  C   UNL A   1      42.103  29.330  28.772  1.00  0.00     0.049 A 
ATOM     41  N   UNL A   1      42.520  26.475  27.936  1.00  0.00    -0.248 NA
ATOM     42  C   UNL A   1      40.236  26.102  28.243  1.00  0.00     0.031 C 
ATOM     43  C   UNL A   1      41.959  30.729  29.184  1.00  0.00     0.029 A 
ATOM     44  N   UNL A   1      43.452  29.176  28.582  1.00  0.00    -0.354 N 
ATOM     45  C   UNL A   1      42.239  25.134  27.709  1.00  0.00     0.074 A 
ATOM     46  C   UNL A   1      40.830  24.948  27.977  1.00  0.00     0.031 C 
ATOM     47  C   UNL A   1      43.162  31.321  29.154  1.00  0.00     0.029 A 
ATOM     48  C   UNL A   1      44.165  30.335  28.763  1.00  0.00     0.049 A 
ATOM     49  H   UNL A   1      43.869  28.318  28.341  1.00  0.00     0.167 HD
ATOM     50  C   UNL A   1      43.073  24.150  27.294  1.00  0.00     0.031 A 
ATOM     51  C   UNL A   1      45.479  30.585  28.614  1.00  0.00     0.031 A 
ATOM     52  C   UNL A   1      44.480  24.334  27.046  1.00  0.00     0.049 A 
ATOM     53  C   UNL A   1      46.388  29.475  28.169  1.00  0.00     0.074 A 
ATOM     54  C   UNL A   1      45.401  23.418  26.571  1.00  0.00     0.029 A 
ATOM     55  N   UNL A   1      45.173  25.515  27.272  1.00  0.00    -0.354 N 
ATOM     56  N   UNL A   1      46.092  28.234  27.867  1.00  0.00    -0.248 NA
ATOM     57  C   UNL A   1      47.811  29.810  28.033  1.00  0.00     0.031 C 
ATOM     58  C   UNL A   1      46.663  24.024  26.573  1.00  0.00     0.029 A 
ATOM     59  C   UNL A   1      46.517  25.340  26.983  1.00  0.00     0.049 A 
ATOM     60  H   UNL A   1      44.769  26.355  27.592  1.00  0.00     0.167 HD
ATOM     61  C   UNL A   1      47.289  27.642  27.484  1.00  0.00     0.074 A 
ATOM     62  C   UNL A   1      48.306  28.673  27.566  1.00  0.00     0.031 C 
ATOM     63  C   UNL A   1      47.525  26.364  27.099  1.00  0.00     0.031 A 
BRANCH  50  64
ATOM     64  C   UNL A   1      42.478  22.778  27.109  1.00  0.00    -0.014 A 
ATOM     65  C   UNL A   1      42.051  22.328  25.848  1.00  0.00     0.009 A 
ATOM     66  C   UNL A   1      42.342  21.921  28.212  1.00  0.00     0.009 A 
ATOM     67  C   UNL A   1      41.452  21.073  25.706  1.00  0.00     0.001 A 
ATOM     68  C   UNL A   1      41.776  20.653  28.062  1.00  0.00     0.001 A 
ATOM     69  C   UNL A   1      41.319  20.237  26.812  1.00  0.00     0.000 A 
ENDBRANCH  50  64
BRANCH  51  70
ATOM     70  C   UNL A   1      46.001  31.956  28.845  1.00  0.00    -0.014 A 
ATOM     71  C   UNL A   1      46.462  32.335  30.116  1.00  0.00     0.009 A 
ATOM     72  C   UNL A   1      46.060  32.887  27.797  1.00  0.00     0.009 A 
ATOM     73  C   UNL A   1      46.954  33.624  30.335  1.00  0.00     0.001 A 
ATOM     74  C   UNL A   1      46.580  34.165  28.012  1.00  0.00     0.001 A 
ATOM     75  C   UNL A   1      47.020  34.534  29.281  1.00  0.00     0.000 A 
ENDBRANCH  51  70
BRANCH  63  76
ATOM     76  C   UNL A   1      48.943  26.019  26.726  1.00  0.00    -0.014 A 
ATOM     77  C   UNL A   1      49.839  25.488  27.668  1.00  0.00     0.009 A 
ATOM     78  C   UNL A   1      49.389  26.234  25.412  1.00  0.00     0.009 A 
ATOM     79  C   UNL A   1      51.166  25.231  27.315  1.00  0.00     0.001 A 
ATOM     80  C   UNL A   1      50.705  25.940  25.053  1.00  0.00     0.001 A 
ATOM     81  C   UNL A   1      51.596  25.453  26.008  1.00  0.00     0.000 A 
ENDBRANCH  63  76
ENDBRANCH  37  38
ENDBRANCH  29  32
ENDBRANCH  27  28
ENDBRANCH  26  27
ENDBRANCH  25  26
ENDBRANCH   1  25
TORSDOF 17
ENDMDL
