MODEL 1
REMARK VINA RESULT:     -11.8      0.000      0.000
REMARK SMILES C[C@@H](C(=O)NCCCCNC(=O)c1ccc(-c2c3nc(c(-c4ccccc4)c4ccc([nH]4)c(-c4ccccc4)c4nc(c(-c5ccccc5)c5ccc2[nH]5)C=C4)C=C3)cc1)c1ccc(-c2cccc(OC(=O)NC3CC3)c2)c(F)c1
REMARK SMILES IDX 6 1 5 2 3 3 4 4 2 6 1 7 61 8 62 9 80 10 63 11 78 12 64 13
REMARK SMILES IDX 79 14 65 15 66 16 77 17 67 18 69 19 68 20 70 21 71 22 72 23
REMARK SMILES IDX 73 24 74 26 75 27 76 28 7 29 8 30 9 31 10 32 11 33 12 35
REMARK SMILES IDX 13 36 14 37 60 38 15 39 59 40 16 41 17 42 18 43 53 44 19 45
REMARK SMILES IDX 58 46 52 47 54 48 20 49 57 50 51 51 50 52 21 54 43 55 28 56
REMARK SMILES IDX 42 57 29 58 32 59 41 60 55 61 30 62 31 63 40 65 56 66 33 67
REMARK SMILES IDX 22 68 23 69 27 70 24 71 26 72 25 73 44 74 45 75 49 76 46 77
REMARK SMILES IDX 48 78 47 79 34 80 35 81 39 82 36 83 38 84 37 85
REMARK H PARENT 5 5 73 25 10 34 54 53 32 64
REMARK Flexibility Score: inf
ROOT
ATOM      1  C   UNL A   1      35.123  20.208  24.573  1.00  0.00     0.116 C 
ENDROOT
BRANCH   1   2
ATOM      2  N   UNL A   1      34.335  19.244  25.307  1.00  0.00    -0.356 N 
ATOM      3  C   UNL A   1      32.992  19.012  25.273  1.00  0.00     0.227 C 
ATOM      4  O   UNL A   1      32.547  18.223  26.110  1.00  0.00    -0.274 OA
ATOM      5  H   UNL A   1      34.843  18.668  25.923  1.00  0.00     0.163 HD
BRANCH   3   6
ATOM      6  C   UNL A   1      32.127  19.684  24.195  1.00  0.00     0.105 C 
ATOM      7  C   UNL A   1      32.562  19.335  22.766  1.00  0.00     0.023 C 
BRANCH   6   8
ATOM      8  C   UNL A   1      32.103  21.197  24.359  1.00  0.00    -0.033 A 
ATOM      9  C   UNL A   1      32.355  22.039  23.266  1.00  0.00     0.005 A 
ATOM     10  C   UNL A   1      31.845  21.774  25.611  1.00  0.00     0.044 A 
ATOM     11  C   UNL A   1      32.405  23.425  23.436  1.00  0.00     0.012 A 
ATOM     12  C   UNL A   1      31.900  23.151  25.771  1.00  0.00     0.131 A 
ATOM     13  C   UNL A   1      32.207  23.999  24.701  1.00  0.00     0.018 A 
ATOM     14  F   UNL A   1      31.688  23.653  26.997  1.00  0.00    -0.206 F 
BRANCH  13  15
ATOM     15  C   UNL A   1      32.429  25.431  24.923  1.00  0.00    -0.012 A 
ATOM     16  C   UNL A   1      33.539  25.919  25.624  1.00  0.00     0.009 A 
ATOM     17  C   UNL A   1      31.482  26.344  24.428  1.00  0.00     0.056 A 
ATOM     18  C   UNL A   1      33.705  27.292  25.818  1.00  0.00     0.004 A 
ATOM     19  C   UNL A   1      31.647  27.709  24.624  1.00  0.00     0.133 A 
ATOM     20  C   UNL A   1      32.757  28.188  25.317  1.00  0.00     0.047 A 
BRANCH  19  21
ATOM     21  O   UNL A   1      30.738  28.690  24.159  1.00  0.00    -0.410 OA
BRANCH  21  22
ATOM     22  C   UNL A   1      30.220  28.789  22.871  1.00  0.00     0.412 C 
ATOM     23  O   UNL A   1      30.400  27.999  21.947  1.00  0.00    -0.224 OA
ATOM     24  N   UNL A   1      29.450  29.903  22.664  1.00  0.00    -0.318 N 
ATOM     25  H   UNL A   1      29.113  30.015  21.746  1.00  0.00     0.167 HD
BRANCH  24  26
ATOM     26  C   UNL A   1      29.064  30.924  23.578  1.00  0.00     0.085 C 
ATOM     27  C   UNL A   1      28.678  32.335  23.243  1.00  0.00     0.027 C 
ATOM     28  C   UNL A   1      27.617  31.346  23.609  1.00  0.00     0.027 C 
ENDBRANCH  24  26
ENDBRANCH  21  22
ENDBRANCH  19  21
ENDBRANCH  13  15
ENDBRANCH   6   8
ENDBRANCH   3   6
ENDBRANCH   1   2
BRANCH   1  29
ATOM     29  C   UNL A   1      35.708  21.256  25.521  1.00  0.00     0.023 C 
BRANCH  29  30
ATOM     30  C   UNL A   1      36.174  22.538  24.829  1.00  0.00     0.023 C 
BRANCH  30  31
ATOM     31  C   UNL A   1      37.223  23.334  25.595  1.00  0.00     0.116 C 
BRANCH  31  32
ATOM     32  N   UNL A   1      38.459  22.590  25.792  1.00  0.00    -0.352 N 
ATOM     33  C   UNL A   1      39.651  23.027  26.314  1.00  0.00     0.251 C 
ATOM     34  H   UNL A   1      38.436  21.646  25.512  1.00  0.00     0.163 HD
ATOM     35  O   UNL A   1      40.648  22.314  26.276  1.00  0.00    -0.269 OA
BRANCH  33  36
ATOM     36  C   UNL A   1      39.727  24.383  26.888  1.00  0.00     0.039 A 
ATOM     37  C   UNL A   1      39.221  24.604  28.170  1.00  0.00     0.014 A 
ATOM     38  C   UNL A   1      40.354  25.415  26.183  1.00  0.00     0.014 A 
ATOM     39  C   UNL A   1      39.423  25.840  28.785  1.00  0.00     0.010 A 
ATOM     40  C   UNL A   1      40.615  26.621  26.824  1.00  0.00     0.010 A 
ATOM     41  C   UNL A   1      40.166  26.840  28.137  1.00  0.00    -0.014 A 
BRANCH  41  42
ATOM     42  C   UNL A   1      40.532  28.103  28.826  1.00  0.00     0.031 A 
ATOM     43  C   UNL A   1      41.858  28.231  29.519  1.00  0.00     0.074 A 
ATOM     44  C   UNL A   1      39.625  29.099  28.907  1.00  0.00     0.049 A 
ATOM     45  N   UNL A   1      42.308  29.210  30.262  1.00  0.00    -0.248 NA
ATOM     46  C   UNL A   1      42.792  27.102  29.381  1.00  0.00     0.031 C 
ATOM     47  C   UNL A   1      38.287  29.081  28.310  1.00  0.00     0.029 A 
ATOM     48  N   UNL A   1      39.685  30.313  29.547  1.00  0.00    -0.354 N 
ATOM     49  C   UNL A   1      43.564  28.805  30.698  1.00  0.00     0.074 A 
ATOM     50  C   UNL A   1      43.791  27.480  30.166  1.00  0.00     0.031 C 
ATOM     51  C   UNL A   1      37.660  30.232  28.602  1.00  0.00     0.029 A 
ATOM     52  C   UNL A   1      38.525  31.045  29.448  1.00  0.00     0.049 A 
ATOM     53  H   UNL A   1      40.483  30.628  30.030  1.00  0.00     0.167 HD
ATOM     54  C   UNL A   1      44.448  29.483  31.466  1.00  0.00     0.031 A 
ATOM     55  C   UNL A   1      38.185  32.226  30.000  1.00  0.00     0.031 A 
ATOM     56  C   UNL A   1      44.222  30.806  31.983  1.00  0.00     0.049 A 
ATOM     57  C   UNL A   1      39.178  32.940  30.875  1.00  0.00     0.074 A 
ATOM     58  C   UNL A   1      45.094  31.607  32.701  1.00  0.00     0.029 A 
ATOM     59  N   UNL A   1      43.041  31.517  31.852  1.00  0.00    -0.354 N 
ATOM     60  N   UNL A   1      40.400  32.588  31.196  1.00  0.00    -0.248 NA
ATOM     61  C   UNL A   1      38.747  34.217  31.464  1.00  0.00     0.031 C 
ATOM     62  C   UNL A   1      44.414  32.771  33.069  1.00  0.00     0.029 A 
ATOM     63  C   UNL A   1      43.143  32.726  32.519  1.00  0.00     0.049 A 
ATOM     64  H   UNL A   1      42.247  31.208  31.359  1.00  0.00     0.167 HD
ATOM     65  C   UNL A   1      40.889  33.608  32.002  1.00  0.00     0.074 A 
ATOM     66  C   UNL A   1      39.842  34.603  32.103  1.00  0.00     0.031 C 
ATOM     67  C   UNL A   1      42.095  33.708  32.609  1.00  0.00     0.031 A 
BRANCH  54  68
ATOM     68  C   UNL A   1      45.741  28.803  31.818  1.00  0.00    -0.014 A 
ATOM     69  C   UNL A   1      45.856  27.994  32.960  1.00  0.00     0.009 A 
ATOM     70  C   UNL A   1      46.839  28.914  30.951  1.00  0.00     0.009 A 
ATOM     71  C   UNL A   1      47.054  27.331  33.238  1.00  0.00     0.001 A 
ATOM     72  C   UNL A   1      48.025  28.228  31.216  1.00  0.00     0.001 A 
ATOM     73  C   UNL A   1      48.134  27.442  32.361  1.00  0.00     0.000 A 
ENDBRANCH  54  68
BRANCH  55  74
ATOM     74  C   UNL A   1      36.831  32.799  29.773  1.00  0.00    -0.014 A 
ATOM     75  C   UNL A   1      35.791  32.570  30.689  1.00  0.00     0.009 A 
ATOM     76  C   UNL A   1      36.560  33.552  28.619  1.00  0.00     0.009 A 
ATOM     77  C   UNL A   1      34.504  33.050  30.434  1.00  0.00     0.001 A 
ATOM     78  C   UNL A   1      35.280  34.061  28.384  1.00  0.00     0.001 A 
ATOM     79  C   UNL A   1      34.250  33.797  29.285  1.00  0.00     0.000 A 
ENDBRANCH  55  74
BRANCH  67  80
ATOM     80  C   UNL A   1      42.365  34.947  33.415  1.00  0.00    -0.014 A 
ATOM     81  C   UNL A   1      43.037  36.046  32.859  1.00  0.00     0.009 A 
ATOM     82  C   UNL A   1      41.882  35.040  34.731  1.00  0.00     0.009 A 
ATOM     83  C   UNL A   1      43.242  37.204  33.612  1.00  0.00     0.001 A 
ATOM     84  C   UNL A   1      42.060  36.209  35.470  1.00  0.00     0.001 A 
ATOM     85  C   UNL A   1      42.745  37.287  34.914  1.00  0.00     0.000 A 
ENDBRANCH  67  80
ENDBRANCH  41  42
ENDBRANCH  33  36
ENDBRANCH  31  32
ENDBRANCH  30  31
ENDBRANCH  29  30
ENDBRANCH   1  29
TORSDOF 16
ENDMDL
MODEL 2
REMARK VINA RESULT:     -11.7      2.465      8.535
REMARK SMILES C[C@@H](C(=O)NCCCCNC(=O)c1ccc(-c2c3nc(c(-c4ccccc4)c4ccc([nH]4)c(-c4ccccc4)c4nc(c(-c5ccccc5)c5ccc2[nH]5)C=C4)C=C3)cc1)c1ccc(-c2cccc(OC(=O)NC3CC3)c2)c(F)c1
REMARK SMILES IDX 6 1 5 2 3 3 4 4 2 6 1 7 61 8 62 9 80 10 63 11 78 12 64 13
REMARK SMILES IDX 79 14 65 15 66 16 77 17 67 18 69 19 68 20 70 21 71 22 72 23
REMARK SMILES IDX 73 24 74 26 75 27 76 28 7 29 8 30 9 31 10 32 11 33 12 35
REMARK SMILES IDX 13 36 14 37 60 38 15 39 59 40 16 41 17 42 18 43 53 44 19 45
REMARK SMILES IDX 58 46 52 47 54 48 20 49 57 50 51 51 50 52 21 54 43 55 28 56
REMARK SMILES IDX 42 57 29 58 32 59 41 60 55 61 30 62 31 63 40 65 56 66 33 67
REMARK SMILES IDX 22 68 23 69 27 70 24 71 26 72 25 73 44 74 45 75 49 76 46 77
REMARK SMILES IDX 48 78 47 79 34 80 35 81 39 82 36 83 38 84 37 85
REMARK H PARENT 5 5 73 25 10 34 54 53 32 64
REMARK Flexibility Score: inf
ROOT
ATOM      1  C   UNL A   1      34.461  29.167  27.189  1.00  0.00     0.116 C 
ENDROOT
BRANCH   1   2
ATOM      2  N   UNL A   1      33.227  28.696  27.777  1.00  0.00    -0.356 N 
ATOM      3  C   UNL A   1      32.126  28.163  27.176  1.00  0.00     0.227 C 
ATOM      4  O   UNL A   1      31.143  27.974  27.895  1.00  0.00    -0.274 OA
ATOM      5  H   UNL A   1      33.174  28.770  28.757  1.00  0.00     0.163 HD
BRANCH   3   6
ATOM      6  C   UNL A   1      32.173  27.789  25.687  1.00  0.00     0.105 C 
ATOM      7  C   UNL A   1      30.805  27.877  24.997  1.00  0.00     0.023 C 
BRANCH   6   8
ATOM      8  C   UNL A   1      32.754  26.398  25.476  1.00  0.00    -0.033 A 
ATOM      9  C   UNL A   1      32.593  25.401  26.449  1.00  0.00     0.005 A 
ATOM     10  C   UNL A   1      33.476  26.096  24.312  1.00  0.00     0.044 A 
ATOM     11  C   UNL A   1      33.192  24.148  26.285  1.00  0.00     0.012 A 
ATOM     12  C   UNL A   1      34.069  24.851  24.159  1.00  0.00     0.131 A 
ATOM     13  C   UNL A   1      33.965  23.866  25.149  1.00  0.00     0.018 A 
ATOM     14  F   UNL A   1      34.784  24.624  23.047  1.00  0.00    -0.206 F 
BRANCH  13  15
ATOM     15  C   UNL A   1      34.735  22.624  25.049  1.00  0.00    -0.012 A 
ATOM     16  C   UNL A   1      36.136  22.610  25.019  1.00  0.00     0.009 A 
ATOM     17  C   UNL A   1      34.042  21.405  24.964  1.00  0.00     0.056 A 
ATOM     18  C   UNL A   1      36.828  21.401  24.916  1.00  0.00     0.004 A 
ATOM     19  C   UNL A   1      34.731  20.205  24.859  1.00  0.00     0.133 A 
ATOM     20  C   UNL A   1      36.125  20.197  24.835  1.00  0.00     0.047 A 
BRANCH  19  21
ATOM     21  O   UNL A   1      34.105  18.938  24.766  1.00  0.00    -0.410 OA
BRANCH  21  22
ATOM     22  C   UNL A   1      32.893  18.662  24.138  1.00  0.00     0.412 C 
ATOM     23  O   UNL A   1      32.375  19.309  23.231  1.00  0.00    -0.224 OA
ATOM     24  N   UNL A   1      32.253  17.554  24.627  1.00  0.00    -0.318 N 
ATOM     25  H   UNL A   1      31.372  17.369  24.228  1.00  0.00     0.167 HD
BRANCH  24  26
ATOM     26  C   UNL A   1      32.669  16.629  25.626  1.00  0.00     0.085 C 
ATOM     27  C   UNL A   1      32.242  15.197  25.763  1.00  0.00     0.027 C 
ATOM     28  C   UNL A   1      33.602  15.515  25.225  1.00  0.00     0.027 C 
ENDBRANCH  24  26
ENDBRANCH  21  22
ENDBRANCH  19  21
ENDBRANCH  13  15
ENDBRANCH   6   8
ENDBRANCH   3   6
ENDBRANCH   1   2
BRANCH   1  29
ATOM     29  C   UNL A   1      34.840  30.534  27.760  1.00  0.00     0.023 C 
BRANCH  29  30
ATOM     30  C   UNL A   1      33.674  31.521  27.853  1.00  0.00     0.023 C 
BRANCH  30  31
ATOM     31  C   UNL A   1      34.033  32.967  27.535  1.00  0.00     0.116 C 
BRANCH  31  32
ATOM     32  N   UNL A   1      33.425  33.912  28.461  1.00  0.00    -0.352 N 
ATOM     33  C   UNL A   1      33.798  34.215  29.747  1.00  0.00     0.251 C 
ATOM     34  H   UNL A   1      32.640  34.398  28.119  1.00  0.00     0.163 HD
ATOM     35  O   UNL A   1      33.091  34.928  30.450  1.00  0.00    -0.269 OA
BRANCH  33  36
ATOM     36  C   UNL A   1      35.044  33.638  30.286  1.00  0.00     0.039 A 
ATOM     37  C   UNL A   1      34.963  32.673  31.291  1.00  0.00     0.014 A 
ATOM     38  C   UNL A   1      36.283  34.008  29.753  1.00  0.00     0.014 A 
ATOM     39  C   UNL A   1      36.120  32.010  31.702  1.00  0.00     0.010 A 
ATOM     40  C   UNL A   1      37.423  33.297  30.113  1.00  0.00     0.010 A 
ATOM     41  C   UNL A   1      37.349  32.281  31.080  1.00  0.00    -0.014 A 
BRANCH  41  42
ATOM     42  C   UNL A   1      38.564  31.482  31.384  1.00  0.00     0.031 A 
ATOM     43  C   UNL A   1      39.548  31.963  32.412  1.00  0.00     0.074 A 
ATOM     44  C   UNL A   1      38.825  30.374  30.661  1.00  0.00     0.049 A 
ATOM     45  N   UNL A   1      40.713  31.460  32.734  1.00  0.00    -0.248 NA
ATOM     46  C   UNL A   1      39.189  33.179  33.159  1.00  0.00     0.031 C 
ATOM     47  C   UNL A   1      37.967  29.824  29.607  1.00  0.00     0.029 A 
ATOM     48  N   UNL A   1      39.900  29.520  30.688  1.00  0.00    -0.354 N 
ATOM     49  C   UNL A   1      41.235  32.311  33.701  1.00  0.00     0.074 A 
ATOM     50  C   UNL A   1      40.277  33.378  33.890  1.00  0.00     0.031 C 
ATOM     51  C   UNL A   1      38.545  28.724  29.099  1.00  0.00     0.029 A 
ATOM     52  C   UNL A   1      39.833  28.518  29.749  1.00  0.00     0.049 A 
ATOM     53  H   UNL A   1      40.649  29.618  31.321  1.00  0.00     0.167 HD
ATOM     54  C   UNL A   1      42.403  32.205  34.375  1.00  0.00     0.031 A 
ATOM     55  C   UNL A   1      40.721  27.558  29.428  1.00  0.00     0.031 A 
ATOM     56  C   UNL A   1      43.348  31.135  34.193  1.00  0.00     0.049 A 
ATOM     57  C   UNL A   1      42.026  27.485  30.173  1.00  0.00     0.074 A 
ATOM     58  C   UNL A   1      44.520  30.897  34.890  1.00  0.00     0.029 A 
ATOM     59  N   UNL A   1      43.237  30.134  33.241  1.00  0.00    -0.354 N 
ATOM     60  N   UNL A   1      42.459  28.239  31.154  1.00  0.00    -0.248 NA
ATOM     61  C   UNL A   1      42.964  26.427  29.769  1.00  0.00     0.031 C 
ATOM     62  C   UNL A   1      45.156  29.797  34.310  1.00  0.00     0.029 A 
ATOM     63  C   UNL A   1      44.346  29.307  33.299  1.00  0.00     0.049 A 
ATOM     64  H   UNL A   1      42.484  30.029  32.616  1.00  0.00     0.167 HD
ATOM     65  C   UNL A   1      43.706  27.733  31.498  1.00  0.00     0.074 A 
ATOM     66  C   UNL A   1      43.950  26.595  30.638  1.00  0.00     0.031 C 
ATOM     67  C   UNL A   1      44.575  28.176  32.439  1.00  0.00     0.031 A 
BRANCH  54  68
ATOM     68  C   UNL A   1      42.747  33.283  35.363  1.00  0.00    -0.014 A 
ATOM     69  C   UNL A   1      42.440  33.154  36.726  1.00  0.00     0.009 A 
ATOM     70  C   UNL A   1      43.459  34.415  34.932  1.00  0.00     0.009 A 
ATOM     71  C   UNL A   1      42.816  34.147  37.633  1.00  0.00     0.001 A 
ATOM     72  C   UNL A   1      43.859  35.392  35.845  1.00  0.00     0.001 A 
ATOM     73  C   UNL A   1      43.533  35.260  37.193  1.00  0.00     0.000 A 
ENDBRANCH  54  68
BRANCH  55  74
ATOM     74  C   UNL A   1      40.429  26.602  28.325  1.00  0.00    -0.014 A 
ATOM     75  C   UNL A   1      40.926  26.824  27.032  1.00  0.00     0.009 A 
ATOM     76  C   UNL A   1      39.619  25.478  28.553  1.00  0.00     0.009 A 
ATOM     77  C   UNL A   1      40.588  25.963  25.985  1.00  0.00     0.001 A 
ATOM     78  C   UNL A   1      39.312  24.598  27.513  1.00  0.00     0.001 A 
ATOM     79  C   UNL A   1      39.785  24.850  26.226  1.00  0.00     0.000 A 
ENDBRANCH  55  74
BRANCH  67  80
ATOM     80  C   UNL A   1      45.858  27.414  32.611  1.00  0.00    -0.014 A 
ATOM     81  C   UNL A   1      45.935  26.299  33.460  1.00  0.00     0.009 A 
ATOM     82  C   UNL A   1      46.990  27.780  31.864  1.00  0.00     0.009 A 
ATOM     83  C   UNL A   1      47.127  25.581  33.575  1.00  0.00     0.001 A 
ATOM     84  C   UNL A   1      48.169  27.040  31.955  1.00  0.00     0.001 A 
ATOM     85  C   UNL A   1      48.239  25.947  32.816  1.00  0.00     0.000 A 
ENDBRANCH  67  80
ENDBRANCH  41  42
ENDBRANCH  33  36
ENDBRANCH  31  32
ENDBRANCH  30  31
ENDBRANCH  29  30
ENDBRANCH   1  29
TORSDOF 16
ENDMDL
MODEL 3
REMARK VINA RESULT:     -11.7      2.348      8.529
REMARK SMILES C[C@@H](C(=O)NCCCCNC(=O)c1ccc(-c2c3nc(c(-c4ccccc4)c4ccc([nH]4)c(-c4ccccc4)c4nc(c(-c5ccccc5)c5ccc2[nH]5)C=C4)C=C3)cc1)c1ccc(-c2cccc(OC(=O)NC3CC3)c2)c(F)c1
REMARK SMILES IDX 6 1 5 2 3 3 4 4 2 6 1 7 61 8 62 9 80 10 63 11 78 12 64 13
REMARK SMILES IDX 79 14 65 15 66 16 77 17 67 18 69 19 68 20 70 21 71 22 72 23
REMARK SMILES IDX 73 24 74 26 75 27 76 28 7 29 8 30 9 31 10 32 11 33 12 35
REMARK SMILES IDX 13 36 14 37 60 38 15 39 59 40 16 41 17 42 18 43 53 44 19 45
REMARK SMILES IDX 58 46 52 47 54 48 20 49 57 50 51 51 50 52 21 54 43 55 28 56
REMARK SMILES IDX 42 57 29 58 32 59 41 60 55 61 30 62 31 63 40 65 56 66 33 67
REMARK SMILES IDX 22 68 23 69 27 70 24 71 26 72 25 73 44 74 45 75 49 76 46 77
REMARK SMILES IDX 48 78 47 79 34 80 35 81 39 82 36 83 38 84 37 85
REMARK H PARENT 5 5 73 25 10 34 54 53 32 64
REMARK Flexibility Score: inf
ROOT
ATOM      1  C   UNL A   1      34.699  29.116  26.947  1.00  0.00     0.116 C 
ENDROOT
BRANCH   1   2
ATOM      2  N   UNL A   1      33.294  28.776  26.919  1.00  0.00    -0.356 N 
ATOM      3  C   UNL A   1      32.531  28.324  25.884  1.00  0.00     0.227 C 
ATOM      4  O   UNL A   1      31.317  28.246  26.089  1.00  0.00    -0.274 OA
ATOM      5  H   UNL A   1      32.818  28.887  27.773  1.00  0.00     0.163 HD
BRANCH   3   6
ATOM      6  C   UNL A   1      33.199  27.898  24.569  1.00  0.00     0.105 C 
ATOM      7  C   UNL A   1      32.314  28.130  23.337  1.00  0.00     0.023 C 
BRANCH   6   8
ATOM      8  C   UNL A   1      33.636  26.440  24.608  1.00  0.00    -0.033 A 
ATOM      9  C   UNL A   1      34.006  25.772  23.432  1.00  0.00     0.005 A 
ATOM     10  C   UNL A   1      33.657  25.735  25.820  1.00  0.00     0.044 A 
ATOM     11  C   UNL A   1      34.334  24.414  23.462  1.00  0.00     0.012 A 
ATOM     12  C   UNL A   1      33.981  24.386  25.840  1.00  0.00     0.131 A 
ATOM     13  C   UNL A   1      34.296  23.694  24.665  1.00  0.00     0.018 A 
ATOM     14  F   UNL A   1      33.947  23.745  27.018  1.00  0.00    -0.206 F 
BRANCH  13  15
ATOM     15  C   UNL A   1      34.468  22.239  24.679  1.00  0.00    -0.012 A 
ATOM     16  C   UNL A   1      35.695  21.631  24.979  1.00  0.00     0.009 A 
ATOM     17  C   UNL A   1      33.367  21.426  24.363  1.00  0.00     0.056 A 
ATOM     18  C   UNL A   1      35.814  20.239  24.974  1.00  0.00     0.004 A 
ATOM     19  C   UNL A   1      33.487  20.043  24.356  1.00  0.00     0.133 A 
ATOM     20  C   UNL A   1      34.709  19.444  24.661  1.00  0.00     0.047 A 
BRANCH  19  21
ATOM     21  O   UNL A   1      32.426  19.158  24.045  1.00  0.00    -0.410 OA
BRANCH  21  22
ATOM     22  C   UNL A   1      32.455  18.135  23.101  1.00  0.00     0.412 C 
ATOM     23  O   UNL A   1      32.372  18.262  21.882  1.00  0.00    -0.224 OA
ATOM     24  N   UNL A   1      32.578  16.882  23.641  1.00  0.00    -0.318 N 
ATOM     25  H   UNL A   1      32.553  16.142  22.993  1.00  0.00     0.167 HD
BRANCH  24  26
ATOM     26  C   UNL A   1      32.736  16.489  25.001  1.00  0.00     0.085 C 
ATOM     27  C   UNL A   1      32.672  15.093  25.548  1.00  0.00     0.027 C 
ATOM     28  C   UNL A   1      34.000  15.767  25.393  1.00  0.00     0.027 C 
ENDBRANCH  24  26
ENDBRANCH  21  22
ENDBRANCH  19  21
ENDBRANCH  13  15
ENDBRANCH   6   8
ENDBRANCH   3   6
ENDBRANCH   1   2
BRANCH   1  29
ATOM     29  C   UNL A   1      34.923  30.407  27.736  1.00  0.00     0.023 C 
BRANCH  29  30
ATOM     30  C   UNL A   1      33.654  31.229  27.968  1.00  0.00     0.023 C 
BRANCH  30  31
ATOM     31  C   UNL A   1      33.578  32.526  27.171  1.00  0.00     0.116 C 
BRANCH  31  32
ATOM     32  N   UNL A   1      32.960  33.610  27.922  1.00  0.00    -0.352 N 
ATOM     33  C   UNL A   1      33.394  34.211  29.077  1.00  0.00     0.251 C 
ATOM     34  H   UNL A   1      32.116  33.957  27.552  1.00  0.00     0.163 HD
ATOM     35  O   UNL A   1      32.682  35.013  29.670  1.00  0.00    -0.269 OA
BRANCH  33  36
ATOM     36  C   UNL A   1      34.717  33.848  29.619  1.00  0.00     0.039 A 
ATOM     37  C   UNL A   1      34.783  33.036  30.754  1.00  0.00     0.014 A 
ATOM     38  C   UNL A   1      35.885  34.260  28.970  1.00  0.00     0.014 A 
ATOM     39  C   UNL A   1      36.022  32.561  31.187  1.00  0.00     0.010 A 
ATOM     40  C   UNL A   1      37.109  33.728  29.361  1.00  0.00     0.010 A 
ATOM     41  C   UNL A   1      37.187  32.862  30.463  1.00  0.00    -0.014 A 
BRANCH  41  42
ATOM     42  C   UNL A   1      38.493  32.243  30.806  1.00  0.00     0.031 A 
ATOM     43  C   UNL A   1      38.934  30.978  30.126  1.00  0.00     0.074 A 
ATOM     44  C   UNL A   1      39.235  32.772  31.801  1.00  0.00     0.049 A 
ATOM     45  N   UNL A   1      39.984  30.236  30.368  1.00  0.00    -0.248 NA
ATOM     46  C   UNL A   1      38.071  30.466  29.049  1.00  0.00     0.031 C 
ATOM     47  C   UNL A   1      38.897  33.976  32.566  1.00  0.00     0.029 A 
ATOM     48  N   UNL A   1      40.418  32.350  32.356  1.00  0.00    -0.354 N 
ATOM     49  C   UNL A   1      39.895  29.160  29.494  1.00  0.00     0.074 A 
ATOM     50  C   UNL A   1      38.673  29.327  28.738  1.00  0.00     0.031 C 
ATOM     51  C   UNL A   1      39.855  34.199  33.480  1.00  0.00     0.029 A 
ATOM     52  C   UNL A   1      40.845  33.132  33.404  1.00  0.00     0.049 A 
ATOM     53  H   UNL A   1      40.914  31.563  32.033  1.00  0.00     0.167 HD
ATOM     54  C   UNL A   1      40.759  28.132  29.332  1.00  0.00     0.031 A 
ATOM     55  C   UNL A   1      41.898  32.989  34.230  1.00  0.00     0.031 A 
ATOM     56  C   UNL A   1      41.980  27.976  30.076  1.00  0.00     0.049 A 
ATOM     57  C   UNL A   1      42.824  31.818  34.045  1.00  0.00     0.074 A 
ATOM     58  C   UNL A   1      42.961  27.011  29.923  1.00  0.00     0.029 A 
ATOM     59  N   UNL A   1      42.381  28.794  31.120  1.00  0.00    -0.354 N 
ATOM     60  N   UNL A   1      42.778  30.863  33.147  1.00  0.00    -0.248 NA
ATOM     61  C   UNL A   1      43.948  31.704  34.986  1.00  0.00     0.031 C 
ATOM     62  C   UNL A   1      43.918  27.201  30.924  1.00  0.00     0.029 A 
ATOM     63  C   UNL A   1      43.569  28.326  31.654  1.00  0.00     0.049 A 
ATOM     64  H   UNL A   1      41.892  29.588  31.435  1.00  0.00     0.167 HD
ATOM     65  C   UNL A   1      43.877  30.052  33.401  1.00  0.00     0.074 A 
ATOM     66  C   UNL A   1      44.583  30.638  34.520  1.00  0.00     0.031 C 
ATOM     67  C   UNL A   1      44.263  28.919  32.766  1.00  0.00     0.031 A 
BRANCH  54  68
ATOM     68  C   UNL A   1      40.413  27.073  28.323  1.00  0.00    -0.014 A 
ATOM     69  C   UNL A   1      40.928  27.108  27.017  1.00  0.00     0.009 A 
ATOM     70  C   UNL A   1      39.617  25.983  28.709  1.00  0.00     0.009 A 
ATOM     71  C   UNL A   1      40.634  26.085  26.114  1.00  0.00     0.001 A 
ATOM     72  C   UNL A   1      39.348  24.947  27.813  1.00  0.00     0.001 A 
ATOM     73  C   UNL A   1      39.851  25.002  26.515  1.00  0.00     0.000 A 
ENDBRANCH  54  68
BRANCH  55  74
ATOM     74  C   UNL A   1      42.125  33.961  35.334  1.00  0.00    -0.014 A 
ATOM     75  C   UNL A   1      42.930  35.094  35.140  1.00  0.00     0.009 A 
ATOM     76  C   UNL A   1      41.563  33.741  36.603  1.00  0.00     0.009 A 
ATOM     77  C   UNL A   1      43.198  35.964  36.201  1.00  0.00     0.001 A 
ATOM     78  C   UNL A   1      41.803  34.632  37.652  1.00  0.00     0.001 A 
ATOM     79  C   UNL A   1      42.632  35.734  37.453  1.00  0.00     0.000 A 
ENDBRANCH  55  74
BRANCH  67  80
ATOM     80  C   UNL A   1      45.520  28.250  33.245  1.00  0.00    -0.014 A 
ATOM     81  C   UNL A   1      45.479  27.229  34.208  1.00  0.00     0.009 A 
ATOM     82  C   UNL A   1      46.756  28.602  32.678  1.00  0.00     0.009 A 
ATOM     83  C   UNL A   1      46.655  26.592  34.610  1.00  0.00     0.001 A 
ATOM     84  C   UNL A   1      47.924  27.942  33.058  1.00  0.00     0.001 A 
ATOM     85  C   UNL A   1      47.874  26.943  34.029  1.00  0.00     0.000 A 
ENDBRANCH  67  80
ENDBRANCH  41  42
ENDBRANCH  33  36
ENDBRANCH  31  32
ENDBRANCH  30  31
ENDBRANCH  29  30
ENDBRANCH   1  29
TORSDOF 16
ENDMDL
