MODEL 1
REMARK VINA RESULT:     -11.0      0.000      0.000
REMARK SMILES CC1(C)C(NC(=O)[C@@H]2CCC[C@@H](C(=O)NCCCCNC(=O)c3ccc(-c4c5nc(c(-c6ccccc6)c6ccc([nH]6)c(-c6ccccc6)c6nc(c(-c7ccccc7)c7ccc4[nH]7)C=C6)C=C5)cc3)C2)C1(C)C
REMARK SMILES IDX 17 1 16 2 15 3 13 4 14 5 12 7 8 8 9 9 71 10 10 11 11 12 6 13
REMARK SMILES IDX 5 14 7 16 4 17 1 18 2 19 3 20 72 21 73 22 74 23 18 24 19 25
REMARK SMILES IDX 20 26 21 27 22 29 23 30 24 31 70 32 25 33 69 34 26 35 27 36
REMARK SMILES IDX 28 37 63 38 29 39 68 40 62 41 64 42 30 43 67 44 61 45 60 46
REMARK SMILES IDX 31 48 53 49 38 50 52 51 39 52 42 53 51 54 65 55 40 56 41 57
REMARK SMILES IDX 50 59 66 60 43 61 32 62 33 63 37 64 34 65 36 66 35 67 54 68
REMARK SMILES IDX 55 69 59 70 56 71 58 72 57 73 44 74 45 75 49 76 46 77 48 78
REMARK SMILES IDX 47 79
REMARK H PARENT 15 6 5 15 20 28 64 47 42 58
REMARK Flexibility Score: inf
ROOT
ATOM      1  C   UNL A   1      38.781  22.717  26.022  1.00  0.00     0.023 C 
ENDROOT
BRANCH   1   2
ATOM      2  C   UNL A   1      37.452  23.460  26.108  1.00  0.00     0.116 C 
BRANCH   2   3
ATOM      3  N   UNL A   1      36.709  23.389  24.865  1.00  0.00    -0.356 N 
ATOM      4  C   UNL A   1      35.513  22.791  24.601  1.00  0.00     0.223 C 
ATOM      5  O   UNL A   1      35.051  22.903  23.465  1.00  0.00    -0.275 OA
ATOM      6  H   UNL A   1      37.132  23.839  24.098  1.00  0.00     0.163 HD
BRANCH   4   7
ATOM      7  C   UNL A   1      34.833  21.970  25.689  1.00  0.00     0.079 C 
ATOM      8  C   UNL A   1      32.457  23.026  25.770  1.00  0.00     0.079 C 
ATOM      9  C   UNL A   1      31.935  21.685  25.236  1.00  0.00     0.013 C 
ATOM     10  C   UNL A   1      33.810  22.800  26.471  1.00  0.00     0.027 C 
ATOM     11  C   UNL A   1      32.944  20.966  24.349  1.00  0.00     0.002 C 
ATOM     12  C   UNL A   1      34.238  20.693  25.095  1.00  0.00     0.013 C 
BRANCH   8  13
ATOM     13  C   UNL A   1      31.517  23.764  26.751  1.00  0.00     0.223 C 
ATOM     14  N   UNL A   1      31.686  25.102  27.000  1.00  0.00    -0.352 N 
ATOM     15  H   UNL A   1      31.175  25.476  27.752  1.00  0.00     0.163 HD
ATOM     16  O   UNL A   1      30.643  23.174  27.392  1.00  0.00    -0.275 OA
BRANCH  14  17
ATOM     17  C   UNL A   1      32.519  26.007  26.289  1.00  0.00     0.094 C 
ATOM     18  C   UNL A   1      32.631  26.693  23.794  1.00  0.00     0.014 C 
ATOM     19  C   UNL A   1      31.907  26.777  25.120  1.00  0.00    -0.007 C 
ATOM     20  C   UNL A   1      30.403  26.796  24.917  1.00  0.00     0.014 C 
ATOM     21  C   UNL A   1      32.506  27.513  26.331  1.00  0.00    -0.007 C 
ATOM     22  C   UNL A   1      33.861  28.182  26.191  1.00  0.00     0.014 C 
ATOM     23  C   UNL A   1      31.645  28.206  27.359  1.00  0.00     0.014 C 
ENDBRANCH  14  17
ENDBRANCH   8  13
ENDBRANCH   4   7
ENDBRANCH   2   3
ENDBRANCH   1   2
BRANCH   1  24
ATOM     24  C   UNL A   1      38.709  21.336  25.368  1.00  0.00     0.023 C 
BRANCH  24  25
ATOM     25  C   UNL A   1      39.055  20.162  26.277  1.00  0.00     0.116 C 
BRANCH  25  26
ATOM     26  N   UNL A   1      40.228  19.428  25.835  1.00  0.00    -0.352 N 
ATOM     27  C   UNL A   1      41.551  19.797  25.851  1.00  0.00     0.251 C 
ATOM     28  H   UNL A   1      40.049  18.531  25.470  1.00  0.00     0.163 HD
ATOM     29  O   UNL A   1      42.389  19.084  25.312  1.00  0.00    -0.269 OA
BRANCH  27  30
ATOM     30  C   UNL A   1      41.962  21.071  26.483  1.00  0.00     0.039 A 
ATOM     31  C   UNL A   1      42.385  22.115  25.656  1.00  0.00     0.014 A 
ATOM     32  C   UNL A   1      41.939  21.243  27.869  1.00  0.00     0.014 A 
ATOM     33  C   UNL A   1      42.724  23.347  26.216  1.00  0.00     0.010 A 
ATOM     34  C   UNL A   1      42.203  22.497  28.419  1.00  0.00     0.010 A 
ATOM     35  C   UNL A   1      42.599  23.562  27.599  1.00  0.00    -0.014 A 
BRANCH  35  36
ATOM     36  C   UNL A   1      42.863  24.904  28.179  1.00  0.00     0.031 A 
ATOM     37  C   UNL A   1      44.254  25.311  28.582  1.00  0.00     0.074 A 
ATOM     38  C   UNL A   1      41.834  25.754  28.364  1.00  0.00     0.049 A 
ATOM     39  N   UNL A   1      44.670  26.457  29.064  1.00  0.00    -0.248 NA
ATOM     40  C   UNL A   1      45.314  24.300  28.445  1.00  0.00     0.031 C 
ATOM     41  C   UNL A   1      40.429  25.463  28.066  1.00  0.00     0.029 A 
ATOM     42  N   UNL A   1      41.812  27.043  28.837  1.00  0.00    -0.354 N 
ATOM     43  C   UNL A   1      46.031  26.301  29.291  1.00  0.00     0.074 A 
ATOM     44  C   UNL A   1      46.362  24.935  28.948  1.00  0.00     0.031 C 
ATOM     45  C   UNL A   1      39.691  26.556  28.318  1.00  0.00     0.029 A 
ATOM     46  C   UNL A   1      40.560  27.610  28.828  1.00  0.00     0.049 A 
ATOM     47  H   UNL A   1      42.615  27.515  29.152  1.00  0.00     0.167 HD
ATOM     48  C   UNL A   1      46.932  27.217  29.721  1.00  0.00     0.031 A 
ATOM     49  C   UNL A   1      40.156  28.843  29.183  1.00  0.00     0.031 A 
ATOM     50  C   UNL A   1      46.605  28.577  30.063  1.00  0.00     0.049 A 
ATOM     51  C   UNL A   1      41.176  29.838  29.663  1.00  0.00     0.074 A 
ATOM     52  C   UNL A   1      47.456  29.593  30.466  1.00  0.00     0.029 A 
ATOM     53  N   UNL A   1      45.327  29.111  30.047  1.00  0.00    -0.354 N 
ATOM     54  N   UNL A   1      42.472  29.697  29.796  1.00  0.00    -0.248 NA
ATOM     55  C   UNL A   1      40.675  31.172  30.023  1.00  0.00     0.031 C 
ATOM     56  C   UNL A   1      46.683  30.727  30.743  1.00  0.00     0.029 A 
ATOM     57  C   UNL A   1      45.361  30.435  30.453  1.00  0.00     0.049 A 
ATOM     58  H   UNL A   1      44.513  28.621  29.785  1.00  0.00     0.167 HD
ATOM     59  C   UNL A   1      42.945  30.930  30.228  1.00  0.00     0.074 A 
ATOM     60  C   UNL A   1      41.799  31.813  30.305  1.00  0.00     0.031 C 
ATOM     61  C   UNL A   1      44.212  31.299  30.535  1.00  0.00     0.031 A 
BRANCH  48  62
ATOM     62  C   UNL A   1      48.365  26.777  29.844  1.00  0.00    -0.014 A 
ATOM     63  C   UNL A   1      49.275  26.962  28.791  1.00  0.00     0.009 A 
ATOM     64  C   UNL A   1      48.825  26.213  31.045  1.00  0.00     0.009 A 
ATOM     65  C   UNL A   1      50.607  26.562  28.924  1.00  0.00     0.001 A 
ATOM     66  C   UNL A   1      50.164  25.841  31.186  1.00  0.00     0.001 A 
ATOM     67  C   UNL A   1      51.051  26.009  30.124  1.00  0.00     0.000 A 
ENDBRANCH  48  62
BRANCH  49  68
ATOM     68  C   UNL A   1      38.723  29.225  29.076  1.00  0.00    -0.014 A 
ATOM     69  C   UNL A   1      37.860  29.072  30.173  1.00  0.00     0.009 A 
ATOM     70  C   UNL A   1      38.203  29.715  27.868  1.00  0.00     0.009 A 
ATOM     71  C   UNL A   1      36.501  29.367  30.051  1.00  0.00     0.001 A 
ATOM     72  C   UNL A   1      36.850  30.041  27.759  1.00  0.00     0.001 A 
ATOM     73  C   UNL A   1      35.997  29.854  28.846  1.00  0.00     0.000 A 
ENDBRANCH  49  68
BRANCH  61  74
ATOM     74  C   UNL A   1      44.421  32.730  30.949  1.00  0.00    -0.014 A 
ATOM     75  C   UNL A   1      44.359  33.119  32.297  1.00  0.00     0.009 A 
ATOM     76  C   UNL A   1      44.683  33.704  29.973  1.00  0.00     0.009 A 
ATOM     77  C   UNL A   1      44.497  34.462  32.652  1.00  0.00     0.001 A 
ATOM     78  C   UNL A   1      44.857  35.041  30.334  1.00  0.00     0.001 A 
ATOM     79  C   UNL A   1      44.749  35.421  31.671  1.00  0.00     0.000 A 
ENDBRANCH  61  74
ENDBRANCH  35  36
ENDBRANCH  27  30
ENDBRANCH  25  26
ENDBRANCH  24  25
ENDBRANCH   1  24
TORSDOF 13
ENDMDL
MODEL 2
REMARK VINA RESULT:     -10.9      3.627      8.972
REMARK SMILES CC1(C)C(NC(=O)[C@@H]2CCC[C@@H](C(=O)NCCCCNC(=O)c3ccc(-c4c5nc(c(-c6ccccc6)c6ccc([nH]6)c(-c6ccccc6)c6nc(c(-c7ccccc7)c7ccc4[nH]7)C=C6)C=C5)cc3)C2)C1(C)C
REMARK SMILES IDX 17 1 16 2 15 3 13 4 14 5 12 7 8 8 9 9 71 10 10 11 11 12 6 13
REMARK SMILES IDX 5 14 7 16 4 17 1 18 2 19 3 20 72 21 73 22 74 23 18 24 19 25
REMARK SMILES IDX 20 26 21 27 22 29 23 30 24 31 70 32 25 33 69 34 26 35 27 36
REMARK SMILES IDX 28 37 63 38 29 39 68 40 62 41 64 42 30 43 67 44 61 45 60 46
REMARK SMILES IDX 31 48 53 49 38 50 52 51 39 52 42 53 51 54 65 55 40 56 41 57
REMARK SMILES IDX 50 59 66 60 43 61 32 62 33 63 37 64 34 65 36 66 35 67 54 68
REMARK SMILES IDX 55 69 59 70 56 71 58 72 57 73 44 74 45 75 49 76 46 77 48 78
REMARK SMILES IDX 47 79
REMARK H PARENT 15 6 5 15 20 28 64 47 42 58
REMARK Flexibility Score: inf
ROOT
ATOM      1  C   UNL A   1      31.646  30.409  25.892  1.00  0.00     0.023 C 
ENDROOT
BRANCH   1   2
ATOM      2  C   UNL A   1      32.927  29.687  26.296  1.00  0.00     0.116 C 
BRANCH   2   3
ATOM      3  N   UNL A   1      32.676  28.316  26.695  1.00  0.00    -0.356 N 
ATOM      4  C   UNL A   1      32.289  27.248  25.941  1.00  0.00     0.223 C 
ATOM      5  O   UNL A   1      32.181  26.156  26.501  1.00  0.00    -0.275 OA
ATOM      6  H   UNL A   1      32.803  28.128  27.653  1.00  0.00     0.163 HD
BRANCH   4   7
ATOM      7  C   UNL A   1      31.953  27.456  24.470  1.00  0.00     0.079 C 
ATOM      8  C   UNL A   1      32.314  25.077  23.482  1.00  0.00     0.079 C 
ATOM      9  C   UNL A   1      30.801  25.045  23.228  1.00  0.00     0.013 C 
ATOM     10  C   UNL A   1      32.784  26.542  23.563  1.00  0.00     0.027 C 
ATOM     11  C   UNL A   1      30.011  25.860  24.245  1.00  0.00     0.002 C 
ATOM     12  C   UNL A   1      30.448  27.314  24.245  1.00  0.00     0.013 C 
BRANCH   8  13
ATOM     13  C   UNL A   1      33.182  24.345  22.432  1.00  0.00     0.223 C 
ATOM     14  N   UNL A   1      34.063  23.369  22.820  1.00  0.00    -0.352 N 
ATOM     15  H   UNL A   1      34.703  23.061  22.140  1.00  0.00     0.163 HD
ATOM     16  O   UNL A   1      33.168  24.655  21.238  1.00  0.00    -0.275 OA
BRANCH  14  17
ATOM     17  C   UNL A   1      34.153  22.753  24.097  1.00  0.00     0.094 C 
ATOM     18  C   UNL A   1      35.475  20.701  24.962  1.00  0.00     0.014 C 
ATOM     19  C   UNL A   1      35.493  22.144  24.505  1.00  0.00    -0.007 C 
ATOM     20  C   UNL A   1      36.749  22.445  23.707  1.00  0.00     0.014 C 
ATOM     21  C   UNL A   1      34.846  23.269  25.332  1.00  0.00    -0.007 C 
ATOM     22  C   UNL A   1      34.175  22.924  26.649  1.00  0.00     0.014 C 
ATOM     23  C   UNL A   1      35.383  24.679  25.331  1.00  0.00     0.014 C 
ENDBRANCH  14  17
ENDBRANCH   8  13
ENDBRANCH   4   7
ENDBRANCH   2   3
ENDBRANCH   1   2
BRANCH   1  24
ATOM     24  C   UNL A   1      31.412  31.749  26.592  1.00  0.00     0.023 C 
BRANCH  24  25
ATOM     25  C   UNL A   1      32.666  32.453  27.097  1.00  0.00     0.116 C 
BRANCH  25  26
ATOM     26  N   UNL A   1      32.406  33.796  27.586  1.00  0.00    -0.352 N 
ATOM     27  C   UNL A   1      33.109  34.550  28.494  1.00  0.00     0.251 C 
ATOM     28  H   UNL A   1      31.607  34.231  27.209  1.00  0.00     0.163 HD
ATOM     29  O   UNL A   1      32.655  35.622  28.876  1.00  0.00    -0.269 OA
BRANCH  27  30
ATOM     30  C   UNL A   1      34.392  34.054  29.040  1.00  0.00     0.039 A 
ATOM     31  C   UNL A   1      34.357  33.219  30.160  1.00  0.00     0.014 A 
ATOM     32  C   UNL A   1      35.618  34.405  28.468  1.00  0.00     0.014 A 
ATOM     33  C   UNL A   1      35.545  32.688  30.665  1.00  0.00     0.010 A 
ATOM     34  C   UNL A   1      36.794  33.812  28.925  1.00  0.00     0.010 A 
ATOM     35  C   UNL A   1      36.770  32.949  30.029  1.00  0.00    -0.014 A 
BRANCH  35  36
ATOM     36  C   UNL A   1      38.019  32.301  30.507  1.00  0.00     0.031 A 
ATOM     37  C   UNL A   1      38.793  32.875  31.662  1.00  0.00     0.074 A 
ATOM     38  C   UNL A   1      38.469  31.197  29.878  1.00  0.00     0.049 A 
ATOM     39  N   UNL A   1      39.878  32.415  32.236  1.00  0.00    -0.248 NA
ATOM     40  C   UNL A   1      38.300  34.135  32.239  1.00  0.00     0.031 C 
ATOM     41  C   UNL A   1      37.843  30.570  28.712  1.00  0.00     0.029 A 
ATOM     42  N   UNL A   1      39.555  30.399  30.140  1.00  0.00    -0.354 N 
ATOM     43  C   UNL A   1      40.197  33.329  33.232  1.00  0.00     0.074 A 
ATOM     44  C   UNL A   1      39.225  34.398  33.149  1.00  0.00     0.031 C 
ATOM     45  C   UNL A   1      38.526  29.460  28.388  1.00  0.00     0.029 A 
ATOM     46  C   UNL A   1      39.657  29.317  29.298  1.00  0.00     0.049 A 
ATOM     47  H   UNL A   1      40.199  30.584  30.860  1.00  0.00     0.167 HD
ATOM     48  C   UNL A   1      41.191  33.274  34.150  1.00  0.00     0.031 A 
ATOM     49  C   UNL A   1      40.555  28.315  29.267  1.00  0.00     0.031 A 
ATOM     50  C   UNL A   1      42.160  32.212  34.234  1.00  0.00     0.049 A 
ATOM     51  C   UNL A   1      41.652  28.282  30.294  1.00  0.00     0.074 A 
ATOM     52  C   UNL A   1      43.178  32.045  35.157  1.00  0.00     0.029 A 
ATOM     53  N   UNL A   1      42.233  31.138  33.362  1.00  0.00    -0.354 N 
ATOM     54  N   UNL A   1      41.891  29.115  31.278  1.00  0.00    -0.248 NA
ATOM     55  C   UNL A   1      42.594  27.156  30.214  1.00  0.00     0.031 C 
ATOM     56  C   UNL A   1      43.899  30.896  34.811  1.00  0.00     0.029 A 
ATOM     57  C   UNL A   1      43.292  30.316  33.710  1.00  0.00     0.049 A 
ATOM     58  H   UNL A   1      41.622  30.983  32.604  1.00  0.00     0.167 HD
ATOM     59  C   UNL A   1      42.991  28.599  31.951  1.00  0.00     0.074 A 
ATOM     60  C   UNL A   1      43.352  27.367  31.279  1.00  0.00     0.031 C 
ATOM     61  C   UNL A   1      43.645  29.099  33.027  1.00  0.00     0.031 A 
BRANCH  48  62
ATOM     62  C   UNL A   1      41.281  34.400  35.144  1.00  0.00    -0.014 A 
ATOM     63  C   UNL A   1      42.047  35.546  34.876  1.00  0.00     0.009 A 
ATOM     64  C   UNL A   1      40.553  34.337  36.343  1.00  0.00     0.009 A 
ATOM     65  C   UNL A   1      42.109  36.591  35.800  1.00  0.00     0.001 A 
ATOM     66  C   UNL A   1      40.594  35.396  37.253  1.00  0.00     0.001 A 
ATOM     67  C   UNL A   1      41.378  36.518  36.985  1.00  0.00     0.000 A 
ENDBRANCH  48  62
BRANCH  49  68
ATOM     68  C   UNL A   1      40.447  27.241  28.245  1.00  0.00    -0.014 A 
ATOM     69  C   UNL A   1      41.075  27.377  26.997  1.00  0.00     0.009 A 
ATOM     70  C   UNL A   1      39.690  26.086  28.500  1.00  0.00     0.009 A 
ATOM     71  C   UNL A   1      40.916  26.398  26.013  1.00  0.00     0.001 A 
ATOM     72  C   UNL A   1      39.560  25.093  27.527  1.00  0.00     0.001 A 
ATOM     73  C   UNL A   1      40.162  25.257  26.280  1.00  0.00     0.000 A 
ENDBRANCH  49  68
BRANCH  61  74
ATOM     74  C   UNL A   1      44.797  28.289  33.559  1.00  0.00    -0.014 A 
ATOM     75  C   UNL A   1      46.110  28.500  33.108  1.00  0.00     0.009 A 
ATOM     76  C   UNL A   1      44.561  27.298  34.524  1.00  0.00     0.009 A 
ATOM     77  C   UNL A   1      47.154  27.697  33.572  1.00  0.00     0.001 A 
ATOM     78  C   UNL A   1      45.612  26.521  35.013  1.00  0.00     0.001 A 
ATOM     79  C   UNL A   1      46.904  26.710  34.525  1.00  0.00     0.000 A 
ENDBRANCH  61  74
ENDBRANCH  35  36
ENDBRANCH  27  30
ENDBRANCH  25  26
ENDBRANCH  24  25
ENDBRANCH   1  24
TORSDOF 13
ENDMDL
MODEL 3
REMARK VINA RESULT:     -10.9      0.930      1.557
REMARK SMILES CC1(C)C(NC(=O)[C@@H]2CCC[C@@H](C(=O)NCCCCNC(=O)c3ccc(-c4c5nc(c(-c6ccccc6)c6ccc([nH]6)c(-c6ccccc6)c6nc(c(-c7ccccc7)c7ccc4[nH]7)C=C6)C=C5)cc3)C2)C1(C)C
REMARK SMILES IDX 17 1 16 2 15 3 13 4 14 5 12 7 8 8 9 9 71 10 10 11 11 12 6 13
REMARK SMILES IDX 5 14 7 16 4 17 1 18 2 19 3 20 72 21 73 22 74 23 18 24 19 25
REMARK SMILES IDX 20 26 21 27 22 29 23 30 24 31 70 32 25 33 69 34 26 35 27 36
REMARK SMILES IDX 28 37 63 38 29 39 68 40 62 41 64 42 30 43 67 44 61 45 60 46
REMARK SMILES IDX 31 48 53 49 38 50 52 51 39 52 42 53 51 54 65 55 40 56 41 57
REMARK SMILES IDX 50 59 66 60 43 61 32 62 33 63 37 64 34 65 36 66 35 67 54 68
REMARK SMILES IDX 55 69 59 70 56 71 58 72 57 73 44 74 45 75 49 76 46 77 48 78
REMARK SMILES IDX 47 79
REMARK H PARENT 15 6 5 15 20 28 64 47 42 58
REMARK Flexibility Score: inf
ROOT
ATOM      1  C   UNL A   1      36.607  20.683  24.949  1.00  0.00     0.023 C 
ENDROOT
BRANCH   1   2
ATOM      2  C   UNL A   1      36.915  22.161  25.160  1.00  0.00     0.116 C 
BRANCH   2   3
ATOM      3  N   UNL A   1      36.261  22.999  24.174  1.00  0.00    -0.356 N 
ATOM      4  C   UNL A   1      34.933  23.174  23.925  1.00  0.00     0.223 C 
ATOM      5  O   UNL A   1      34.611  23.983  23.055  1.00  0.00    -0.275 OA
ATOM      6  H   UNL A   1      36.868  23.518  23.597  1.00  0.00     0.163 HD
BRANCH   4   7
ATOM      7  C   UNL A   1      33.915  22.331  24.684  1.00  0.00     0.079 C 
ATOM      8  C   UNL A   1      31.973  24.021  25.060  1.00  0.00     0.079 C 
ATOM      9  C   UNL A   1      31.139  23.143  24.118  1.00  0.00     0.013 C 
ATOM     10  C   UNL A   1      33.105  23.174  25.674  1.00  0.00     0.027 C 
ATOM     11  C   UNL A   1      31.982  22.435  23.063  1.00  0.00     0.002 C 
ATOM     12  C   UNL A   1      33.038  21.552  23.703  1.00  0.00     0.013 C 
BRANCH   8  13
ATOM     13  C   UNL A   1      31.190  24.695  26.211  1.00  0.00     0.223 C 
ATOM     14  N   UNL A   1      31.196  26.059  26.347  1.00  0.00    -0.352 N 
ATOM     15  H   UNL A   1      30.827  26.417  27.185  1.00  0.00     0.163 HD
ATOM     16  O   UNL A   1      30.603  24.040  27.076  1.00  0.00    -0.275 OA
BRANCH  14  17
ATOM     17  C   UNL A   1      31.677  27.012  25.410  1.00  0.00     0.094 C 
ATOM     18  C   UNL A   1      31.403  29.581  25.229  1.00  0.00     0.014 C 
ATOM     19  C   UNL A   1      32.045  28.402  25.927  1.00  0.00    -0.007 C 
ATOM     20  C   UNL A   1      32.173  28.658  27.418  1.00  0.00     0.014 C 
ATOM     21  C   UNL A   1      33.088  27.511  25.231  1.00  0.00    -0.007 C 
ATOM     22  C   UNL A   1      33.491  27.827  23.801  1.00  0.00     0.014 C 
ATOM     23  C   UNL A   1      34.203  26.833  25.989  1.00  0.00     0.014 C 
ENDBRANCH  14  17
ENDBRANCH   8  13
ENDBRANCH   4   7
ENDBRANCH   2   3
ENDBRANCH   1   2
BRANCH   1  24
ATOM     24  C   UNL A   1      37.829  19.762  24.946  1.00  0.00     0.023 C 
BRANCH  24  25
ATOM     25  C   UNL A   1      39.026  20.260  25.749  1.00  0.00     0.116 C 
BRANCH  25  26
ATOM     26  N   UNL A   1      40.125  19.309  25.780  1.00  0.00    -0.352 N 
ATOM     27  C   UNL A   1      41.442  19.501  26.120  1.00  0.00     0.251 C 
ATOM     28  H   UNL A   1      39.889  18.389  25.519  1.00  0.00     0.163 HD
ATOM     29  O   UNL A   1      42.250  18.595  25.959  1.00  0.00    -0.269 OA
BRANCH  27  30
ATOM     30  C   UNL A   1      41.893  20.810  26.642  1.00  0.00     0.039 A 
ATOM     31  C   UNL A   1      42.288  21.789  25.727  1.00  0.00     0.014 A 
ATOM     32  C   UNL A   1      41.936  21.077  28.013  1.00  0.00     0.014 A 
ATOM     33  C   UNL A   1      42.664  23.053  26.184  1.00  0.00     0.010 A 
ATOM     34  C   UNL A   1      42.237  22.362  28.463  1.00  0.00     0.010 A 
ATOM     35  C   UNL A   1      42.605  23.363  27.553  1.00  0.00    -0.014 A 
BRANCH  35  36
ATOM     36  C   UNL A   1      42.909  24.739  28.026  1.00  0.00     0.031 A 
ATOM     37  C   UNL A   1      44.328  25.182  28.252  1.00  0.00     0.074 A 
ATOM     38  C   UNL A   1      41.892  25.588  28.275  1.00  0.00     0.049 A 
ATOM     39  N   UNL A   1      44.775  26.357  28.623  1.00  0.00    -0.248 NA
ATOM     40  C   UNL A   1      45.383  24.176  28.058  1.00  0.00     0.031 C 
ATOM     41  C   UNL A   1      40.468  25.266  28.147  1.00  0.00     0.029 A 
ATOM     42  N   UNL A   1      41.900  26.900  28.676  1.00  0.00    -0.354 N 
ATOM     43  C   UNL A   1      46.155  26.228  28.708  1.00  0.00     0.074 A 
ATOM     44  C   UNL A   1      46.469  24.849  28.408  1.00  0.00     0.031 C 
ATOM     45  C   UNL A   1      39.743  26.364  28.418  1.00  0.00     0.029 A 
ATOM     46  C   UNL A   1      40.646  27.453  28.772  1.00  0.00     0.049 A 
ATOM     47  H   UNL A   1      42.725  27.398  28.875  1.00  0.00     0.167 HD
ATOM     48  C   UNL A   1      47.081  27.177  28.987  1.00  0.00     0.031 A 
ATOM     49  C   UNL A   1      40.263  28.701  29.100  1.00  0.00     0.031 A 
ATOM     50  C   UNL A   1      46.772  28.550  29.287  1.00  0.00     0.049 A 
ATOM     51  C   UNL A   1      41.312  29.732  29.410  1.00  0.00     0.074 A 
ATOM     52  C   UNL A   1      47.645  29.596  29.539  1.00  0.00     0.029 A 
ATOM     53  N   UNL A   1      45.491  29.069  29.380  1.00  0.00    -0.354 N 
ATOM     54  N   UNL A   1      42.617  29.611  29.410  1.00  0.00    -0.248 NA
ATOM     55  C   UNL A   1      40.831  31.078  29.749  1.00  0.00     0.031 C 
ATOM     56  C   UNL A   1      46.888  30.735  29.835  1.00  0.00     0.029 A 
ATOM     57  C   UNL A   1      45.548  30.414  29.707  1.00  0.00     0.049 A 
ATOM     58  H   UNL A   1      44.662  28.557  29.236  1.00  0.00     0.167 HD
ATOM     59  C   UNL A   1      43.114  30.871  29.719  1.00  0.00     0.074 A 
ATOM     60  C   UNL A   1      41.968  31.746  29.872  1.00  0.00     0.031 C 
ATOM     61  C   UNL A   1      44.401  31.270  29.865  1.00  0.00     0.031 A 
BRANCH  48  62
ATOM     62  C   UNL A   1      48.527  26.758  28.978  1.00  0.00    -0.014 A 
ATOM     63  C   UNL A   1      49.161  26.310  30.148  1.00  0.00     0.009 A 
ATOM     64  C   UNL A   1      49.252  26.766  27.775  1.00  0.00     0.009 A 
ATOM     65  C   UNL A   1      50.499  25.909  30.122  1.00  0.00     0.001 A 
ATOM     66  C   UNL A   1      50.581  26.337  27.747  1.00  0.00     0.001 A 
ATOM     67  C   UNL A   1      51.205  25.917  28.920  1.00  0.00     0.000 A 
ENDBRANCH  48  62
BRANCH  49  68
ATOM     68  C   UNL A   1      38.820  29.062  29.129  1.00  0.00    -0.014 A 
ATOM     69  C   UNL A   1      38.194  29.592  27.990  1.00  0.00     0.009 A 
ATOM     70  C   UNL A   1      38.069  28.905  30.304  1.00  0.00     0.009 A 
ATOM     71  C   UNL A   1      36.857  29.993  28.039  1.00  0.00     0.001 A 
ATOM     72  C   UNL A   1      36.723  29.275  30.341  1.00  0.00     0.001 A 
ATOM     73  C   UNL A   1      36.122  29.832  29.212  1.00  0.00     0.000 A 
ENDBRANCH  49  68
BRANCH  61  74
ATOM     74  C   UNL A   1      44.630  32.724  30.175  1.00  0.00    -0.014 A 
ATOM     75  C   UNL A   1      44.708  33.687  29.155  1.00  0.00     0.009 A 
ATOM     76  C   UNL A   1      44.772  33.135  31.509  1.00  0.00     0.009 A 
ATOM     77  C   UNL A   1      44.979  35.021  29.463  1.00  0.00     0.001 A 
ATOM     78  C   UNL A   1      45.007  34.477  31.816  1.00  0.00     0.001 A 
ATOM     79  C   UNL A   1      45.126  35.415  30.793  1.00  0.00     0.000 A 
ENDBRANCH  61  74
ENDBRANCH  35  36
ENDBRANCH  27  30
ENDBRANCH  25  26
ENDBRANCH  24  25
ENDBRANCH   1  24
TORSDOF 13
ENDMDL
