MODEL 1
REMARK VINA RESULT:      -9.4      0.000      0.000
REMARK SMILES CCCCCCNC(=O)Oc1cccc(-c2ccc(CC(=O)NCCCCNC(=O)c3ccc(-c4c5nc(c(-c6ccccc6)c6ccc([nH]6)c(-c6ccccc6)c6nc(c(-c7ccccc7)c7ccc4[nH]7)C=C6)C=C5)cc3)cc2F)c1
REMARK SMILES IDX 20 1 19 2 16 3 17 4 80 5 18 6 79 7 81 8 15 9 11 10 12 11
REMARK SMILES IDX 82 12 13 13 14 14 10 15 8 16 7 17 9 19 6 20 5 21 4 22 3 23
REMARK SMILES IDX 2 24 1 25 21 26 22 27 23 28 24 30 25 31 26 32 27 33 28 34
REMARK SMILES IDX 29 35 30 37 31 38 32 39 78 40 33 41 77 42 34 43 35 44 36 45
REMARK SMILES IDX 71 46 37 47 76 48 70 49 72 50 38 51 75 52 69 53 68 54 39 56
REMARK SMILES IDX 61 57 46 58 60 59 47 60 50 61 59 62 73 63 48 64 49 65 58 67
REMARK SMILES IDX 74 68 51 69 40 70 41 71 45 72 42 73 44 74 43 75 62 76 63 77
REMARK SMILES IDX 67 78 64 79 66 80 65 81 52 82 53 83 57 84 54 85 56 86 55 87
REMARK H PARENT 7 18 23 29 28 36 72 55 50 66
REMARK Flexibility Score: inf
ROOT
ATOM      1  C   UNL A   1      45.851  26.700  29.832  1.00  0.00     0.135 C 
ENDROOT
BRANCH   1   2
ATOM      2  C   UNL A   1      44.953  25.634  29.255  1.00  0.00    -0.036 A 
ATOM      3  C   UNL A   1      43.369  23.572  28.121  1.00  0.00     0.018 A 
ATOM      4  C   UNL A   1      43.502  24.816  27.483  1.00  0.00     0.012 A 
ATOM      5  C   UNL A   1      44.024  23.400  29.348  1.00  0.00     0.131 A 
ATOM      6  C   UNL A   1      44.281  25.836  28.042  1.00  0.00     0.005 A 
ATOM      7  C   UNL A   1      44.791  24.413  29.918  1.00  0.00     0.044 A 
ATOM      8  F   UNL A   1      43.945  22.232  30.004  1.00  0.00    -0.206 F 
BRANCH   3   9
ATOM      9  C   UNL A   1      42.544  22.505  27.537  1.00  0.00    -0.012 A 
ATOM     10  C   UNL A   1      42.320  20.599  26.049  1.00  0.00     0.133 A 
ATOM     11  C   UNL A   1      40.986  20.437  26.411  1.00  0.00     0.047 A 
ATOM     12  C   UNL A   1      43.088  21.633  26.583  1.00  0.00     0.056 A 
ATOM     13  C   UNL A   1      40.427  21.301  27.350  1.00  0.00     0.004 A 
ATOM     14  C   UNL A   1      41.201  22.322  27.912  1.00  0.00     0.009 A 
BRANCH  10  15
ATOM     15  O   UNL A   1      42.833  19.750  25.057  1.00  0.00    -0.410 OA
BRANCH  15  16
ATOM     16  C   UNL A   1      43.478  18.599  25.481  1.00  0.00     0.412 C 
ATOM     17  N   UNL A   1      44.750  18.480  24.996  1.00  0.00    -0.321 N 
ATOM     18  H   UNL A   1      45.250  17.677  25.267  1.00  0.00     0.167 HD
ATOM     19  O   UNL A   1      43.010  17.729  26.211  1.00  0.00    -0.224 OA
BRANCH  17  20
ATOM     20  C   UNL A   1      45.441  19.409  24.126  1.00  0.00     0.119 C 
BRANCH  20  21
ATOM     21  C   UNL A   1      46.245  20.443  24.914  1.00  0.00     0.021 C 
BRANCH  21  22
ATOM     22  C   UNL A   1      45.941  21.905  24.563  1.00  0.00     0.002 C 
BRANCH  22  23
ATOM     23  C   UNL A   1      46.169  22.918  25.690  1.00  0.00    -0.000 C 
BRANCH  23  24
ATOM     24  C   UNL A   1      46.742  24.268  25.256  1.00  0.00    -0.003 C 
ATOM     25  C   UNL A   1      47.433  25.020  26.383  1.00  0.00     0.004 C 
ENDBRANCH  23  24
ENDBRANCH  22  23
ENDBRANCH  21  22
ENDBRANCH  20  21
ENDBRANCH  17  20
ENDBRANCH  15  16
ENDBRANCH  10  15
ENDBRANCH   3   9
ENDBRANCH   1   2
BRANCH   1  26
ATOM     26  C   UNL A   1      47.089  26.154  30.524  1.00  0.00     0.224 C 
ATOM     27  O   UNL A   1      48.159  26.029  29.924  1.00  0.00    -0.275 OA
ATOM     28  N   UNL A   1      47.045  25.819  31.848  1.00  0.00    -0.356 N 
ATOM     29  H   UNL A   1      47.904  25.552  32.247  1.00  0.00     0.163 HD
BRANCH  28  30
ATOM     30  C   UNL A   1      45.907  25.805  32.747  1.00  0.00     0.116 C 
BRANCH  30  31
ATOM     31  C   UNL A   1      45.857  24.526  33.585  1.00  0.00     0.023 C 
BRANCH  31  32
ATOM     32  C   UNL A   1      46.927  24.433  34.676  1.00  0.00     0.023 C 
BRANCH  32  33
ATOM     33  C   UNL A   1      46.406  24.502  36.107  1.00  0.00     0.116 C 
BRANCH  33  34
ATOM     34  N   UNL A   1      47.020  25.559  36.894  1.00  0.00    -0.352 N 
ATOM     35  C   UNL A   1      46.782  26.911  36.850  1.00  0.00     0.251 C 
ATOM     36  H   UNL A   1      47.699  25.267  37.545  1.00  0.00     0.163 HD
ATOM     37  O   UNL A   1      47.466  27.684  37.512  1.00  0.00    -0.269 OA
BRANCH  35  38
ATOM     38  C   UNL A   1      45.720  27.438  35.966  1.00  0.00     0.039 A 
ATOM     39  C   UNL A   1      44.415  26.965  36.127  1.00  0.00     0.014 A 
ATOM     40  C   UNL A   1      46.004  28.409  35.002  1.00  0.00     0.014 A 
ATOM     41  C   UNL A   1      43.380  27.519  35.370  1.00  0.00     0.010 A 
ATOM     42  C   UNL A   1      44.964  29.005  34.295  1.00  0.00     0.010 A 
ATOM     43  C   UNL A   1      43.642  28.570  34.476  1.00  0.00    -0.014 A 
BRANCH  43  44
ATOM     44  C   UNL A   1      42.547  29.238  33.730  1.00  0.00     0.031 A 
ATOM     45  C   UNL A   1      41.804  30.389  34.347  1.00  0.00     0.074 A 
ATOM     46  C   UNL A   1      42.172  28.762  32.527  1.00  0.00     0.049 A 
ATOM     47  N   UNL A   1      40.772  31.050  33.884  1.00  0.00    -0.248 NA
ATOM     48  C   UNL A   1      42.266  30.844  35.669  1.00  0.00     0.031 C 
ATOM     49  C   UNL A   1      42.786  27.628  31.833  1.00  0.00     0.029 A 
ATOM     50  N   UNL A   1      41.173  29.168  31.678  1.00  0.00    -0.354 N 
ATOM     51  C   UNL A   1      40.450  31.979  34.863  1.00  0.00     0.074 A 
ATOM     52  C   UNL A   1      41.366  31.773  35.963  1.00  0.00     0.031 C 
ATOM     53  C   UNL A   1      42.166  27.444  30.656  1.00  0.00     0.029 A 
ATOM     54  C   UNL A   1      41.088  28.420  30.530  1.00  0.00     0.049 A 
ATOM     55  H   UNL A   1      40.574  29.925  31.873  1.00  0.00     0.167 HD
ATOM     56  C   UNL A   1      39.487  32.933  34.843  1.00  0.00     0.031 A 
ATOM     57  C   UNL A   1      40.232  28.502  29.494  1.00  0.00     0.031 A 
ATOM     58  C   UNL A   1      38.584  33.150  33.746  1.00  0.00     0.049 A 
ATOM     59  C   UNL A   1      39.165  29.561  29.500  1.00  0.00     0.074 A 
ATOM     60  C   UNL A   1      37.615  34.129  33.609  1.00  0.00     0.029 A 
ATOM     61  N   UNL A   1      38.537  32.376  32.597  1.00  0.00    -0.354 N 
ATOM     62  N   UNL A   1      38.915  30.474  30.407  1.00  0.00    -0.248 NA
ATOM     63  C   UNL A   1      38.268  29.603  28.337  1.00  0.00     0.031 C 
ATOM     64  C   UNL A   1      36.950  33.919  32.395  1.00  0.00     0.029 A 
ATOM     65  C   UNL A   1      37.540  32.840  31.756  1.00  0.00     0.049 A 
ATOM     66  H   UNL A   1      39.125  31.609  32.408  1.00  0.00     0.167 HD
ATOM     67  C   UNL A   1      37.852  31.218  29.911  1.00  0.00     0.074 A 
ATOM     68  C   UNL A   1      37.513  30.656  28.618  1.00  0.00     0.031 C 
ATOM     69  C   UNL A   1      37.215  32.273  30.474  1.00  0.00     0.031 A 
BRANCH  56  70
ATOM     70  C   UNL A   1      39.360  33.811  36.056  1.00  0.00    -0.014 A 
ATOM     71  C   UNL A   1      39.979  35.070  36.110  1.00  0.00     0.009 A 
ATOM     72  C   UNL A   1      38.586  33.388  37.147  1.00  0.00     0.009 A 
ATOM     73  C   UNL A   1      39.855  35.871  37.247  1.00  0.00     0.001 A 
ATOM     74  C   UNL A   1      38.440  34.203  38.271  1.00  0.00     0.001 A 
ATOM     75  C   UNL A   1      39.082  35.439  38.324  1.00  0.00     0.000 A 
ENDBRANCH  56  70
BRANCH  57  76
ATOM     76  C   UNL A   1      40.357  27.564  28.348  1.00  0.00    -0.014 A 
ATOM     77  C   UNL A   1      41.118  27.914  27.223  1.00  0.00     0.009 A 
ATOM     78  C   UNL A   1      39.711  26.317  28.371  1.00  0.00     0.009 A 
ATOM     79  C   UNL A   1      41.209  27.048  26.132  1.00  0.00     0.001 A 
ATOM     80  C   UNL A   1      39.826  25.442  27.289  1.00  0.00     0.001 A 
ATOM     81  C   UNL A   1      40.567  25.810  26.168  1.00  0.00     0.000 A 
ENDBRANCH  57  76
BRANCH  69  82
ATOM     82  C   UNL A   1      36.112  32.912  29.681  1.00  0.00    -0.014 A 
ATOM     83  C   UNL A   1      34.793  32.439  29.755  1.00  0.00     0.009 A 
ATOM     84  C   UNL A   1      36.391  34.034  28.883  1.00  0.00     0.009 A 
ATOM     85  C   UNL A   1      33.780  33.060  29.020  1.00  0.00     0.001 A 
ATOM     86  C   UNL A   1      35.372  34.667  28.172  1.00  0.00     0.001 A 
ATOM     87  C   UNL A   1      34.069  34.175  28.234  1.00  0.00     0.000 A 
ENDBRANCH  69  82
ENDBRANCH  43  44
ENDBRANCH  35  38
ENDBRANCH  33  34
ENDBRANCH  32  33
ENDBRANCH  31  32
ENDBRANCH  30  31
ENDBRANCH  28  30
ENDBRANCH   1  26
TORSDOF 20
ENDMDL
MODEL 2
REMARK VINA RESULT:      -9.3      5.446     11.895
REMARK SMILES CCCCCCNC(=O)Oc1cccc(-c2ccc(CC(=O)NCCCCNC(=O)c3ccc(-c4c5nc(c(-c6ccccc6)c6ccc([nH]6)c(-c6ccccc6)c6nc(c(-c7ccccc7)c7ccc4[nH]7)C=C6)C=C5)cc3)cc2F)c1
REMARK SMILES IDX 20 1 19 2 16 3 17 4 80 5 18 6 79 7 81 8 15 9 11 10 12 11
REMARK SMILES IDX 82 12 13 13 14 14 10 15 8 16 7 17 9 19 6 20 5 21 4 22 3 23
REMARK SMILES IDX 2 24 1 25 21 26 22 27 23 28 24 30 25 31 26 32 27 33 28 34
REMARK SMILES IDX 29 35 30 37 31 38 32 39 78 40 33 41 77 42 34 43 35 44 36 45
REMARK SMILES IDX 71 46 37 47 76 48 70 49 72 50 38 51 75 52 69 53 68 54 39 56
REMARK SMILES IDX 61 57 46 58 60 59 47 60 50 61 59 62 73 63 48 64 49 65 58 67
REMARK SMILES IDX 74 68 51 69 40 70 41 71 45 72 42 73 44 74 43 75 62 76 63 77
REMARK SMILES IDX 67 78 64 79 66 80 65 81 52 82 53 83 57 84 54 85 56 86 55 87
REMARK H PARENT 7 18 23 29 28 36 72 55 50 66
REMARK Flexibility Score: inf
ROOT
ATOM      1  C   UNL A   1      30.452  26.221  25.216  1.00  0.00     0.135 C 
ENDROOT
BRANCH   1   2
ATOM      2  C   UNL A   1      31.467  27.190  25.769  1.00  0.00    -0.036 A 
ATOM      3  C   UNL A   1      33.454  28.914  26.830  1.00  0.00     0.018 A 
ATOM      4  C   UNL A   1      32.375  28.483  27.618  1.00  0.00     0.012 A 
ATOM      5  C   UNL A   1      33.496  28.483  25.497  1.00  0.00     0.131 A 
ATOM      6  C   UNL A   1      31.391  27.635  27.096  1.00  0.00     0.005 A 
ATOM      7  C   UNL A   1      32.517  27.648  24.966  1.00  0.00     0.044 A 
ATOM      8  F   UNL A   1      34.506  28.851  24.694  1.00  0.00    -0.206 F 
BRANCH   3   9
ATOM      9  C   UNL A   1      34.481  29.812  27.378  1.00  0.00    -0.012 A 
ATOM     10  C   UNL A   1      35.188  32.039  28.037  1.00  0.00     0.133 A 
ATOM     11  C   UNL A   1      36.430  31.556  28.440  1.00  0.00     0.047 A 
ATOM     12  C   UNL A   1      34.231  31.188  27.489  1.00  0.00     0.056 A 
ATOM     13  C   UNL A   1      36.699  30.195  28.327  1.00  0.00     0.004 A 
ATOM     14  C   UNL A   1      35.731  29.330  27.805  1.00  0.00     0.009 A 
BRANCH  10  15
ATOM     15  O   UNL A   1      34.974  33.424  28.109  1.00  0.00    -0.410 OA
BRANCH  15  16
ATOM     16  C   UNL A   1      33.758  33.851  28.620  1.00  0.00     0.412 C 
ATOM     17  N   UNL A   1      33.779  34.057  29.971  1.00  0.00    -0.321 N 
ATOM     18  H   UNL A   1      32.938  34.360  30.381  1.00  0.00     0.167 HD
ATOM     19  O   UNL A   1      32.727  34.039  27.980  1.00  0.00    -0.224 OA
BRANCH  17  20
ATOM     20  C   UNL A   1      34.906  33.877  30.862  1.00  0.00     0.119 C 
BRANCH  20  21
ATOM     21  C   UNL A   1      34.514  33.133  32.139  1.00  0.00     0.021 C 
BRANCH  21  22
ATOM     22  C   UNL A   1      34.801  33.890  33.442  1.00  0.00     0.002 C 
BRANCH  22  23
ATOM     23  C   UNL A   1      35.172  35.369  33.282  1.00  0.00    -0.000 C 
BRANCH  23  24
ATOM     24  C   UNL A   1      34.061  36.366  33.618  1.00  0.00    -0.003 C 
ATOM     25  C   UNL A   1      33.773  37.347  32.492  1.00  0.00     0.004 C 
ENDBRANCH  23  24
ENDBRANCH  22  23
ENDBRANCH  21  22
ENDBRANCH  20  21
ENDBRANCH  17  20
ENDBRANCH  15  16
ENDBRANCH  10  15
ENDBRANCH   3   9
ENDBRANCH   1   2
BRANCH   1  26
ATOM     26  C   UNL A   1      30.287  24.960  26.050  1.00  0.00     0.224 C 
ATOM     27  O   UNL A   1      29.383  24.854  26.882  1.00  0.00    -0.275 OA
ATOM     28  N   UNL A   1      31.127  23.899  25.865  1.00  0.00    -0.356 N 
ATOM     29  H   UNL A   1      30.908  23.089  26.380  1.00  0.00     0.163 HD
BRANCH  28  30
ATOM     30  C   UNL A   1      32.296  23.801  25.013  1.00  0.00     0.116 C 
BRANCH  30  31
ATOM     31  C   UNL A   1      33.596  23.838  25.820  1.00  0.00     0.023 C 
BRANCH  31  32
ATOM     32  C   UNL A   1      34.492  22.609  25.649  1.00  0.00     0.023 C 
BRANCH  32  33
ATOM     33  C   UNL A   1      35.903  22.749  26.209  1.00  0.00     0.116 C 
BRANCH  33  34
ATOM     34  N   UNL A   1      36.787  21.660  25.824  1.00  0.00    -0.352 N 
ATOM     35  C   UNL A   1      38.160  21.617  25.855  1.00  0.00     0.251 C 
ATOM     36  H   UNL A   1      36.342  20.846  25.495  1.00  0.00     0.163 HD
ATOM     37  O   UNL A   1      38.761  20.653  25.393  1.00  0.00    -0.269 OA
BRANCH  35  38
ATOM     38  C   UNL A   1      38.915  22.760  26.412  1.00  0.00     0.039 A 
ATOM     39  C   UNL A   1      40.035  22.502  27.208  1.00  0.00     0.014 A 
ATOM     40  C   UNL A   1      38.537  24.075  26.132  1.00  0.00     0.014 A 
ATOM     41  C   UNL A   1      40.819  23.565  27.663  1.00  0.00     0.010 A 
ATOM     42  C   UNL A   1      39.355  25.129  26.531  1.00  0.00     0.010 A 
ATOM     43  C   UNL A   1      40.506  24.883  27.296  1.00  0.00    -0.014 A 
BRANCH  43  44
ATOM     44  C   UNL A   1      41.376  26.020  27.688  1.00  0.00     0.031 A 
ATOM     45  C   UNL A   1      40.893  27.032  28.687  1.00  0.00     0.074 A 
ATOM     46  C   UNL A   1      42.572  26.182  27.090  1.00  0.00     0.049 A 
ATOM     47  N   UNL A   1      41.475  28.131  29.098  1.00  0.00    -0.248 NA
ATOM     48  C   UNL A   1      39.570  26.792  29.288  1.00  0.00     0.031 C 
ATOM     49  C   UNL A   1      43.143  25.292  26.076  1.00  0.00     0.029 A 
ATOM     50  N   UNL A   1      43.520  27.162  27.241  1.00  0.00    -0.354 N 
ATOM     51  C   UNL A   1      40.585  28.721  29.984  1.00  0.00     0.074 A 
ATOM     52  C   UNL A   1      39.406  27.883  30.023  1.00  0.00     0.031 C 
ATOM     53  C   UNL A   1      44.351  25.754  25.715  1.00  0.00     0.029 A 
ATOM     54  C   UNL A   1      44.622  26.992  26.439  1.00  0.00     0.049 A 
ATOM     55  H   UNL A   1      43.420  27.917  27.866  1.00  0.00     0.167 HD
ATOM     56  C   UNL A   1      40.739  29.850  30.716  1.00  0.00     0.031 A 
ATOM     57  C   UNL A   1      45.724  27.751  26.295  1.00  0.00     0.031 A 
ATOM     58  C   UNL A   1      41.914  30.678  30.691  1.00  0.00     0.049 A 
ATOM     59  C   UNL A   1      45.867  29.006  27.109  1.00  0.00     0.074 A 
ATOM     60  C   UNL A   1      42.188  31.809  31.440  1.00  0.00     0.029 A 
ATOM     61  N   UNL A   1      43.013  30.465  29.872  1.00  0.00    -0.354 N 
ATOM     62  N   UNL A   1      45.042  29.516  27.992  1.00  0.00    -0.248 NA
ATOM     63  C   UNL A   1      47.098  29.787  26.912  1.00  0.00     0.031 C 
ATOM     64  C   UNL A   1      43.434  32.307  31.042  1.00  0.00     0.029 A 
ATOM     65  C   UNL A   1      43.956  31.456  30.080  1.00  0.00     0.049 A 
ATOM     66  H   UNL A   1      43.107  29.719  29.236  1.00  0.00     0.167 HD
ATOM     67  C   UNL A   1      45.666  30.659  28.476  1.00  0.00     0.074 A 
ATOM     68  C   UNL A   1      46.943  30.761  27.797  1.00  0.00     0.031 C 
ATOM     69  C   UNL A   1      45.222  31.544  29.400  1.00  0.00     0.031 A 
BRANCH  56  70
ATOM     70  C   UNL A   1      39.598  30.260  31.603  1.00  0.00    -0.014 A 
ATOM     71  C   UNL A   1      39.348  29.600  32.817  1.00  0.00     0.009 A 
ATOM     72  C   UNL A   1      38.780  31.340  31.237  1.00  0.00     0.009 A 
ATOM     73  C   UNL A   1      38.280  29.990  33.628  1.00  0.00     0.001 A 
ATOM     74  C   UNL A   1      37.730  31.746  32.063  1.00  0.00     0.001 A 
ATOM     75  C   UNL A   1      37.475  31.065  33.252  1.00  0.00     0.000 A 
ENDBRANCH  56  70
BRANCH  57  76
ATOM     76  C   UNL A   1      46.795  27.338  25.351  1.00  0.00    -0.014 A 
ATOM     77  C   UNL A   1      46.847  27.877  24.058  1.00  0.00     0.009 A 
ATOM     78  C   UNL A   1      47.766  26.399  25.736  1.00  0.00     0.009 A 
ATOM     79  C   UNL A   1      47.833  27.466  23.158  1.00  0.00     0.001 A 
ATOM     80  C   UNL A   1      48.766  26.010  24.843  1.00  0.00     0.001 A 
ATOM     81  C   UNL A   1      48.795  26.537  23.553  1.00  0.00     0.000 A 
ENDBRANCH  57  76
BRANCH  69  82
ATOM     82  C   UNL A   1      46.136  32.679  29.760  1.00  0.00    -0.014 A 
ATOM     83  C   UNL A   1      47.105  32.544  30.766  1.00  0.00     0.009 A 
ATOM     84  C   UNL A   1      46.056  33.887  29.049  1.00  0.00     0.009 A 
ATOM     85  C   UNL A   1      47.955  33.608  31.073  1.00  0.00     0.001 A 
ATOM     86  C   UNL A   1      46.924  34.939  29.340  1.00  0.00     0.001 A 
ATOM     87  C   UNL A   1      47.867  34.802  30.357  1.00  0.00     0.000 A 
ENDBRANCH  69  82
ENDBRANCH  43  44
ENDBRANCH  35  38
ENDBRANCH  33  34
ENDBRANCH  32  33
ENDBRANCH  31  32
ENDBRANCH  30  31
ENDBRANCH  28  30
ENDBRANCH   1  26
TORSDOF 20
ENDMDL
MODEL 3
REMARK VINA RESULT:      -9.2      4.090      8.810
REMARK SMILES CCCCCCNC(=O)Oc1cccc(-c2ccc(CC(=O)NCCCCNC(=O)c3ccc(-c4c5nc(c(-c6ccccc6)c6ccc([nH]6)c(-c6ccccc6)c6nc(c(-c7ccccc7)c7ccc4[nH]7)C=C6)C=C5)cc3)cc2F)c1
REMARK SMILES IDX 20 1 19 2 16 3 17 4 80 5 18 6 79 7 81 8 15 9 11 10 12 11
REMARK SMILES IDX 82 12 13 13 14 14 10 15 8 16 7 17 9 19 6 20 5 21 4 22 3 23
REMARK SMILES IDX 2 24 1 25 21 26 22 27 23 28 24 30 25 31 26 32 27 33 28 34
REMARK SMILES IDX 29 35 30 37 31 38 32 39 78 40 33 41 77 42 34 43 35 44 36 45
REMARK SMILES IDX 71 46 37 47 76 48 70 49 72 50 38 51 75 52 69 53 68 54 39 56
REMARK SMILES IDX 61 57 46 58 60 59 47 60 50 61 59 62 73 63 48 64 49 65 58 67
REMARK SMILES IDX 74 68 51 69 40 70 41 71 45 72 42 73 44 74 43 75 62 76 63 77
REMARK SMILES IDX 67 78 64 79 66 80 65 81 52 82 53 83 57 84 54 85 56 86 55 87
REMARK H PARENT 7 18 23 29 28 36 72 55 50 66
REMARK Flexibility Score: inf
ROOT
ATOM      1  C   UNL A   1      41.887  19.812  26.916  1.00  0.00     0.135 C 
ENDROOT
BRANCH   1   2
ATOM      2  C   UNL A   1      40.592  20.358  26.367  1.00  0.00    -0.036 A 
ATOM      3  C   UNL A   1      38.105  21.367  25.450  1.00  0.00     0.018 A 
ATOM      4  C   UNL A   1      38.487  20.041  25.192  1.00  0.00     0.012 A 
ATOM      5  C   UNL A   1      39.008  22.176  26.153  1.00  0.00     0.131 A 
ATOM      6  C   UNL A   1      39.716  19.542  25.640  1.00  0.00     0.005 A 
ATOM      7  C   UNL A   1      40.237  21.692  26.593  1.00  0.00     0.044 A 
ATOM      8  F   UNL A   1      38.699  23.450  26.441  1.00  0.00    -0.206 F 
BRANCH   3   9
ATOM      9  C   UNL A   1      36.818  21.892  24.971  1.00  0.00    -0.012 A 
ATOM     10  C   UNL A   1      34.451  22.296  25.328  1.00  0.00     0.133 A 
ATOM     11  C   UNL A   1      34.338  22.906  24.081  1.00  0.00     0.047 A 
ATOM     12  C   UNL A   1      35.667  21.771  25.763  1.00  0.00     0.056 A 
ATOM     13  C   UNL A   1      35.470  23.024  23.278  1.00  0.00     0.004 A 
ATOM     14  C   UNL A   1      36.700  22.527  23.722  1.00  0.00     0.009 A 
BRANCH  10  15
ATOM     15  O   UNL A   1      33.279  22.140  26.084  1.00  0.00    -0.410 OA
BRANCH  15  16
ATOM     16  C   UNL A   1      32.117  21.832  25.394  1.00  0.00     0.412 C 
ATOM     17  N   UNL A   1      31.958  20.494  25.167  1.00  0.00    -0.321 N 
ATOM     18  H   UNL A   1      31.148  20.225  24.678  1.00  0.00     0.167 HD
ATOM     19  O   UNL A   1      31.276  22.633  24.993  1.00  0.00    -0.224 OA
BRANCH  17  20
ATOM     20  C   UNL A   1      32.856  19.430  25.568  1.00  0.00     0.119 C 
BRANCH  20  21
ATOM     21  C   UNL A   1      33.695  18.917  24.398  1.00  0.00     0.021 C 
BRANCH  21  22
ATOM     22  C   UNL A   1      33.148  17.660  23.710  1.00  0.00     0.002 C 
BRANCH  22  23
ATOM     23  C   UNL A   1      34.046  16.420  23.782  1.00  0.00    -0.000 C 
BRANCH  23  24
ATOM     24  C   UNL A   1      33.961  15.621  25.084  1.00  0.00    -0.003 C 
ATOM     25  C   UNL A   1      32.551  15.540  25.649  1.00  0.00     0.004 C 
ENDBRANCH  23  24
ENDBRANCH  22  23
ENDBRANCH  21  22
ENDBRANCH  20  21
ENDBRANCH  17  20
ENDBRANCH  15  16
ENDBRANCH  10  15
ENDBRANCH   3   9
ENDBRANCH   1   2
BRANCH   1  26
ATOM     26  C   UNL A   1      42.840  19.299  25.848  1.00  0.00     0.224 C 
ATOM     27  O   UNL A   1      42.952  18.094  25.612  1.00  0.00    -0.275 OA
ATOM     28  N   UNL A   1      43.571  20.178  25.100  1.00  0.00    -0.356 N 
ATOM     29  H   UNL A   1      44.102  19.778  24.374  1.00  0.00     0.163 HD
BRANCH  28  30
ATOM     30  C   UNL A   1      43.673  21.619  25.228  1.00  0.00     0.116 C 
BRANCH  30  31
ATOM     31  C   UNL A   1      44.813  22.030  26.162  1.00  0.00     0.023 C 
BRANCH  31  32
ATOM     32  C   UNL A   1      44.433  23.072  27.217  1.00  0.00     0.023 C 
BRANCH  32  33
ATOM     33  C   UNL A   1      44.673  24.524  26.815  1.00  0.00     0.116 C 
BRANCH  33  34
ATOM     34  N   UNL A   1      43.773  24.988  25.771  1.00  0.00    -0.352 N 
ATOM     35  C   UNL A   1      42.750  25.901  25.864  1.00  0.00     0.251 C 
ATOM     36  H   UNL A   1      43.915  24.596  24.880  1.00  0.00     0.163 HD
ATOM     37  O   UNL A   1      42.013  26.106  24.905  1.00  0.00    -0.269 OA
BRANCH  35  38
ATOM     38  C   UNL A   1      42.514  26.608  27.141  1.00  0.00     0.039 A 
ATOM     39  C   UNL A   1      43.168  27.822  27.369  1.00  0.00     0.014 A 
ATOM     40  C   UNL A   1      41.635  26.091  28.096  1.00  0.00     0.014 A 
ATOM     41  C   UNL A   1      42.885  28.554  28.524  1.00  0.00     0.010 A 
ATOM     42  C   UNL A   1      41.305  26.852  29.214  1.00  0.00     0.010 A 
ATOM     43  C   UNL A   1      41.923  28.092  29.436  1.00  0.00    -0.014 A 
BRANCH  43  44
ATOM     44  C   UNL A   1      41.537  28.896  30.622  1.00  0.00     0.031 A 
ATOM     45  C   UNL A   1      40.342  29.805  30.563  1.00  0.00     0.074 A 
ATOM     46  C   UNL A   1      42.304  28.863  31.729  1.00  0.00     0.049 A 
ATOM     47  N   UNL A   1      39.893  30.640  31.467  1.00  0.00    -0.248 NA
ATOM     48  C   UNL A   1      39.561  29.793  29.315  1.00  0.00     0.031 C 
ATOM     49  C   UNL A   1      43.511  28.052  31.902  1.00  0.00     0.029 A 
ATOM     50  N   UNL A   1      42.187  29.541  32.916  1.00  0.00    -0.354 N 
ATOM     51  C   UNL A   1      38.795  31.264  30.892  1.00  0.00     0.074 A 
ATOM     52  C   UNL A   1      38.669  30.746  29.547  1.00  0.00     0.031 C 
ATOM     53  C   UNL A   1      44.009  28.262  33.132  1.00  0.00     0.029 A 
ATOM     54  C   UNL A   1      43.182  29.250  33.817  1.00  0.00     0.049 A 
ATOM     55  H   UNL A   1      41.458  30.177  33.105  1.00  0.00     0.167 HD
ATOM     56  C   UNL A   1      37.956  32.176  31.438  1.00  0.00     0.031 A 
ATOM     57  C   UNL A   1      43.410  29.730  35.054  1.00  0.00     0.031 A 
ATOM     58  C   UNL A   1      38.071  32.684  32.778  1.00  0.00     0.049 A 
ATOM     59  C   UNL A   1      42.471  30.751  35.634  1.00  0.00     0.074 A 
ATOM     60  C   UNL A   1      37.234  33.565  33.441  1.00  0.00     0.029 A 
ATOM     61  N   UNL A   1      39.087  32.355  33.662  1.00  0.00    -0.354 N 
ATOM     62  N   UNL A   1      41.399  31.284  35.098  1.00  0.00    -0.248 NA
ATOM     63  C   UNL A   1      42.770  31.230  36.991  1.00  0.00     0.031 C 
ATOM     64  C   UNL A   1      37.770  33.805  34.711  1.00  0.00     0.029 A 
ATOM     65  C   UNL A   1      38.913  33.035  34.856  1.00  0.00     0.049 A 
ATOM     66  H   UNL A   1      39.825  31.733  33.468  1.00  0.00     0.167 HD
ATOM     67  C   UNL A   1      40.880  32.138  36.063  1.00  0.00     0.074 A 
ATOM     68  C   UNL A   1      41.748  32.043  37.220  1.00  0.00     0.031 C 
ATOM     69  C   UNL A   1      39.782  32.929  35.998  1.00  0.00     0.031 A 
BRANCH  56  70
ATOM     70  C   UNL A   1      36.839  32.690  30.575  1.00  0.00    -0.014 A 
ATOM     71  C   UNL A   1      37.041  33.752  29.679  1.00  0.00     0.009 A 
ATOM     72  C   UNL A   1      35.574  32.085  30.634  1.00  0.00     0.009 A 
ATOM     73  C   UNL A   1      35.991  34.221  28.887  1.00  0.00     0.001 A 
ATOM     74  C   UNL A   1      34.533  32.537  29.821  1.00  0.00     0.001 A 
ATOM     75  C   UNL A   1      34.740  33.610  28.956  1.00  0.00     0.000 A 
ENDBRANCH  56  70
BRANCH  57  76
ATOM     76  C   UNL A   1      44.570  29.240  35.841  1.00  0.00    -0.014 A 
ATOM     77  C   UNL A   1      44.459  28.081  36.623  1.00  0.00     0.009 A 
ATOM     78  C   UNL A   1      45.793  29.931  35.821  1.00  0.00     0.009 A 
ATOM     79  C   UNL A   1      45.538  27.637  37.390  1.00  0.00     0.001 A 
ATOM     80  C   UNL A   1      46.878  29.470  36.568  1.00  0.00     0.001 A 
ATOM     81  C   UNL A   1      46.748  28.328  37.358  1.00  0.00     0.000 A 
ENDBRANCH  57  76
BRANCH  69  82
ATOM     82  C   UNL A   1      39.435  33.726  37.222  1.00  0.00    -0.014 A 
ATOM     83  C   UNL A   1      38.714  33.156  38.282  1.00  0.00     0.009 A 
ATOM     84  C   UNL A   1      39.876  35.054  37.333  1.00  0.00     0.009 A 
ATOM     85  C   UNL A   1      38.416  33.912  39.419  1.00  0.00     0.001 A 
ATOM     86  C   UNL A   1      39.600  35.798  38.480  1.00  0.00     0.001 A 
ATOM     87  C   UNL A   1      38.863  35.230  39.518  1.00  0.00     0.000 A 
ENDBRANCH  69  82
ENDBRANCH  43  44
ENDBRANCH  35  38
ENDBRANCH  33  34
ENDBRANCH  32  33
ENDBRANCH  31  32
ENDBRANCH  30  31
ENDBRANCH  28  30
ENDBRANCH   1  26
TORSDOF 20
ENDMDL
