MODEL 1
REMARK VINA RESULT:     -13.6      0.000      0.000
REMARK SMILES COc1cc2c(cc1OC)-c1c(c(C(=O)Nc3ccc(C(=O)NCCCCNC(=O)c4ccc(-c5c6nc(c(-c7ccccc7)c7ccc([nH]7)c(-c7ccccc7)c7nc(c(-c8ccccc8)c8ccc5[nH]8)C=C7)C=C6)cc4)cc3)nn1-c1ccc(F)cc1)C2
REMARK SMILES IDX 25 1 24 2 23 3 21 4 22 5 20 7 17 8 18 9 80 10 19 11 79 12
REMARK SMILES IDX 16 13 14 14 15 15 13 17 3 18 4 19 8 20 5 21 7 22 6 23 90 24
REMARK SMILES IDX 11 25 12 26 82 27 81 28 2 29 1 30 9 31 10 32 83 33 84 34
REMARK SMILES IDX 89 35 85 36 88 37 86 38 87 39 26 40 27 41 28 42 29 43 30 45
REMARK SMILES IDX 31 46 32 47 78 48 33 49 77 50 34 51 35 52 36 53 71 54 37 55
REMARK SMILES IDX 76 56 70 57 72 58 38 59 75 60 69 61 68 62 39 64 61 65 46 66
REMARK SMILES IDX 60 67 47 68 50 69 59 70 73 71 48 72 49 73 58 75 74 76 51 77
REMARK SMILES IDX 40 78 41 79 45 80 42 81 44 82 43 83 62 84 63 85 67 86 64 87
REMARK SMILES IDX 66 88 65 89 52 90 53 91 57 92 54 93 56 94 55 95
REMARK H PARENT 23 6 16 16 28 44 72 63 50 74
REMARK Flexibility Score: inf
ROOT
ATOM      1  C   UNL A   1      35.948  21.325  24.650  1.00  0.00     0.023 C 
ENDROOT
BRANCH   1   2
ATOM      2  C   UNL A   1      35.148  21.512  25.934  1.00  0.00     0.116 C 
BRANCH   2   3
ATOM      3  N   UNL A   1      34.090  20.550  26.176  1.00  0.00    -0.352 N 
ATOM      4  C   UNL A   1      32.954  20.239  25.450  1.00  0.00     0.251 C 
ATOM      5  O   UNL A   1      32.297  19.270  25.811  1.00  0.00    -0.269 OA
ATOM      6  H   UNL A   1      34.198  20.028  27.003  1.00  0.00     0.163 HD
BRANCH   4   7
ATOM      7  C   UNL A   1      32.411  21.129  24.373  1.00  0.00     0.039 A 
ATOM      8  C   UNL A   1      32.529  22.973  22.303  1.00  0.00     0.041 A 
ATOM      9  C   UNL A   1      32.459  23.434  23.608  1.00  0.00     0.027 A 
ATOM     10  C   UNL A   1      32.197  21.646  22.029  1.00  0.00     0.027 A 
ATOM     11  C   UNL A   1      32.384  22.503  24.653  1.00  0.00     0.016 A 
ATOM     12  C   UNL A   1      32.130  20.720  23.073  1.00  0.00     0.016 A 
BRANCH   8  13
ATOM     13  N   UNL A   1      32.916  23.777  21.236  1.00  0.00    -0.321 N 
ATOM     14  C   UNL A   1      32.640  25.087  20.895  1.00  0.00     0.276 C 
ATOM     15  O   UNL A   1      32.892  25.363  19.716  1.00  0.00    -0.267 OA
ATOM     16  H   UNL A   1      33.505  23.320  20.594  1.00  0.00     0.170 HD
BRANCH  14  17
ATOM     17  C   UNL A   1      32.249  26.159  21.865  1.00  0.00     0.155 A 
ATOM     18  C   UNL A   1      33.809  29.344  26.742  1.00  0.00     0.161 A 
ATOM     19  C   UNL A   1      34.438  28.441  25.863  1.00  0.00     0.055 A 
ATOM     20  C   UNL A   1      32.517  29.846  26.472  1.00  0.00     0.161 A 
ATOM     21  C   UNL A   1      33.755  28.035  24.724  1.00  0.00    -0.030 A 
ATOM     22  C   UNL A   1      31.836  29.401  25.333  1.00  0.00     0.061 A 
ATOM     23  C   UNL A   1      32.467  28.530  24.470  1.00  0.00     0.008 A 
ATOM     24  C   UNL A   1      34.174  26.947  23.720  1.00  0.00     0.076 C 
ATOM     25  C   UNL A   1      32.024  27.832  23.309  1.00  0.00     0.079 A 
ATOM     26  C   UNL A   1      32.915  26.871  22.908  1.00  0.00     0.016 A 
ATOM     27  N   UNL A   1      30.939  27.786  22.505  1.00  0.00    -0.232 N 
ATOM     28  N   UNL A   1      30.986  26.674  21.732  1.00  0.00    -0.162 NA
BRANCH  18  29
ATOM     29  O   UNL A   1      34.516  29.741  27.847  1.00  0.00    -0.493 OA
ATOM     30  C   UNL A   1      35.197  30.976  27.607  1.00  0.00     0.278 C 
ENDBRANCH  18  29
BRANCH  20  31
ATOM     31  O   UNL A   1      31.765  30.730  27.195  1.00  0.00    -0.493 OA
ATOM     32  C   UNL A   1      31.112  31.796  26.530  1.00  0.00     0.278 C 
ENDBRANCH  20  31
BRANCH  27  33
ATOM     33  C   UNL A   1      29.886  28.726  22.443  1.00  0.00     0.065 A 
ATOM     34  C   UNL A   1      28.690  28.482  23.122  1.00  0.00     0.031 A 
ATOM     35  C   UNL A   1      30.077  29.936  21.753  1.00  0.00     0.031 A 
ATOM     36  C   UNL A   1      27.738  29.503  23.207  1.00  0.00     0.041 A 
ATOM     37  C   UNL A   1      29.116  30.940  21.826  1.00  0.00     0.041 A 
ATOM     38  C   UNL A   1      27.967  30.724  22.572  1.00  0.00     0.123 A 
ATOM     39  F   UNL A   1      27.067  31.709  22.690  1.00  0.00    -0.207 F 
ENDBRANCH  27  33
ENDBRANCH  14  17
ENDBRANCH   8  13
ENDBRANCH   4   7
ENDBRANCH   2   3
ENDBRANCH   1   2
BRANCH   1  40
ATOM     40  C   UNL A   1      37.467  21.214  24.735  1.00  0.00     0.023 C 
BRANCH  40  41
ATOM     41  C   UNL A   1      38.185  21.975  25.851  1.00  0.00     0.116 C 
BRANCH  41  42
ATOM     42  N   UNL A   1      39.629  21.855  25.878  1.00  0.00    -0.352 N 
ATOM     43  C   UNL A   1      40.651  22.517  26.501  1.00  0.00     0.251 C 
ATOM     44  H   UNL A   1      39.953  21.117  25.311  1.00  0.00     0.163 HD
ATOM     45  O   UNL A   1      41.749  21.954  26.473  1.00  0.00    -0.269 OA
BRANCH  43  46
ATOM     46  C   UNL A   1      40.558  23.856  27.149  1.00  0.00     0.039 A 
ATOM     47  C   UNL A   1      39.641  24.847  26.816  1.00  0.00     0.014 A 
ATOM     48  C   UNL A   1      41.537  24.160  28.117  1.00  0.00     0.014 A 
ATOM     49  C   UNL A   1      39.753  26.128  27.356  1.00  0.00     0.010 A 
ATOM     50  C   UNL A   1      41.638  25.434  28.681  1.00  0.00     0.010 A 
ATOM     51  C   UNL A   1      40.769  26.439  28.266  1.00  0.00    -0.014 A 
BRANCH  51  52
ATOM     52  C   UNL A   1      40.841  27.825  28.735  1.00  0.00     0.031 A 
ATOM     53  C   UNL A   1      41.953  28.671  28.210  1.00  0.00     0.074 A 
ATOM     54  C   UNL A   1      39.959  28.419  29.562  1.00  0.00     0.049 A 
ATOM     55  N   UNL A   1      42.917  29.229  28.870  1.00  0.00    -0.248 NA
ATOM     56  C   UNL A   1      41.993  28.920  26.763  1.00  0.00     0.031 C 
ATOM     57  C   UNL A   1      38.625  27.972  29.960  1.00  0.00     0.029 A 
ATOM     58  N   UNL A   1      40.073  29.644  30.158  1.00  0.00    -0.354 N 
ATOM     59  C   UNL A   1      43.631  29.998  27.953  1.00  0.00     0.074 A 
ATOM     60  C   UNL A   1      43.052  29.725  26.659  1.00  0.00     0.031 C 
ATOM     61  C   UNL A   1      37.970  29.006  30.540  1.00  0.00     0.029 A 
ATOM     62  C   UNL A   1      38.890  30.123  30.690  1.00  0.00     0.049 A 
ATOM     63  H   UNL A   1      40.921  30.141  30.205  1.00  0.00     0.167 HD
ATOM     64  C   UNL A   1      44.585  30.900  28.321  1.00  0.00     0.031 A 
ATOM     65  C   UNL A   1      38.667  31.373  31.154  1.00  0.00     0.031 A 
ATOM     66  C   UNL A   1      45.033  30.708  29.673  1.00  0.00     0.049 A 
ATOM     67  C   UNL A   1      39.968  31.990  31.497  1.00  0.00     0.074 A 
ATOM     68  C   UNL A   1      45.642  29.678  30.361  1.00  0.00     0.029 A 
ATOM     69  N   UNL A   1      44.618  31.598  30.632  1.00  0.00    -0.354 N 
ATOM     70  N   UNL A   1      40.718  31.617  32.494  1.00  0.00    -0.248 NA
ATOM     71  C   UNL A   1      40.611  32.856  30.524  1.00  0.00     0.031 C 
ATOM     72  C   UNL A   1      45.129  29.765  31.688  1.00  0.00     0.029 A 
ATOM     73  C   UNL A   1      44.249  30.849  31.720  1.00  0.00     0.049 A 
ATOM     74  H   UNL A   1      44.593  32.579  30.556  1.00  0.00     0.167 HD
ATOM     75  C   UNL A   1      42.017  31.856  32.073  1.00  0.00     0.074 A 
ATOM     76  C   UNL A   1      41.880  32.742  30.922  1.00  0.00     0.031 C 
ATOM     77  C   UNL A   1      43.064  31.098  32.516  1.00  0.00     0.031 A 
BRANCH  64  78
ATOM     78  C   UNL A   1      44.971  32.120  27.527  1.00  0.00    -0.014 A 
ATOM     79  C   UNL A   1      44.127  33.233  27.370  1.00  0.00     0.009 A 
ATOM     80  C   UNL A   1      46.308  32.278  27.111  1.00  0.00     0.009 A 
ATOM     81  C   UNL A   1      44.583  34.435  26.815  1.00  0.00     0.001 A 
ATOM     82  C   UNL A   1      46.779  33.492  26.598  1.00  0.00     0.001 A 
ATOM     83  C   UNL A   1      45.915  34.571  26.447  1.00  0.00     0.000 A 
ENDBRANCH  64  78
BRANCH  65  84
ATOM     84  C   UNL A   1      37.424  32.163  31.033  1.00  0.00    -0.014 A 
ATOM     85  C   UNL A   1      36.221  31.679  31.580  1.00  0.00     0.009 A 
ATOM     86  C   UNL A   1      37.351  33.258  30.158  1.00  0.00     0.009 A 
ATOM     87  C   UNL A   1      34.989  32.249  31.250  1.00  0.00     0.001 A 
ATOM     88  C   UNL A   1      36.115  33.824  29.819  1.00  0.00     0.001 A 
ATOM     89  C   UNL A   1      34.935  33.312  30.356  1.00  0.00     0.000 A 
ENDBRANCH  65  84
BRANCH  77  90
ATOM     90  C   UNL A   1      42.856  30.183  33.701  1.00  0.00    -0.014 A 
ATOM     91  C   UNL A   1      43.568  30.439  34.886  1.00  0.00     0.009 A 
ATOM     92  C   UNL A   1      42.129  28.983  33.616  1.00  0.00     0.009 A 
ATOM     93  C   UNL A   1      43.555  29.528  35.946  1.00  0.00     0.001 A 
ATOM     94  C   UNL A   1      42.091  28.085  34.687  1.00  0.00     0.001 A 
ATOM     95  C   UNL A   1      42.812  28.354  35.849  1.00  0.00     0.000 A 
ENDBRANCH  77  90
ENDBRANCH  51  52
ENDBRANCH  43  46
ENDBRANCH  41  42
ENDBRANCH  40  41
ENDBRANCH   1  40
TORSDOF 16
ENDMDL
MODEL 2
REMARK VINA RESULT:     -12.8      6.003     12.105
REMARK SMILES COc1cc2c(cc1OC)-c1c(c(C(=O)Nc3ccc(C(=O)NCCCCNC(=O)c4ccc(-c5c6nc(c(-c7ccccc7)c7ccc([nH]7)c(-c7ccccc7)c7nc(c(-c8ccccc8)c8ccc5[nH]8)C=C7)C=C6)cc4)cc3)nn1-c1ccc(F)cc1)C2
REMARK SMILES IDX 25 1 24 2 23 3 21 4 22 5 20 7 17 8 18 9 80 10 19 11 79 12
REMARK SMILES IDX 16 13 14 14 15 15 13 17 3 18 4 19 8 20 5 21 7 22 6 23 90 24
REMARK SMILES IDX 11 25 12 26 82 27 81 28 2 29 1 30 9 31 10 32 83 33 84 34
REMARK SMILES IDX 89 35 85 36 88 37 86 38 87 39 26 40 27 41 28 42 29 43 30 45
REMARK SMILES IDX 31 46 32 47 78 48 33 49 77 50 34 51 35 52 36 53 71 54 37 55
REMARK SMILES IDX 76 56 70 57 72 58 38 59 75 60 69 61 68 62 39 64 61 65 46 66
REMARK SMILES IDX 60 67 47 68 50 69 59 70 73 71 48 72 49 73 58 75 74 76 51 77
REMARK SMILES IDX 40 78 41 79 45 80 42 81 44 82 43 83 62 84 63 85 67 86 64 87
REMARK SMILES IDX 66 88 65 89 52 90 53 91 57 92 54 93 56 94 55 95
REMARK H PARENT 23 6 16 16 28 44 72 63 50 74
REMARK Flexibility Score: inf
ROOT
ATOM      1  C   UNL A   1      33.240  36.440  28.744  1.00  0.00     0.023 C 
ENDROOT
BRANCH   1   2
ATOM      2  C   UNL A   1      33.294  36.890  30.199  1.00  0.00     0.116 C 
BRANCH   2   3
ATOM      3  N   UNL A   1      32.436  36.176  31.124  1.00  0.00    -0.352 N 
ATOM      4  C   UNL A   1      32.730  35.304  32.157  1.00  0.00     0.251 C 
ATOM      5  O   UNL A   1      31.809  34.953  32.883  1.00  0.00    -0.269 OA
ATOM      6  H   UNL A   1      31.474  36.340  30.993  1.00  0.00     0.163 HD
BRANCH   4   7
ATOM      7  C   UNL A   1      34.069  34.646  32.305  1.00  0.00     0.039 A 
ATOM      8  C   UNL A   1      35.930  32.887  33.374  1.00  0.00     0.041 A 
ATOM      9  C   UNL A   1      35.757  34.126  33.971  1.00  0.00     0.027 A 
ATOM     10  C   UNL A   1      35.442  32.678  32.083  1.00  0.00     0.027 A 
ATOM     11  C   UNL A   1      34.829  35.020  33.422  1.00  0.00     0.016 A 
ATOM     12  C   UNL A   1      34.511  33.569  31.543  1.00  0.00     0.016 A 
BRANCH   8  13
ATOM     13  N   UNL A   1      36.576  31.828  34.002  1.00  0.00    -0.321 N 
ATOM     14  C   UNL A   1      37.903  31.459  34.100  1.00  0.00     0.276 C 
ATOM     15  O   UNL A   1      38.073  30.288  34.461  1.00  0.00    -0.267 OA
ATOM     16  H   UNL A   1      35.962  31.217  34.470  1.00  0.00     0.170 HD
BRANCH  14  17
ATOM     17  C   UNL A   1      39.064  32.397  33.974  1.00  0.00     0.155 A 
ATOM     18  C   UNL A   1      42.776  35.333  30.237  1.00  0.00     0.161 A 
ATOM     19  C   UNL A   1      41.589  34.583  30.124  1.00  0.00     0.055 A 
ATOM     20  C   UNL A   1      43.288  35.703  31.500  1.00  0.00     0.161 A 
ATOM     21  C   UNL A   1      40.932  34.195  31.284  1.00  0.00    -0.030 A 
ATOM     22  C   UNL A   1      42.624  35.276  32.657  1.00  0.00     0.061 A 
ATOM     23  C   UNL A   1      41.455  34.557  32.535  1.00  0.00     0.008 A 
ATOM     24  C   UNL A   1      39.725  33.248  31.404  1.00  0.00     0.076 C 
ATOM     25  C   UNL A   1      40.616  33.910  33.489  1.00  0.00     0.079 A 
ATOM     26  C   UNL A   1      39.688  33.094  32.896  1.00  0.00     0.016 A 
ATOM     27  N   UNL A   1      40.499  33.804  34.830  1.00  0.00    -0.232 N 
ATOM     28  N   UNL A   1      39.677  32.771  35.140  1.00  0.00    -0.162 NA
BRANCH  18  29
ATOM     29  O   UNL A   1      43.390  35.718  29.074  1.00  0.00    -0.493 OA
ATOM     30  C   UNL A   1      42.433  36.163  28.108  1.00  0.00     0.278 C 
ENDBRANCH  18  29
BRANCH  20  31
ATOM     31  O   UNL A   1      44.404  36.433  31.800  1.00  0.00    -0.493 OA
ATOM     32  C   UNL A   1      44.337  37.847  31.786  1.00  0.00     0.278 C 
ENDBRANCH  20  31
BRANCH  27  33
ATOM     33  C   UNL A   1      41.118  34.617  35.805  1.00  0.00     0.065 A 
ATOM     34  C   UNL A   1      40.645  35.911  36.039  1.00  0.00     0.031 A 
ATOM     35  C   UNL A   1      42.163  34.091  36.584  1.00  0.00     0.031 A 
ATOM     36  C   UNL A   1      41.143  36.626  37.133  1.00  0.00     0.041 A 
ATOM     37  C   UNL A   1      42.667  34.818  37.659  1.00  0.00     0.041 A 
ATOM     38  C   UNL A   1      42.135  36.069  37.939  1.00  0.00     0.123 A 
ATOM     39  F   UNL A   1      42.579  36.745  39.006  1.00  0.00    -0.207 F 
ENDBRANCH  27  33
ENDBRANCH  14  17
ENDBRANCH   8  13
ENDBRANCH   4   7
ENDBRANCH   2   3
ENDBRANCH   1   2
BRANCH   1  40
ATOM     40  C   UNL A   1      34.503  35.882  28.094  1.00  0.00     0.023 C 
BRANCH  40  41
ATOM     41  C   UNL A   1      35.020  34.524  28.571  1.00  0.00     0.116 C 
BRANCH  41  42
ATOM     42  N   UNL A   1      34.394  33.360  27.976  1.00  0.00    -0.352 N 
ATOM     43  C   UNL A   1      34.603  32.008  28.027  1.00  0.00     0.251 C 
ATOM     44  H   UNL A   1      33.634  33.599  27.397  1.00  0.00     0.163 HD
ATOM     45  O   UNL A   1      33.691  31.309  27.576  1.00  0.00    -0.269 OA
BRANCH  43  46
ATOM     46  C   UNL A   1      35.836  31.332  28.521  1.00  0.00     0.039 A 
ATOM     47  C   UNL A   1      37.052  31.960  28.768  1.00  0.00     0.014 A 
ATOM     48  C   UNL A   1      35.774  29.931  28.666  1.00  0.00     0.014 A 
ATOM     49  C   UNL A   1      38.192  31.211  29.055  1.00  0.00     0.010 A 
ATOM     50  C   UNL A   1      36.908  29.177  28.979  1.00  0.00     0.010 A 
ATOM     51  C   UNL A   1      38.135  29.815  29.131  1.00  0.00    -0.014 A 
BRANCH  51  52
ATOM     52  C   UNL A   1      39.395  29.110  29.381  1.00  0.00     0.031 A 
ATOM     53  C   UNL A   1      39.760  28.840  30.803  1.00  0.00     0.074 A 
ATOM     54  C   UNL A   1      40.230  28.637  28.436  1.00  0.00     0.049 A 
ATOM     55  N   UNL A   1      40.786  29.274  31.464  1.00  0.00    -0.248 NA
ATOM     56  C   UNL A   1      38.861  27.981  31.585  1.00  0.00     0.031 C 
ATOM     57  C   UNL A   1      39.990  28.450  27.006  1.00  0.00     0.029 A 
ATOM     58  N   UNL A   1      41.487  28.130  28.615  1.00  0.00    -0.354 N 
ATOM     59  C   UNL A   1      40.739  28.660  32.715  1.00  0.00     0.074 A 
ATOM     60  C   UNL A   1      39.501  27.919  32.754  1.00  0.00     0.031 C 
ATOM     61  C   UNL A   1      40.970  27.667  26.495  1.00  0.00     0.029 A 
ATOM     62  C   UNL A   1      41.974  27.437  27.522  1.00  0.00     0.049 A 
ATOM     63  H   UNL A   1      41.999  28.247  29.447  1.00  0.00     0.167 HD
ATOM     64  C   UNL A   1      41.771  28.705  33.605  1.00  0.00     0.031 A 
ATOM     65  C   UNL A   1      43.088  26.671  27.488  1.00  0.00     0.031 A 
ATOM     66  C   UNL A   1      42.726  29.732  33.291  1.00  0.00     0.049 A 
ATOM     67  C   UNL A   1      43.979  27.084  28.595  1.00  0.00     0.074 A 
ATOM     68  C   UNL A   1      42.676  31.106  33.174  1.00  0.00     0.029 A 
ATOM     69  N   UNL A   1      43.937  29.361  32.760  1.00  0.00    -0.354 N 
ATOM     70  N   UNL A   1      44.610  28.223  28.646  1.00  0.00    -0.248 NA
ATOM     71  C   UNL A   1      43.942  26.338  29.842  1.00  0.00     0.031 C 
ATOM     72  C   UNL A   1      43.618  31.425  32.152  1.00  0.00     0.029 A 
ATOM     73  C   UNL A   1      44.185  30.223  31.724  1.00  0.00     0.049 A 
ATOM     74  H   UNL A   1      44.513  28.623  33.065  1.00  0.00     0.167 HD
ATOM     75  C   UNL A   1      44.692  28.527  29.996  1.00  0.00     0.074 A 
ATOM     76  C   UNL A   1      44.393  27.273  30.680  1.00  0.00     0.031 C 
ATOM     77  C   UNL A   1      44.717  29.820  30.438  1.00  0.00     0.031 A 
BRANCH  64  78
ATOM     78  C   UNL A   1      42.049  27.664  34.657  1.00  0.00    -0.014 A 
ATOM     79  C   UNL A   1      41.527  27.732  35.962  1.00  0.00     0.009 A 
ATOM     80  C   UNL A   1      42.657  26.450  34.283  1.00  0.00     0.009 A 
ATOM     81  C   UNL A   1      41.618  26.657  36.852  1.00  0.00     0.001 A 
ATOM     82  C   UNL A   1      42.710  25.355  35.156  1.00  0.00     0.001 A 
ATOM     83  C   UNL A   1      42.193  25.460  36.442  1.00  0.00     0.000 A 
ENDBRANCH  64  78
BRANCH  65  84
ATOM     84  C   UNL A   1      43.285  25.412  26.742  1.00  0.00    -0.014 A 
ATOM     85  C   UNL A   1      44.369  25.275  25.856  1.00  0.00     0.009 A 
ATOM     86  C   UNL A   1      42.272  24.441  26.691  1.00  0.00     0.009 A 
ATOM     87  C   UNL A   1      44.432  24.226  24.935  1.00  0.00     0.001 A 
ATOM     88  C   UNL A   1      42.329  23.393  25.762  1.00  0.00     0.001 A 
ATOM     89  C   UNL A   1      43.403  23.294  24.878  1.00  0.00     0.000 A 
ENDBRANCH  65  84
BRANCH  77  90
ATOM     90  C   UNL A   1      44.960  30.930  29.442  1.00  0.00    -0.014 A 
ATOM     91  C   UNL A   1      46.162  31.656  29.517  1.00  0.00     0.009 A 
ATOM     92  C   UNL A   1      43.964  31.394  28.564  1.00  0.00     0.009 A 
ATOM     93  C   UNL A   1      46.360  32.804  28.744  1.00  0.00     0.001 A 
ATOM     94  C   UNL A   1      44.174  32.525  27.769  1.00  0.00     0.001 A 
ATOM     95  C   UNL A   1      45.368  33.235  27.867  1.00  0.00     0.000 A 
ENDBRANCH  77  90
ENDBRANCH  51  52
ENDBRANCH  43  46
ENDBRANCH  41  42
ENDBRANCH  40  41
ENDBRANCH   1  40
TORSDOF 16
ENDMDL
MODEL 3
REMARK VINA RESULT:     -12.8      3.020      8.607
REMARK SMILES COc1cc2c(cc1OC)-c1c(c(C(=O)Nc3ccc(C(=O)NCCCCNC(=O)c4ccc(-c5c6nc(c(-c7ccccc7)c7ccc([nH]7)c(-c7ccccc7)c7nc(c(-c8ccccc8)c8ccc5[nH]8)C=C7)C=C6)cc4)cc3)nn1-c1ccc(F)cc1)C2
REMARK SMILES IDX 25 1 24 2 23 3 21 4 22 5 20 7 17 8 18 9 80 10 19 11 79 12
REMARK SMILES IDX 16 13 14 14 15 15 13 17 3 18 4 19 8 20 5 21 7 22 6 23 90 24
REMARK SMILES IDX 11 25 12 26 82 27 81 28 2 29 1 30 9 31 10 32 83 33 84 34
REMARK SMILES IDX 89 35 85 36 88 37 86 38 87 39 26 40 27 41 28 42 29 43 30 45
REMARK SMILES IDX 31 46 32 47 78 48 33 49 77 50 34 51 35 52 36 53 71 54 37 55
REMARK SMILES IDX 76 56 70 57 72 58 38 59 75 60 69 61 68 62 39 64 61 65 46 66
REMARK SMILES IDX 60 67 47 68 50 69 59 70 73 71 48 72 49 73 58 75 74 76 51 77
REMARK SMILES IDX 40 78 41 79 45 80 42 81 44 82 43 83 62 84 63 85 67 86 64 87
REMARK SMILES IDX 66 88 65 89 52 90 53 91 57 92 54 93 56 94 55 95
REMARK H PARENT 23 6 16 16 28 44 72 63 50 74
REMARK Flexibility Score: inf
ROOT
ATOM      1  C   UNL A   1      36.800  30.607  28.800  1.00  0.00     0.023 C 
ENDROOT
BRANCH   1   2
ATOM      2  C   UNL A   1      35.991  30.190  27.577  1.00  0.00     0.116 C 
BRANCH   2   3
ATOM      3  N   UNL A   1      34.773  30.937  27.330  1.00  0.00    -0.352 N 
ATOM      4  C   UNL A   1      33.509  30.524  26.948  1.00  0.00     0.251 C 
ATOM      5  O   UNL A   1      32.613  31.359  26.952  1.00  0.00    -0.269 OA
ATOM      6  H   UNL A   1      34.862  31.910  27.454  1.00  0.00     0.163 HD
BRANCH   4   7
ATOM      7  C   UNL A   1      33.241  29.168  26.369  1.00  0.00     0.039 A 
ATOM      8  C   UNL A   1      31.698  27.117  25.312  1.00  0.00     0.041 A 
ATOM      9  C   UNL A   1      31.843  27.207  26.687  1.00  0.00     0.027 A 
ATOM     10  C   UNL A   1      32.580  27.816  24.486  1.00  0.00     0.027 A 
ATOM     11  C   UNL A   1      32.634  28.233  27.221  1.00  0.00     0.016 A 
ATOM     12  C   UNL A   1      33.362  28.843  25.021  1.00  0.00     0.016 A 
BRANCH   8  13
ATOM     13  N   UNL A   1      30.709  26.353  24.703  1.00  0.00    -0.321 N 
ATOM     14  C   UNL A   1      30.739  25.177  23.980  1.00  0.00     0.276 C 
ATOM     15  O   UNL A   1      29.713  24.965  23.322  1.00  0.00    -0.267 OA
ATOM     16  H   UNL A   1      29.805  26.726  24.809  1.00  0.00     0.170 HD
BRANCH  14  17
ATOM     17  C   UNL A   1      31.806  24.131  24.089  1.00  0.00     0.155 A 
ATOM     18  C   UNL A   1      37.484  22.887  25.694  1.00  0.00     0.161 A 
ATOM     19  C   UNL A   1      36.593  23.970  25.832  1.00  0.00     0.055 A 
ATOM     20  C   UNL A   1      37.046  21.641  25.196  1.00  0.00     0.161 A 
ATOM     21  C   UNL A   1      35.269  23.796  25.450  1.00  0.00    -0.030 A 
ATOM     22  C   UNL A   1      35.714  21.497  24.791  1.00  0.00     0.061 A 
ATOM     23  C   UNL A   1      34.846  22.557  24.945  1.00  0.00     0.008 A 
ATOM     24  C   UNL A   1      34.172  24.872  25.361  1.00  0.00     0.076 C 
ATOM     25  C   UNL A   1      33.491  22.760  24.551  1.00  0.00     0.079 A 
ATOM     26  C   UNL A   1      33.102  24.067  24.685  1.00  0.00     0.016 A 
ATOM     27  N   UNL A   1      32.474  22.052  24.014  1.00  0.00    -0.232 N 
ATOM     28  N   UNL A   1      31.508  22.897  23.576  1.00  0.00    -0.162 NA
BRANCH  18  29
ATOM     29  O   UNL A   1      38.779  23.084  26.098  1.00  0.00    -0.493 OA
ATOM     30  C   UNL A   1      38.986  24.432  26.529  1.00  0.00     0.278 C 
ENDBRANCH  18  29
BRANCH  20  31
ATOM     31  O   UNL A   1      37.757  20.487  25.009  1.00  0.00    -0.493 OA
ATOM     32  C   UNL A   1      37.076  19.246  24.982  1.00  0.00     0.278 C 
ENDBRANCH  20  31
BRANCH  27  33
ATOM     33  C   UNL A   1      32.383  20.648  23.898  1.00  0.00     0.065 A 
ATOM     34  C   UNL A   1      32.174  20.061  22.647  1.00  0.00     0.031 A 
ATOM     35  C   UNL A   1      32.576  19.845  25.036  1.00  0.00     0.031 A 
ATOM     36  C   UNL A   1      32.280  18.672  22.524  1.00  0.00     0.041 A 
ATOM     37  C   UNL A   1      32.659  18.461  24.908  1.00  0.00     0.041 A 
ATOM     38  C   UNL A   1      32.535  17.889  23.650  1.00  0.00     0.123 A 
ATOM     39  F   UNL A   1      32.671  16.563  23.517  1.00  0.00    -0.207 F 
ENDBRANCH  27  33
ENDBRANCH  14  17
ENDBRANCH   8  13
ENDBRANCH   4   7
ENDBRANCH   2   3
ENDBRANCH   1   2
BRANCH   1  40
ATOM     40  C   UNL A   1      36.420  31.888  29.537  1.00  0.00     0.023 C 
BRANCH  40  41
ATOM     41  C   UNL A   1      35.148  31.881  30.387  1.00  0.00     0.116 C 
BRANCH  41  42
ATOM     42  N   UNL A   1      35.322  32.169  31.796  1.00  0.00    -0.352 N 
ATOM     43  C   UNL A   1      36.341  32.033  32.700  1.00  0.00     0.251 C 
ATOM     44  H   UNL A   1      34.513  32.558  32.201  1.00  0.00     0.163 HD
ATOM     45  O   UNL A   1      36.191  32.633  33.768  1.00  0.00    -0.269 OA
BRANCH  43  46
ATOM     46  C   UNL A   1      37.560  31.195  32.523  1.00  0.00     0.039 A 
ATOM     47  C   UNL A   1      38.832  31.680  32.239  1.00  0.00     0.014 A 
ATOM     48  C   UNL A   1      37.380  29.798  32.565  1.00  0.00     0.014 A 
ATOM     49  C   UNL A   1      39.869  30.806  31.914  1.00  0.00     0.010 A 
ATOM     50  C   UNL A   1      38.422  28.916  32.266  1.00  0.00     0.010 A 
ATOM     51  C   UNL A   1      39.663  29.422  31.894  1.00  0.00    -0.014 A 
BRANCH  51  52
ATOM     52  C   UNL A   1      40.796  28.587  31.485  1.00  0.00     0.031 A 
ATOM     53  C   UNL A   1      41.869  28.344  32.493  1.00  0.00     0.074 A 
ATOM     54  C   UNL A   1      40.927  27.974  30.293  1.00  0.00     0.049 A 
ATOM     55  N   UNL A   1      43.117  28.685  32.433  1.00  0.00    -0.248 NA
ATOM     56  C   UNL A   1      41.498  27.636  33.725  1.00  0.00     0.031 C 
ATOM     57  C   UNL A   1      39.920  27.747  29.257  1.00  0.00     0.029 A 
ATOM     58  N   UNL A   1      42.032  27.331  29.806  1.00  0.00    -0.354 N 
ATOM     59  C   UNL A   1      43.730  28.142  33.562  1.00  0.00     0.074 A 
ATOM     60  C   UNL A   1      42.674  27.554  34.351  1.00  0.00     0.031 C 
ATOM     61  C   UNL A   1      40.391  26.831  28.379  1.00  0.00     0.029 A 
ATOM     62  C   UNL A   1      41.777  26.534  28.705  1.00  0.00     0.049 A 
ATOM     63  H   UNL A   1      42.926  27.426  30.203  1.00  0.00     0.167 HD
ATOM     64  C   UNL A   1      45.082  28.108  33.730  1.00  0.00     0.031 A 
ATOM     65  C   UNL A   1      42.626  25.641  28.147  1.00  0.00     0.031 A 
ATOM     66  C   UNL A   1      45.772  28.998  32.838  1.00  0.00     0.049 A 
ATOM     67  C   UNL A   1      44.010  25.999  28.533  1.00  0.00     0.074 A 
ATOM     68  C   UNL A   1      45.764  30.362  32.623  1.00  0.00     0.029 A 
ATOM     69  N   UNL A   1      46.453  28.463  31.773  1.00  0.00    -0.354 N 
ATOM     70  N   UNL A   1      44.641  27.057  28.110  1.00  0.00    -0.248 NA
ATOM     71  C   UNL A   1      44.619  25.323  29.667  1.00  0.00     0.031 C 
ATOM     72  C   UNL A   1      45.998  30.519  31.226  1.00  0.00     0.029 A 
ATOM     73  C   UNL A   1      46.144  29.239  30.686  1.00  0.00     0.049 A 
ATOM     74  H   UNL A   1      47.047  27.677  31.788  1.00  0.00     0.167 HD
ATOM     75  C   UNL A   1      45.482  27.413  29.153  1.00  0.00     0.074 A 
ATOM     76  C   UNL A   1      45.525  26.238  30.017  1.00  0.00     0.031 C 
ATOM     77  C   UNL A   1      45.841  28.714  29.370  1.00  0.00     0.031 A 
BRANCH  64  78
ATOM     78  C   UNL A   1      45.823  27.093  34.561  1.00  0.00    -0.014 A 
ATOM     79  C   UNL A   1      46.125  25.798  34.104  1.00  0.00     0.009 A 
ATOM     80  C   UNL A   1      46.453  27.505  35.752  1.00  0.00     0.009 A 
ATOM     81  C   UNL A   1      46.993  24.951  34.801  1.00  0.00     0.001 A 
ATOM     82  C   UNL A   1      47.359  26.678  36.428  1.00  0.00     0.001 A 
ATOM     83  C   UNL A   1      47.627  25.399  35.954  1.00  0.00     0.000 A 
ENDBRANCH  64  78
BRANCH  65  84
ATOM     84  C   UNL A   1      42.284  24.333  27.553  1.00  0.00    -0.014 A 
ATOM     85  C   UNL A   1      41.875  23.267  28.375  1.00  0.00     0.009 A 
ATOM     86  C   UNL A   1      42.610  24.043  26.219  1.00  0.00     0.009 A 
ATOM     87  C   UNL A   1      41.816  21.956  27.894  1.00  0.00     0.001 A 
ATOM     88  C   UNL A   1      42.559  22.728  25.738  1.00  0.00     0.001 A 
ATOM     89  C   UNL A   1      42.173  21.685  26.579  1.00  0.00     0.000 A 
ENDBRANCH  65  84
BRANCH  77  90
ATOM     90  C   UNL A   1      45.567  29.739  28.293  1.00  0.00    -0.014 A 
ATOM     91  C   UNL A   1      46.641  30.210  27.519  1.00  0.00     0.009 A 
ATOM     92  C   UNL A   1      44.324  30.380  28.154  1.00  0.00     0.009 A 
ATOM     93  C   UNL A   1      46.479  31.284  26.639  1.00  0.00     0.001 A 
ATOM     94  C   UNL A   1      44.153  31.434  27.252  1.00  0.00     0.001 A 
ATOM     95  C   UNL A   1      45.234  31.893  26.502  1.00  0.00     0.000 A 
ENDBRANCH  77  90
ENDBRANCH  51  52
ENDBRANCH  43  46
ENDBRANCH  41  42
ENDBRANCH  40  41
ENDBRANCH   1  40
TORSDOF 16
ENDMDL
