MODEL 1
REMARK VINA RESULT:     -10.4      0.000      0.000
REMARK SMILES CC(C)[N@@H+](Cc1cccs1)[C@@H](C)c1ccc(C(=O)NCCCCNC(=O)c2ccc(-c3c4nc(c(-c5ccccc5)c5ccc([nH]5)c(-c5ccccc5)c5nc(c(-c6ccccc6)c6ccc3[nH]6)C=C5)C=C4)cc2)o1
REMARK SMILES IDX 20 1 19 2 17 3 18 4 16 6 13 7 14 8 75 9 15 10 11 11 12 12
REMARK SMILES IDX 4 13 2 15 1 16 3 17 5 18 6 19 7 20 10 21 8 22 9 23 21 24
REMARK SMILES IDX 22 25 23 26 24 27 25 28 26 30 27 31 28 32 74 33 29 34 73 35
REMARK SMILES IDX 30 36 31 37 32 38 67 39 33 40 72 41 66 42 68 43 34 44 71 45
REMARK SMILES IDX 65 46 64 47 35 49 57 50 42 51 56 52 43 53 46 54 55 55 69 56
REMARK SMILES IDX 44 57 45 58 54 60 70 61 47 62 36 63 37 64 41 65 38 66 40 67
REMARK SMILES IDX 39 68 58 69 59 70 63 71 60 72 62 73 61 74 48 75 49 76 53 77
REMARK SMILES IDX 50 78 52 79 51 80
REMARK H PARENT 19 5 4 14 24 29 68 48 46 59
REMARK Flexibility Score: inf
ROOT
ATOM      1  C   UNL A   1      31.390  29.678  24.999  1.00  0.00     0.116 C 
ENDROOT
BRANCH   1   2
ATOM      2  N   UNL A   1      32.538  29.627  24.126  1.00  0.00    -0.349 N 
ATOM      3  C   UNL A   1      33.479  28.642  23.957  1.00  0.00     0.287 C 
ATOM      4  O   UNL A   1      34.350  28.883  23.116  1.00  0.00    -0.266 OA
ATOM      5  H   UNL A   1      32.665  30.424  23.563  1.00  0.00     0.163 HD
BRANCH   3   6
ATOM      6  C   UNL A   1      33.413  27.393  24.693  1.00  0.00     0.191 A 
ATOM      7  C   UNL A   1      32.930  25.227  24.767  1.00  0.00     0.162 A 
ATOM      8  C   UNL A   1      33.312  25.581  26.043  1.00  0.00     0.053 A 
ATOM      9  O   UNL A   1      33.028  26.310  23.953  1.00  0.00    -0.450 OA
ATOM     10  C   UNL A   1      33.628  26.967  25.993  1.00  0.00     0.057 A 
BRANCH   7  11
ATOM     11  C   UNL A   1      32.427  23.958  24.131  1.00  0.00     0.248 C 
ATOM     12  C   UNL A   1      30.915  23.803  24.367  1.00  0.00     0.084 C 
BRANCH  11  13
ATOM     13  N   UNL A   1      33.286  22.807  24.464  1.00  0.00    -0.320 N 
ATOM     14  H   UNL A   1      33.566  23.147  25.384  1.00  0.00     0.349 HD
BRANCH  13  15
ATOM     15  C   UNL A   1      32.740  21.543  24.984  1.00  0.00     0.178 C 
ATOM     16  C   UNL A   1      32.830  20.395  23.966  1.00  0.00     0.075 C 
ATOM     17  C   UNL A   1      33.273  21.027  26.324  1.00  0.00     0.075 C 
ENDBRANCH  13  15
BRANCH  13  18
ATOM     18  C   UNL A   1      34.498  22.684  23.629  1.00  0.00     0.310 C 
BRANCH  18  19
ATOM     19  C   UNL A   1      35.802  22.697  24.378  1.00  0.00     0.059 A 
ATOM     20  C   UNL A   1      36.475  23.781  24.911  1.00  0.00     0.021 A 
ATOM     21  S   UNL A   1      36.694  21.248  24.623  1.00  0.00    -0.143 S 
ATOM     22  C   UNL A   1      37.561  23.385  25.744  1.00  0.00     0.012 A 
ATOM     23  C   UNL A   1      37.754  22.023  25.721  1.00  0.00     0.065 A 
ENDBRANCH  18  19
ENDBRANCH  13  18
ENDBRANCH  11  13
ENDBRANCH   7  11
ENDBRANCH   3   6
ENDBRANCH   1   2
BRANCH   1  24
ATOM     24  C   UNL A   1      31.789  30.213  26.371  1.00  0.00     0.023 C 
BRANCH  24  25
ATOM     25  C   UNL A   1      31.592  31.725  26.524  1.00  0.00     0.023 C 
BRANCH  25  26
ATOM     26  C   UNL A   1      32.747  32.458  27.202  1.00  0.00     0.116 C 
BRANCH  26  27
ATOM     27  N   UNL A   1      32.424  33.832  27.550  1.00  0.00    -0.352 N 
ATOM     28  C   UNL A   1      33.012  34.643  28.489  1.00  0.00     0.251 C 
ATOM     29  H   UNL A   1      31.682  34.236  27.045  1.00  0.00     0.163 HD
ATOM     30  O   UNL A   1      32.533  35.744  28.742  1.00  0.00    -0.269 OA
BRANCH  28  31
ATOM     31  C   UNL A   1      34.202  34.165  29.218  1.00  0.00     0.039 A 
ATOM     32  C   UNL A   1      34.017  33.415  30.381  1.00  0.00     0.014 A 
ATOM     33  C   UNL A   1      35.489  34.436  28.747  1.00  0.00     0.014 A 
ATOM     34  C   UNL A   1      35.127  32.887  31.041  1.00  0.00     0.010 A 
ATOM     35  C   UNL A   1      36.587  33.845  29.360  1.00  0.00     0.010 A 
ATOM     36  C   UNL A   1      36.417  33.070  30.517  1.00  0.00    -0.014 A 
BRANCH  36  37
ATOM     37  C   UNL A   1      37.596  32.450  31.171  1.00  0.00     0.031 A 
ATOM     38  C   UNL A   1      38.254  31.242  30.565  1.00  0.00     0.074 A 
ATOM     39  C   UNL A   1      38.048  32.954  32.336  1.00  0.00     0.049 A 
ATOM     40  N   UNL A   1      39.289  30.565  30.994  1.00  0.00    -0.248 NA
ATOM     41  C   UNL A   1      37.657  30.707  29.330  1.00  0.00     0.031 C 
ATOM     42  C   UNL A   1      37.466  34.092  33.051  1.00  0.00     0.029 A 
ATOM     43  N   UNL A   1      39.105  32.572  33.124  1.00  0.00    -0.354 N 
ATOM     44  C   UNL A   1      39.459  29.523  30.091  1.00  0.00     0.074 A 
ATOM     45  C   UNL A   1      38.388  29.621  29.125  1.00  0.00     0.031 C 
ATOM     46  C   UNL A   1      38.197  34.341  34.150  1.00  0.00     0.029 A 
ATOM     47  C   UNL A   1      39.271  33.358  34.239  1.00  0.00     0.049 A 
ATOM     48  H   UNL A   1      39.689  31.809  32.911  1.00  0.00     0.167 HD
ATOM     49  C   UNL A   1      40.432  28.581  30.055  1.00  0.00     0.031 A 
ATOM     50  C   UNL A   1      40.187  33.294  35.223  1.00  0.00     0.031 A 
ATOM     51  C   UNL A   1      41.500  28.488  31.014  1.00  0.00     0.049 A 
ATOM     52  C   UNL A   1      41.251  32.234  35.165  1.00  0.00     0.074 A 
ATOM     53  C   UNL A   1      42.566  27.606  31.034  1.00  0.00     0.029 A 
ATOM     54  N   UNL A   1      41.634  29.302  32.128  1.00  0.00    -0.354 N 
ATOM     55  N   UNL A   1      41.446  31.306  34.259  1.00  0.00    -0.248 NA
ATOM     56  C   UNL A   1      42.232  32.224  36.259  1.00  0.00     0.031 C 
ATOM     57  C   UNL A   1      43.313  27.849  32.190  1.00  0.00     0.029 A 
ATOM     58  C   UNL A   1      42.750  28.925  32.857  1.00  0.00     0.049 A 
ATOM     59  H   UNL A   1      41.025  30.039  32.366  1.00  0.00     0.167 HD
ATOM     60  C   UNL A   1      42.586  30.621  34.658  1.00  0.00     0.074 A 
ATOM     61  C   UNL A   1      43.051  31.254  35.875  1.00  0.00     0.031 C 
ATOM     62  C   UNL A   1      43.196  29.562  34.070  1.00  0.00     0.031 A 
BRANCH  49  63
ATOM     63  C   UNL A   1      40.378  27.572  28.942  1.00  0.00    -0.014 A 
ATOM     64  C   UNL A   1      41.047  27.791  27.726  1.00  0.00     0.009 A 
ATOM     65  C   UNL A   1      39.679  26.369  29.122  1.00  0.00     0.009 A 
ATOM     66  C   UNL A   1      40.984  26.844  26.702  1.00  0.00     0.001 A 
ATOM     67  C   UNL A   1      39.643  25.409  28.108  1.00  0.00     0.001 A 
ATOM     68  C   UNL A   1      40.287  25.652  26.896  1.00  0.00     0.000 A 
ENDBRANCH  49  63
BRANCH  50  69
ATOM     69  C   UNL A   1      40.155  34.276  36.339  1.00  0.00    -0.014 A 
ATOM     70  C   UNL A   1      39.397  34.023  37.493  1.00  0.00     0.009 A 
ATOM     71  C   UNL A   1      40.873  35.479  36.250  1.00  0.00     0.009 A 
ATOM     72  C   UNL A   1      39.335  34.967  38.520  1.00  0.00     0.001 A 
ATOM     73  C   UNL A   1      40.835  36.406  37.293  1.00  0.00     0.001 A 
ATOM     74  C   UNL A   1      40.057  36.155  38.422  1.00  0.00     0.000 A 
ENDBRANCH  50  69
BRANCH  62  75
ATOM     75  C   UNL A   1      44.451  29.047  34.716  1.00  0.00    -0.014 A 
ATOM     76  C   UNL A   1      45.717  29.517  34.334  1.00  0.00     0.009 A 
ATOM     77  C   UNL A   1      44.361  28.097  35.746  1.00  0.00     0.009 A 
ATOM     78  C   UNL A   1      46.870  29.015  34.941  1.00  0.00     0.001 A 
ATOM     79  C   UNL A   1      45.513  27.622  36.374  1.00  0.00     0.001 A 
ATOM     80  C   UNL A   1      46.766  28.072  35.963  1.00  0.00     0.000 A 
ENDBRANCH  62  75
ENDBRANCH  36  37
ENDBRANCH  28  31
ENDBRANCH  26  27
ENDBRANCH  25  26
ENDBRANCH  24  25
ENDBRANCH   1  24
TORSDOF 16
ENDMDL
MODEL 2
REMARK VINA RESULT:     -10.1      4.126      9.077
REMARK SMILES CC(C)[N@@H+](Cc1cccs1)[C@@H](C)c1ccc(C(=O)NCCCCNC(=O)c2ccc(-c3c4nc(c(-c5ccccc5)c5ccc([nH]5)c(-c5ccccc5)c5nc(c(-c6ccccc6)c6ccc3[nH]6)C=C5)C=C4)cc2)o1
REMARK SMILES IDX 20 1 19 2 17 3 18 4 16 6 13 7 14 8 75 9 15 10 11 11 12 12
REMARK SMILES IDX 4 13 2 15 1 16 3 17 5 18 6 19 7 20 10 21 8 22 9 23 21 24
REMARK SMILES IDX 22 25 23 26 24 27 25 28 26 30 27 31 28 32 74 33 29 34 73 35
REMARK SMILES IDX 30 36 31 37 32 38 67 39 33 40 72 41 66 42 68 43 34 44 71 45
REMARK SMILES IDX 65 46 64 47 35 49 57 50 42 51 56 52 43 53 46 54 55 55 69 56
REMARK SMILES IDX 44 57 45 58 54 60 70 61 47 62 36 63 37 64 41 65 38 66 40 67
REMARK SMILES IDX 39 68 58 69 59 70 63 71 60 72 62 73 61 74 48 75 49 76 53 77
REMARK SMILES IDX 50 78 52 79 51 80
REMARK H PARENT 19 5 4 14 24 29 68 48 46 59
REMARK Flexibility Score: inf
ROOT
ATOM      1  C   UNL A   1      38.172  23.549  26.121  1.00  0.00     0.116 C 
ENDROOT
BRANCH   1   2
ATOM      2  N   UNL A   1      37.778  23.217  24.774  1.00  0.00    -0.349 N 
ATOM      3  C   UNL A   1      36.552  23.302  24.163  1.00  0.00     0.287 C 
ATOM      4  O   UNL A   1      36.527  22.952  22.979  1.00  0.00    -0.266 OA
ATOM      5  H   UNL A   1      38.504  22.877  24.202  1.00  0.00     0.163 HD
BRANCH   3   6
ATOM      6  C   UNL A   1      35.388  23.813  24.861  1.00  0.00     0.191 A 
ATOM      7  C   UNL A   1      33.902  25.427  25.201  1.00  0.00     0.162 A 
ATOM      8  C   UNL A   1      33.622  24.445  26.126  1.00  0.00     0.053 A 
ATOM      9  O   UNL A   1      34.940  25.026  24.421  1.00  0.00    -0.450 OA
ATOM     10  C   UNL A   1      34.570  23.408  25.903  1.00  0.00     0.057 A 
BRANCH   7  11
ATOM     11  C   UNL A   1      33.341  26.795  24.912  1.00  0.00     0.248 C 
ATOM     12  C   UNL A   1      33.377  27.668  26.178  1.00  0.00     0.084 C 
BRANCH  11  13
ATOM     13  N   UNL A   1      32.062  26.712  24.182  1.00  0.00    -0.320 N 
ATOM     14  H   UNL A   1      31.653  25.984  24.768  1.00  0.00     0.349 HD
BRANCH  13  15
ATOM     15  C   UNL A   1      30.960  27.660  24.416  1.00  0.00     0.178 C 
ATOM     16  C   UNL A   1      31.110  28.954  23.602  1.00  0.00     0.075 C 
ATOM     17  C   UNL A   1      29.526  27.155  24.238  1.00  0.00     0.075 C 
ENDBRANCH  13  15
BRANCH  13  18
ATOM     18  C   UNL A   1      32.172  26.189  22.807  1.00  0.00     0.310 C 
BRANCH  18  19
ATOM     19  C   UNL A   1      32.190  24.690  22.685  1.00  0.00     0.059 A 
ATOM     20  C   UNL A   1      33.036  23.899  21.928  1.00  0.00     0.021 A 
ATOM     21  S   UNL A   1      31.025  23.724  23.501  1.00  0.00    -0.143 S 
ATOM     22  C   UNL A   1      32.900  22.515  22.238  1.00  0.00     0.012 A 
ATOM     23  C   UNL A   1      31.875  22.287  23.126  1.00  0.00     0.065 A 
ENDBRANCH  18  19
ENDBRANCH  13  18
ENDBRANCH  11  13
ENDBRANCH   7  11
ENDBRANCH   3   6
ENDBRANCH   1   2
BRANCH   1  24
ATOM     24  C   UNL A   1      39.343  22.676  26.563  1.00  0.00     0.023 C 
BRANCH  24  25
ATOM     25  C   UNL A   1      39.491  21.385  25.751  1.00  0.00     0.023 C 
BRANCH  25  26
ATOM     26  C   UNL A   1      40.060  20.200  26.527  1.00  0.00     0.116 C 
BRANCH  26  27
ATOM     27  N   UNL A   1      41.254  19.638  25.915  1.00  0.00    -0.352 N 
ATOM     28  C   UNL A   1      42.489  20.213  25.750  1.00  0.00     0.251 C 
ATOM     29  H   UNL A   1      41.163  18.719  25.572  1.00  0.00     0.163 HD
ATOM     30  O   UNL A   1      43.356  19.639  25.098  1.00  0.00    -0.269 OA
BRANCH  28  31
ATOM     31  C   UNL A   1      42.753  21.544  26.330  1.00  0.00     0.039 A 
ATOM     32  C   UNL A   1      42.983  22.616  25.466  1.00  0.00     0.014 A 
ATOM     33  C   UNL A   1      42.754  21.735  27.713  1.00  0.00     0.014 A 
ATOM     34  C   UNL A   1      43.157  23.896  25.992  1.00  0.00     0.010 A 
ATOM     35  C   UNL A   1      42.849  23.022  28.231  1.00  0.00     0.010 A 
ATOM     36  C   UNL A   1      43.058  24.114  27.376  1.00  0.00    -0.014 A 
BRANCH  36  37
ATOM     37  C   UNL A   1      43.168  25.482  27.938  1.00  0.00     0.031 A 
ATOM     38  C   UNL A   1      44.507  26.030  28.348  1.00  0.00     0.074 A 
ATOM     39  C   UNL A   1      42.052  26.216  28.119  1.00  0.00     0.049 A 
ATOM     40  N   UNL A   1      44.797  27.200  28.858  1.00  0.00    -0.248 NA
ATOM     41  C   UNL A   1      45.668  25.141  28.187  1.00  0.00     0.031 C 
ATOM     42  C   UNL A   1      40.689  25.778  27.809  1.00  0.00     0.029 A 
ATOM     43  N   UNL A   1      41.890  27.488  28.607  1.00  0.00    -0.354 N 
ATOM     44  C   UNL A   1      46.167  27.182  29.089  1.00  0.00     0.074 A 
ATOM     45  C   UNL A   1      46.641  25.868  28.717  1.00  0.00     0.031 C 
ATOM     46  C   UNL A   1      39.835  26.779  28.077  1.00  0.00     0.029 A 
ATOM     47  C   UNL A   1      40.582  27.911  28.614  1.00  0.00     0.049 A 
ATOM     48  H   UNL A   1      42.637  28.045  28.922  1.00  0.00     0.167 HD
ATOM     49  C   UNL A   1      46.964  28.177  29.546  1.00  0.00     0.031 A 
ATOM     50  C   UNL A   1      40.045  29.081  29.008  1.00  0.00     0.031 A 
ATOM     51  C   UNL A   1      46.492  29.486  29.910  1.00  0.00     0.049 A 
ATOM     52  C   UNL A   1      40.951  30.166  29.521  1.00  0.00     0.074 A 
ATOM     53  C   UNL A   1      47.226  30.581  30.331  1.00  0.00     0.029 A 
ATOM     54  N   UNL A   1      45.162  29.876  29.902  1.00  0.00    -0.354 N 
ATOM     55  N   UNL A   1      42.255  30.160  29.655  1.00  0.00    -0.248 NA
ATOM     56  C   UNL A   1      40.308  31.426  29.921  1.00  0.00     0.031 C 
ATOM     57  C   UNL A   1      46.335  31.615  30.632  1.00  0.00     0.029 A 
ATOM     58  C   UNL A   1      45.050  31.186  30.337  1.00  0.00     0.049 A 
ATOM     59  H   UNL A   1      44.407  29.305  29.628  1.00  0.00     0.167 HD
ATOM     60  C   UNL A   1      42.592  31.422  30.128  1.00  0.00     0.074 A 
ATOM     61  C   UNL A   1      41.357  32.172  30.237  1.00  0.00     0.031 C 
ATOM     62  C   UNL A   1      43.814  31.917  30.444  1.00  0.00     0.031 A 
BRANCH  49  63
ATOM     63  C   UNL A   1      48.431  27.881  29.685  1.00  0.00    -0.014 A 
ATOM     64  C   UNL A   1      49.327  28.122  28.629  1.00  0.00     0.009 A 
ATOM     65  C   UNL A   1      48.933  27.386  30.898  1.00  0.00     0.009 A 
ATOM     66  C   UNL A   1      50.687  27.837  28.775  1.00  0.00     0.001 A 
ATOM     67  C   UNL A   1      50.298  27.132  31.052  1.00  0.00     0.001 A 
ATOM     68  C   UNL A   1      51.172  27.349  29.987  1.00  0.00     0.000 A 
ENDBRANCH  49  63
BRANCH  50  69
ATOM     69  C   UNL A   1      38.577  29.299  28.913  1.00  0.00    -0.014 A 
ATOM     70  C   UNL A   1      37.991  29.704  27.704  1.00  0.00     0.009 A 
ATOM     71  C   UNL A   1      37.756  29.113  30.036  1.00  0.00     0.009 A 
ATOM     72  C   UNL A   1      36.618  29.950  27.630  1.00  0.00     0.001 A 
ATOM     73  C   UNL A   1      36.379  29.328  29.951  1.00  0.00     0.001 A 
ATOM     74  C   UNL A   1      35.813  29.757  28.751  1.00  0.00     0.000 A 
ENDBRANCH  50  69
BRANCH  62  75
ATOM     75  C   UNL A   1      43.877  33.347  30.902  1.00  0.00    -0.014 A 
ATOM     76  C   UNL A   1      43.814  33.683  32.263  1.00  0.00     0.009 A 
ATOM     77  C   UNL A   1      44.032  34.372  29.955  1.00  0.00     0.009 A 
ATOM     78  C   UNL A   1      43.864  35.020  32.664  1.00  0.00     0.001 A 
ATOM     79  C   UNL A   1      44.115  35.705  30.361  1.00  0.00     0.001 A 
ATOM     80  C   UNL A   1      44.019  36.028  31.713  1.00  0.00     0.000 A 
ENDBRANCH  62  75
ENDBRANCH  36  37
ENDBRANCH  28  31
ENDBRANCH  26  27
ENDBRANCH  25  26
ENDBRANCH  24  25
ENDBRANCH   1  24
TORSDOF 16
ENDMDL
MODEL 3
REMARK VINA RESULT:     -10.0      1.214      6.136
REMARK SMILES CC(C)[N@@H+](Cc1cccs1)[C@@H](C)c1ccc(C(=O)NCCCCNC(=O)c2ccc(-c3c4nc(c(-c5ccccc5)c5ccc([nH]5)c(-c5ccccc5)c5nc(c(-c6ccccc6)c6ccc3[nH]6)C=C5)C=C4)cc2)o1
REMARK SMILES IDX 20 1 19 2 17 3 18 4 16 6 13 7 14 8 75 9 15 10 11 11 12 12
REMARK SMILES IDX 4 13 2 15 1 16 3 17 5 18 6 19 7 20 10 21 8 22 9 23 21 24
REMARK SMILES IDX 22 25 23 26 24 27 25 28 26 30 27 31 28 32 74 33 29 34 73 35
REMARK SMILES IDX 30 36 31 37 32 38 67 39 33 40 72 41 66 42 68 43 34 44 71 45
REMARK SMILES IDX 65 46 64 47 35 49 57 50 42 51 56 52 43 53 46 54 55 55 69 56
REMARK SMILES IDX 44 57 45 58 54 60 70 61 47 62 36 63 37 64 41 65 38 66 40 67
REMARK SMILES IDX 39 68 58 69 59 70 63 71 60 72 62 73 61 74 48 75 49 76 53 77
REMARK SMILES IDX 50 78 52 79 51 80
REMARK H PARENT 19 5 4 14 24 29 68 48 46 59
REMARK Flexibility Score: inf
ROOT
ATOM      1  C   UNL A   1      31.613  29.614  25.512  1.00  0.00     0.116 C 
ENDROOT
BRANCH   1   2
ATOM      2  N   UNL A   1      32.547  29.472  24.422  1.00  0.00    -0.349 N 
ATOM      3  C   UNL A   1      33.330  28.404  24.061  1.00  0.00     0.287 C 
ATOM      4  O   UNL A   1      34.031  28.578  23.059  1.00  0.00    -0.266 OA
ATOM      5  H   UNL A   1      32.636  30.265  23.846  1.00  0.00     0.163 HD
BRANCH   3   6
ATOM      6  C   UNL A   1      33.291  27.151  24.791  1.00  0.00     0.191 A 
ATOM      7  C   UNL A   1      32.651  25.031  24.941  1.00  0.00     0.162 A 
ATOM      8  C   UNL A   1      33.280  25.328  26.130  1.00  0.00     0.053 A 
ATOM      9  O   UNL A   1      32.693  26.117  24.127  1.00  0.00    -0.450 OA
ATOM     10  C   UNL A   1      33.696  26.684  26.031  1.00  0.00     0.057 A 
BRANCH   7  11
ATOM     11  C   UNL A   1      31.939  23.819  24.398  1.00  0.00     0.248 C 
ATOM     12  C   UNL A   1      30.782  23.415  25.329  1.00  0.00     0.084 C 
BRANCH  11  13
ATOM     13  N   UNL A   1      32.889  22.764  24.003  1.00  0.00    -0.320 N 
ATOM     14  H   UNL A   1      32.231  22.238  23.427  1.00  0.00     0.349 HD
BRANCH  13  15
ATOM     15  C   UNL A   1      33.857  22.946  22.908  1.00  0.00     0.178 C 
ATOM     16  C   UNL A   1      33.271  23.736  21.727  1.00  0.00     0.075 C 
ATOM     17  C   UNL A   1      35.222  23.550  23.248  1.00  0.00     0.075 C 
ENDBRANCH  13  15
BRANCH  13  18
ATOM     18  C   UNL A   1      33.333  21.892  25.108  1.00  0.00     0.310 C 
BRANCH  18  19
ATOM     19  C   UNL A   1      33.667  20.477  24.721  1.00  0.00     0.059 A 
ATOM     20  C   UNL A   1      34.853  19.792  24.911  1.00  0.00     0.021 A 
ATOM     21  S   UNL A   1      32.529  19.499  23.882  1.00  0.00    -0.143 S 
ATOM     22  C   UNL A   1      34.726  18.403  24.621  1.00  0.00     0.012 A 
ATOM     23  C   UNL A   1      33.488  18.099  24.104  1.00  0.00     0.065 A 
ENDBRANCH  18  19
ENDBRANCH  13  18
ENDBRANCH  11  13
ENDBRANCH   7  11
ENDBRANCH   3   6
ENDBRANCH   1   2
BRANCH   1  24
ATOM     24  C   UNL A   1      32.279  30.310  26.695  1.00  0.00     0.023 C 
BRANCH  24  25
ATOM     25  C   UNL A   1      31.798  31.747  26.917  1.00  0.00     0.023 C 
BRANCH  25  26
ATOM     26  C   UNL A   1      32.905  32.797  26.954  1.00  0.00     0.116 C 
BRANCH  26  27
ATOM     27  N   UNL A   1      32.506  34.024  27.625  1.00  0.00    -0.352 N 
ATOM     28  C   UNL A   1      33.079  34.637  28.710  1.00  0.00     0.251 C 
ATOM     29  H   UNL A   1      31.716  34.476  27.249  1.00  0.00     0.163 HD
ATOM     30  O   UNL A   1      32.539  35.610  29.228  1.00  0.00    -0.269 OA
BRANCH  28  31
ATOM     31  C   UNL A   1      34.331  34.095  29.273  1.00  0.00     0.039 A 
ATOM     32  C   UNL A   1      34.251  33.206  30.346  1.00  0.00     0.014 A 
ATOM     33  C   UNL A   1      35.571  34.446  28.733  1.00  0.00     0.014 A 
ATOM     34  C   UNL A   1      35.418  32.622  30.841  1.00  0.00     0.010 A 
ATOM     35  C   UNL A   1      36.722  33.805  29.175  1.00  0.00     0.010 A 
ATOM     36  C   UNL A   1      36.658  32.891  30.237  1.00  0.00    -0.014 A 
BRANCH  36  37
ATOM     37  C   UNL A   1      37.893  32.218  30.709  1.00  0.00     0.031 A 
ATOM     38  C   UNL A   1      38.677  32.788  31.858  1.00  0.00     0.074 A 
ATOM     39  C   UNL A   1      38.330  31.114  30.073  1.00  0.00     0.049 A 
ATOM     40  N   UNL A   1      39.779  32.341  32.406  1.00  0.00    -0.248 NA
ATOM     41  C   UNL A   1      38.175  34.037  32.454  1.00  0.00     0.031 C 
ATOM     42  C   UNL A   1      37.686  30.491  28.914  1.00  0.00     0.029 A 
ATOM     43  N   UNL A   1      39.421  30.318  30.314  1.00  0.00    -0.354 N 
ATOM     44  C   UNL A   1      40.105  33.256  33.399  1.00  0.00     0.074 A 
ATOM     45  C   UNL A   1      39.119  34.313  33.341  1.00  0.00     0.031 C 
ATOM     46  C   UNL A   1      38.371  29.388  28.570  1.00  0.00     0.029 A 
ATOM     47  C   UNL A   1      39.522  29.249  29.455  1.00  0.00     0.049 A 
ATOM     48  H   UNL A   1      40.070  30.494  31.032  1.00  0.00     0.167 HD
ATOM     49  C   UNL A   1      41.120  33.211  34.295  1.00  0.00     0.031 A 
ATOM     50  C   UNL A   1      40.439  28.266  29.390  1.00  0.00     0.031 A 
ATOM     51  C   UNL A   1      42.096  32.156  34.355  1.00  0.00     0.049 A 
ATOM     52  C   UNL A   1      41.561  28.243  30.390  1.00  0.00     0.074 A 
ATOM     53  C   UNL A   1      43.129  31.989  35.261  1.00  0.00     0.029 A 
ATOM     54  N   UNL A   1      42.164  31.092  33.470  1.00  0.00    -0.354 N 
ATOM     55  N   UNL A   1      41.808  29.073  31.375  1.00  0.00    -0.248 NA
ATOM     56  C   UNL A   1      42.523  27.137  30.278  1.00  0.00     0.031 C 
ATOM     57  C   UNL A   1      43.857  30.855  34.888  1.00  0.00     0.029 A 
ATOM     58  C   UNL A   1      43.238  30.278  33.791  1.00  0.00     0.049 A 
ATOM     59  H   UNL A   1      41.541  30.937  32.723  1.00  0.00     0.167 HD
ATOM     60  C   UNL A   1      42.935  28.574  32.017  1.00  0.00     0.074 A 
ATOM     61  C   UNL A   1      43.309  27.359  31.322  1.00  0.00     0.031 C 
ATOM     62  C   UNL A   1      43.600  29.075  33.086  1.00  0.00     0.031 A 
BRANCH  49  63
ATOM     63  C   UNL A   1      41.226  34.343  35.279  1.00  0.00    -0.014 A 
ATOM     64  C   UNL A   1      40.510  34.328  36.488  1.00  0.00     0.009 A 
ATOM     65  C   UNL A   1      42.079  35.424  35.011  1.00  0.00     0.009 A 
ATOM     66  C   UNL A   1      40.619  35.390  37.388  1.00  0.00     0.001 A 
ATOM     67  C   UNL A   1      42.211  36.469  35.928  1.00  0.00     0.001 A 
ATOM     68  C   UNL A   1      41.473  36.456  37.111  1.00  0.00     0.000 A 
ENDBRANCH  49  63
BRANCH  50  69
ATOM     69  C   UNL A   1      40.326  27.206  28.353  1.00  0.00    -0.014 A 
ATOM     70  C   UNL A   1      39.610  26.027  28.611  1.00  0.00     0.009 A 
ATOM     71  C   UNL A   1      40.943  27.364  27.102  1.00  0.00     0.009 A 
ATOM     72  C   UNL A   1      39.541  25.015  27.651  1.00  0.00     0.001 A 
ATOM     73  C   UNL A   1      40.846  26.365  26.132  1.00  0.00     0.001 A 
ATOM     74  C   UNL A   1      40.154  25.187  26.412  1.00  0.00     0.000 A 
ENDBRANCH  50  69
BRANCH  62  75
ATOM     75  C   UNL A   1      44.779  28.290  33.590  1.00  0.00    -0.014 A 
ATOM     76  C   UNL A   1      46.084  28.570  33.157  1.00  0.00     0.009 A 
ATOM     77  C   UNL A   1      44.580  27.273  34.537  1.00  0.00     0.009 A 
ATOM     78  C   UNL A   1      47.162  27.820  33.631  1.00  0.00     0.001 A 
ATOM     79  C   UNL A   1      45.663  26.547  35.035  1.00  0.00     0.001 A 
ATOM     80  C   UNL A   1      46.951  26.813  34.572  1.00  0.00     0.000 A 
ENDBRANCH  62  75
ENDBRANCH  36  37
ENDBRANCH  28  31
ENDBRANCH  26  27
ENDBRANCH  25  26
ENDBRANCH  24  25
ENDBRANCH   1  24
TORSDOF 16
ENDMDL
