MODEL 1
REMARK VINA RESULT:     -11.3      0.000      0.000
REMARK SMILES CC1(C)[C@H](C(=O)NCCCCNC(=O)c2ccc(-c3c4nc(c(-c5ccccc5)c5ccc([nH]5)c(-c5ccccc5)c5nc(c(-c6ccccc6)c6ccc3[nH]6)C=C5)C=C4)cc2)[C@@H]1c1nc2ccc(F)cc2s1
REMARK SMILES IDX 10 1 9 2 8 3 7 4 5 5 6 6 4 8 1 9 2 10 3 11 63 12 64 13 65 14
REMARK SMILES IDX 73 15 66 16 72 17 67 18 71 19 68 20 69 21 70 22 11 23 12 24
REMARK SMILES IDX 13 25 14 27 15 28 16 29 62 30 17 31 61 32 18 33 19 34 20 35
REMARK SMILES IDX 55 36 21 37 60 38 54 39 56 40 22 41 59 42 53 43 52 44 23 46
REMARK SMILES IDX 45 47 30 48 44 49 31 50 34 51 43 52 57 53 32 54 33 55 42 57
REMARK SMILES IDX 58 58 35 59 24 60 25 61 29 62 26 63 28 64 27 65 46 66 47 67
REMARK SMILES IDX 51 68 48 69 50 70 49 71 36 72 37 73 41 74 38 75 40 76 39 77
REMARK H PARENT 7 7 12 26 56 45 34 56
REMARK Flexibility Score: inf
ROOT
ATOM      1  C   UNL A   1      32.159  29.030  27.012  1.00  0.00     0.023 C 
ENDROOT
BRANCH   1   2
ATOM      2  C   UNL A   1      31.726  28.719  25.584  1.00  0.00     0.023 C 
BRANCH   2   3
ATOM      3  C   UNL A   1      32.791  28.968  24.522  1.00  0.00     0.116 C 
BRANCH   3   4
ATOM      4  N   UNL A   1      33.420  27.764  24.057  1.00  0.00    -0.356 N 
ATOM      5  C   UNL A   1      33.317  26.451  24.422  1.00  0.00     0.224 C 
ATOM      6  O   UNL A   1      34.025  25.677  23.772  1.00  0.00    -0.275 OA
ATOM      7  H   UNL A   1      34.057  27.915  23.322  1.00  0.00     0.163 HD
BRANCH   5   8
ATOM      8  C   UNL A   1      32.485  25.839  25.495  1.00  0.00     0.095 C 
ATOM      9  C   UNL A   1      30.061  25.234  26.120  1.00  0.00     0.013 C 
ATOM     10  C   UNL A   1      31.315  24.850  25.356  1.00  0.00    -0.013 C 
ATOM     11  C   UNL A   1      30.981  24.245  24.019  1.00  0.00     0.013 C 
ATOM     12  C   UNL A   1      32.546  24.514  26.187  1.00  0.00     0.068 C 
BRANCH  12  13
ATOM     13  C   UNL A   1      33.676  23.521  25.992  1.00  0.00     0.098 A 
ATOM     14  N   UNL A   1      34.903  23.916  26.247  1.00  0.00    -0.241 NA
ATOM     15  S   UNL A   1      33.506  21.853  25.633  1.00  0.00    -0.118 S 
ATOM     16  C   UNL A   1      35.797  22.920  25.914  1.00  0.00     0.082 A 
ATOM     17  C   UNL A   1      35.221  21.727  25.466  1.00  0.00     0.057 A 
ATOM     18  C   UNL A   1      37.202  23.027  25.957  1.00  0.00     0.033 A 
ATOM     19  C   UNL A   1      36.000  20.662  24.991  1.00  0.00     0.060 A 
ATOM     20  C   UNL A   1      37.990  21.969  25.496  1.00  0.00     0.041 A 
ATOM     21  C   UNL A   1      37.387  20.819  25.006  1.00  0.00     0.124 A 
ATOM     22  F   UNL A   1      38.159  19.832  24.536  1.00  0.00    -0.207 F 
ENDBRANCH  12  13
ENDBRANCH   5   8
ENDBRANCH   3   4
ENDBRANCH   2   3
ENDBRANCH   1   2
BRANCH   1  23
ATOM     23  C   UNL A   1      33.607  29.483  27.173  1.00  0.00     0.116 C 
BRANCH  23  24
ATOM     24  N   UNL A   1      33.767  30.680  27.988  1.00  0.00    -0.352 N 
ATOM     25  C   UNL A   1      34.850  31.076  28.742  1.00  0.00     0.251 C 
ATOM     26  H   UNL A   1      32.994  31.290  28.002  1.00  0.00     0.163 HD
ATOM     27  O   UNL A   1      34.804  32.082  29.430  1.00  0.00    -0.269 OA
BRANCH  25  28
ATOM     28  C   UNL A   1      36.055  30.221  28.742  1.00  0.00     0.039 A 
ATOM     29  C   UNL A   1      36.880  30.222  27.613  1.00  0.00     0.014 A 
ATOM     30  C   UNL A   1      36.420  29.521  29.893  1.00  0.00     0.014 A 
ATOM     31  C   UNL A   1      38.134  29.615  27.684  1.00  0.00     0.010 A 
ATOM     32  C   UNL A   1      37.696  28.978  29.983  1.00  0.00     0.010 A 
ATOM     33  C   UNL A   1      38.575  29.048  28.890  1.00  0.00    -0.014 A 
BRANCH  33  34
ATOM     34  C   UNL A   1      39.971  28.580  29.064  1.00  0.00     0.031 A 
ATOM     35  C   UNL A   1      41.038  29.535  29.511  1.00  0.00     0.074 A 
ATOM     36  C   UNL A   1      40.298  27.321  28.709  1.00  0.00     0.049 A 
ATOM     37  N   UNL A   1      42.331  29.350  29.587  1.00  0.00    -0.248 NA
ATOM     38  C   UNL A   1      40.595  30.885  29.899  1.00  0.00     0.031 C 
ATOM     39  C   UNL A   1      39.363  26.304  28.220  1.00  0.00     0.029 A 
ATOM     40  N   UNL A   1      41.517  26.688  28.686  1.00  0.00    -0.354 N 
ATOM     41  C   UNL A   1      42.859  30.564  30.007  1.00  0.00     0.074 A 
ATOM     42  C   UNL A   1      41.751  31.487  30.135  1.00  0.00     0.031 C 
ATOM     43  C   UNL A   1      40.039  25.173  27.964  1.00  0.00     0.029 A 
ATOM     44  C   UNL A   1      41.457  25.396  28.225  1.00  0.00     0.049 A 
ATOM     45  H   UNL A   1      42.353  27.120  28.973  1.00  0.00     0.167 HD
ATOM     46  C   UNL A   1      44.148  30.878  30.274  1.00  0.00     0.031 A 
ATOM     47  C   UNL A   1      42.435  24.496  28.016  1.00  0.00     0.031 A 
ATOM     48  C   UNL A   1      45.247  29.959  30.163  1.00  0.00     0.049 A 
ATOM     49  C   UNL A   1      43.860  24.877  28.293  1.00  0.00     0.074 A 
ATOM     50  C   UNL A   1      46.578  30.163  30.485  1.00  0.00     0.029 A 
ATOM     51  N   UNL A   1      45.144  28.660  29.689  1.00  0.00    -0.354 N 
ATOM     52  N   UNL A   1      44.336  26.011  28.747  1.00  0.00    -0.248 NA
ATOM     53  C   UNL A   1      44.883  23.856  28.023  1.00  0.00     0.031 C 
ATOM     54  C   UNL A   1      47.287  29.000  30.167  1.00  0.00     0.029 A 
ATOM     55  C   UNL A   1      46.392  28.062  29.682  1.00  0.00     0.049 A 
ATOM     56  H   UNL A   1      44.308  28.229  29.401  1.00  0.00     0.167 HD
ATOM     57  C   UNL A   1      45.710  25.837  28.830  1.00  0.00     0.074 A 
ATOM     58  C   UNL A   1      45.991  24.484  28.393  1.00  0.00     0.031 C 
ATOM     59  C   UNL A   1      46.655  26.719  29.234  1.00  0.00     0.031 A 
BRANCH  46  60
ATOM     60  C   UNL A   1      44.434  32.286  30.706  1.00  0.00    -0.014 A 
ATOM     61  C   UNL A   1      44.725  33.286  29.765  1.00  0.00     0.009 A 
ATOM     62  C   UNL A   1      44.390  32.622  32.067  1.00  0.00     0.009 A 
ATOM     63  C   UNL A   1      45.001  34.590  30.184  1.00  0.00     0.001 A 
ATOM     64  C   UNL A   1      44.644  33.930  32.481  1.00  0.00     0.001 A 
ATOM     65  C   UNL A   1      44.958  34.910  31.540  1.00  0.00     0.000 A 
ENDBRANCH  46  60
BRANCH  47  66
ATOM     66  C   UNL A   1      42.100  23.140  27.513  1.00  0.00    -0.014 A 
ATOM     67  C   UNL A   1      42.221  22.844  26.146  1.00  0.00     0.009 A 
ATOM     68  C   UNL A   1      41.661  22.137  28.391  1.00  0.00     0.009 A 
ATOM     69  C   UNL A   1      41.895  21.574  25.667  1.00  0.00     0.001 A 
ATOM     70  C   UNL A   1      41.356  20.862  27.911  1.00  0.00     0.001 A 
ATOM     71  C   UNL A   1      41.466  20.583  26.550  1.00  0.00     0.000 A 
ENDBRANCH  47  66
BRANCH  59  72
ATOM     72  C   UNL A   1      48.079  26.247  29.231  1.00  0.00    -0.014 A 
ATOM     73  C   UNL A   1      48.888  26.406  28.097  1.00  0.00     0.009 A 
ATOM     74  C   UNL A   1      48.628  25.678  30.391  1.00  0.00     0.009 A 
ATOM     75  C   UNL A   1      50.219  25.986  28.119  1.00  0.00     0.001 A 
ATOM     76  C   UNL A   1      49.964  25.279  30.415  1.00  0.00     0.001 A 
ATOM     77  C   UNL A   1      50.758  25.429  29.278  1.00  0.00     0.000 A 
ENDBRANCH  59  72
ENDBRANCH  33  34
ENDBRANCH  25  28
ENDBRANCH  23  24
ENDBRANCH   1  23
TORSDOF 12
ENDMDL
MODEL 2
REMARK VINA RESULT:     -11.2      2.107      7.105
REMARK SMILES CC1(C)[C@H](C(=O)NCCCCNC(=O)c2ccc(-c3c4nc(c(-c5ccccc5)c5ccc([nH]5)c(-c5ccccc5)c5nc(c(-c6ccccc6)c6ccc3[nH]6)C=C5)C=C4)cc2)[C@@H]1c1nc2ccc(F)cc2s1
REMARK SMILES IDX 10 1 9 2 8 3 7 4 5 5 6 6 4 8 1 9 2 10 3 11 63 12 64 13 65 14
REMARK SMILES IDX 73 15 66 16 72 17 67 18 71 19 68 20 69 21 70 22 11 23 12 24
REMARK SMILES IDX 13 25 14 27 15 28 16 29 62 30 17 31 61 32 18 33 19 34 20 35
REMARK SMILES IDX 55 36 21 37 60 38 54 39 56 40 22 41 59 42 53 43 52 44 23 46
REMARK SMILES IDX 45 47 30 48 44 49 31 50 34 51 43 52 57 53 32 54 33 55 42 57
REMARK SMILES IDX 58 58 35 59 24 60 25 61 29 62 26 63 28 64 27 65 46 66 47 67
REMARK SMILES IDX 51 68 48 69 50 70 49 71 36 72 37 73 41 74 38 75 40 76 39 77
REMARK H PARENT 7 7 12 26 56 45 34 56
REMARK Flexibility Score: inf
ROOT
ATOM      1  C   UNL A   1      37.286  21.580  24.854  1.00  0.00     0.023 C 
ENDROOT
BRANCH   1   2
ATOM      2  C   UNL A   1      36.947  22.935  24.243  1.00  0.00     0.023 C 
BRANCH   2   3
ATOM      3  C   UNL A   1      35.854  23.710  24.970  1.00  0.00     0.116 C 
BRANCH   3   4
ATOM      4  N   UNL A   1      35.000  24.451  24.086  1.00  0.00    -0.356 N 
ATOM      5  C   UNL A   1      33.675  24.786  24.124  1.00  0.00     0.224 C 
ATOM      6  O   UNL A   1      33.284  25.457  23.166  1.00  0.00    -0.275 OA
ATOM      7  H   UNL A   1      35.464  24.788  23.286  1.00  0.00     0.163 HD
BRANCH   5   8
ATOM      8  C   UNL A   1      32.651  24.442  25.149  1.00  0.00     0.095 C 
ATOM      9  C   UNL A   1      30.253  24.985  25.918  1.00  0.00     0.013 C 
ATOM     10  C   UNL A   1      31.141  24.214  24.959  1.00  0.00    -0.013 C 
ATOM     11  C   UNL A   1      30.545  24.162  23.578  1.00  0.00     0.013 C 
ATOM     12  C   UNL A   1      32.037  23.143  25.567  1.00  0.00     0.068 C 
BRANCH  12  13
ATOM     13  C   UNL A   1      32.512  21.794  25.061  1.00  0.00     0.098 A 
ATOM     14  N   UNL A   1      32.081  21.383  23.889  1.00  0.00    -0.241 NA
ATOM     15  S   UNL A   1      33.709  20.805  25.786  1.00  0.00    -0.118 S 
ATOM     16  C   UNL A   1      32.531  20.101  23.646  1.00  0.00     0.082 A 
ATOM     17  C   UNL A   1      33.375  19.570  24.626  1.00  0.00     0.057 A 
ATOM     18  C   UNL A   1      32.185  19.304  22.536  1.00  0.00     0.033 A 
ATOM     19  C   UNL A   1      33.827  18.243  24.572  1.00  0.00     0.060 A 
ATOM     20  C   UNL A   1      32.636  17.984  22.466  1.00  0.00     0.041 A 
ATOM     21  C   UNL A   1      33.427  17.468  23.483  1.00  0.00     0.124 A 
ATOM     22  F   UNL A   1      33.819  16.190  23.414  1.00  0.00    -0.207 F 
ENDBRANCH  12  13
ENDBRANCH   5   8
ENDBRANCH   3   4
ENDBRANCH   2   3
ENDBRANCH   1   2
BRANCH   1  23
ATOM     23  C   UNL A   1      38.548  21.546  25.711  1.00  0.00     0.116 C 
BRANCH  23  24
ATOM     24  N   UNL A   1      39.308  20.307  25.598  1.00  0.00    -0.352 N 
ATOM     25  C   UNL A   1      40.616  20.058  25.955  1.00  0.00     0.251 C 
ATOM     26  H   UNL A   1      38.820  19.544  25.213  1.00  0.00     0.163 HD
ATOM     27  O   UNL A   1      41.134  18.977  25.733  1.00  0.00    -0.269 OA
BRANCH  25  28
ATOM     28  C   UNL A   1      41.397  21.153  26.565  1.00  0.00     0.039 A 
ATOM     29  C   UNL A   1      42.008  22.091  25.729  1.00  0.00     0.014 A 
ATOM     30  C   UNL A   1      41.420  21.310  27.952  1.00  0.00     0.014 A 
ATOM     31  C   UNL A   1      42.542  23.255  26.282  1.00  0.00     0.010 A 
ATOM     32  C   UNL A   1      41.890  22.501  28.494  1.00  0.00     0.010 A 
ATOM     33  C   UNL A   1      42.426  23.496  27.661  1.00  0.00    -0.014 A 
BRANCH  33  34
ATOM     34  C   UNL A   1      42.793  24.804  28.254  1.00  0.00     0.031 A 
ATOM     35  C   UNL A   1      41.747  25.860  28.460  1.00  0.00     0.074 A 
ATOM     36  C   UNL A   1      44.089  25.080  28.502  1.00  0.00     0.049 A 
ATOM     37  N   UNL A   1      41.896  27.106  28.832  1.00  0.00    -0.248 NA
ATOM     38  C   UNL A   1      40.354  25.473  28.184  1.00  0.00     0.031 C 
ATOM     39  C   UNL A   1      45.209  24.156  28.307  1.00  0.00     0.029 A 
ATOM     40  N   UNL A   1      44.685  26.232  28.953  1.00  0.00    -0.354 N 
ATOM     41  C   UNL A   1      40.622  27.657  28.813  1.00  0.00     0.074 A 
ATOM     42  C   UNL A   1      39.719  26.621  28.359  1.00  0.00     0.031 C 
ATOM     43  C   UNL A   1      46.351  24.770  28.654  1.00  0.00     0.029 A 
ATOM     44  C   UNL A   1      46.052  26.142  29.050  1.00  0.00     0.049 A 
ATOM     45  H   UNL A   1      44.181  27.044  29.185  1.00  0.00     0.167 HD
ATOM     46  C   UNL A   1      40.237  28.909  29.155  1.00  0.00     0.031 A 
ATOM     47  C   UNL A   1      46.967  27.065  29.400  1.00  0.00     0.031 A 
ATOM     48  C   UNL A   1      41.129  29.933  29.622  1.00  0.00     0.049 A 
ATOM     49  C   UNL A   1      46.518  28.454  29.748  1.00  0.00     0.074 A 
ATOM     50  C   UNL A   1      40.822  31.208  30.065  1.00  0.00     0.029 A 
ATOM     51  N   UNL A   1      42.507  29.801  29.703  1.00  0.00    -0.354 N 
ATOM     52  N   UNL A   1      45.302  28.942  29.782  1.00  0.00    -0.248 NA
ATOM     53  C   UNL A   1      47.568  29.421  30.100  1.00  0.00     0.031 C 
ATOM     54  C   UNL A   1      42.019  31.863  30.375  1.00  0.00     0.029 A 
ATOM     55  C   UNL A   1      43.066  30.983  30.160  1.00  0.00     0.049 A 
ATOM     56  H   UNL A   1      43.012  28.990  29.469  1.00  0.00     0.167 HD
ATOM     57  C   UNL A   1      45.439  30.267  30.172  1.00  0.00     0.074 A 
ATOM     58  C   UNL A   1      46.854  30.503  30.375  1.00  0.00     0.031 C 
ATOM     59  C   UNL A   1      44.476  31.204  30.346  1.00  0.00     0.031 A 
BRANCH  46  60
ATOM     60  C   UNL A   1      38.778  29.236  29.026  1.00  0.00    -0.014 A 
ATOM     61  C   UNL A   1      38.239  29.663  27.803  1.00  0.00     0.009 A 
ATOM     62  C   UNL A   1      37.929  29.093  30.133  1.00  0.00     0.009 A 
ATOM     63  C   UNL A   1      36.881  29.975  27.701  1.00  0.00     0.001 A 
ATOM     64  C   UNL A   1      36.568  29.384  30.023  1.00  0.00     0.001 A 
ATOM     65  C   UNL A   1      36.048  29.833  28.809  1.00  0.00     0.000 A 
ENDBRANCH  46  60
BRANCH  47  66
ATOM     66  C   UNL A   1      48.408  26.705  29.436  1.00  0.00    -0.014 A 
ATOM     67  C   UNL A   1      48.967  26.150  30.597  1.00  0.00     0.009 A 
ATOM     68  C   UNL A   1      49.226  26.912  28.316  1.00  0.00     0.009 A 
ATOM     69  C   UNL A   1      50.324  25.822  30.639  1.00  0.00     0.001 A 
ATOM     70  C   UNL A   1      50.578  26.564  28.355  1.00  0.00     0.001 A 
ATOM     71  C   UNL A   1      51.127  26.026  29.517  1.00  0.00     0.000 A 
ENDBRANCH  47  66
BRANCH  59  72
ATOM     72  C   UNL A   1      44.920  32.567  30.788  1.00  0.00    -0.014 A 
ATOM     73  C   UNL A   1      45.205  33.570  29.850  1.00  0.00     0.009 A 
ATOM     74  C   UNL A   1      45.010  32.863  32.156  1.00  0.00     0.009 A 
ATOM     75  C   UNL A   1      45.591  34.842  30.277  1.00  0.00     0.001 A 
ATOM     76  C   UNL A   1      45.375  34.141  32.579  1.00  0.00     0.001 A 
ATOM     77  C   UNL A   1      45.670  35.128  31.640  1.00  0.00     0.000 A 
ENDBRANCH  59  72
ENDBRANCH  33  34
ENDBRANCH  25  28
ENDBRANCH  23  24
ENDBRANCH   1  23
TORSDOF 12
ENDMDL
MODEL 3
REMARK VINA RESULT:     -11.1      2.620      4.144
REMARK SMILES CC1(C)[C@H](C(=O)NCCCCNC(=O)c2ccc(-c3c4nc(c(-c5ccccc5)c5ccc([nH]5)c(-c5ccccc5)c5nc(c(-c6ccccc6)c6ccc3[nH]6)C=C5)C=C4)cc2)[C@@H]1c1nc2ccc(F)cc2s1
REMARK SMILES IDX 10 1 9 2 8 3 7 4 5 5 6 6 4 8 1 9 2 10 3 11 63 12 64 13 65 14
REMARK SMILES IDX 73 15 66 16 72 17 67 18 71 19 68 20 69 21 70 22 11 23 12 24
REMARK SMILES IDX 13 25 14 27 15 28 16 29 62 30 17 31 61 32 18 33 19 34 20 35
REMARK SMILES IDX 55 36 21 37 60 38 54 39 56 40 22 41 59 42 53 43 52 44 23 46
REMARK SMILES IDX 45 47 30 48 44 49 31 50 34 51 43 52 57 53 32 54 33 55 42 57
REMARK SMILES IDX 58 58 35 59 24 60 25 61 29 62 26 63 28 64 27 65 46 66 47 67
REMARK SMILES IDX 51 68 48 69 50 70 49 71 36 72 37 73 41 74 38 75 40 76 39 77
REMARK H PARENT 7 7 12 26 56 45 34 56
REMARK Flexibility Score: inf
ROOT
ATOM      1  C   UNL A   1      33.617  28.699  27.202  1.00  0.00     0.023 C 
ENDROOT
BRANCH   1   2
ATOM      2  C   UNL A   1      32.165  28.521  27.627  1.00  0.00     0.023 C 
BRANCH   2   3
ATOM      3  C   UNL A   1      31.264  27.875  26.580  1.00  0.00     0.116 C 
BRANCH   3   4
ATOM      4  N   UNL A   1      31.038  26.476  26.810  1.00  0.00    -0.356 N 
ATOM      5  C   UNL A   1      31.453  25.342  26.172  1.00  0.00     0.224 C 
ATOM      6  O   UNL A   1      31.055  24.290  26.676  1.00  0.00    -0.275 OA
ATOM      7  H   UNL A   1      30.464  26.297  27.590  1.00  0.00     0.163 HD
BRANCH   5   8
ATOM      8  C   UNL A   1      32.302  25.208  24.955  1.00  0.00     0.095 C 
ATOM      9  C   UNL A   1      33.189  23.495  23.249  1.00  0.00     0.013 C 
ATOM     10  C   UNL A   1      32.037  24.380  23.686  1.00  0.00    -0.013 C 
ATOM     11  C   UNL A   1      30.711  23.699  23.482  1.00  0.00     0.013 C 
ATOM     12  C   UNL A   1      32.268  25.884  23.621  1.00  0.00     0.068 C 
BRANCH  12  13
ATOM     13  C   UNL A   1      31.352  27.050  23.299  1.00  0.00     0.098 A 
ATOM     14  N   UNL A   1      30.073  26.931  23.579  1.00  0.00    -0.241 NA
ATOM     15  S   UNL A   1      31.839  28.601  22.759  1.00  0.00    -0.118 S 
ATOM     16  C   UNL A   1      29.387  28.038  23.123  1.00  0.00     0.082 A 
ATOM     17  C   UNL A   1      30.181  29.038  22.553  1.00  0.00     0.057 A 
ATOM     18  C   UNL A   1      27.988  28.212  23.158  1.00  0.00     0.033 A 
ATOM     19  C   UNL A   1      29.620  30.175  21.951  1.00  0.00     0.060 A 
ATOM     20  C   UNL A   1      27.418  29.343  22.569  1.00  0.00     0.041 A 
ATOM     21  C   UNL A   1      28.230  30.292  21.963  1.00  0.00     0.124 A 
ATOM     22  F   UNL A   1      27.661  31.351  21.374  1.00  0.00    -0.207 F 
ENDBRANCH  12  13
ENDBRANCH   5   8
ENDBRANCH   3   4
ENDBRANCH   2   3
ENDBRANCH   1   2
BRANCH   1  23
ATOM     23  C   UNL A   1      34.018  30.121  26.821  1.00  0.00     0.116 C 
BRANCH  23  24
ATOM     24  N   UNL A   1      34.055  31.048  27.944  1.00  0.00    -0.352 N 
ATOM     25  C   UNL A   1      35.015  31.186  28.923  1.00  0.00     0.251 C 
ATOM     26  H   UNL A   1      33.287  31.661  28.014  1.00  0.00     0.163 HD
ATOM     27  O   UNL A   1      34.867  31.971  29.844  1.00  0.00    -0.269 OA
BRANCH  25  28
ATOM     28  C   UNL A   1      36.209  30.317  28.861  1.00  0.00     0.039 A 
ATOM     29  C   UNL A   1      36.978  30.315  27.695  1.00  0.00     0.014 A 
ATOM     30  C   UNL A   1      36.620  29.608  29.991  1.00  0.00     0.014 A 
ATOM     31  C   UNL A   1      38.228  29.693  27.702  1.00  0.00     0.010 A 
ATOM     32  C   UNL A   1      37.893  29.050  30.018  1.00  0.00     0.010 A 
ATOM     33  C   UNL A   1      38.719  29.115  28.884  1.00  0.00    -0.014 A 
BRANCH  33  34
ATOM     34  C   UNL A   1      40.117  28.631  28.989  1.00  0.00     0.031 A 
ATOM     35  C   UNL A   1      41.221  29.582  29.344  1.00  0.00     0.074 A 
ATOM     36  C   UNL A   1      40.404  27.357  28.653  1.00  0.00     0.049 A 
ATOM     37  N   UNL A   1      42.513  29.379  29.348  1.00  0.00    -0.248 NA
ATOM     38  C   UNL A   1      40.821  30.948  29.716  1.00  0.00     0.031 C 
ATOM     39  C   UNL A   1      39.428  26.342  28.251  1.00  0.00     0.029 A 
ATOM     40  N   UNL A   1      41.610  26.705  28.577  1.00  0.00    -0.354 N 
ATOM     41  C   UNL A   1      43.083  30.595  29.700  1.00  0.00     0.074 A 
ATOM     42  C   UNL A   1      41.997  31.539  29.866  1.00  0.00     0.031 C 
ATOM     43  C   UNL A   1      40.071  25.193  27.988  1.00  0.00     0.029 A 
ATOM     44  C   UNL A   1      41.505  25.401  28.158  1.00  0.00     0.049 A 
ATOM     45  H   UNL A   1      42.468  27.132  28.801  1.00  0.00     0.167 HD
ATOM     46  C   UNL A   1      44.390  30.897  29.881  1.00  0.00     0.031 A 
ATOM     47  C   UNL A   1      42.457  24.480  27.919  1.00  0.00     0.031 A 
ATOM     48  C   UNL A   1      45.467  29.958  29.733  1.00  0.00     0.049 A 
ATOM     49  C   UNL A   1      43.901  24.847  28.100  1.00  0.00     0.074 A 
ATOM     50  C   UNL A   1      46.817  30.151  29.970  1.00  0.00     0.029 A 
ATOM     51  N   UNL A   1      45.318  28.648  29.305  1.00  0.00    -0.354 N 
ATOM     52  N   UNL A   1      44.419  25.986  28.491  1.00  0.00    -0.248 NA
ATOM     53  C   UNL A   1      44.892  23.803  27.800  1.00  0.00     0.031 C 
ATOM     54  C   UNL A   1      47.491  28.968  29.645  1.00  0.00     0.029 A 
ATOM     55  C   UNL A   1      46.555  28.030  29.242  1.00  0.00     0.049 A 
ATOM     56  H   UNL A   1      44.460  28.221  29.079  1.00  0.00     0.167 HD
ATOM     57  C   UNL A   1      45.793  25.792  28.498  1.00  0.00     0.074 A 
ATOM     58  C   UNL A   1      46.029  24.424  28.085  1.00  0.00     0.031 C 
ATOM     59  C   UNL A   1      46.772  26.671  28.818  1.00  0.00     0.031 A 
BRANCH  46  60
ATOM     60  C   UNL A   1      44.721  32.312  30.253  1.00  0.00    -0.014 A 
ATOM     61  C   UNL A   1      44.952  33.284  29.268  1.00  0.00     0.009 A 
ATOM     62  C   UNL A   1      44.779  32.683  31.604  1.00  0.00     0.009 A 
ATOM     63  C   UNL A   1      45.271  34.594  29.630  1.00  0.00     0.001 A 
ATOM     64  C   UNL A   1      45.075  33.999  31.964  1.00  0.00     0.001 A 
ATOM     65  C   UNL A   1      45.330  34.950  30.977  1.00  0.00     0.000 A 
ENDBRANCH  46  60
BRANCH  47  66
ATOM     66  C   UNL A   1      42.074  23.115  27.477  1.00  0.00    -0.014 A 
ATOM     67  C   UNL A   1      42.102  22.781  26.114  1.00  0.00     0.009 A 
ATOM     68  C   UNL A   1      41.681  22.143  28.409  1.00  0.00     0.009 A 
ATOM     69  C   UNL A   1      41.730  21.503  25.693  1.00  0.00     0.001 A 
ATOM     70  C   UNL A   1      41.330  20.860  27.986  1.00  0.00     0.001 A 
ATOM     71  C   UNL A   1      41.348  20.542  26.630  1.00  0.00     0.000 A 
ENDBRANCH  47  66
BRANCH  59  72
ATOM     72  C   UNL A   1      48.186  26.176  28.746  1.00  0.00    -0.014 A 
ATOM     73  C   UNL A   1      48.923  26.274  27.557  1.00  0.00     0.009 A 
ATOM     74  C   UNL A   1      48.802  25.650  29.892  1.00  0.00     0.009 A 
ATOM     75  C   UNL A   1      50.247  25.835  27.512  1.00  0.00     0.001 A 
ATOM     76  C   UNL A   1      50.132  25.231  29.849  1.00  0.00     0.001 A 
ATOM     77  C   UNL A   1      50.852  25.319  28.658  1.00  0.00     0.000 A 
ENDBRANCH  59  72
ENDBRANCH  33  34
ENDBRANCH  25  28
ENDBRANCH  23  24
ENDBRANCH   1  23
TORSDOF 12
ENDMDL
