MODEL 1
REMARK VINA RESULT:     -11.6      0.000      0.000
REMARK SMILES CC(=O)Nc1c(C)nn([C@H](C)C(=O)NCCCCNC(=O)c2ccc(-c3c4nc(c(-c5ccccc5)c5ccc([nH]5)c(-c5ccccc5)c5nc(c(-c6ccccc6)c6ccc3[nH]6)C=C5)C=C4)cc2)c1C
REMARK SMILES IDX 16 1 15 2 14 3 12 4 13 5 10 7 11 8 9 9 5 10 6 11 70 12 7 13
REMARK SMILES IDX 8 14 71 15 4 16 1 17 2 18 3 19 17 21 18 22 19 23 20 24 21 26
REMARK SMILES IDX 22 27 23 28 69 29 24 30 68 31 25 32 26 33 27 34 62 35 28 36
REMARK SMILES IDX 67 37 61 38 63 39 29 40 66 41 60 42 59 43 30 45 52 46 37 47
REMARK SMILES IDX 51 48 38 49 41 50 50 51 64 52 39 53 40 54 49 56 65 57 42 58
REMARK SMILES IDX 31 59 32 60 36 61 33 62 35 63 34 64 53 65 54 66 58 67 55 68
REMARK SMILES IDX 57 69 56 70 43 71 44 72 48 73 45 74 47 75 46 76
REMARK H PARENT 14 6 4 20 19 25 63 44 41 55
REMARK Flexibility Score: inf
ROOT
ATOM      1  C   UNL A   1      36.891  21.020  24.693  1.00  0.00     0.023 C 
ENDROOT
BRANCH   1   2
ATOM      2  C   UNL A   1      35.752  21.225  25.691  1.00  0.00     0.116 C 
BRANCH   2   3
ATOM      3  N   UNL A   1      34.716  20.212  25.575  1.00  0.00    -0.354 N 
ATOM      4  C   UNL A   1      33.548  20.223  24.872  1.00  0.00     0.244 C 
ATOM      5  O   UNL A   1      32.908  19.162  24.846  1.00  0.00    -0.273 OA
ATOM      6  H   UNL A   1      34.886  19.387  26.085  1.00  0.00     0.163 HD
BRANCH   4   7
ATOM      7  C   UNL A   1      33.003  21.453  24.150  1.00  0.00     0.193 C 
ATOM      8  C   UNL A   1      32.324  21.178  22.810  1.00  0.00     0.044 C 
BRANCH   7   9
ATOM      9  N   UNL A   1      32.254  22.325  25.056  1.00  0.00    -0.255 N 
ATOM     10  C   UNL A   1      31.538  24.028  26.256  1.00  0.00     0.085 A 
ATOM     11  C   UNL A   1      30.706  22.889  26.399  1.00  0.00     0.083 A 
ATOM     12  C   UNL A   1      32.593  23.598  25.472  1.00  0.00     0.060 A 
ATOM     13  C   UNL A   1      29.490  22.708  27.231  1.00  0.00     0.071 C 
ATOM     14  N   UNL A   1      31.104  21.894  25.606  1.00  0.00    -0.175 NA
ATOM     15  C   UNL A   1      33.925  24.196  25.184  1.00  0.00     0.069 C 
BRANCH  10  16
ATOM     16  N   UNL A   1      31.377  25.242  26.891  1.00  0.00    -0.323 N 
ATOM     17  C   UNL A   1      30.306  26.461  25.009  1.00  0.00     0.114 C 
ATOM     18  C   UNL A   1      30.968  26.435  26.364  1.00  0.00     0.221 C 
ATOM     19  O   UNL A   1      31.060  27.459  27.043  1.00  0.00    -0.275 OA
ATOM     20  H   UNL A   1      31.584  25.250  27.853  1.00  0.00     0.170 HD
ENDBRANCH  10  16
ENDBRANCH   7   9
ENDBRANCH   4   7
ENDBRANCH   2   3
ENDBRANCH   1   2
BRANCH   1  21
ATOM     21  C   UNL A   1      37.837  19.850  24.984  1.00  0.00     0.023 C 
BRANCH  21  22
ATOM     22  C   UNL A   1      39.051  20.222  25.818  1.00  0.00     0.116 C 
BRANCH  22  23
ATOM     23  N   UNL A   1      40.118  19.220  25.782  1.00  0.00    -0.352 N 
ATOM     24  C   UNL A   1      41.477  19.443  25.891  1.00  0.00     0.251 C 
ATOM     25  H   UNL A   1      39.837  18.284  25.666  1.00  0.00     0.163 HD
ATOM     26  O   UNL A   1      42.301  18.610  25.511  1.00  0.00    -0.269 OA
BRANCH  24  27
ATOM     27  C   UNL A   1      41.923  20.706  26.494  1.00  0.00     0.039 A 
ATOM     28  C   UNL A   1      42.417  21.768  25.731  1.00  0.00     0.014 A 
ATOM     29  C   UNL A   1      41.753  20.827  27.869  1.00  0.00     0.014 A 
ATOM     30  C   UNL A   1      42.663  22.985  26.364  1.00  0.00     0.010 A 
ATOM     31  C   UNL A   1      41.809  22.066  28.444  1.00  0.00     0.010 A 
ATOM     32  C   UNL A   1      42.335  23.129  27.721  1.00  0.00    -0.014 A 
BRANCH  32  33
ATOM     33  C   UNL A   1      42.435  24.414  28.401  1.00  0.00     0.031 A 
ATOM     34  C   UNL A   1      41.328  25.363  28.109  1.00  0.00     0.074 A 
ATOM     35  C   UNL A   1      43.318  24.626  29.403  1.00  0.00     0.049 A 
ATOM     36  N   UNL A   1      41.408  26.496  27.495  1.00  0.00    -0.248 NA
ATOM     37  C   UNL A   1      39.950  24.953  28.423  1.00  0.00     0.031 C 
ATOM     38  C   UNL A   1      44.259  23.671  30.009  1.00  0.00     0.029 A 
ATOM     39  N   UNL A   1      43.467  25.720  30.194  1.00  0.00    -0.354 N 
ATOM     40  C   UNL A   1      40.129  27.045  27.528  1.00  0.00     0.074 A 
ATOM     41  C   UNL A   1      39.248  25.982  27.943  1.00  0.00     0.031 C 
ATOM     42  C   UNL A   1      44.677  24.140  31.206  1.00  0.00     0.029 A 
ATOM     43  C   UNL A   1      44.189  25.496  31.360  1.00  0.00     0.049 A 
ATOM     44  H   UNL A   1      43.093  26.601  29.960  1.00  0.00     0.167 HD
ATOM     45  C   UNL A   1      39.940  28.394  27.478  1.00  0.00     0.031 A 
ATOM     46  C   UNL A   1      44.362  26.359  32.391  1.00  0.00     0.031 A 
ATOM     47  C   UNL A   1      41.131  29.076  27.033  1.00  0.00     0.049 A 
ATOM     48  C   UNL A   1      44.078  27.716  31.872  1.00  0.00     0.074 A 
ATOM     49  C   UNL A   1      41.912  29.041  25.896  1.00  0.00     0.029 A 
ATOM     50  N   UNL A   1      41.908  29.662  28.003  1.00  0.00    -0.354 N 
ATOM     51  N   UNL A   1      44.815  28.300  30.971  1.00  0.00    -0.248 NA
ATOM     52  C   UNL A   1      42.721  28.220  31.995  1.00  0.00     0.031 C 
ATOM     53  C   UNL A   1      43.253  29.144  26.373  1.00  0.00     0.029 A 
ATOM     54  C   UNL A   1      43.209  29.314  27.758  1.00  0.00     0.049 A 
ATOM     55  H   UNL A   1      41.588  30.230  28.742  1.00  0.00     0.167 HD
ATOM     56  C   UNL A   1      43.906  28.911  30.119  1.00  0.00     0.074 A 
ATOM     57  C   UNL A   1      42.642  28.916  30.856  1.00  0.00     0.031 C 
ATOM     58  C   UNL A   1      44.192  29.090  28.795  1.00  0.00     0.031 A 
BRANCH  45  59
ATOM     59  C   UNL A   1      38.871  29.117  28.267  1.00  0.00    -0.014 A 
ATOM     60  C   UNL A   1      38.880  28.995  29.669  1.00  0.00     0.009 A 
ATOM     61  C   UNL A   1      37.700  29.641  27.689  1.00  0.00     0.009 A 
ATOM     62  C   UNL A   1      37.740  29.270  30.434  1.00  0.00     0.001 A 
ATOM     63  C   UNL A   1      36.573  29.957  28.454  1.00  0.00     0.001 A 
ATOM     64  C   UNL A   1      36.581  29.736  29.822  1.00  0.00     0.000 A 
ENDBRANCH  45  59
BRANCH  46  65
ATOM     65  C   UNL A   1      44.480  26.068  33.836  1.00  0.00    -0.014 A 
ATOM     66  C   UNL A   1      45.101  26.974  34.710  1.00  0.00     0.009 A 
ATOM     67  C   UNL A   1      43.731  25.020  34.404  1.00  0.00     0.009 A 
ATOM     68  C   UNL A   1      44.946  26.857  36.098  1.00  0.00     0.001 A 
ATOM     69  C   UNL A   1      43.576  24.903  35.790  1.00  0.00     0.001 A 
ATOM     70  C   UNL A   1      44.172  25.831  36.637  1.00  0.00     0.000 A 
ENDBRANCH  46  65
BRANCH  58  71
ATOM     71  C   UNL A   1      45.596  28.783  28.326  1.00  0.00    -0.014 A 
ATOM     72  C   UNL A   1      45.996  27.510  27.882  1.00  0.00     0.009 A 
ATOM     73  C   UNL A   1      46.488  29.852  28.168  1.00  0.00     0.009 A 
ATOM     74  C   UNL A   1      47.261  27.312  27.315  1.00  0.00     0.001 A 
ATOM     75  C   UNL A   1      47.742  29.659  27.586  1.00  0.00     0.001 A 
ATOM     76  C   UNL A   1      48.130  28.389  27.161  1.00  0.00     0.000 A 
ENDBRANCH  58  71
ENDBRANCH  32  33
ENDBRANCH  24  27
ENDBRANCH  22  23
ENDBRANCH  21  22
ENDBRANCH   1  21
TORSDOF 13
ENDMDL
MODEL 2
REMARK VINA RESULT:     -11.4      3.996      9.094
REMARK SMILES CC(=O)Nc1c(C)nn([C@H](C)C(=O)NCCCCNC(=O)c2ccc(-c3c4nc(c(-c5ccccc5)c5ccc([nH]5)c(-c5ccccc5)c5nc(c(-c6ccccc6)c6ccc3[nH]6)C=C5)C=C4)cc2)c1C
REMARK SMILES IDX 16 1 15 2 14 3 12 4 13 5 10 7 11 8 9 9 5 10 6 11 70 12 7 13
REMARK SMILES IDX 8 14 71 15 4 16 1 17 2 18 3 19 17 21 18 22 19 23 20 24 21 26
REMARK SMILES IDX 22 27 23 28 69 29 24 30 68 31 25 32 26 33 27 34 62 35 28 36
REMARK SMILES IDX 67 37 61 38 63 39 29 40 66 41 60 42 59 43 30 45 52 46 37 47
REMARK SMILES IDX 51 48 38 49 41 50 50 51 64 52 39 53 40 54 49 56 65 57 42 58
REMARK SMILES IDX 31 59 32 60 36 61 33 62 35 63 34 64 53 65 54 66 58 67 55 68
REMARK SMILES IDX 57 69 56 70 43 71 44 72 48 73 45 74 47 75 46 76
REMARK H PARENT 14 6 4 20 19 25 63 44 41 55
REMARK Flexibility Score: inf
ROOT
ATOM      1  C   UNL A   1      31.578  30.590  25.783  1.00  0.00     0.023 C 
ENDROOT
BRANCH   1   2
ATOM      2  C   UNL A   1      32.954  29.930  25.865  1.00  0.00     0.116 C 
BRANCH   2   3
ATOM      3  N   UNL A   1      33.535  29.681  24.557  1.00  0.00    -0.354 N 
ATOM      4  C   UNL A   1      33.174  28.792  23.587  1.00  0.00     0.244 C 
ATOM      5  O   UNL A   1      33.769  28.883  22.504  1.00  0.00    -0.273 OA
ATOM      6  H   UNL A   1      34.313  30.243  24.335  1.00  0.00     0.163 HD
BRANCH   4   7
ATOM      7  C   UNL A   1      32.112  27.712  23.779  1.00  0.00     0.193 C 
ATOM      8  C   UNL A   1      31.164  27.511  22.598  1.00  0.00     0.044 C 
BRANCH   7   9
ATOM      9  N   UNL A   1      32.682  26.483  24.330  1.00  0.00    -0.255 N 
ATOM     10  C   UNL A   1      33.189  24.766  25.614  1.00  0.00     0.085 A 
ATOM     11  C   UNL A   1      33.869  24.719  24.372  1.00  0.00     0.083 A 
ATOM     12  C   UNL A   1      32.518  25.975  25.604  1.00  0.00     0.060 A 
ATOM     13  C   UNL A   1      34.844  23.720  23.868  1.00  0.00     0.071 C 
ATOM     14  N   UNL A   1      33.492  25.719  23.574  1.00  0.00    -0.175 NA
ATOM     15  C   UNL A   1      31.859  26.755  26.687  1.00  0.00     0.069 C 
BRANCH  10  16
ATOM     16  N   UNL A   1      33.306  23.856  26.645  1.00  0.00    -0.323 N 
ATOM     17  C   UNL A   1      31.090  22.765  26.380  1.00  0.00     0.114 C 
ATOM     18  C   UNL A   1      32.358  23.017  27.157  1.00  0.00     0.221 C 
ATOM     19  O   UNL A   1      32.592  22.404  28.200  1.00  0.00    -0.275 OA
ATOM     20  H   UNL A   1      34.194  23.804  27.068  1.00  0.00     0.170 HD
ENDBRANCH  10  16
ENDBRANCH   7   9
ENDBRANCH   4   7
ENDBRANCH   2   3
ENDBRANCH   1   2
BRANCH   1  21
ATOM     21  C   UNL A   1      31.320  31.731  26.773  1.00  0.00     0.023 C 
BRANCH  21  22
ATOM     22  C   UNL A   1      32.572  32.473  27.208  1.00  0.00     0.116 C 
BRANCH  22  23
ATOM     23  N   UNL A   1      32.331  33.873  27.565  1.00  0.00    -0.352 N 
ATOM     24  C   UNL A   1      32.973  34.608  28.542  1.00  0.00     0.251 C 
ATOM     25  H   UNL A   1      31.634  34.342  27.053  1.00  0.00     0.163 HD
ATOM     26  O   UNL A   1      32.484  35.642  29.000  1.00  0.00    -0.269 OA
BRANCH  24  27
ATOM     27  C   UNL A   1      34.279  34.132  29.018  1.00  0.00     0.039 A 
ATOM     28  C   UNL A   1      34.421  33.367  30.179  1.00  0.00     0.014 A 
ATOM     29  C   UNL A   1      35.372  34.414  28.206  1.00  0.00     0.014 A 
ATOM     30  C   UNL A   1      35.669  32.820  30.468  1.00  0.00     0.010 A 
ATOM     31  C   UNL A   1      36.536  33.722  28.387  1.00  0.00     0.010 A 
ATOM     32  C   UNL A   1      36.719  32.987  29.552  1.00  0.00    -0.014 A 
BRANCH  32  33
ATOM     33  C   UNL A   1      38.003  32.322  29.727  1.00  0.00     0.031 A 
ATOM     34  C   UNL A   1      38.021  30.886  29.342  1.00  0.00     0.074 A 
ATOM     35  C   UNL A   1      39.139  33.014  29.976  1.00  0.00     0.049 A 
ATOM     36  N   UNL A   1      38.203  29.869  30.116  1.00  0.00    -0.248 NA
ATOM     37  C   UNL A   1      37.673  30.526  27.958  1.00  0.00     0.031 C 
ATOM     38  C   UNL A   1      39.319  34.471  30.068  1.00  0.00     0.029 A 
ATOM     39  N   UNL A   1      40.415  32.557  30.066  1.00  0.00    -0.354 N 
ATOM     40  C   UNL A   1      38.203  28.749  29.288  1.00  0.00     0.074 A 
ATOM     41  C   UNL A   1      37.695  29.193  28.015  1.00  0.00     0.031 C 
ATOM     42  C   UNL A   1      40.630  34.777  29.942  1.00  0.00     0.029 A 
ATOM     43  C   UNL A   1      41.389  33.543  29.953  1.00  0.00     0.049 A 
ATOM     44  H   UNL A   1      40.631  31.606  30.201  1.00  0.00     0.167 HD
ATOM     45  C   UNL A   1      38.877  27.617  29.637  1.00  0.00     0.031 A 
ATOM     46  C   UNL A   1      42.729  33.357  29.858  1.00  0.00     0.031 A 
ATOM     47  C   UNL A   1      39.228  27.622  31.036  1.00  0.00     0.049 A 
ATOM     48  C   UNL A   1      43.016  32.000  30.376  1.00  0.00     0.074 A 
ATOM     49  C   UNL A   1      38.524  27.689  32.221  1.00  0.00     0.029 A 
ATOM     50  N   UNL A   1      40.522  27.963  31.349  1.00  0.00    -0.354 N 
ATOM     51  N   UNL A   1      42.835  31.663  31.620  1.00  0.00    -0.248 NA
ATOM     52  C   UNL A   1      43.041  30.901  29.426  1.00  0.00     0.031 C 
ATOM     53  C   UNL A   1      39.308  28.536  33.062  1.00  0.00     0.029 A 
ATOM     54  C   UNL A   1      40.475  28.870  32.373  1.00  0.00     0.049 A 
ATOM     55  H   UNL A   1      41.336  27.618  30.915  1.00  0.00     0.167 HD
ATOM     56  C   UNL A   1      42.277  30.394  31.561  1.00  0.00     0.074 A 
ATOM     57  C   UNL A   1      42.523  29.936  30.194  1.00  0.00     0.031 C 
ATOM     58  C   UNL A   1      41.418  29.957  32.530  1.00  0.00     0.031 A 
BRANCH  45  59
ATOM     59  C   UNL A   1      39.622  26.750  28.646  1.00  0.00    -0.014 A 
ATOM     60  C   UNL A   1      40.598  27.356  27.832  1.00  0.00     0.009 A 
ATOM     61  C   UNL A   1      39.197  25.464  28.265  1.00  0.00     0.009 A 
ATOM     62  C   UNL A   1      41.033  26.757  26.643  1.00  0.00     0.001 A 
ATOM     63  C   UNL A   1      39.661  24.844  27.101  1.00  0.00     0.001 A 
ATOM     64  C   UNL A   1      40.551  25.507  26.271  1.00  0.00     0.000 A 
ENDBRANCH  45  59
BRANCH  46  65
ATOM     65  C   UNL A   1      43.724  34.148  29.104  1.00  0.00    -0.014 A 
ATOM     66  C   UNL A   1      43.616  34.316  27.715  1.00  0.00     0.009 A 
ATOM     67  C   UNL A   1      44.631  34.976  29.794  1.00  0.00     0.009 A 
ATOM     68  C   UNL A   1      44.359  35.300  27.047  1.00  0.00     0.001 A 
ATOM     69  C   UNL A   1      45.373  35.958  29.128  1.00  0.00     0.001 A 
ATOM     70  C   UNL A   1      45.226  36.130  27.756  1.00  0.00     0.000 A 
ENDBRANCH  46  65
BRANCH  58  71
ATOM     71  C   UNL A   1      41.246  30.813  33.763  1.00  0.00    -0.014 A 
ATOM     72  C   UNL A   1      40.336  31.883  33.836  1.00  0.00     0.009 A 
ATOM     73  C   UNL A   1      41.899  30.417  34.939  1.00  0.00     0.009 A 
ATOM     74  C   UNL A   1      40.104  32.548  35.045  1.00  0.00     0.001 A 
ATOM     75  C   UNL A   1      41.653  31.068  36.149  1.00  0.00     0.001 A 
ATOM     76  C   UNL A   1      40.758  32.135  36.203  1.00  0.00     0.000 A 
ENDBRANCH  58  71
ENDBRANCH  32  33
ENDBRANCH  24  27
ENDBRANCH  22  23
ENDBRANCH  21  22
ENDBRANCH   1  21
TORSDOF 13
ENDMDL
MODEL 3
REMARK VINA RESULT:     -11.1      3.378      7.567
REMARK SMILES CC(=O)Nc1c(C)nn([C@H](C)C(=O)NCCCCNC(=O)c2ccc(-c3c4nc(c(-c5ccccc5)c5ccc([nH]5)c(-c5ccccc5)c5nc(c(-c6ccccc6)c6ccc3[nH]6)C=C5)C=C4)cc2)c1C
REMARK SMILES IDX 16 1 15 2 14 3 12 4 13 5 10 7 11 8 9 9 5 10 6 11 70 12 7 13
REMARK SMILES IDX 8 14 71 15 4 16 1 17 2 18 3 19 17 21 18 22 19 23 20 24 21 26
REMARK SMILES IDX 22 27 23 28 69 29 24 30 68 31 25 32 26 33 27 34 62 35 28 36
REMARK SMILES IDX 67 37 61 38 63 39 29 40 66 41 60 42 59 43 30 45 52 46 37 47
REMARK SMILES IDX 51 48 38 49 41 50 50 51 64 52 39 53 40 54 49 56 65 57 42 58
REMARK SMILES IDX 31 59 32 60 36 61 33 62 35 63 34 64 53 65 54 66 58 67 55 68
REMARK SMILES IDX 57 69 56 70 43 71 44 72 48 73 45 74 47 75 46 76
REMARK H PARENT 14 6 4 20 19 25 63 44 41 55
REMARK Flexibility Score: inf
ROOT
ATOM      1  C   UNL A   1      32.804  28.783  27.210  1.00  0.00     0.023 C 
ENDROOT
BRANCH   1   2
ATOM      2  C   UNL A   1      32.723  27.400  26.564  1.00  0.00     0.116 C 
BRANCH   2   3
ATOM      3  N   UNL A   1      31.455  26.737  26.819  1.00  0.00    -0.354 N 
ATOM      4  C   UNL A   1      30.607  26.098  25.962  1.00  0.00     0.244 C 
ATOM      5  O   UNL A   1      29.650  25.501  26.474  1.00  0.00    -0.273 OA
ATOM      6  H   UNL A   1      31.162  26.750  27.759  1.00  0.00     0.163 HD
BRANCH   4   7
ATOM      7  C   UNL A   1      30.774  26.100  24.445  1.00  0.00     0.193 C 
ATOM      8  C   UNL A   1      30.644  24.735  23.771  1.00  0.00     0.044 C 
BRANCH   7   9
ATOM      9  N   UNL A   1      30.005  27.175  23.817  1.00  0.00    -0.255 N 
ATOM     10  C   UNL A   1      29.385  28.972  22.705  1.00  0.00     0.085 A 
ATOM     11  C   UNL A   1      28.275  28.259  23.224  1.00  0.00     0.083 A 
ATOM     12  C   UNL A   1      30.493  28.310  23.201  1.00  0.00     0.060 A 
ATOM     13  C   UNL A   1      26.827  28.571  23.133  1.00  0.00     0.071 C 
ATOM     14  N   UNL A   1      28.660  27.132  23.824  1.00  0.00    -0.175 NA
ATOM     15  C   UNL A   1      31.930  28.693  23.270  1.00  0.00     0.069 C 
BRANCH  10  16
ATOM     16  N   UNL A   1      29.336  30.148  21.986  1.00  0.00    -0.323 N 
ATOM     17  C   UNL A   1      28.803  31.672  23.875  1.00  0.00     0.114 C 
ATOM     18  C   UNL A   1      28.938  31.388  22.399  1.00  0.00     0.221 C 
ATOM     19  O   UNL A   1      28.785  32.284  21.568  1.00  0.00    -0.275 OA
ATOM     20  H   UNL A   1      29.628  30.086  21.048  1.00  0.00     0.170 HD
ENDBRANCH  10  16
ENDBRANCH   7   9
ENDBRANCH   4   7
ENDBRANCH   2   3
ENDBRANCH   1   2
BRANCH   1  21
ATOM     21  C   UNL A   1      33.946  29.684  26.726  1.00  0.00     0.023 C 
BRANCH  21  22
ATOM     22  C   UNL A   1      35.280  29.417  27.403  1.00  0.00     0.116 C 
BRANCH  22  23
ATOM     23  N   UNL A   1      35.378  29.982  28.750  1.00  0.00    -0.352 N 
ATOM     24  C   UNL A   1      36.339  29.705  29.703  1.00  0.00     0.251 C 
ATOM     25  H   UNL A   1      34.683  30.631  29.006  1.00  0.00     0.163 HD
ATOM     26  O   UNL A   1      36.155  29.951  30.896  1.00  0.00    -0.269 OA
BRANCH  24  27
ATOM     27  C   UNL A   1      37.608  29.119  29.254  1.00  0.00     0.039 A 
ATOM     28  C   UNL A   1      38.305  29.601  28.142  1.00  0.00     0.014 A 
ATOM     29  C   UNL A   1      38.131  28.100  30.043  1.00  0.00     0.014 A 
ATOM     30  C   UNL A   1      39.578  29.097  27.884  1.00  0.00     0.010 A 
ATOM     31  C   UNL A   1      39.445  27.751  29.901  1.00  0.00     0.010 A 
ATOM     32  C   UNL A   1      40.149  28.184  28.784  1.00  0.00    -0.014 A 
BRANCH  32  33
ATOM     33  C   UNL A   1      41.526  27.730  28.647  1.00  0.00     0.031 A 
ATOM     34  C   UNL A   1      41.697  26.485  27.851  1.00  0.00     0.074 A 
ATOM     35  C   UNL A   1      42.574  28.509  28.996  1.00  0.00     0.049 A 
ATOM     36  N   UNL A   1      42.120  25.339  28.268  1.00  0.00    -0.248 NA
ATOM     37  C   UNL A   1      41.227  26.474  26.456  1.00  0.00     0.031 C 
ATOM     38  C   UNL A   1      42.558  29.890  29.504  1.00  0.00     0.029 A 
ATOM     39  N   UNL A   1      43.903  28.274  28.841  1.00  0.00    -0.354 N 
ATOM     40  C   UNL A   1      42.172  24.515  27.147  1.00  0.00     0.074 A 
ATOM     41  C   UNL A   1      41.444  25.204  26.110  1.00  0.00     0.031 C 
ATOM     42  C   UNL A   1      43.784  30.441  29.367  1.00  0.00     0.029 A 
ATOM     43  C   UNL A   1      44.705  29.405  28.946  1.00  0.00     0.049 A 
ATOM     44  H   UNL A   1      44.268  27.376  28.667  1.00  0.00     0.167 HD
ATOM     45  C   UNL A   1      43.039  23.465  27.085  1.00  0.00     0.031 A 
ATOM     46  C   UNL A   1      46.034  29.489  28.690  1.00  0.00     0.031 A 
ATOM     47  C   UNL A   1      43.564  23.137  28.388  1.00  0.00     0.049 A 
ATOM     48  C   UNL A   1      46.575  28.112  28.754  1.00  0.00     0.074 A 
ATOM     49  C   UNL A   1      43.017  22.745  29.593  1.00  0.00     0.029 A 
ATOM     50  N   UNL A   1      44.826  23.596  28.680  1.00  0.00    -0.354 N 
ATOM     51  N   UNL A   1      46.607  27.413  29.852  1.00  0.00    -0.248 NA
ATOM     52  C   UNL A   1      46.632  27.347  27.520  1.00  0.00     0.031 C 
ATOM     53  C   UNL A   1      43.775  23.445  30.580  1.00  0.00     0.029 A 
ATOM     54  C   UNL A   1      44.784  24.156  29.929  1.00  0.00     0.049 A 
ATOM     55  H   UNL A   1      45.617  23.533  28.098  1.00  0.00     0.167 HD
ATOM     56  C   UNL A   1      46.231  26.135  29.463  1.00  0.00     0.074 A 
ATOM     57  C   UNL A   1      46.360  26.130  28.005  1.00  0.00     0.031 C 
ATOM     58  C   UNL A   1      45.575  25.301  30.324  1.00  0.00     0.031 A 
BRANCH  45  59
ATOM     59  C   UNL A   1      43.764  23.055  25.822  1.00  0.00    -0.014 A 
ATOM     60  C   UNL A   1      43.743  21.697  25.453  1.00  0.00     0.009 A 
ATOM     61  C   UNL A   1      44.707  23.869  25.168  1.00  0.00     0.009 A 
ATOM     62  C   UNL A   1      44.689  21.165  24.568  1.00  0.00     0.001 A 
ATOM     63  C   UNL A   1      45.627  23.350  24.253  1.00  0.00     0.001 A 
ATOM     64  C   UNL A   1      45.642  21.991  23.981  1.00  0.00     0.000 A 
ENDBRANCH  45  59
BRANCH  46  65
ATOM     65  C   UNL A   1      46.801  30.620  28.128  1.00  0.00    -0.014 A 
ATOM     66  C   UNL A   1      46.455  31.187  26.891  1.00  0.00     0.009 A 
ATOM     67  C   UNL A   1      47.706  31.329  28.941  1.00  0.00     0.009 A 
ATOM     68  C   UNL A   1      46.967  32.433  26.500  1.00  0.00     0.001 A 
ATOM     69  C   UNL A   1      48.216  32.572  28.552  1.00  0.00     0.001 A 
ATOM     70  C   UNL A   1      47.835  33.131  27.337  1.00  0.00     0.000 A 
ENDBRANCH  46  65
BRANCH  58  71
ATOM     71  C   UNL A   1      45.446  25.732  31.767  1.00  0.00    -0.014 A 
ATOM     72  C   UNL A   1      44.368  26.499  32.246  1.00  0.00     0.009 A 
ATOM     73  C   UNL A   1      46.349  25.203  32.699  1.00  0.00     0.009 A 
ATOM     74  C   UNL A   1      44.213  26.744  33.615  1.00  0.00     0.001 A 
ATOM     75  C   UNL A   1      46.184  25.432  34.066  1.00  0.00     0.001 A 
ATOM     76  C   UNL A   1      45.118  26.204  34.525  1.00  0.00     0.000 A 
ENDBRANCH  58  71
ENDBRANCH  32  33
ENDBRANCH  24  27
ENDBRANCH  22  23
ENDBRANCH  21  22
ENDBRANCH   1  21
TORSDOF 13
ENDMDL
