MODEL 1
REMARK VINA RESULT:     -10.8      0.000      0.000
REMARK SMILES O=C(NCCCCNC(=O)[C@@H]1CC[C@@H](CS(=O)(=O)c2cccc(F)c2)O1)c1ccc(-c2c3nc(c(-c4ccccc4)c4ccc([nH]4)c(-c4ccccc4)c4nc(c(-c5ccccc5)c5ccc2[nH]5)C=C4)C=C3)cc1
REMARK SMILES IDX 6 1 5 2 4 3 3 4 1 5 2 6 27 8 28 9 74 10 29 11 73 12 30 13
REMARK SMILES IDX 31 14 32 15 67 16 33 17 72 18 66 19 68 20 34 21 71 22 65 23
REMARK SMILES IDX 64 24 35 26 57 27 42 28 56 29 43 30 46 31 55 32 69 33 44 34
REMARK SMILES IDX 45 35 54 37 70 38 47 39 36 40 37 41 41 42 38 43 40 44 39 45
REMARK SMILES IDX 58 46 59 47 63 48 60 49 62 50 61 51 48 52 49 53 53 54 50 55
REMARK SMILES IDX 52 56 51 57 7 58 8 59 9 60 10 62 11 63 12 64 26 65 13 66
REMARK SMILES IDX 14 67 15 68 16 69 17 70 18 71 19 72 20 73 25 74 21 75 23 76
REMARK SMILES IDX 22 77 24 78
REMARK H PARENT 3 7 68 25 46 36 8 61
REMARK Flexibility Score: inf
ROOT
ATOM      1  C   UNL A   1      31.792  28.677  26.043  1.00  0.00     0.023 C 
ENDROOT
BRANCH   1   2
ATOM      2  C   UNL A   1      33.309  28.555  25.918  1.00  0.00     0.023 C 
BRANCH   2   3
ATOM      3  C   UNL A   1      34.060  28.762  27.222  1.00  0.00     0.116 C 
BRANCH   3   4
ATOM      4  N   UNL A   1      33.879  30.095  27.775  1.00  0.00    -0.352 N 
ATOM      5  O   UNL A   1      34.477  31.914  28.979  1.00  0.00    -0.269 OA
ATOM      6  C   UNL A   1      34.793  30.842  28.474  1.00  0.00     0.251 C 
ATOM      7  H   UNL A   1      32.999  30.510  27.630  1.00  0.00     0.163 HD
BRANCH   6   8
ATOM      8  C   UNL A   1      36.157  30.310  28.634  1.00  0.00     0.039 A 
ATOM      9  C   UNL A   1      37.080  30.430  27.592  1.00  0.00     0.014 A 
ATOM     10  C   UNL A   1      36.495  29.657  29.820  1.00  0.00     0.014 A 
ATOM     11  C   UNL A   1      38.314  29.807  27.697  1.00  0.00     0.010 A 
ATOM     12  C   UNL A   1      37.764  29.096  29.954  1.00  0.00     0.010 A 
ATOM     13  C   UNL A   1      38.676  29.159  28.889  1.00  0.00    -0.014 A 
BRANCH  13  14
ATOM     14  C   UNL A   1      40.063  28.671  29.045  1.00  0.00     0.031 A 
ATOM     15  C   UNL A   1      40.466  27.299  28.598  1.00  0.00     0.074 A 
ATOM     16  C   UNL A   1      40.958  29.507  29.602  1.00  0.00     0.049 A 
ATOM     17  N   UNL A   1      41.641  26.729  28.675  1.00  0.00    -0.248 NA
ATOM     18  C   UNL A   1      39.423  26.453  27.996  1.00  0.00     0.031 C 
ATOM     19  C   UNL A   1      40.662  30.862  30.083  1.00  0.00     0.029 A 
ATOM     20  N   UNL A   1      42.296  29.354  29.848  1.00  0.00    -0.354 N 
ATOM     21  C   UNL A   1      41.479  25.453  28.153  1.00  0.00     0.074 A 
ATOM     22  C   UNL A   1      40.089  25.326  27.770  1.00  0.00     0.031 C 
ATOM     23  C   UNL A   1      41.792  31.427  30.530  1.00  0.00     0.029 A 
ATOM     24  C   UNL A   1      42.874  30.457  30.428  1.00  0.00     0.049 A 
ATOM     25  H   UNL A   1      42.795  28.534  29.630  1.00  0.00     0.167 HD
ATOM     26  C   UNL A   1      42.410  24.480  28.015  1.00  0.00     0.031 A 
ATOM     27  C   UNL A   1      44.131  30.658  30.856  1.00  0.00     0.031 A 
ATOM     28  C   UNL A   1      43.792  24.622  28.392  1.00  0.00     0.049 A 
ATOM     29  C   UNL A   1      45.128  29.550  30.710  1.00  0.00     0.074 A 
ATOM     30  C   UNL A   1      44.825  23.713  28.237  1.00  0.00     0.029 A 
ATOM     31  N   UNL A   1      44.332  25.740  29.007  1.00  0.00    -0.354 N 
ATOM     32  N   UNL A   1      44.969  28.366  30.170  1.00  0.00    -0.248 NA
ATOM     33  C   UNL A   1      46.474  29.803  31.238  1.00  0.00     0.031 C 
ATOM     34  C   UNL A   1      45.979  24.263  28.804  1.00  0.00     0.029 A 
ATOM     35  C   UNL A   1      45.675  25.531  29.271  1.00  0.00     0.049 A 
ATOM     36  H   UNL A   1      43.834  26.561  29.223  1.00  0.00     0.167 HD
ATOM     37  C   UNL A   1      46.195  27.731  30.294  1.00  0.00     0.074 A 
ATOM     38  C   UNL A   1      47.094  28.672  30.931  1.00  0.00     0.031 C 
ATOM     39  C   UNL A   1      46.542  26.476  29.923  1.00  0.00     0.031 A 
BRANCH  26  40
ATOM     40  C   UNL A   1      41.970  23.159  27.452  1.00  0.00    -0.014 A 
ATOM     41  C   UNL A   1      42.180  22.833  26.104  1.00  0.00     0.009 A 
ATOM     42  C   UNL A   1      41.414  22.194  28.308  1.00  0.00     0.009 A 
ATOM     43  C   UNL A   1      41.830  21.570  25.622  1.00  0.00     0.001 A 
ATOM     44  C   UNL A   1      41.082  20.927  27.826  1.00  0.00     0.001 A 
ATOM     45  C   UNL A   1      41.287  20.616  26.482  1.00  0.00     0.000 A 
ENDBRANCH  26  40
BRANCH  27  46
ATOM     46  C   UNL A   1      44.495  31.943  31.501  1.00  0.00    -0.014 A 
ATOM     47  C   UNL A   1      44.354  32.115  32.885  1.00  0.00     0.009 A 
ATOM     48  C   UNL A   1      45.006  33.001  30.731  1.00  0.00     0.009 A 
ATOM     49  C   UNL A   1      44.697  33.330  33.482  1.00  0.00     0.001 A 
ATOM     50  C   UNL A   1      45.375  34.203  31.334  1.00  0.00     0.001 A 
ATOM     51  C   UNL A   1      45.212  34.371  32.708  1.00  0.00     0.000 A 
ENDBRANCH  27  46
BRANCH  39  52
ATOM     52  C   UNL A   1      47.956  26.061  30.204  1.00  0.00    -0.014 A 
ATOM     53  C   UNL A   1      48.355  25.710  31.503  1.00  0.00     0.009 A 
ATOM     54  C   UNL A   1      48.891  26.010  29.161  1.00  0.00     0.009 A 
ATOM     55  C   UNL A   1      49.678  25.344  31.756  1.00  0.00     0.001 A 
ATOM     56  C   UNL A   1      50.207  25.620  29.414  1.00  0.00     0.001 A 
ATOM     57  C   UNL A   1      50.601  25.297  30.712  1.00  0.00     0.000 A 
ENDBRANCH  39  52
ENDBRANCH  13  14
ENDBRANCH   6   8
ENDBRANCH   3   4
ENDBRANCH   2   3
ENDBRANCH   1   2
BRANCH   1  58
ATOM     58  C   UNL A   1      31.014  27.459  25.542  1.00  0.00     0.116 C 
BRANCH  58  59
ATOM     59  N   UNL A   1      31.070  26.383  26.507  1.00  0.00    -0.354 N 
ATOM     60  C   UNL A   1      31.336  25.059  26.291  1.00  0.00     0.249 C 
ATOM     61  H   UNL A   1      30.893  26.637  27.441  1.00  0.00     0.163 HD
ATOM     62  O   UNL A   1      31.217  24.291  27.246  1.00  0.00    -0.272 OA
BRANCH  60  63
ATOM     63  C   UNL A   1      31.831  24.598  24.901  1.00  0.00     0.207 C 
ATOM     64  C   UNL A   1      30.736  24.177  23.932  1.00  0.00     0.045 C 
ATOM     65  O   UNL A   1      32.706  23.461  25.004  1.00  0.00    -0.364 OA
ATOM     66  C   UNL A   1      31.343  23.006  23.202  1.00  0.00     0.036 C 
ATOM     67  C   UNL A   1      32.120  22.346  24.323  1.00  0.00     0.134 C 
BRANCH  67  68
ATOM     68  C   UNL A   1      33.191  21.416  23.803  1.00  0.00     0.174 C 
BRANCH  68  69
ATOM     69  S   UNL A   1      34.017  20.509  25.083  1.00  0.00     0.181 S 
ATOM     70  O   UNL A   1      33.273  20.724  26.311  1.00  0.00    -0.224 OA
ATOM     71  O   UNL A   1      34.224  19.163  24.583  1.00  0.00    -0.224 OA
BRANCH  69  72
ATOM     72  C   UNL A   1      35.640  21.196  25.303  1.00  0.00     0.070 A 
ATOM     73  C   UNL A   1      36.785  20.441  25.022  1.00  0.00     0.020 A 
ATOM     74  C   UNL A   1      35.753  22.516  25.745  1.00  0.00     0.059 A 
ATOM     75  C   UNL A   1      38.047  21.030  25.127  1.00  0.00     0.004 A 
ATOM     76  C   UNL A   1      37.017  23.075  25.875  1.00  0.00     0.124 A 
ATOM     77  C   UNL A   1      38.162  22.350  25.558  1.00  0.00     0.039 A 
ATOM     78  F   UNL A   1      37.139  24.334  26.313  1.00  0.00    -0.207 F 
ENDBRANCH  69  72
ENDBRANCH  68  69
ENDBRANCH  67  68
ENDBRANCH  60  63
ENDBRANCH  58  59
ENDBRANCH   1  58
TORSDOF 14
ENDMDL
MODEL 2
REMARK VINA RESULT:     -10.7      0.358      5.960
REMARK SMILES O=C(NCCCCNC(=O)[C@@H]1CC[C@@H](CS(=O)(=O)c2cccc(F)c2)O1)c1ccc(-c2c3nc(c(-c4ccccc4)c4ccc([nH]4)c(-c4ccccc4)c4nc(c(-c5ccccc5)c5ccc2[nH]5)C=C4)C=C3)cc1
REMARK SMILES IDX 6 1 5 2 4 3 3 4 1 5 2 6 27 8 28 9 74 10 29 11 73 12 30 13
REMARK SMILES IDX 31 14 32 15 67 16 33 17 72 18 66 19 68 20 34 21 71 22 65 23
REMARK SMILES IDX 64 24 35 26 57 27 42 28 56 29 43 30 46 31 55 32 69 33 44 34
REMARK SMILES IDX 45 35 54 37 70 38 47 39 36 40 37 41 41 42 38 43 40 44 39 45
REMARK SMILES IDX 58 46 59 47 63 48 60 49 62 50 61 51 48 52 49 53 53 54 50 55
REMARK SMILES IDX 52 56 51 57 7 58 8 59 9 60 10 62 11 63 12 64 26 65 13 66
REMARK SMILES IDX 14 67 15 68 16 69 17 70 18 71 19 72 20 73 25 74 21 75 23 76
REMARK SMILES IDX 22 77 24 78
REMARK H PARENT 3 7 68 25 46 36 8 61
REMARK Flexibility Score: inf
ROOT
ATOM      1  C   UNL A   1      33.064  27.398  25.192  1.00  0.00     0.023 C 
ENDROOT
BRANCH   1   2
ATOM      2  C   UNL A   1      33.991  28.488  25.727  1.00  0.00     0.023 C 
BRANCH   2   3
ATOM      3  C   UNL A   1      33.984  28.624  27.240  1.00  0.00     0.116 C 
BRANCH   3   4
ATOM      4  N   UNL A   1      33.756  29.990  27.685  1.00  0.00    -0.352 N 
ATOM      5  O   UNL A   1      34.278  31.912  28.756  1.00  0.00    -0.269 OA
ATOM      6  C   UNL A   1      34.634  30.814  28.341  1.00  0.00     0.251 C 
ATOM      7  H   UNL A   1      32.867  30.367  27.493  1.00  0.00     0.163 HD
BRANCH   6   8
ATOM      8  C   UNL A   1      36.008  30.336  28.567  1.00  0.00     0.039 A 
ATOM      9  C   UNL A   1      36.967  30.465  27.558  1.00  0.00     0.014 A 
ATOM     10  C   UNL A   1      36.322  29.724  29.781  1.00  0.00     0.014 A 
ATOM     11  C   UNL A   1      38.217  29.889  27.726  1.00  0.00     0.010 A 
ATOM     12  C   UNL A   1      37.604  29.212  29.978  1.00  0.00     0.010 A 
ATOM     13  C   UNL A   1      38.554  29.283  28.947  1.00  0.00    -0.014 A 
BRANCH  13  14
ATOM     14  C   UNL A   1      39.950  28.849  29.169  1.00  0.00     0.031 A 
ATOM     15  C   UNL A   1      40.963  29.758  29.797  1.00  0.00     0.074 A 
ATOM     16  C   UNL A   1      40.282  27.602  28.790  1.00  0.00     0.049 A 
ATOM     17  N   UNL A   1      42.224  29.521  30.050  1.00  0.00    -0.248 NA
ATOM     18  C   UNL A   1      40.513  31.104  30.186  1.00  0.00     0.031 C 
ATOM     19  C   UNL A   1      39.370  26.642  28.157  1.00  0.00     0.029 A 
ATOM     20  N   UNL A   1      41.464  26.918  28.889  1.00  0.00    -0.354 N 
ATOM     21  C   UNL A   1      42.727  30.689  30.606  1.00  0.00     0.074 A 
ATOM     22  C   UNL A   1      41.636  31.641  30.646  1.00  0.00     0.031 C 
ATOM     23  C   UNL A   1      40.017  25.485  27.960  1.00  0.00     0.029 A 
ATOM     24  C   UNL A   1      41.399  25.641  28.391  1.00  0.00     0.049 A 
ATOM     25  H   UNL A   1      42.281  27.306  29.280  1.00  0.00     0.167 HD
ATOM     26  C   UNL A   1      43.986  30.939  31.036  1.00  0.00     0.031 A 
ATOM     27  C   UNL A   1      42.353  24.703  28.269  1.00  0.00     0.031 A 
ATOM     28  C   UNL A   1      45.060  29.981  30.998  1.00  0.00     0.049 A 
ATOM     29  C   UNL A   1      43.741  25.024  28.733  1.00  0.00     0.074 A 
ATOM     30  C   UNL A   1      46.356  30.121  31.464  1.00  0.00     0.029 A 
ATOM     31  N   UNL A   1      44.965  28.709  30.455  1.00  0.00    -0.354 N 
ATOM     32  N   UNL A   1      44.187  26.118  29.300  1.00  0.00    -0.248 NA
ATOM     33  C   UNL A   1      44.758  23.984  28.532  1.00  0.00     0.031 C 
ATOM     34  C   UNL A   1      47.059  28.951  31.158  1.00  0.00     0.029 A 
ATOM     35  C   UNL A   1      46.188  28.067  30.542  1.00  0.00     0.049 A 
ATOM     36  H   UNL A   1      44.148  28.321  30.067  1.00  0.00     0.167 HD
ATOM     37  C   UNL A   1      45.538  25.900  29.524  1.00  0.00     0.074 A 
ATOM     38  C   UNL A   1      45.830  24.558  29.061  1.00  0.00     0.031 C 
ATOM     39  C   UNL A   1      46.457  26.739  30.057  1.00  0.00     0.031 A 
BRANCH  26  40
ATOM     40  C   UNL A   1      44.290  32.311  31.566  1.00  0.00    -0.014 A 
ATOM     41  C   UNL A   1      44.142  32.617  32.927  1.00  0.00     0.009 A 
ATOM     42  C   UNL A   1      44.814  33.285  30.701  1.00  0.00     0.009 A 
ATOM     43  C   UNL A   1      44.502  33.877  33.409  1.00  0.00     0.001 A 
ATOM     44  C   UNL A   1      45.190  34.538  31.191  1.00  0.00     0.001 A 
ATOM     45  C   UNL A   1      45.031  34.834  32.544  1.00  0.00     0.000 A 
ENDBRANCH  26  40
BRANCH  27  46
ATOM     46  C   UNL A   1      42.031  23.398  27.643  1.00  0.00    -0.014 A 
ATOM     47  C   UNL A   1      41.447  22.368  28.393  1.00  0.00     0.009 A 
ATOM     48  C   UNL A   1      42.293  23.185  26.279  1.00  0.00     0.009 A 
ATOM     49  C   UNL A   1      41.151  21.142  27.794  1.00  0.00     0.001 A 
ATOM     50  C   UNL A   1      41.968  21.970  25.677  1.00  0.00     0.001 A 
ATOM     51  C   UNL A   1      41.406  20.945  26.437  1.00  0.00     0.000 A 
ENDBRANCH  27  46
BRANCH  39  52
ATOM     52  C   UNL A   1      47.860  26.219  30.159  1.00  0.00    -0.014 A 
ATOM     53  C   UNL A   1      48.355  25.728  31.377  1.00  0.00     0.009 A 
ATOM     54  C   UNL A   1      48.687  26.209  29.027  1.00  0.00     0.009 A 
ATOM     55  C   UNL A   1      49.668  25.263  31.464  1.00  0.00     0.001 A 
ATOM     56  C   UNL A   1      49.991  25.722  29.113  1.00  0.00     0.001 A 
ATOM     57  C   UNL A   1      50.483  25.258  30.333  1.00  0.00     0.000 A 
ENDBRANCH  39  52
ENDBRANCH  13  14
ENDBRANCH   6   8
ENDBRANCH   3   4
ENDBRANCH   2   3
ENDBRANCH   1   2
BRANCH   1  58
ATOM     58  C   UNL A   1      31.639  27.451  25.742  1.00  0.00     0.116 C 
BRANCH  58  59
ATOM     59  N   UNL A   1      31.385  26.330  26.619  1.00  0.00    -0.354 N 
ATOM     60  C   UNL A   1      31.349  24.998  26.310  1.00  0.00     0.249 C 
ATOM     61  H   UNL A   1      31.215  26.554  27.563  1.00  0.00     0.163 HD
ATOM     62  O   UNL A   1      30.997  24.217  27.195  1.00  0.00    -0.272 OA
BRANCH  60  63
ATOM     63  C   UNL A   1      31.806  24.528  24.910  1.00  0.00     0.207 C 
ATOM     64  C   UNL A   1      30.688  24.079  23.981  1.00  0.00     0.045 C 
ATOM     65  O   UNL A   1      32.702  23.407  24.998  1.00  0.00    -0.364 OA
ATOM     66  C   UNL A   1      31.291  22.910  23.245  1.00  0.00     0.036 C 
ATOM     67  C   UNL A   1      32.113  22.275  24.348  1.00  0.00     0.134 C 
BRANCH  67  68
ATOM     68  C   UNL A   1      33.181  21.355  23.805  1.00  0.00     0.174 C 
BRANCH  68  69
ATOM     69  S   UNL A   1      34.024  20.434  25.064  1.00  0.00     0.181 S 
ATOM     70  O   UNL A   1      33.287  20.623  26.300  1.00  0.00    -0.224 OA
ATOM     71  O   UNL A   1      34.236  19.097  24.540  1.00  0.00    -0.224 OA
BRANCH  69  72
ATOM     72  C   UNL A   1      35.643  21.128  25.284  1.00  0.00     0.070 A 
ATOM     73  C   UNL A   1      36.792  20.380  24.998  1.00  0.00     0.020 A 
ATOM     74  C   UNL A   1      35.749  22.447  25.730  1.00  0.00     0.059 A 
ATOM     75  C   UNL A   1      38.051  20.976  25.104  1.00  0.00     0.004 A 
ATOM     76  C   UNL A   1      37.011  23.013  25.860  1.00  0.00     0.124 A 
ATOM     77  C   UNL A   1      38.159  22.296  25.539  1.00  0.00     0.039 A 
ATOM     78  F   UNL A   1      37.127  24.271  26.302  1.00  0.00    -0.207 F 
ENDBRANCH  69  72
ENDBRANCH  68  69
ENDBRANCH  67  68
ENDBRANCH  60  63
ENDBRANCH  58  59
ENDBRANCH   1  58
TORSDOF 14
ENDMDL
MODEL 3
REMARK VINA RESULT:     -10.7      2.307      7.411
REMARK SMILES O=C(NCCCCNC(=O)[C@@H]1CC[C@@H](CS(=O)(=O)c2cccc(F)c2)O1)c1ccc(-c2c3nc(c(-c4ccccc4)c4ccc([nH]4)c(-c4ccccc4)c4nc(c(-c5ccccc5)c5ccc2[nH]5)C=C4)C=C3)cc1
REMARK SMILES IDX 6 1 5 2 4 3 3 4 1 5 2 6 27 8 28 9 74 10 29 11 73 12 30 13
REMARK SMILES IDX 31 14 32 15 67 16 33 17 72 18 66 19 68 20 34 21 71 22 65 23
REMARK SMILES IDX 64 24 35 26 57 27 42 28 56 29 43 30 46 31 55 32 69 33 44 34
REMARK SMILES IDX 45 35 54 37 70 38 47 39 36 40 37 41 41 42 38 43 40 44 39 45
REMARK SMILES IDX 58 46 59 47 63 48 60 49 62 50 61 51 48 52 49 53 53 54 50 55
REMARK SMILES IDX 52 56 51 57 7 58 8 59 9 60 10 62 11 63 12 64 26 65 13 66
REMARK SMILES IDX 14 67 15 68 16 69 17 70 18 71 19 72 20 73 25 74 21 75 23 76
REMARK SMILES IDX 22 77 24 78
REMARK H PARENT 3 7 68 25 46 36 8 61
REMARK Flexibility Score: inf
ROOT
ATOM      1  C   UNL A   1      36.556  20.979  24.643  1.00  0.00     0.023 C 
ENDROOT
BRANCH   1   2
ATOM      2  C   UNL A   1      37.624  19.903  24.826  1.00  0.00     0.023 C 
BRANCH   2   3
ATOM      3  C   UNL A   1      38.764  20.307  25.744  1.00  0.00     0.116 C 
BRANCH   3   4
ATOM      4  N   UNL A   1      39.855  19.345  25.751  1.00  0.00    -0.352 N 
ATOM      5  O   UNL A   1      42.010  18.690  25.950  1.00  0.00    -0.269 OA
ATOM      6  C   UNL A   1      41.165  19.568  26.090  1.00  0.00     0.251 C 
ATOM      7  H   UNL A   1      39.626  18.427  25.481  1.00  0.00     0.163 HD
BRANCH   6   8
ATOM      8  C   UNL A   1      41.542  20.899  26.594  1.00  0.00     0.039 A 
ATOM      9  C   UNL A   1      41.963  21.890  25.703  1.00  0.00     0.014 A 
ATOM     10  C   UNL A   1      41.506  21.139  27.968  1.00  0.00     0.014 A 
ATOM     11  C   UNL A   1      42.447  23.092  26.196  1.00  0.00     0.010 A 
ATOM     12  C   UNL A   1      41.923  22.375  28.458  1.00  0.00     0.010 A 
ATOM     13  C   UNL A   1      42.404  23.355  27.575  1.00  0.00    -0.014 A 
BRANCH  13  14
ATOM     14  C   UNL A   1      42.746  24.710  28.056  1.00  0.00     0.031 A 
ATOM     15  C   UNL A   1      41.689  25.743  28.306  1.00  0.00     0.074 A 
ATOM     16  C   UNL A   1      44.046  24.987  28.266  1.00  0.00     0.049 A 
ATOM     17  N   UNL A   1      41.835  26.974  28.722  1.00  0.00    -0.248 NA
ATOM     18  C   UNL A   1      40.292  25.353  28.054  1.00  0.00     0.031 C 
ATOM     19  C   UNL A   1      45.155  24.053  28.039  1.00  0.00     0.029 A 
ATOM     20  N   UNL A   1      44.658  26.122  28.727  1.00  0.00    -0.354 N 
ATOM     21  C   UNL A   1      40.558  27.516  28.762  1.00  0.00     0.074 A 
ATOM     22  C   UNL A   1      39.646  26.482  28.319  1.00  0.00     0.031 C 
ATOM     23  C   UNL A   1      46.304  24.640  28.398  1.00  0.00     0.029 A 
ATOM     24  C   UNL A   1      46.023  26.007  28.817  1.00  0.00     0.049 A 
ATOM     25  H   UNL A   1      44.167  26.939  28.972  1.00  0.00     0.167 HD
ATOM     26  C   UNL A   1      40.188  28.765  29.131  1.00  0.00     0.031 A 
ATOM     27  C   UNL A   1      46.952  26.910  29.170  1.00  0.00     0.031 A 
ATOM     28  C   UNL A   1      41.103  29.782  29.578  1.00  0.00     0.049 A 
ATOM     29  C   UNL A   1      46.509  28.290  29.548  1.00  0.00     0.074 A 
ATOM     30  C   UNL A   1      40.819  31.060  30.028  1.00  0.00     0.029 A 
ATOM     31  N   UNL A   1      42.481  29.640  29.621  1.00  0.00    -0.354 N 
ATOM     32  N   UNL A   1      45.292  28.770  29.626  1.00  0.00    -0.248 NA
ATOM     33  C   UNL A   1      47.566  29.253  29.879  1.00  0.00     0.031 C 
ATOM     34  C   UNL A   1      42.029  31.708  30.297  1.00  0.00     0.029 A 
ATOM     35  C   UNL A   1      43.063  30.818  30.057  1.00  0.00     0.049 A 
ATOM     36  H   UNL A   1      42.973  28.822  29.379  1.00  0.00     0.167 HD
ATOM     37  C   UNL A   1      45.436  30.093  30.014  1.00  0.00     0.074 A 
ATOM     38  C   UNL A   1      46.856  30.329  30.186  1.00  0.00     0.031 C 
ATOM     39  C   UNL A   1      44.479  31.032  30.201  1.00  0.00     0.031 A 
BRANCH  26  40
ATOM     40  C   UNL A   1      38.731  29.122  29.047  1.00  0.00    -0.014 A 
ATOM     41  C   UNL A   1      37.876  28.960  30.147  1.00  0.00     0.009 A 
ATOM     42  C   UNL A   1      38.230  29.710  27.875  1.00  0.00     0.009 A 
ATOM     43  C   UNL A   1      36.543  29.369  30.070  1.00  0.00     0.001 A 
ATOM     44  C   UNL A   1      36.901  30.134  27.807  1.00  0.00     0.001 A 
ATOM     45  C   UNL A   1      36.058  29.960  28.904  1.00  0.00     0.000 A 
ENDBRANCH  26  40
BRANCH  27  46
ATOM     46  C   UNL A   1      48.389  26.543  29.137  1.00  0.00    -0.014 A 
ATOM     47  C   UNL A   1      49.008  25.969  30.256  1.00  0.00     0.009 A 
ATOM     48  C   UNL A   1      49.145  26.753  27.972  1.00  0.00     0.009 A 
ATOM     49  C   UNL A   1      50.362  25.630  30.215  1.00  0.00     0.001 A 
ATOM     50  C   UNL A   1      50.490  26.387  27.924  1.00  0.00     0.001 A 
ATOM     51  C   UNL A   1      51.101  25.834  29.049  1.00  0.00     0.000 A 
ENDBRANCH  27  46
BRANCH  39  52
ATOM     52  C   UNL A   1      44.950  32.396  30.611  1.00  0.00    -0.014 A 
ATOM     53  C   UNL A   1      45.120  32.719  31.966  1.00  0.00     0.009 A 
ATOM     54  C   UNL A   1      45.237  33.360  29.635  1.00  0.00     0.009 A 
ATOM     55  C   UNL A   1      45.541  33.996  32.337  1.00  0.00     0.001 A 
ATOM     56  C   UNL A   1      45.680  34.629  30.008  1.00  0.00     0.001 A 
ATOM     57  C   UNL A   1      45.823  34.949  31.358  1.00  0.00     0.000 A 
ENDBRANCH  39  52
ENDBRANCH  13  14
ENDBRANCH   6   8
ENDBRANCH   3   4
ENDBRANCH   2   3
ENDBRANCH   1   2
BRANCH   1  58
ATOM     58  C   UNL A   1      35.171  20.594  25.164  1.00  0.00     0.116 C 
BRANCH  58  59
ATOM     59  N   UNL A   1      34.900  19.195  24.916  1.00  0.00    -0.354 N 
ATOM     60  C   UNL A   1      33.738  18.616  24.487  1.00  0.00     0.249 C 
ATOM     61  H   UNL A   1      35.651  18.579  25.077  1.00  0.00     0.163 HD
ATOM     62  O   UNL A   1      33.693  17.386  24.454  1.00  0.00    -0.272 OA
BRANCH  60  63
ATOM     63  C   UNL A   1      32.572  19.510  24.007  1.00  0.00     0.207 C 
ATOM     64  C   UNL A   1      32.980  20.695  23.143  1.00  0.00     0.045 C 
ATOM     65  O   UNL A   1      31.852  20.077  25.115  1.00  0.00    -0.364 OA
ATOM     66  C   UNL A   1      32.046  21.792  23.587  1.00  0.00     0.036 C 
ATOM     67  C   UNL A   1      31.960  21.504  25.073  1.00  0.00     0.134 C 
BRANCH  67  68
ATOM     68  C   UNL A   1      30.752  22.150  25.709  1.00  0.00     0.174 C 
BRANCH  68  69
ATOM     69  S   UNL A   1      31.162  23.458  26.833  1.00  0.00     0.181 S 
ATOM     70  O   UNL A   1      29.920  24.119  27.194  1.00  0.00    -0.224 OA
ATOM     71  O   UNL A   1      32.006  22.882  27.863  1.00  0.00    -0.224 OA
BRANCH  69  72
ATOM     72  C   UNL A   1      32.178  24.638  25.980  1.00  0.00     0.070 A 
ATOM     73  C   UNL A   1      33.572  24.505  25.960  1.00  0.00     0.020 A 
ATOM     74  C   UNL A   1      31.557  25.694  25.310  1.00  0.00     0.059 A 
ATOM     75  C   UNL A   1      34.343  25.402  25.216  1.00  0.00     0.004 A 
ATOM     76  C   UNL A   1      32.342  26.594  24.602  1.00  0.00     0.124 A 
ATOM     77  C   UNL A   1      33.725  26.451  24.538  1.00  0.00     0.039 A 
ATOM     78  F   UNL A   1      31.760  27.620  23.969  1.00  0.00    -0.207 F 
ENDBRANCH  69  72
ENDBRANCH  68  69
ENDBRANCH  67  68
ENDBRANCH  60  63
ENDBRANCH  58  59
ENDBRANCH   1  58
TORSDOF 14
ENDMDL
