MODEL 1
REMARK VINA RESULT:     -11.6      0.000      0.000
REMARK SMILES COc1ccc(-n2ccnc2C[N@@H+]2CCn3nc(C(=O)NCCCCNC(=O)c4ccc(-c5c6nc(c(-c7ccccc7)c7ccc([nH]7)c(-c7ccccc7)c7nc(c(-c8ccccc8)c8ccc5[nH]8)C=C7)C=C6)cc4)cc3C2)cc1
REMARK SMILES IDX 22 1 21 2 19 3 20 4 18 6 13 7 14 8 79 9 15 11 78 12 16 13
REMARK SMILES IDX 77 14 17 15 12 16 11 17 7 18 8 19 9 20 10 21 6 22 3 23 4 24
REMARK SMILES IDX 81 25 5 26 80 27 2 28 1 29 23 30 24 31 25 32 26 33 27 34
REMARK SMILES IDX 28 36 29 37 30 38 76 39 31 40 75 41 32 42 33 43 34 44 69 45
REMARK SMILES IDX 35 46 74 47 68 48 70 49 36 50 73 51 67 52 66 53 37 55 59 56
REMARK SMILES IDX 44 57 58 58 45 59 48 60 57 61 71 62 46 63 47 64 56 66 72 67
REMARK SMILES IDX 49 68 38 69 39 70 43 71 40 72 42 73 41 74 60 75 61 76 65 77
REMARK SMILES IDX 62 78 64 79 63 80 50 81 51 82 55 83 52 84 54 85 53 86
REMARK H PARENT 21 5 13 10 26 35 70 54 48 65
REMARK Flexibility Score: inf
ROOT
ATOM      1  C   UNL A   1      37.403  23.678  25.986  1.00  0.00     0.116 C 
ENDROOT
BRANCH   1   2
ATOM      2  N   UNL A   1      36.570  23.596  24.762  1.00  0.00    -0.351 N 
ATOM      3  C   UNL A   1      35.416  23.085  24.184  1.00  0.00     0.271 C 
ATOM      4  O   UNL A   1      35.404  23.341  22.969  1.00  0.00    -0.267 OA
ATOM      5  H   UNL A   1      37.026  24.125  24.070  1.00  0.00     0.163 HD
BRANCH   3   6
ATOM      6  C   UNL A   1      34.182  22.391  24.745  1.00  0.00     0.150 A 
ATOM      7  N   UNL A   1      31.118  24.336  23.777  1.00  0.00    -0.322 N 
ATOM      8  C   UNL A   1      30.408  24.278  25.047  1.00  0.00     0.286 C 
ATOM      9  C   UNL A   1      31.236  22.949  23.220  1.00  0.00     0.319 C 
ATOM     10  H   UNL A   1      30.570  24.914  23.140  1.00  0.00     0.348 HD
ATOM     11  C   UNL A   1      30.998  23.256  26.033  1.00  0.00     0.206 C 
ATOM     12  C   UNL A   1      32.078  22.092  24.129  1.00  0.00     0.094 A 
ATOM     13  N   UNL A   1      32.114  22.500  25.441  1.00  0.00    -0.257 N 
ATOM     14  C   UNL A   1      33.344  21.551  23.936  1.00  0.00     0.065 A 
ATOM     15  N   UNL A   1      33.400  22.775  25.776  1.00  0.00    -0.167 NA
BRANCH   7  16
ATOM     16  C   UNL A   1      32.442  25.030  23.854  1.00  0.00     0.339 C 
BRANCH  16  17
ATOM     17  C   UNL A   1      32.692  26.368  24.592  1.00  0.00     0.168 A 
ATOM     18  N   UNL A   1      32.023  27.642  24.771  1.00  0.00    -0.299 N 
ATOM     19  C   UNL A   1      32.742  28.252  25.800  1.00  0.00     0.113 A 
ATOM     20  C   UNL A   1      33.800  27.462  26.118  1.00  0.00     0.132 A 
ATOM     21  N   UNL A   1      33.786  26.351  25.360  1.00  0.00    -0.236 NA
BRANCH  18  22
ATOM     22  C   UNL A   1      30.893  28.412  24.251  1.00  0.00     0.047 A 
ATOM     23  C   UNL A   1      28.801  29.950  22.971  1.00  0.00     0.119 A 
ATOM     24  C   UNL A   1      29.704  30.551  23.815  1.00  0.00     0.048 A 
ATOM     25  C   UNL A   1      29.003  28.607  22.669  1.00  0.00     0.048 A 
ATOM     26  C   UNL A   1      30.752  29.781  24.368  1.00  0.00     0.030 A 
ATOM     27  C   UNL A   1      30.017  27.847  23.311  1.00  0.00     0.030 A 
BRANCH  23  28
ATOM     28  O   UNL A   1      27.810  30.625  22.323  1.00  0.00    -0.497 OA
ATOM     29  C   UNL A   1      28.254  31.670  21.451  1.00  0.00     0.278 C 
ENDBRANCH  23  28
ENDBRANCH  18  22
ENDBRANCH  16  17
ENDBRANCH   7  16
ENDBRANCH   3   6
ENDBRANCH   1   2
BRANCH   1  30
ATOM     30  C   UNL A   1      38.710  22.874  25.954  1.00  0.00     0.023 C 
BRANCH  30  31
ATOM     31  C   UNL A   1      38.539  21.359  26.218  1.00  0.00     0.023 C 
BRANCH  31  32
ATOM     32  C   UNL A   1      39.099  20.446  25.122  1.00  0.00     0.116 C 
BRANCH  32  33
ATOM     33  N   UNL A   1      39.922  19.330  25.620  1.00  0.00    -0.352 N 
ATOM     34  C   UNL A   1      41.240  19.370  26.074  1.00  0.00     0.251 C 
ATOM     35  H   UNL A   1      39.488  18.447  25.635  1.00  0.00     0.163 HD
ATOM     36  O   UNL A   1      41.942  18.374  26.100  1.00  0.00    -0.269 OA
BRANCH  34  37
ATOM     37  C   UNL A   1      41.765  20.662  26.560  1.00  0.00     0.039 A 
ATOM     38  C   UNL A   1      42.399  21.605  25.737  1.00  0.00     0.014 A 
ATOM     39  C   UNL A   1      41.556  20.921  27.904  1.00  0.00     0.014 A 
ATOM     40  C   UNL A   1      42.727  22.854  26.273  1.00  0.00     0.010 A 
ATOM     41  C   UNL A   1      41.673  22.199  28.361  1.00  0.00     0.010 A 
ATOM     42  C   UNL A   1      42.342  23.143  27.586  1.00  0.00    -0.014 A 
BRANCH  42  43
ATOM     43  C   UNL A   1      42.542  24.438  28.224  1.00  0.00     0.031 A 
ATOM     44  C   UNL A   1      41.457  25.434  28.000  1.00  0.00     0.074 A 
ATOM     45  C   UNL A   1      43.421  24.551  29.247  1.00  0.00     0.049 A 
ATOM     46  N   UNL A   1      41.546  26.607  27.468  1.00  0.00    -0.248 NA
ATOM     47  C   UNL A   1      40.074  25.033  28.322  1.00  0.00     0.031 C 
ATOM     48  C   UNL A   1      44.270  23.494  29.823  1.00  0.00     0.029 A 
ATOM     49  N   UNL A   1      43.598  25.574  30.123  1.00  0.00    -0.354 N 
ATOM     50  C   UNL A   1      40.274  27.171  27.562  1.00  0.00     0.074 A 
ATOM     51  C   UNL A   1      39.381  26.092  27.898  1.00  0.00     0.031 C 
ATOM     52  C   UNL A   1      44.639  23.842  31.074  1.00  0.00     0.029 A 
ATOM     53  C   UNL A   1      44.204  25.203  31.320  1.00  0.00     0.049 A 
ATOM     54  H   UNL A   1      43.321  26.499  29.928  1.00  0.00     0.167 HD
ATOM     55  C   UNL A   1      40.091  28.520  27.627  1.00  0.00     0.031 A 
ATOM     56  C   UNL A   1      44.291  25.945  32.453  1.00  0.00     0.031 A 
ATOM     57  C   UNL A   1      41.299  29.233  27.299  1.00  0.00     0.049 A 
ATOM     58  C   UNL A   1      44.003  27.349  32.079  1.00  0.00     0.074 A 
ATOM     59  C   UNL A   1      42.139  29.279  26.203  1.00  0.00     0.029 A 
ATOM     60  N   UNL A   1      42.024  29.743  28.350  1.00  0.00    -0.354 N 
ATOM     61  N   UNL A   1      44.777  28.061  31.311  1.00  0.00    -0.248 NA
ATOM     62  C   UNL A   1      42.624  27.806  32.169  1.00  0.00     0.031 C 
ATOM     63  C   UNL A   1      43.453  29.332  26.756  1.00  0.00     0.029 A 
ATOM     64  C   UNL A   1      43.335  29.401  28.146  1.00  0.00     0.049 A 
ATOM     65  H   UNL A   1      41.668  30.258  29.111  1.00  0.00     0.167 HD
ATOM     66  C   UNL A   1      43.907  28.757  30.484  1.00  0.00     0.074 A 
ATOM     67  C   UNL A   1      42.599  28.643  31.128  1.00  0.00     0.031 C 
ATOM     68  C   UNL A   1      44.267  29.099  29.210  1.00  0.00     0.031 A 
BRANCH  55  69
ATOM     69  C   UNL A   1      38.974  29.194  28.395  1.00  0.00    -0.014 A 
ATOM     70  C   UNL A   1      38.904  28.995  29.788  1.00  0.00     0.009 A 
ATOM     71  C   UNL A   1      37.842  29.768  27.787  1.00  0.00     0.009 A 
ATOM     72  C   UNL A   1      37.735  29.265  30.509  1.00  0.00     0.001 A 
ATOM     73  C   UNL A   1      36.688  30.083  28.512  1.00  0.00     0.001 A 
ATOM     74  C   UNL A   1      36.623  29.799  29.867  1.00  0.00     0.000 A 
ENDBRANCH  55  69
BRANCH  56  75
ATOM     75  C   UNL A   1      44.353  25.495  33.862  1.00  0.00    -0.014 A 
ATOM     76  C   UNL A   1      43.372  24.640  34.388  1.00  0.00     0.009 A 
ATOM     77  C   UNL A   1      45.516  25.699  34.626  1.00  0.00     0.009 A 
ATOM     78  C   UNL A   1      43.566  23.987  35.614  1.00  0.00     0.001 A 
ATOM     79  C   UNL A   1      45.708  25.050  35.852  1.00  0.00     0.001 A 
ATOM     80  C   UNL A   1      44.739  24.181  36.338  1.00  0.00     0.000 A 
ENDBRANCH  56  75
BRANCH  68  81
ATOM     81  C   UNL A   1      45.703  28.892  28.793  1.00  0.00    -0.014 A 
ATOM     82  C   UNL A   1      46.192  27.671  28.295  1.00  0.00     0.009 A 
ATOM     83  C   UNL A   1      46.540  30.015  28.732  1.00  0.00     0.009 A 
ATOM     84  C   UNL A   1      47.486  27.575  27.773  1.00  0.00     0.001 A 
ATOM     85  C   UNL A   1      47.824  29.924  28.191  1.00  0.00     0.001 A 
ATOM     86  C   UNL A   1      48.299  28.704  27.716  1.00  0.00     0.000 A 
ENDBRANCH  68  81
ENDBRANCH  42  43
ENDBRANCH  34  37
ENDBRANCH  32  33
ENDBRANCH  31  32
ENDBRANCH  30  31
ENDBRANCH   1  30
TORSDOF 15
ENDMDL
MODEL 2
REMARK VINA RESULT:     -11.4      2.155      5.495
REMARK SMILES COc1ccc(-n2ccnc2C[N@@H+]2CCn3nc(C(=O)NCCCCNC(=O)c4ccc(-c5c6nc(c(-c7ccccc7)c7ccc([nH]7)c(-c7ccccc7)c7nc(c(-c8ccccc8)c8ccc5[nH]8)C=C7)C=C6)cc4)cc3C2)cc1
REMARK SMILES IDX 22 1 21 2 19 3 20 4 18 6 13 7 14 8 79 9 15 11 78 12 16 13
REMARK SMILES IDX 77 14 17 15 12 16 11 17 7 18 8 19 9 20 10 21 6 22 3 23 4 24
REMARK SMILES IDX 81 25 5 26 80 27 2 28 1 29 23 30 24 31 25 32 26 33 27 34
REMARK SMILES IDX 28 36 29 37 30 38 76 39 31 40 75 41 32 42 33 43 34 44 69 45
REMARK SMILES IDX 35 46 74 47 68 48 70 49 36 50 73 51 67 52 66 53 37 55 59 56
REMARK SMILES IDX 44 57 58 58 45 59 48 60 57 61 71 62 46 63 47 64 56 66 72 67
REMARK SMILES IDX 49 68 38 69 39 70 43 71 40 72 42 73 41 74 60 75 61 76 65 77
REMARK SMILES IDX 62 78 64 79 63 80 50 81 51 82 55 83 52 84 54 85 53 86
REMARK H PARENT 21 5 13 10 26 35 70 54 48 65
REMARK Flexibility Score: inf
ROOT
ATOM      1  C   UNL A   1      38.285  21.317  25.417  1.00  0.00     0.116 C 
ENDROOT
BRANCH   1   2
ATOM      2  N   UNL A   1      37.501  22.576  25.397  1.00  0.00    -0.351 N 
ATOM      3  C   UNL A   1      36.302  23.194  25.724  1.00  0.00     0.271 C 
ATOM      4  O   UNL A   1      36.282  24.347  25.263  1.00  0.00    -0.267 OA
ATOM      5  H   UNL A   1      38.068  23.258  24.973  1.00  0.00     0.163 HD
BRANCH   3   6
ATOM      6  C   UNL A   1      35.111  22.783  26.579  1.00  0.00     0.150 A 
ATOM      7  N   UNL A   1      32.105  22.317  24.378  1.00  0.00    -0.322 N 
ATOM      8  C   UNL A   1      31.112  22.973  25.216  1.00  0.00     0.286 C 
ATOM      9  C   UNL A   1      32.612  21.097  25.088  1.00  0.00     0.319 C 
ATOM     10  H   UNL A   1      31.646  22.040  23.509  1.00  0.00     0.348 HD
ATOM     11  C   UNL A   1      31.600  23.242  26.649  1.00  0.00     0.206 C 
ATOM     12  C   UNL A   1      33.329  21.490  26.352  1.00  0.00     0.094 A 
ATOM     13  N   UNL A   1      32.949  22.701  26.881  1.00  0.00    -0.257 N 
ATOM     14  C   UNL A   1      34.679  21.417  26.681  1.00  0.00     0.065 A 
ATOM     15  N   UNL A   1      34.032  23.517  26.924  1.00  0.00    -0.167 NA
BRANCH   7  16
ATOM     16  C   UNL A   1      33.214  23.217  23.934  1.00  0.00     0.339 C 
BRANCH  16  17
ATOM     17  C   UNL A   1      33.024  24.492  23.076  1.00  0.00     0.168 A 
ATOM     18  N   UNL A   1      32.962  25.927  23.277  1.00  0.00    -0.299 N 
ATOM     19  C   UNL A   1      33.042  26.446  21.985  1.00  0.00     0.113 A 
ATOM     20  C   UNL A   1      33.038  25.414  21.102  1.00  0.00     0.132 A 
ATOM     21  N   UNL A   1      32.986  24.244  21.763  1.00  0.00    -0.236 NA
BRANCH  18  22
ATOM     22  C   UNL A   1      32.869  26.919  24.349  1.00  0.00     0.047 A 
ATOM     23  C   UNL A   1      32.859  29.048  26.310  1.00  0.00     0.119 A 
ATOM     24  C   UNL A   1      33.657  27.941  26.473  1.00  0.00     0.048 A 
ATOM     25  C   UNL A   1      32.150  29.156  25.118  1.00  0.00     0.048 A 
ATOM     26  C   UNL A   1      33.687  26.955  25.462  1.00  0.00     0.030 A 
ATOM     27  C   UNL A   1      32.138  28.103  24.164  1.00  0.00     0.030 A 
BRANCH  23  28
ATOM     28  O   UNL A   1      32.829  30.091  27.187  1.00  0.00    -0.497 OA
ATOM     29  C   UNL A   1      31.925  31.148  26.847  1.00  0.00     0.278 C 
ENDBRANCH  23  28
ENDBRANCH  18  22
ENDBRANCH  16  17
ENDBRANCH   7  16
ENDBRANCH   3   6
ENDBRANCH   1   2
BRANCH   1  30
ATOM     30  C   UNL A   1      39.627  21.383  26.158  1.00  0.00     0.023 C 
BRANCH  30  31
ATOM     31  C   UNL A   1      40.441  20.067  26.130  1.00  0.00     0.023 C 
BRANCH  31  32
ATOM     32  C   UNL A   1      41.769  20.112  26.894  1.00  0.00     0.116 C 
BRANCH  32  33
ATOM     33  N   UNL A   1      42.960  19.866  26.063  1.00  0.00    -0.352 N 
ATOM     34  C   UNL A   1      43.719  20.795  25.351  1.00  0.00     0.251 C 
ATOM     35  H   UNL A   1      43.258  18.930  26.003  1.00  0.00     0.163 HD
ATOM     36  O   UNL A   1      44.425  20.466  24.415  1.00  0.00    -0.269 OA
BRANCH  34  37
ATOM     37  C   UNL A   1      43.669  22.206  25.784  1.00  0.00     0.039 A 
ATOM     38  C   UNL A   1      42.845  23.174  25.193  1.00  0.00     0.014 A 
ATOM     39  C   UNL A   1      44.474  22.524  26.866  1.00  0.00     0.014 A 
ATOM     40  C   UNL A   1      42.772  24.443  25.776  1.00  0.00     0.010 A 
ATOM     41  C   UNL A   1      44.238  23.675  27.554  1.00  0.00     0.010 A 
ATOM     42  C   UNL A   1      43.464  24.674  26.969  1.00  0.00    -0.014 A 
BRANCH  42  43
ATOM     43  C   UNL A   1      43.390  25.921  27.721  1.00  0.00     0.031 A 
ATOM     44  C   UNL A   1      44.351  26.978  27.299  1.00  0.00     0.074 A 
ATOM     45  C   UNL A   1      42.278  26.205  28.437  1.00  0.00     0.049 A 
ATOM     46  N   UNL A   1      45.257  27.564  28.009  1.00  0.00    -0.248 NA
ATOM     47  C   UNL A   1      44.371  27.365  25.876  1.00  0.00     0.031 C 
ATOM     48  C   UNL A   1      41.071  25.374  28.591  1.00  0.00     0.029 A 
ATOM     49  N   UNL A   1      41.897  27.375  29.012  1.00  0.00    -0.354 N 
ATOM     50  C   UNL A   1      45.831  28.528  27.180  1.00  0.00     0.074 A 
ATOM     51  C   UNL A   1      45.398  28.218  25.843  1.00  0.00     0.031 C 
ATOM     52  C   UNL A   1      40.031  26.150  28.960  1.00  0.00     0.029 A 
ATOM     53  C   UNL A   1      40.528  27.485  29.235  1.00  0.00     0.049 A 
ATOM     54  H   UNL A   1      42.536  28.086  29.250  1.00  0.00     0.167 HD
ATOM     55  C   UNL A   1      46.393  29.664  27.685  1.00  0.00     0.031 A 
ATOM     56  C   UNL A   1      39.843  28.607  29.568  1.00  0.00     0.031 A 
ATOM     57  C   UNL A   1      46.565  29.578  29.113  1.00  0.00     0.049 A 
ATOM     58  C   UNL A   1      40.836  29.597  30.051  1.00  0.00     0.074 A 
ATOM     59  C   UNL A   1      47.235  28.724  29.967  1.00  0.00     0.029 A 
ATOM     60  N   UNL A   1      45.642  30.239  29.890  1.00  0.00    -0.354 N 
ATOM     61  N   UNL A   1      41.523  29.447  31.146  1.00  0.00    -0.248 NA
ATOM     62  C   UNL A   1      41.405  30.517  29.078  1.00  0.00     0.031 C 
ATOM     63  C   UNL A   1      46.352  28.553  31.074  1.00  0.00     0.029 A 
ATOM     64  C   UNL A   1      45.240  29.373  30.871  1.00  0.00     0.049 A 
ATOM     65  H   UNL A   1      45.328  31.164  29.763  1.00  0.00     0.167 HD
ATOM     66  C   UNL A   1      42.801  29.880  30.820  1.00  0.00     0.074 A 
ATOM     67  C   UNL A   1      42.641  30.625  29.572  1.00  0.00     0.031 C 
ATOM     68  C   UNL A   1      43.903  29.342  31.423  1.00  0.00     0.031 A 
BRANCH  55  69
ATOM     69  C   UNL A   1      46.390  31.003  26.980  1.00  0.00    -0.014 A 
ATOM     70  C   UNL A   1      47.588  31.743  26.944  1.00  0.00     0.009 A 
ATOM     71  C   UNL A   1      45.219  31.689  26.608  1.00  0.00     0.009 A 
ATOM     72  C   UNL A   1      47.595  33.111  26.648  1.00  0.00     0.001 A 
ATOM     73  C   UNL A   1      45.229  33.045  26.266  1.00  0.00     0.001 A 
ATOM     74  C   UNL A   1      46.412  33.764  26.319  1.00  0.00     0.000 A 
ENDBRANCH  55  69
BRANCH  56  75
ATOM     75  C   UNL A   1      38.442  28.973  29.262  1.00  0.00    -0.014 A 
ATOM     76  C   UNL A   1      37.514  29.194  30.292  1.00  0.00     0.009 A 
ATOM     77  C   UNL A   1      38.072  29.355  27.959  1.00  0.00     0.009 A 
ATOM     78  C   UNL A   1      36.280  29.809  30.033  1.00  0.00     0.001 A 
ATOM     79  C   UNL A   1      36.838  29.966  27.700  1.00  0.00     0.001 A 
ATOM     80  C   UNL A   1      35.949  30.206  28.740  1.00  0.00     0.000 A 
ENDBRANCH  56  75
BRANCH  68  81
ATOM     81  C   UNL A   1      43.696  28.421  32.601  1.00  0.00    -0.014 A 
ATOM     82  C   UNL A   1      43.599  27.023  32.478  1.00  0.00     0.009 A 
ATOM     83  C   UNL A   1      43.782  28.967  33.890  1.00  0.00     0.009 A 
ATOM     84  C   UNL A   1      43.568  26.202  33.610  1.00  0.00     0.001 A 
ATOM     85  C   UNL A   1      43.772  28.146  35.019  1.00  0.00     0.001 A 
ATOM     86  C   UNL A   1      43.661  26.765  34.880  1.00  0.00     0.000 A 
ENDBRANCH  68  81
ENDBRANCH  42  43
ENDBRANCH  34  37
ENDBRANCH  32  33
ENDBRANCH  31  32
ENDBRANCH  30  31
ENDBRANCH   1  30
TORSDOF 15
ENDMDL
MODEL 3
REMARK VINA RESULT:     -11.4      2.707      7.988
REMARK SMILES COc1ccc(-n2ccnc2C[N@@H+]2CCn3nc(C(=O)NCCCCNC(=O)c4ccc(-c5c6nc(c(-c7ccccc7)c7ccc([nH]7)c(-c7ccccc7)c7nc(c(-c8ccccc8)c8ccc5[nH]8)C=C7)C=C6)cc4)cc3C2)cc1
REMARK SMILES IDX 22 1 21 2 19 3 20 4 18 6 13 7 14 8 79 9 15 11 78 12 16 13
REMARK SMILES IDX 77 14 17 15 12 16 11 17 7 18 8 19 9 20 10 21 6 22 3 23 4 24
REMARK SMILES IDX 81 25 5 26 80 27 2 28 1 29 23 30 24 31 25 32 26 33 27 34
REMARK SMILES IDX 28 36 29 37 30 38 76 39 31 40 75 41 32 42 33 43 34 44 69 45
REMARK SMILES IDX 35 46 74 47 68 48 70 49 36 50 73 51 67 52 66 53 37 55 59 56
REMARK SMILES IDX 44 57 58 58 45 59 48 60 57 61 71 62 46 63 47 64 56 66 72 67
REMARK SMILES IDX 49 68 38 69 39 70 43 71 40 72 42 73 41 74 60 75 61 76 65 77
REMARK SMILES IDX 62 78 64 79 63 80 50 81 51 82 55 83 52 84 54 85 53 86
REMARK H PARENT 21 5 13 10 26 35 70 54 48 65
REMARK Flexibility Score: inf
ROOT
ATOM      1  C   UNL A   1      33.933  28.586  26.895  1.00  0.00     0.116 C 
ENDROOT
BRANCH   1   2
ATOM      2  N   UNL A   1      32.999  27.437  26.829  1.00  0.00    -0.351 N 
ATOM      3  C   UNL A   1      32.182  26.659  26.021  1.00  0.00     0.271 C 
ATOM      4  O   UNL A   1      31.534  25.862  26.719  1.00  0.00    -0.267 OA
ATOM      5  H   UNL A   1      32.927  27.075  27.741  1.00  0.00     0.163 HD
BRANCH   3   6
ATOM      6  C   UNL A   1      32.011  26.537  24.513  1.00  0.00     0.150 A 
ATOM      7  N   UNL A   1      31.871  22.904  23.571  1.00  0.00    -0.322 N 
ATOM      8  C   UNL A   1      32.722  22.948  22.390  1.00  0.00     0.286 C 
ATOM      9  C   UNL A   1      30.636  23.713  23.311  1.00  0.00     0.319 C 
ATOM     10  H   UNL A   1      31.613  21.930  23.733  1.00  0.00     0.348 HD
ATOM     11  C   UNL A   1      33.002  24.374  21.889  1.00  0.00     0.206 C 
ATOM     12  C   UNL A   1      30.993  25.161  23.109  1.00  0.00     0.094 A 
ATOM     13  N   UNL A   1      32.278  25.386  22.676  1.00  0.00    -0.257 N 
ATOM     14  C   UNL A   1      30.736  26.271  23.908  1.00  0.00     0.065 A 
ATOM     15  N   UNL A   1      32.921  26.150  23.594  1.00  0.00    -0.167 NA
BRANCH   7  16
ATOM     16  C   UNL A   1      32.562  23.315  24.832  1.00  0.00     0.339 C 
BRANCH  16  17
ATOM     17  C   UNL A   1      33.823  22.627  25.409  1.00  0.00     0.168 A 
ATOM     18  N   UNL A   1      34.438  21.312  25.392  1.00  0.00    -0.299 N 
ATOM     19  C   UNL A   1      35.711  21.535  25.917  1.00  0.00     0.113 A 
ATOM     20  C   UNL A   1      35.797  22.832  26.310  1.00  0.00     0.132 A 
ATOM     21  N   UNL A   1      34.645  23.472  26.039  1.00  0.00    -0.236 NA
BRANCH  18  22
ATOM     22  C   UNL A   1      34.152  19.933  24.999  1.00  0.00     0.047 A 
ATOM     23  C   UNL A   1      33.598  17.135  24.502  1.00  0.00     0.119 A 
ATOM     24  C   UNL A   1      34.857  17.652  24.308  1.00  0.00     0.048 A 
ATOM     25  C   UNL A   1      32.639  17.977  25.054  1.00  0.00     0.048 A 
ATOM     26  C   UNL A   1      35.106  19.006  24.626  1.00  0.00     0.030 A 
ATOM     27  C   UNL A   1      32.903  19.355  25.279  1.00  0.00     0.030 A 
BRANCH  23  28
ATOM     28  O   UNL A   1      33.284  15.823  24.307  1.00  0.00    -0.497 OA
ATOM     29  C   UNL A   1      32.566  15.202  25.378  1.00  0.00     0.278 C 
ENDBRANCH  23  28
ENDBRANCH  18  22
ENDBRANCH  16  17
ENDBRANCH   7  16
ENDBRANCH   3   6
ENDBRANCH   1   2
BRANCH   1  30
ATOM     30  C   UNL A   1      33.379  29.923  26.383  1.00  0.00     0.023 C 
BRANCH  30  31
ATOM     31  C   UNL A   1      33.462  31.085  27.402  1.00  0.00     0.023 C 
BRANCH  31  32
ATOM     32  C   UNL A   1      34.855  31.325  27.995  1.00  0.00     0.116 C 
BRANCH  32  33
ATOM     33  N   UNL A   1      34.849  31.913  29.346  1.00  0.00    -0.352 N 
ATOM     34  C   UNL A   1      35.661  31.582  30.431  1.00  0.00     0.251 C 
ATOM     35  H   UNL A   1      34.191  32.629  29.502  1.00  0.00     0.163 HD
ATOM     36  O   UNL A   1      35.337  31.838  31.578  1.00  0.00    -0.269 OA
BRANCH  34  37
ATOM     37  C   UNL A   1      36.956  30.931  30.153  1.00  0.00     0.039 A 
ATOM     38  C   UNL A   1      38.133  31.633  29.855  1.00  0.00     0.014 A 
ATOM     39  C   UNL A   1      36.958  29.549  30.245  1.00  0.00     0.014 A 
ATOM     40  C   UNL A   1      39.333  30.922  29.750  1.00  0.00     0.010 A 
ATOM     41  C   UNL A   1      38.146  28.892  30.360  1.00  0.00     0.010 A 
ATOM     42  C   UNL A   1      39.326  29.550  30.023  1.00  0.00    -0.014 A 
BRANCH  42  43
ATOM     43  C   UNL A   1      40.524  28.720  30.040  1.00  0.00     0.031 A 
ATOM     44  C   UNL A   1      41.076  28.424  31.392  1.00  0.00     0.074 A 
ATOM     45  C   UNL A   1      40.832  27.967  28.958  1.00  0.00     0.049 A 
ATOM     46  N   UNL A   1      42.253  28.691  31.850  1.00  0.00    -0.248 NA
ATOM     47  C   UNL A   1      40.167  27.843  32.398  1.00  0.00     0.031 C 
ATOM     48  C   UNL A   1      40.098  27.883  27.684  1.00  0.00     0.029 A 
ATOM     49  N   UNL A   1      41.743  26.968  28.834  1.00  0.00    -0.354 N 
ATOM     50  C   UNL A   1      42.302  28.141  33.131  1.00  0.00     0.074 A 
ATOM     51  C   UNL A   1      40.942  27.826  33.484  1.00  0.00     0.031 C 
ATOM     52  C   UNL A   1      40.411  26.730  27.057  1.00  0.00     0.029 A 
ATOM     53  C   UNL A   1      41.484  26.086  27.789  1.00  0.00     0.049 A 
ATOM     54  H   UNL A   1      42.520  26.875  29.432  1.00  0.00     0.167 HD
ATOM     55  C   UNL A   1      43.476  27.736  33.693  1.00  0.00     0.031 A 
ATOM     56  C   UNL A   1      42.073  24.883  27.573  1.00  0.00     0.031 A 
ATOM     57  C   UNL A   1      44.611  28.209  32.942  1.00  0.00     0.049 A 
ATOM     58  C   UNL A   1      43.310  24.849  28.389  1.00  0.00     0.074 A 
ATOM     59  C   UNL A   1      45.083  29.450  32.563  1.00  0.00     0.029 A 
ATOM     60  N   UNL A   1      45.227  27.302  32.112  1.00  0.00    -0.354 N 
ATOM     61  N   UNL A   1      44.336  25.620  28.168  1.00  0.00    -0.248 NA
ATOM     62  C   UNL A   1      43.221  24.299  29.734  1.00  0.00     0.031 C 
ATOM     63  C   UNL A   1      45.547  29.267  31.226  1.00  0.00     0.029 A 
ATOM     64  C   UNL A   1      45.410  27.915  30.901  1.00  0.00     0.049 A 
ATOM     65  H   UNL A   1      45.488  26.380  32.343  1.00  0.00     0.167 HD
ATOM     66  C   UNL A   1      44.758  26.013  29.430  1.00  0.00     0.074 A 
ATOM     67  C   UNL A   1      44.104  25.087  30.354  1.00  0.00     0.031 C 
ATOM     68  C   UNL A   1      45.349  27.229  29.630  1.00  0.00     0.031 A 
BRANCH  55  69
ATOM     69  C   UNL A   1      43.606  26.571  34.651  1.00  0.00    -0.014 A 
ATOM     70  C   UNL A   1      43.407  25.269  34.152  1.00  0.00     0.009 A 
ATOM     71  C   UNL A   1      43.630  26.709  36.051  1.00  0.00     0.009 A 
ATOM     72  C   UNL A   1      43.151  24.189  35.006  1.00  0.00     0.001 A 
ATOM     73  C   UNL A   1      43.420  25.623  36.908  1.00  0.00     0.001 A 
ATOM     74  C   UNL A   1      43.147  24.370  36.384  1.00  0.00     0.000 A 
ENDBRANCH  55  69
BRANCH  56  75
ATOM     75  C   UNL A   1      41.520  23.675  26.921  1.00  0.00    -0.014 A 
ATOM     76  C   UNL A   1      42.364  22.641  26.485  1.00  0.00     0.009 A 
ATOM     77  C   UNL A   1      40.137  23.417  26.952  1.00  0.00     0.009 A 
ATOM     78  C   UNL A   1      41.846  21.387  26.131  1.00  0.00     0.001 A 
ATOM     79  C   UNL A   1      39.619  22.165  26.594  1.00  0.00     0.001 A 
ATOM     80  C   UNL A   1      40.476  21.145  26.199  1.00  0.00     0.000 A 
ENDBRANCH  56  75
BRANCH  68  81
ATOM     81  C   UNL A   1      45.727  28.048  28.418  1.00  0.00    -0.014 A 
ATOM     82  C   UNL A   1      47.011  28.026  27.845  1.00  0.00     0.009 A 
ATOM     83  C   UNL A   1      44.706  28.719  27.731  1.00  0.00     0.009 A 
ATOM     84  C   UNL A   1      47.268  28.675  26.633  1.00  0.00     0.001 A 
ATOM     85  C   UNL A   1      44.957  29.349  26.510  1.00  0.00     0.001 A 
ATOM     86  C   UNL A   1      46.238  29.331  25.963  1.00  0.00     0.000 A 
ENDBRANCH  68  81
ENDBRANCH  42  43
ENDBRANCH  34  37
ENDBRANCH  32  33
ENDBRANCH  31  32
ENDBRANCH  30  31
ENDBRANCH   1  30
TORSDOF 15
ENDMDL
