MODEL 1
REMARK VINA RESULT:     -12.4      0.000      0.000
REMARK SMILES O=C(NCCCCNC(=O)c1ccc(-c2c3nc(c(-c4ccccc4)c4ccc([nH]4)c(-c4ccccc4)c4nc(c(-c5ccccc5)c5ccc2[nH]5)C=C4)C=C3)cc1)C1=N[C@@H]2NC=NN2[C@@H]([C@H]2C=NN=C2c2ccc(F)cc2)C1
REMARK SMILES IDX 5 1 4 2 3 3 1 4 2 5 59 7 60 8 79 9 61 10 66 11 62 12 65 13
REMARK SMILES IDX 63 14 64 16 67 17 68 18 71 19 69 20 70 21 72 22 73 23 78 24
REMARK SMILES IDX 74 25 77 26 75 27 76 28 6 29 7 30 8 31 9 32 10 34 11 35
REMARK SMILES IDX 12 36 58 37 13 38 57 39 14 40 15 41 16 42 51 43 17 44 56 45
REMARK SMILES IDX 50 46 52 47 18 48 55 49 49 50 48 51 19 53 41 54 26 55 40 56
REMARK SMILES IDX 27 57 30 58 39 59 53 60 28 61 29 62 38 64 54 65 31 66 20 67
REMARK SMILES IDX 21 68 25 69 22 70 24 71 23 72 42 73 43 74 47 75 44 76 46 77
REMARK SMILES IDX 45 78 32 79 33 80 37 81 34 82 36 83 35 84
REMARK H PARENT 3 6 62 15 8 33 52 52 30 63
REMARK Flexibility Score: inf
ROOT
ATOM      1  C   UNL A   1      31.990  28.543  25.170  1.00  0.00     0.023 C 
ENDROOT
BRANCH   1   2
ATOM      2  C   UNL A   1      31.487  27.214  24.613  1.00  0.00     0.116 C 
BRANCH   2   3
ATOM      3  N   UNL A   1      30.298  26.665  25.233  1.00  0.00    -0.351 N 
ATOM      4  O   UNL A   1      29.111  25.365  26.639  1.00  0.00    -0.268 OA
ATOM      5  C   UNL A   1      30.163  25.547  26.033  1.00  0.00     0.265 C 
ATOM      6  H   UNL A   1      29.466  27.161  25.060  1.00  0.00     0.163 HD
BRANCH   5   7
ATOM      7  C   UNL A   1      31.250  24.457  26.105  1.00  0.00     0.106 C 
ATOM      8  N   UNL A   1      31.365  23.839  27.230  1.00  0.00    -0.237 NA
ATOM      9  C   UNL A   1      32.140  24.220  24.918  1.00  0.00     0.090 C 
ATOM     10  C   UNL A   1      32.149  22.635  27.298  1.00  0.00     0.319 C 
ATOM     11  C   UNL A   1      33.125  23.070  25.136  1.00  0.00     0.127 C 
ATOM     12  N   UNL A   1      33.287  22.559  28.167  1.00  0.00    -0.335 N 
ATOM     13  N   UNL A   1      32.618  22.011  26.038  1.00  0.00    -0.249 NA
ATOM     14  C   UNL A   1      34.049  21.575  27.609  1.00  0.00     0.217 C 
ATOM     15  H   UNL A   1      33.474  23.092  28.974  1.00  0.00     0.165 HD
ATOM     16  N   UNL A   1      33.687  21.158  26.422  1.00  0.00    -0.164 NA
BRANCH  11  17
ATOM     17  C   UNL A   1      33.625  22.394  23.845  1.00  0.00     0.109 C 
ATOM     18  C   UNL A   1      32.863  22.816  22.634  1.00  0.00     0.120 C 
ATOM     19  C   UNL A   1      34.968  22.880  23.404  1.00  0.00     0.081 C 
ATOM     20  N   UNL A   1      33.590  23.439  21.766  1.00  0.00    -0.162 NA
ATOM     21  N   UNL A   1      34.930  23.494  22.260  1.00  0.00    -0.155 NA
BRANCH  19  22
ATOM     22  C   UNL A   1      36.169  22.743  24.244  1.00  0.00    -0.001 A 
ATOM     23  C   UNL A   1      36.866  21.531  24.328  1.00  0.00     0.013 A 
ATOM     24  C   UNL A   1      36.557  23.838  25.025  1.00  0.00     0.013 A 
ATOM     25  C   UNL A   1      37.938  21.412  25.216  1.00  0.00     0.040 A 
ATOM     26  C   UNL A   1      37.622  23.710  25.916  1.00  0.00     0.040 A 
ATOM     27  C   UNL A   1      38.299  22.499  26.006  1.00  0.00     0.123 A 
ATOM     28  F   UNL A   1      39.311  22.373  26.872  1.00  0.00    -0.207 F 
ENDBRANCH  19  22
ENDBRANCH  11  17
ENDBRANCH   5   7
ENDBRANCH   2   3
ENDBRANCH   1   2
BRANCH   1  29
ATOM     29  C   UNL A   1      33.380  28.577  25.800  1.00  0.00     0.023 C 
BRANCH  29  30
ATOM     30  C   UNL A   1      33.442  28.784  27.311  1.00  0.00     0.116 C 
BRANCH  30  31
ATOM     31  N   UNL A   1      33.633  30.172  27.711  1.00  0.00    -0.352 N 
ATOM     32  C   UNL A   1      34.726  30.816  28.243  1.00  0.00     0.251 C 
ATOM     33  H   UNL A   1      32.846  30.746  27.578  1.00  0.00     0.163 HD
ATOM     34  O   UNL A   1      34.628  31.993  28.590  1.00  0.00    -0.269 OA
BRANCH  32  35
ATOM     35  C   UNL A   1      36.009  30.110  28.453  1.00  0.00     0.039 A 
ATOM     36  C   UNL A   1      36.930  30.069  27.400  1.00  0.00     0.014 A 
ATOM     37  C   UNL A   1      36.319  29.495  29.666  1.00  0.00     0.014 A 
ATOM     38  C   UNL A   1      38.199  29.521  27.604  1.00  0.00     0.010 A 
ATOM     39  C   UNL A   1      37.610  29.022  29.895  1.00  0.00     0.010 A 
ATOM     40  C   UNL A   1      38.573  29.055  28.874  1.00  0.00    -0.014 A 
BRANCH  40  41
ATOM     41  C   UNL A   1      39.979  28.675  29.176  1.00  0.00     0.031 A 
ATOM     42  C   UNL A   1      40.936  29.665  29.775  1.00  0.00     0.074 A 
ATOM     43  C   UNL A   1      40.421  27.453  28.815  1.00  0.00     0.049 A 
ATOM     44  N   UNL A   1      42.218  29.533  30.014  1.00  0.00    -0.248 NA
ATOM     45  C   UNL A   1      40.389  30.984  30.127  1.00  0.00     0.031 C 
ATOM     46  C   UNL A   1      39.608  26.413  28.182  1.00  0.00     0.029 A 
ATOM     47  N   UNL A   1      41.669  26.888  28.907  1.00  0.00    -0.354 N 
ATOM     48  C   UNL A   1      42.632  30.754  30.532  1.00  0.00     0.074 A 
ATOM     49  C   UNL A   1      41.477  31.627  30.523  1.00  0.00     0.031 C 
ATOM     50  C   UNL A   1      40.372  25.334  27.955  1.00  0.00     0.029 A 
ATOM     51  C   UNL A   1      41.740  25.623  28.376  1.00  0.00     0.049 A 
ATOM     52  H   UNL A   1      42.440  27.345  29.315  1.00  0.00     0.167 HD
ATOM     53  C   UNL A   1      43.858  31.111  30.986  1.00  0.00     0.031 A 
ATOM     54  C   UNL A   1      42.787  24.790  28.219  1.00  0.00     0.031 A 
ATOM     55  C   UNL A   1      45.010  30.247  30.978  1.00  0.00     0.049 A 
ATOM     56  C   UNL A   1      44.146  25.221  28.691  1.00  0.00     0.074 A 
ATOM     57  C   UNL A   1      46.280  30.498  31.468  1.00  0.00     0.029 A 
ATOM     58  N   UNL A   1      45.039  28.970  30.434  1.00  0.00    -0.354 N 
ATOM     59  N   UNL A   1      44.504  26.348  29.256  1.00  0.00    -0.248 NA
ATOM     60  C   UNL A   1      45.245  24.262  28.509  1.00  0.00     0.031 C 
ATOM     61  C   UNL A   1      47.093  29.403  31.158  1.00  0.00     0.029 A 
ATOM     62  C   UNL A   1      46.315  28.440  30.538  1.00  0.00     0.049 A 
ATOM     63  H   UNL A   1      44.266  28.510  30.035  1.00  0.00     0.167 HD
ATOM     64  C   UNL A   1      45.864  26.230  29.510  1.00  0.00     0.074 A 
ATOM     65  C   UNL A   1      46.261  24.912  29.058  1.00  0.00     0.031 C 
ATOM     66  C   UNL A   1      46.706  27.134  30.067  1.00  0.00     0.031 A 
BRANCH  53  67
ATOM     67  C   UNL A   1      44.017  32.515  31.505  1.00  0.00    -0.014 A 
ATOM     68  C   UNL A   1      44.319  33.584  30.645  1.00  0.00     0.009 A 
ATOM     69  C   UNL A   1      43.849  32.778  32.873  1.00  0.00     0.009 A 
ATOM     70  C   UNL A   1      44.504  34.873  31.150  1.00  0.00     0.001 A 
ATOM     71  C   UNL A   1      43.998  34.074  33.372  1.00  0.00     0.001 A 
ATOM     72  C   UNL A   1      44.341  35.117  32.513  1.00  0.00     0.000 A 
ENDBRANCH  53  67
BRANCH  54  73
ATOM     73  C   UNL A   1      42.583  23.470  27.566  1.00  0.00    -0.014 A 
ATOM     74  C   UNL A   1      42.299  22.328  28.329  1.00  0.00     0.009 A 
ATOM     75  C   UNL A   1      42.643  23.353  26.168  1.00  0.00     0.009 A 
ATOM     76  C   UNL A   1      42.095  21.095  27.707  1.00  0.00     0.001 A 
ATOM     77  C   UNL A   1      42.408  22.126  25.546  1.00  0.00     0.001 A 
ATOM     78  C   UNL A   1      42.141  20.996  26.317  1.00  0.00     0.000 A 
ENDBRANCH  54  73
BRANCH  66  79
ATOM     79  C   UNL A   1      48.145  26.728  30.229  1.00  0.00    -0.014 A 
ATOM     80  C   UNL A   1      48.576  26.009  31.355  1.00  0.00     0.009 A 
ATOM     81  C   UNL A   1      49.073  27.025  29.219  1.00  0.00     0.009 A 
ATOM     82  C   UNL A   1      49.912  25.621  31.478  1.00  0.00     0.001 A 
ATOM     83  C   UNL A   1      50.400  26.609  29.329  1.00  0.00     0.001 A 
ATOM     84  C   UNL A   1      50.821  25.915  30.462  1.00  0.00     0.000 A 
ENDBRANCH  66  79
ENDBRANCH  40  41
ENDBRANCH  32  35
ENDBRANCH  30  31
ENDBRANCH  29  30
ENDBRANCH   1  29
TORSDOF 13
ENDMDL
MODEL 2
REMARK VINA RESULT:     -11.9      0.305      5.801
REMARK SMILES O=C(NCCCCNC(=O)c1ccc(-c2c3nc(c(-c4ccccc4)c4ccc([nH]4)c(-c4ccccc4)c4nc(c(-c5ccccc5)c5ccc2[nH]5)C=C4)C=C3)cc1)C1=N[C@@H]2NC=NN2[C@@H]([C@H]2C=NN=C2c2ccc(F)cc2)C1
REMARK SMILES IDX 5 1 4 2 3 3 1 4 2 5 59 7 60 8 79 9 61 10 66 11 62 12 65 13
REMARK SMILES IDX 63 14 64 16 67 17 68 18 71 19 69 20 70 21 72 22 73 23 78 24
REMARK SMILES IDX 74 25 77 26 75 27 76 28 6 29 7 30 8 31 9 32 10 34 11 35
REMARK SMILES IDX 12 36 58 37 13 38 57 39 14 40 15 41 16 42 51 43 17 44 56 45
REMARK SMILES IDX 50 46 52 47 18 48 55 49 49 50 48 51 19 53 41 54 26 55 40 56
REMARK SMILES IDX 27 57 30 58 39 59 53 60 28 61 29 62 38 64 54 65 31 66 20 67
REMARK SMILES IDX 21 68 25 69 22 70 24 71 23 72 42 73 43 74 47 75 44 76 46 77
REMARK SMILES IDX 45 78 32 79 33 80 37 81 34 82 36 83 35 84
REMARK H PARENT 3 6 62 15 8 33 52 52 30 63
REMARK Flexibility Score: inf
ROOT
ATOM      1  C   UNL A   1      31.714  28.451  25.471  1.00  0.00     0.023 C 
ENDROOT
BRANCH   1   2
ATOM      2  C   UNL A   1      31.234  27.181  24.772  1.00  0.00     0.116 C 
BRANCH   2   3
ATOM      3  N   UNL A   1      30.061  26.542  25.333  1.00  0.00    -0.351 N 
ATOM      4  O   UNL A   1      28.911  25.116  26.645  1.00  0.00    -0.268 OA
ATOM      5  C   UNL A   1      29.967  25.382  26.077  1.00  0.00     0.265 C 
ATOM      6  H   UNL A   1      29.208  27.002  25.160  1.00  0.00     0.163 HD
BRANCH   5   7
ATOM      7  C   UNL A   1      31.109  24.348  26.128  1.00  0.00     0.106 C 
ATOM      8  N   UNL A   1      31.277  23.740  27.251  1.00  0.00    -0.237 NA
ATOM      9  C   UNL A   1      31.985  24.154  24.924  1.00  0.00     0.090 C 
ATOM     10  C   UNL A   1      32.122  22.577  27.305  1.00  0.00     0.319 C 
ATOM     11  C   UNL A   1      33.032  23.056  25.123  1.00  0.00     0.127 C 
ATOM     12  N   UNL A   1      33.280  22.560  28.151  1.00  0.00    -0.335 N 
ATOM     13  N   UNL A   1      32.597  21.974  26.037  1.00  0.00    -0.249 NA
ATOM     14  C   UNL A   1      34.079  21.614  27.580  1.00  0.00     0.217 C 
ATOM     15  H   UNL A   1      33.456  23.103  28.954  1.00  0.00     0.165 HD
ATOM     16  N   UNL A   1      33.714  21.177  26.401  1.00  0.00    -0.164 NA
BRANCH  11  17
ATOM     17  C   UNL A   1      33.539  22.403  23.824  1.00  0.00     0.109 C 
ATOM     18  C   UNL A   1      32.777  22.837  22.617  1.00  0.00     0.120 C 
ATOM     19  C   UNL A   1      34.880  22.905  23.393  1.00  0.00     0.081 C 
ATOM     20  N   UNL A   1      33.501  23.479  21.760  1.00  0.00    -0.162 NA
ATOM     21  N   UNL A   1      34.839  23.536  22.258  1.00  0.00    -0.155 NA
BRANCH  19  22
ATOM     22  C   UNL A   1      36.080  22.764  24.234  1.00  0.00    -0.001 A 
ATOM     23  C   UNL A   1      36.787  21.557  24.299  1.00  0.00     0.013 A 
ATOM     24  C   UNL A   1      36.456  23.849  25.034  1.00  0.00     0.013 A 
ATOM     25  C   UNL A   1      37.857  21.432  25.187  1.00  0.00     0.040 A 
ATOM     26  C   UNL A   1      37.520  23.715  25.924  1.00  0.00     0.040 A 
ATOM     27  C   UNL A   1      38.207  22.508  25.996  1.00  0.00     0.123 A 
ATOM     28  F   UNL A   1      39.219  22.377  26.863  1.00  0.00    -0.207 F 
ENDBRANCH  19  22
ENDBRANCH  11  17
ENDBRANCH   5   7
ENDBRANCH   2   3
ENDBRANCH   1   2
BRANCH   1  29
ATOM     29  C   UNL A   1      33.199  28.566  25.808  1.00  0.00     0.023 C 
BRANCH  29  30
ATOM     30  C   UNL A   1      33.562  28.642  27.288  1.00  0.00     0.116 C 
BRANCH  30  31
ATOM     31  N   UNL A   1      33.694  30.000  27.798  1.00  0.00    -0.352 N 
ATOM     32  C   UNL A   1      34.774  30.664  28.330  1.00  0.00     0.251 C 
ATOM     33  H   UNL A   1      32.868  30.533  27.753  1.00  0.00     0.163 HD
ATOM     34  O   UNL A   1      34.627  31.800  28.782  1.00  0.00    -0.269 OA
BRANCH  32  35
ATOM     35  C   UNL A   1      36.105  30.024  28.416  1.00  0.00     0.039 A 
ATOM     36  C   UNL A   1      36.948  30.081  27.300  1.00  0.00     0.014 A 
ATOM     37  C   UNL A   1      36.535  29.375  29.574  1.00  0.00     0.014 A 
ATOM     38  C   UNL A   1      38.257  29.599  27.388  1.00  0.00     0.010 A 
ATOM     39  C   UNL A   1      37.863  28.967  29.689  1.00  0.00     0.010 A 
ATOM     40  C   UNL A   1      38.746  29.100  28.605  1.00  0.00    -0.014 A 
BRANCH  40  41
ATOM     41  C   UNL A   1      40.188  28.788  28.790  1.00  0.00     0.031 A 
ATOM     42  C   UNL A   1      40.745  27.448  28.404  1.00  0.00     0.074 A 
ATOM     43  C   UNL A   1      40.982  29.688  29.405  1.00  0.00     0.049 A 
ATOM     44  N   UNL A   1      41.953  26.973  28.582  1.00  0.00    -0.248 NA
ATOM     45  C   UNL A   1      39.817  26.509  27.755  1.00  0.00     0.031 C 
ATOM     46  C   UNL A   1      40.558  31.009  29.874  1.00  0.00     0.029 A 
ATOM     47  N   UNL A   1      42.306  29.620  29.762  1.00  0.00    -0.354 N 
ATOM     48  C   UNL A   1      41.927  25.678  28.080  1.00  0.00     0.074 A 
ATOM     49  C   UNL A   1      40.572  25.426  27.638  1.00  0.00     0.031 C 
ATOM     50  C   UNL A   1      41.601  31.630  30.443  1.00  0.00     0.029 A 
ATOM     51  C   UNL A   1      42.754  30.735  30.428  1.00  0.00     0.049 A 
ATOM     52  H   UNL A   1      42.881  28.847  29.559  1.00  0.00     0.167 HD
ATOM     53  C   UNL A   1      42.942  24.784  27.984  1.00  0.00     0.031 A 
ATOM     54  C   UNL A   1      43.948  31.006  30.990  1.00  0.00     0.031 A 
ATOM     55  C   UNL A   1      44.286  25.030  28.440  1.00  0.00     0.049 A 
ATOM     56  C   UNL A   1      45.047  29.986  30.909  1.00  0.00     0.074 A 
ATOM     57  C   UNL A   1      45.395  24.210  28.335  1.00  0.00     0.029 A 
ATOM     58  N   UNL A   1      44.699  26.174  29.107  1.00  0.00    -0.354 N 
ATOM     59  N   UNL A   1      45.030  28.798  30.355  1.00  0.00    -0.248 NA
ATOM     60  C   UNL A   1      46.333  30.347  31.524  1.00  0.00     0.031 C 
ATOM     61  C   UNL A   1      46.460  24.827  28.999  1.00  0.00     0.029 A 
ATOM     62  C   UNL A   1      46.035  26.062  29.458  1.00  0.00     0.049 A 
ATOM     63  H   UNL A   1      44.127  26.951  29.302  1.00  0.00     0.167 HD
ATOM     64  C   UNL A   1      46.303  28.275  30.543  1.00  0.00     0.074 A 
ATOM     65  C   UNL A   1      47.073  29.285  31.240  1.00  0.00     0.031 C 
ATOM     66  C   UNL A   1      46.788  27.065  30.170  1.00  0.00     0.031 A 
BRANCH  53  67
ATOM     67  C   UNL A   1      42.621  23.442  27.383  1.00  0.00    -0.014 A 
ATOM     68  C   UNL A   1      42.265  22.346  28.186  1.00  0.00     0.009 A 
ATOM     69  C   UNL A   1      42.663  23.272  25.990  1.00  0.00     0.009 A 
ATOM     70  C   UNL A   1      42.011  21.098  27.613  1.00  0.00     0.001 A 
ATOM     71  C   UNL A   1      42.373  22.032  25.416  1.00  0.00     0.001 A 
ATOM     72  C   UNL A   1      42.063  20.943  26.229  1.00  0.00     0.000 A 
ENDBRANCH  53  67
BRANCH  54  73
ATOM     73  C   UNL A   1      44.151  32.299  31.695  1.00  0.00    -0.014 A 
ATOM     74  C   UNL A   1      44.606  33.430  31.002  1.00  0.00     0.009 A 
ATOM     75  C   UNL A   1      43.858  32.415  33.064  1.00  0.00     0.009 A 
ATOM     76  C   UNL A   1      44.781  34.645  31.669  1.00  0.00     0.001 A 
ATOM     77  C   UNL A   1      44.004  33.637  33.721  1.00  0.00     0.001 A 
ATOM     78  C   UNL A   1      44.472  34.750  33.025  1.00  0.00     0.000 A 
ENDBRANCH  54  73
BRANCH  66  79
ATOM     79  C   UNL A   1      48.224  26.766  30.500  1.00  0.00    -0.014 A 
ATOM     80  C   UNL A   1      49.265  27.152  29.641  1.00  0.00     0.009 A 
ATOM     81  C   UNL A   1      48.545  26.133  31.712  1.00  0.00     0.009 A 
ATOM     82  C   UNL A   1      50.594  26.884  29.976  1.00  0.00     0.001 A 
ATOM     83  C   UNL A   1      49.876  25.896  32.058  1.00  0.00     0.001 A 
ATOM     84  C   UNL A   1      50.899  26.264  31.187  1.00  0.00     0.000 A 
ENDBRANCH  66  79
ENDBRANCH  40  41
ENDBRANCH  32  35
ENDBRANCH  30  31
ENDBRANCH  29  30
ENDBRANCH   1  29
TORSDOF 13
ENDMDL
MODEL 3
REMARK VINA RESULT:     -11.9      1.505      1.951
REMARK SMILES O=C(NCCCCNC(=O)c1ccc(-c2c3nc(c(-c4ccccc4)c4ccc([nH]4)c(-c4ccccc4)c4nc(c(-c5ccccc5)c5ccc2[nH]5)C=C4)C=C3)cc1)C1=N[C@@H]2NC=NN2[C@@H]([C@H]2C=NN=C2c2ccc(F)cc2)C1
REMARK SMILES IDX 5 1 4 2 3 3 1 4 2 5 59 7 60 8 79 9 61 10 66 11 62 12 65 13
REMARK SMILES IDX 63 14 64 16 67 17 68 18 71 19 69 20 70 21 72 22 73 23 78 24
REMARK SMILES IDX 74 25 77 26 75 27 76 28 6 29 7 30 8 31 9 32 10 34 11 35
REMARK SMILES IDX 12 36 58 37 13 38 57 39 14 40 15 41 16 42 51 43 17 44 56 45
REMARK SMILES IDX 50 46 52 47 18 48 55 49 49 50 48 51 19 53 41 54 26 55 40 56
REMARK SMILES IDX 27 57 30 58 39 59 53 60 28 61 29 62 38 64 54 65 31 66 20 67
REMARK SMILES IDX 21 68 25 69 22 70 24 71 23 72 42 73 43 74 47 75 44 76 46 77
REMARK SMILES IDX 45 78 32 79 33 80 37 81 34 82 36 83 35 84
REMARK H PARENT 3 6 62 15 8 33 52 52 30 63
REMARK Flexibility Score: inf
ROOT
ATOM      1  C   UNL A   1      32.531  29.016  25.809  1.00  0.00     0.023 C 
ENDROOT
BRANCH   1   2
ATOM      2  C   UNL A   1      32.149  27.657  26.387  1.00  0.00     0.116 C 
BRANCH   2   3
ATOM      3  N   UNL A   1      30.872  27.116  25.969  1.00  0.00    -0.351 N 
ATOM      4  O   UNL A   1      29.249  25.566  25.768  1.00  0.00    -0.268 OA
ATOM      5  C   UNL A   1      30.438  25.804  25.954  1.00  0.00     0.265 C 
ATOM      6  H   UNL A   1      30.218  27.778  25.650  1.00  0.00     0.163 HD
BRANCH   5   7
ATOM      7  C   UNL A   1      31.417  24.618  26.053  1.00  0.00     0.106 C 
ATOM      8  N   UNL A   1      31.439  23.989  27.177  1.00  0.00    -0.237 NA
ATOM      9  C   UNL A   1      32.319  24.304  24.893  1.00  0.00     0.090 C 
ATOM     10  C   UNL A   1      32.107  22.717  27.262  1.00  0.00     0.319 C 
ATOM     11  C   UNL A   1      33.186  23.067  25.134  1.00  0.00     0.127 C 
ATOM     12  N   UNL A   1      33.205  22.533  28.166  1.00  0.00    -0.335 N 
ATOM     13  N   UNL A   1      32.555  22.056  26.014  1.00  0.00    -0.249 NA
ATOM     14  C   UNL A   1      33.889  21.485  27.626  1.00  0.00     0.217 C 
ATOM     15  H   UNL A   1      33.415  23.044  28.981  1.00  0.00     0.165 HD
ATOM     16  N   UNL A   1      33.528  21.107  26.426  1.00  0.00    -0.164 NA
BRANCH  11  17
ATOM     17  C   UNL A   1      33.661  22.352  23.855  1.00  0.00     0.109 C 
ATOM     18  C   UNL A   1      32.911  22.775  22.637  1.00  0.00     0.120 C 
ATOM     19  C   UNL A   1      35.019  22.786  23.404  1.00  0.00     0.081 C 
ATOM     20  N   UNL A   1      33.656  23.359  21.757  1.00  0.00    -0.162 NA
ATOM     21  N   UNL A   1      34.998  23.380  22.249  1.00  0.00    -0.155 NA
BRANCH  19  22
ATOM     22  C   UNL A   1      36.216  22.627  24.245  1.00  0.00    -0.001 A 
ATOM     23  C   UNL A   1      36.874  21.395  24.351  1.00  0.00     0.013 A 
ATOM     24  C   UNL A   1      36.641  23.723  25.004  1.00  0.00     0.013 A 
ATOM     25  C   UNL A   1      37.943  21.258  25.240  1.00  0.00     0.040 A 
ATOM     26  C   UNL A   1      37.703  23.578  25.895  1.00  0.00     0.040 A 
ATOM     27  C   UNL A   1      38.341  22.347  26.008  1.00  0.00     0.123 A 
ATOM     28  F   UNL A   1      39.350  22.206  26.875  1.00  0.00    -0.207 F 
ENDBRANCH  19  22
ENDBRANCH  11  17
ENDBRANCH   5   7
ENDBRANCH   2   3
ENDBRANCH   1   2
BRANCH   1  29
ATOM     29  C   UNL A   1      33.852  29.641  26.255  1.00  0.00     0.023 C 
BRANCH  29  30
ATOM     30  C   UNL A   1      34.321  29.314  27.670  1.00  0.00     0.116 C 
BRANCH  30  31
ATOM     31  N   UNL A   1      34.582  30.487  28.493  1.00  0.00    -0.352 N 
ATOM     32  C   UNL A   1      35.722  30.899  29.142  1.00  0.00     0.251 C 
ATOM     33  H   UNL A   1      33.810  31.086  28.604  1.00  0.00     0.163 HD
ATOM     34  O   UNL A   1      35.685  31.896  29.863  1.00  0.00    -0.269 OA
BRANCH  32  35
ATOM     35  C   UNL A   1      36.988  30.140  29.031  1.00  0.00     0.039 A 
ATOM     36  C   UNL A   1      37.532  29.929  27.758  1.00  0.00     0.014 A 
ATOM     37  C   UNL A   1      37.646  29.641  30.155  1.00  0.00     0.014 A 
ATOM     38  C   UNL A   1      38.786  29.328  27.627  1.00  0.00     0.010 A 
ATOM     39  C   UNL A   1      38.931  29.116  30.031  1.00  0.00     0.010 A 
ATOM     40  C   UNL A   1      39.527  28.979  28.767  1.00  0.00    -0.014 A 
BRANCH  40  41
ATOM     41  C   UNL A   1      40.946  28.546  28.665  1.00  0.00     0.031 A 
ATOM     42  C   UNL A   1      42.067  29.538  28.788  1.00  0.00     0.074 A 
ATOM     43  C   UNL A   1      41.221  27.262  28.361  1.00  0.00     0.049 A 
ATOM     44  N   UNL A   1      43.355  29.351  28.631  1.00  0.00    -0.248 NA
ATOM     45  C   UNL A   1      41.692  30.924  29.103  1.00  0.00     0.031 C 
ATOM     46  C   UNL A   1      40.224  26.207  28.168  1.00  0.00     0.029 A 
ATOM     47  N   UNL A   1      42.419  26.630  28.137  1.00  0.00    -0.354 N 
ATOM     48  C   UNL A   1      43.941  30.597  28.815  1.00  0.00     0.074 A 
ATOM     49  C   UNL A   1      42.865  31.538  29.044  1.00  0.00     0.031 C 
ATOM     50  C   UNL A   1      40.851  25.059  27.869  1.00  0.00     0.029 A 
ATOM     51  C   UNL A   1      42.287  25.306  27.796  1.00  0.00     0.049 A 
ATOM     52  H   UNL A   1      43.290  27.082  28.215  1.00  0.00     0.167 HD
ATOM     53  C   UNL A   1      45.256  30.926  28.808  1.00  0.00     0.031 A 
ATOM     54  C   UNL A   1      43.210  24.392  27.439  1.00  0.00     0.031 A 
ATOM     55  C   UNL A   1      46.325  29.992  28.562  1.00  0.00     0.049 A 
ATOM     56  C   UNL A   1      44.658  24.786  27.397  1.00  0.00     0.074 A 
ATOM     57  C   UNL A   1      47.690  30.217  28.591  1.00  0.00     0.029 A 
ATOM     58  N   UNL A   1      46.149  28.657  28.224  1.00  0.00    -0.354 N 
ATOM     59  N   UNL A   1      45.204  25.949  27.656  1.00  0.00    -0.248 NA
ATOM     60  C   UNL A   1      45.619  23.740  27.018  1.00  0.00     0.031 C 
ATOM     61  C   UNL A   1      48.336  29.039  28.200  1.00  0.00     0.029 A 
ATOM     62  C   UNL A   1      47.378  28.060  27.998  1.00  0.00     0.049 A 
ATOM     63  H   UNL A   1      45.278  28.203  28.156  1.00  0.00     0.167 HD
ATOM     64  C   UNL A   1      46.571  25.773  27.487  1.00  0.00     0.074 A 
ATOM     65  C   UNL A   1      46.773  24.384  27.125  1.00  0.00     0.031 C 
ATOM     66  C   UNL A   1      47.568  26.681  27.618  1.00  0.00     0.031 A 
BRANCH  53  67
ATOM     67  C   UNL A   1      45.605  32.371  29.046  1.00  0.00    -0.014 A 
ATOM     68  C   UNL A   1      45.808  32.870  30.343  1.00  0.00     0.009 A 
ATOM     69  C   UNL A   1      45.747  33.244  27.957  1.00  0.00     0.009 A 
ATOM     70  C   UNL A   1      46.091  34.223  30.547  1.00  0.00     0.001 A 
ATOM     71  C   UNL A   1      46.066  34.589  28.161  1.00  0.00     0.001 A 
ATOM     72  C   UNL A   1      46.222  35.080  29.456  1.00  0.00     0.000 A 
ENDBRANCH  53  67
BRANCH  54  73
ATOM     73  C   UNL A   1      42.777  23.016  27.076  1.00  0.00    -0.014 A 
ATOM     74  C   UNL A   1      42.591  22.653  25.734  1.00  0.00     0.009 A 
ATOM     75  C   UNL A   1      42.578  22.049  28.075  1.00  0.00     0.009 A 
ATOM     76  C   UNL A   1      42.198  21.354  25.402  1.00  0.00     0.001 A 
ATOM     77  C   UNL A   1      42.215  20.744  27.738  1.00  0.00     0.001 A 
ATOM     78  C   UNL A   1      42.020  20.399  26.402  1.00  0.00     0.000 A 
ENDBRANCH  54  73
BRANCH  66  79
ATOM     79  C   UNL A   1      48.973  26.203  27.379  1.00  0.00    -0.014 A 
ATOM     80  C   UNL A   1      49.750  25.674  28.421  1.00  0.00     0.009 A 
ATOM     81  C   UNL A   1      49.511  26.236  26.082  1.00  0.00     0.009 A 
ATOM     82  C   UNL A   1      51.046  25.214  28.175  1.00  0.00     0.001 A 
ATOM     83  C   UNL A   1      50.794  25.747  25.833  1.00  0.00     0.001 A 
ATOM     84  C   UNL A   1      51.563  25.245  26.880  1.00  0.00     0.000 A 
ENDBRANCH  66  79
ENDBRANCH  40  41
ENDBRANCH  32  35
ENDBRANCH  30  31
ENDBRANCH  29  30
ENDBRANCH   1  29
TORSDOF 13
ENDMDL
