MODEL 1
REMARK VINA RESULT:     -10.1      0.000      0.000
REMARK SMILES CCc1nc(COC)cc(N2CCCC[C@H]2C(=O)NCCCCNC(=O)c2ccc(-c3c4nc(c(-c5ccccc5)c5ccc([nH]5)c(-c5ccccc5)c5nc(c(-c6ccccc6)c6ccc3[nH]6)C=C5)C=C4)cc2)n1
REMARK SMILES IDX 21 1 20 2 19 3 17 4 18 5 16 7 11 8 12 9 13 10 15 11 14 12
REMARK SMILES IDX 10 13 3 14 4 15 75 16 5 17 9 18 2 19 1 20 6 21 7 22 8 23
REMARK SMILES IDX 22 24 23 25 24 26 25 27 26 29 27 30 28 31 74 32 29 33 73 34
REMARK SMILES IDX 30 35 31 36 32 37 67 38 33 39 72 40 66 41 68 42 34 43 71 44
REMARK SMILES IDX 65 45 64 46 35 48 57 49 42 50 56 51 43 52 46 53 55 54 69 55
REMARK SMILES IDX 44 56 45 57 54 59 70 60 47 61 36 62 37 63 41 64 38 65 40 66
REMARK SMILES IDX 39 67 58 68 59 69 63 70 60 71 62 72 61 73 48 74 49 75 53 76
REMARK SMILES IDX 50 77 52 78 51 79
REMARK H PARENT 19 6 24 28 68 47 46 58
REMARK Flexibility Score: inf
ROOT
ATOM      1  C   UNL A   1      39.275  22.900  26.574  1.00  0.00     0.023 C 
ENDROOT
BRANCH   1   2
ATOM      2  C   UNL A   1      38.068  23.678  26.068  1.00  0.00     0.116 C 
BRANCH   2   3
ATOM      3  N   UNL A   1      37.648  23.267  24.746  1.00  0.00    -0.354 N 
ATOM      4  C   UNL A   1      36.440  23.301  24.119  1.00  0.00     0.242 C 
ATOM      5  O   UNL A   1      36.490  23.086  22.899  1.00  0.00    -0.273 OA
ATOM      6  H   UNL A   1      38.372  22.892  24.196  1.00  0.00     0.163 HD
BRANCH   4   7
ATOM      7  C   UNL A   1      35.061  23.451  24.819  1.00  0.00     0.173 C 
ATOM      8  N   UNL A   1      33.920  23.847  23.982  1.00  0.00    -0.344 N 
ATOM      9  C   UNL A   1      33.307  22.850  23.102  1.00  0.00     0.119 C 
ATOM     10  C   UNL A   1      32.987  21.564  23.851  1.00  0.00     0.022 C 
ATOM     11  C   UNL A   1      34.696  22.157  25.576  1.00  0.00     0.035 C 
ATOM     12  C   UNL A   1      34.195  21.064  24.634  1.00  0.00     0.004 C 
BRANCH   8  13
ATOM     13  C   UNL A   1      33.393  25.130  24.027  1.00  0.00     0.133 A 
ATOM     14  C   UNL A   1      33.336  27.220  25.011  1.00  0.00     0.130 A 
ATOM     15  N   UNL A   1      32.249  27.611  24.329  1.00  0.00    -0.235 NA
ATOM     16  N   UNL A   1      33.905  26.004  24.907  1.00  0.00    -0.216 NA
ATOM     17  C   UNL A   1      31.707  26.716  23.485  1.00  0.00     0.072 A 
ATOM     18  C   UNL A   1      32.293  25.484  23.260  1.00  0.00     0.073 A 
BRANCH  14  19
ATOM     19  C   UNL A   1      34.010  28.218  25.914  1.00  0.00     0.074 C 
ATOM     20  C   UNL A   1      33.219  29.504  26.108  1.00  0.00     0.012 C 
ENDBRANCH  14  19
BRANCH  17  21
ATOM     21  C   UNL A   1      30.389  27.066  22.825  1.00  0.00     0.216 C 
BRANCH  21  22
ATOM     22  O   UNL A   1      30.452  28.236  22.000  1.00  0.00    -0.378 OA
ATOM     23  C   UNL A   1      29.595  29.283  22.433  1.00  0.00     0.195 C 
ENDBRANCH  21  22
ENDBRANCH  17  21
ENDBRANCH   8  13
ENDBRANCH   4   7
ENDBRANCH   2   3
ENDBRANCH   1   2
BRANCH   1  24
ATOM     24  C   UNL A   1      39.417  21.493  26.004  1.00  0.00     0.023 C 
BRANCH  24  25
ATOM     25  C   UNL A   1      40.285  20.545  26.823  1.00  0.00     0.116 C 
BRANCH  25  26
ATOM     26  N   UNL A   1      41.374  19.949  26.063  1.00  0.00    -0.352 N 
ATOM     27  C   UNL A   1      42.613  20.463  25.751  1.00  0.00     0.251 C 
ATOM     28  H   UNL A   1      41.199  19.042  25.720  1.00  0.00     0.163 HD
ATOM     29  O   UNL A   1      43.370  19.852  25.015  1.00  0.00    -0.269 OA
BRANCH  27  30
ATOM     30  C   UNL A   1      42.994  21.789  26.280  1.00  0.00     0.039 A 
ATOM     31  C   UNL A   1      43.141  22.849  25.383  1.00  0.00     0.014 A 
ATOM     32  C   UNL A   1      43.146  21.993  27.653  1.00  0.00     0.014 A 
ATOM     33  C   UNL A   1      43.344  24.138  25.875  1.00  0.00     0.010 A 
ATOM     34  C   UNL A   1      43.265  23.289  28.143  1.00  0.00     0.010 A 
ATOM     35  C   UNL A   1      43.354  24.375  27.260  1.00  0.00    -0.014 A 
BRANCH  35  36
ATOM     36  C   UNL A   1      43.423  25.756  27.800  1.00  0.00     0.031 A 
ATOM     37  C   UNL A   1      44.743  26.353  28.198  1.00  0.00     0.074 A 
ATOM     38  C   UNL A   1      42.281  26.444  28.005  1.00  0.00     0.049 A 
ATOM     39  N   UNL A   1      44.991  27.526  28.725  1.00  0.00    -0.248 NA
ATOM     40  C   UNL A   1      45.940  25.516  28.008  1.00  0.00     0.031 C 
ATOM     41  C   UNL A   1      40.929  25.950  27.729  1.00  0.00     0.029 A 
ATOM     42  N   UNL A   1      42.075  27.706  28.504  1.00  0.00    -0.354 N 
ATOM     43  C   UNL A   1      46.361  27.554  28.953  1.00  0.00     0.074 A 
ATOM     44  C   UNL A   1      46.887  26.270  28.547  1.00  0.00     0.031 C 
ATOM     45  C   UNL A   1      40.038  26.906  28.038  1.00  0.00     0.029 A 
ATOM     46  C   UNL A   1      40.750  28.066  28.565  1.00  0.00     0.049 A 
ATOM     47  H   UNL A   1      42.808  28.297  28.792  1.00  0.00     0.167 HD
ATOM     48  C   UNL A   1      47.115  28.566  29.441  1.00  0.00     0.031 A 
ATOM     49  C   UNL A   1      40.171  29.201  28.999  1.00  0.00     0.031 A 
ATOM     50  C   UNL A   1      46.599  29.856  29.812  1.00  0.00     0.049 A 
ATOM     51  C   UNL A   1      41.039  30.322  29.500  1.00  0.00     0.074 A 
ATOM     52  C   UNL A   1      47.299  30.976  30.225  1.00  0.00     0.029 A 
ATOM     53  N   UNL A   1      45.256  30.195  29.821  1.00  0.00    -0.354 N 
ATOM     54  N   UNL A   1      42.344  30.369  29.609  1.00  0.00    -0.248 NA
ATOM     55  C   UNL A   1      40.353  31.550  29.926  1.00  0.00     0.031 C 
ATOM     56  C   UNL A   1      46.375  31.981  30.529  1.00  0.00     0.029 A 
ATOM     57  C   UNL A   1      45.104  31.500  30.258  1.00  0.00     0.049 A 
ATOM     58  H   UNL A   1      44.520  29.598  29.556  1.00  0.00     0.167 HD
ATOM     59  C   UNL A   1      42.637  31.638  30.092  1.00  0.00     0.074 A 
ATOM     60  C   UNL A   1      41.376  32.335  30.234  1.00  0.00     0.031 C 
ATOM     61  C   UNL A   1      43.842  32.177  30.395  1.00  0.00     0.031 A 
BRANCH  48  62
ATOM     62  C   UNL A   1      48.589  28.324  29.600  1.00  0.00    -0.014 A 
ATOM     63  C   UNL A   1      49.118  27.815  30.796  1.00  0.00     0.009 A 
ATOM     64  C   UNL A   1      49.453  28.554  28.518  1.00  0.00     0.009 A 
ATOM     65  C   UNL A   1      50.487  27.564  30.913  1.00  0.00     0.001 A 
ATOM     66  C   UNL A   1      50.816  28.278  28.628  1.00  0.00     0.001 A 
ATOM     67  C   UNL A   1      51.333  27.789  29.828  1.00  0.00     0.000 A 
ENDBRANCH  48  62
BRANCH  49  68
ATOM     68  C   UNL A   1      38.692  29.347  28.973  1.00  0.00    -0.014 A 
ATOM     69  C   UNL A   1      38.030  29.703  27.789  1.00  0.00     0.009 A 
ATOM     70  C   UNL A   1      37.939  29.157  30.142  1.00  0.00     0.009 A 
ATOM     71  C   UNL A   1      36.648  29.902  27.783  1.00  0.00     0.001 A 
ATOM     72  C   UNL A   1      36.553  29.327  30.126  1.00  0.00     0.001 A 
ATOM     73  C   UNL A   1      35.909  29.711  28.951  1.00  0.00     0.000 A 
ENDBRANCH  49  68
BRANCH  61  74
ATOM     74  C   UNL A   1      43.854  33.597  30.884  1.00  0.00    -0.014 A 
ATOM     75  C   UNL A   1      43.808  33.893  32.255  1.00  0.00     0.009 A 
ATOM     76  C   UNL A   1      43.947  34.650  29.961  1.00  0.00     0.009 A 
ATOM     77  C   UNL A   1      43.820  35.219  32.690  1.00  0.00     0.001 A 
ATOM     78  C   UNL A   1      43.988  35.974  30.401  1.00  0.00     0.001 A 
ATOM     79  C   UNL A   1      43.914  36.257  31.764  1.00  0.00     0.000 A 
ENDBRANCH  61  74
ENDBRANCH  35  36
ENDBRANCH  27  30
ENDBRANCH  25  26
ENDBRANCH  24  25
ENDBRANCH   1  24
TORSDOF 15
ENDMDL
MODEL 2
REMARK VINA RESULT:     -10.1      2.988      8.820
REMARK SMILES CCc1nc(COC)cc(N2CCCC[C@H]2C(=O)NCCCCNC(=O)c2ccc(-c3c4nc(c(-c5ccccc5)c5ccc([nH]5)c(-c5ccccc5)c5nc(c(-c6ccccc6)c6ccc3[nH]6)C=C5)C=C4)cc2)n1
REMARK SMILES IDX 21 1 20 2 19 3 17 4 18 5 16 7 11 8 12 9 13 10 15 11 14 12
REMARK SMILES IDX 10 13 3 14 4 15 75 16 5 17 9 18 2 19 1 20 6 21 7 22 8 23
REMARK SMILES IDX 22 24 23 25 24 26 25 27 26 29 27 30 28 31 74 32 29 33 73 34
REMARK SMILES IDX 30 35 31 36 32 37 67 38 33 39 72 40 66 41 68 42 34 43 71 44
REMARK SMILES IDX 65 45 64 46 35 48 57 49 42 50 56 51 43 52 46 53 55 54 69 55
REMARK SMILES IDX 44 56 45 57 54 59 70 60 47 61 36 62 37 63 41 64 38 65 40 66
REMARK SMILES IDX 39 67 58 68 59 69 63 70 60 71 62 72 61 73 48 74 49 75 53 76
REMARK SMILES IDX 50 77 52 78 51 79
REMARK H PARENT 19 6 24 28 68 47 46 58
REMARK Flexibility Score: inf
ROOT
ATOM      1  C   UNL A   1      32.036  28.951  27.372  1.00  0.00     0.023 C 
ENDROOT
BRANCH   1   2
ATOM      2  C   UNL A   1      32.147  27.823  26.355  1.00  0.00     0.116 C 
BRANCH   2   3
ATOM      3  N   UNL A   1      31.600  26.573  26.839  1.00  0.00    -0.354 N 
ATOM      4  C   UNL A   1      31.825  25.279  26.484  1.00  0.00     0.242 C 
ATOM      5  O   UNL A   1      31.359  24.443  27.272  1.00  0.00    -0.273 OA
ATOM      6  H   UNL A   1      30.941  26.680  27.562  1.00  0.00     0.163 HD
BRANCH   4   7
ATOM      7  C   UNL A   1      32.476  24.805  25.155  1.00  0.00     0.173 C 
ATOM      8  N   UNL A   1      32.253  23.409  24.755  1.00  0.00    -0.344 N 
ATOM      9  C   UNL A   1      30.954  23.032  24.194  1.00  0.00     0.119 C 
ATOM     10  C   UNL A   1      30.536  23.972  23.071  1.00  0.00     0.022 C 
ATOM     11  C   UNL A   1      32.059  25.728  23.990  1.00  0.00     0.035 C 
ATOM     12  C   UNL A   1      30.643  25.429  23.502  1.00  0.00     0.004 C 
BRANCH   8  13
ATOM     13  C   UNL A   1      33.249  22.450  24.870  1.00  0.00     0.133 A 
ATOM     14  C   UNL A   1      35.490  21.893  24.785  1.00  0.00     0.130 A 
ATOM     15  N   UNL A   1      35.258  20.574  24.859  1.00  0.00    -0.235 NA
ATOM     16  N   UNL A   1      34.529  22.836  24.761  1.00  0.00    -0.216 NA
ATOM     17  C   UNL A   1      33.972  20.185  24.917  1.00  0.00     0.072 A 
ATOM     18  C   UNL A   1      32.940  21.102  24.990  1.00  0.00     0.073 A 
BRANCH  14  19
ATOM     19  C   UNL A   1      36.918  22.369  24.787  1.00  0.00     0.074 C 
ATOM     20  C   UNL A   1      37.924  21.292  25.169  1.00  0.00     0.012 C 
ENDBRANCH  14  19
BRANCH  17  21
ATOM     21  C   UNL A   1      33.672  18.703  24.836  1.00  0.00     0.216 C 
BRANCH  21  22
ATOM     22  O   UNL A   1      34.639  17.960  24.082  1.00  0.00    -0.378 OA
ATOM     23  C   UNL A   1      34.085  16.856  23.381  1.00  0.00     0.195 C 
ENDBRANCH  21  22
ENDBRANCH  17  21
ENDBRANCH   8  13
ENDBRANCH   4   7
ENDBRANCH   2   3
ENDBRANCH   1   2
BRANCH   1  24
ATOM     24  C   UNL A   1      31.768  30.329  26.776  1.00  0.00     0.023 C 
BRANCH  24  25
ATOM     25  C   UNL A   1      32.887  31.346  26.966  1.00  0.00     0.116 C 
BRANCH  25  26
ATOM     26  N   UNL A   1      32.410  32.677  27.315  1.00  0.00    -0.352 N 
ATOM     27  C   UNL A   1      32.996  33.643  28.102  1.00  0.00     0.251 C 
ATOM     28  H   UNL A   1      31.537  32.923  26.932  1.00  0.00     0.163 HD
ATOM     29  O   UNL A   1      32.400  34.674  28.365  1.00  0.00    -0.269 OA
BRANCH  27  30
ATOM     30  C   UNL A   1      34.339  33.393  28.665  1.00  0.00     0.039 A 
ATOM     31  C   UNL A   1      34.438  32.720  29.884  1.00  0.00     0.014 A 
ATOM     32  C   UNL A   1      35.488  33.767  27.964  1.00  0.00     0.014 A 
ATOM     33  C   UNL A   1      35.694  32.335  30.354  1.00  0.00     0.010 A 
ATOM     34  C   UNL A   1      36.730  33.310  28.392  1.00  0.00     0.010 A 
ATOM     35  C   UNL A   1      36.844  32.581  29.585  1.00  0.00    -0.014 A 
BRANCH  35  36
ATOM     36  C   UNL A   1      38.168  32.051  29.997  1.00  0.00     0.031 A 
ATOM     37  C   UNL A   1      38.666  30.742  29.454  1.00  0.00     0.074 A 
ATOM     38  C   UNL A   1      38.887  32.716  30.924  1.00  0.00     0.049 A 
ATOM     39  N   UNL A   1      39.775  30.104  29.733  1.00  0.00    -0.248 NA
ATOM     40  C   UNL A   1      37.794  30.040  28.497  1.00  0.00     0.031 C 
ATOM     41  C   UNL A   1      38.483  33.961  31.584  1.00  0.00     0.029 A 
ATOM     42  N   UNL A   1      40.109  32.430  31.482  1.00  0.00    -0.354 N 
ATOM     43  C   UNL A   1      39.720  28.920  29.008  1.00  0.00     0.074 A 
ATOM     44  C   UNL A   1      38.453  28.906  28.311  1.00  0.00     0.031 C 
ATOM     45  C   UNL A   1      39.449  34.343  32.435  1.00  0.00     0.029 A 
ATOM     46  C   UNL A   1      40.523  33.357  32.409  1.00  0.00     0.049 A 
ATOM     47  H   UNL A   1      40.638  31.636  31.240  1.00  0.00     0.167 HD
ATOM     48  C   UNL A   1      40.649  27.940  28.919  1.00  0.00     0.031 A 
ATOM     49  C   UNL A   1      41.641  33.406  33.156  1.00  0.00     0.031 A 
ATOM     50  C   UNL A   1      41.924  27.969  29.584  1.00  0.00     0.049 A 
ATOM     51  C   UNL A   1      42.672  32.322  33.007  1.00  0.00     0.074 A 
ATOM     52  C   UNL A   1      42.970  27.069  29.478  1.00  0.00     0.029 A 
ATOM     53  N   UNL A   1      42.322  28.944  30.482  1.00  0.00    -0.354 N 
ATOM     54  N   UNL A   1      42.650  31.262  32.236  1.00  0.00    -0.248 NA
ATOM     55  C   UNL A   1      43.889  32.449  33.822  1.00  0.00     0.031 C 
ATOM     56  C   UNL A   1      43.985  27.475  30.349  1.00  0.00     0.029 A 
ATOM     57  C   UNL A   1      43.590  28.654  30.959  1.00  0.00     0.049 A 
ATOM     58  H   UNL A   1      41.786  29.727  30.743  1.00  0.00     0.167 HD
ATOM     59  C   UNL A   1      43.856  30.611  32.454  1.00  0.00     0.074 A 
ATOM     60  C   UNL A   1      44.595  31.405  33.412  1.00  0.00     0.031 C 
ATOM     61  C   UNL A   1      44.310  29.455  31.913  1.00  0.00     0.031 A 
BRANCH  48  62
ATOM     62  C   UNL A   1      40.326  26.747  28.065  1.00  0.00    -0.014 A 
ATOM     63  C   UNL A   1      40.774  26.659  26.738  1.00  0.00     0.009 A 
ATOM     64  C   UNL A   1      39.615  25.670  28.616  1.00  0.00     0.009 A 
ATOM     65  C   UNL A   1      40.493  25.526  25.971  1.00  0.00     0.001 A 
ATOM     66  C   UNL A   1      39.358  24.527  27.856  1.00  0.00     0.001 A 
ATOM     67  C   UNL A   1      39.792  24.460  26.532  1.00  0.00     0.000 A 
ENDBRANCH  48  62
BRANCH  49  68
ATOM     68  C   UNL A   1      41.858  34.525  34.111  1.00  0.00    -0.014 A 
ATOM     69  C   UNL A   1      41.442  34.416  35.446  1.00  0.00     0.009 A 
ATOM     70  C   UNL A   1      42.458  35.719  33.682  1.00  0.00     0.009 A 
ATOM     71  C   UNL A   1      41.589  35.492  36.323  1.00  0.00     0.001 A 
ATOM     72  C   UNL A   1      42.631  36.783  34.569  1.00  0.00     0.001 A 
ATOM     73  C   UNL A   1      42.186  36.674  35.886  1.00  0.00     0.000 A 
ENDBRANCH  49  68
BRANCH  61  74
ATOM     74  C   UNL A   1      45.680  28.997  32.326  1.00  0.00    -0.014 A 
ATOM     75  C   UNL A   1      45.858  28.135  33.419  1.00  0.00     0.009 A 
ATOM     76  C   UNL A   1      46.801  29.406  31.589  1.00  0.00     0.009 A 
ATOM     77  C   UNL A   1      47.139  27.720  33.787  1.00  0.00     0.001 A 
ATOM     78  C   UNL A   1      48.078  28.966  31.943  1.00  0.00     0.001 A 
ATOM     79  C   UNL A   1      48.246  28.132  33.047  1.00  0.00     0.000 A 
ENDBRANCH  61  74
ENDBRANCH  35  36
ENDBRANCH  27  30
ENDBRANCH  25  26
ENDBRANCH  24  25
ENDBRANCH   1  24
TORSDOF 15
ENDMDL
MODEL 3
REMARK VINA RESULT:     -10.0      1.363      6.157
REMARK SMILES CCc1nc(COC)cc(N2CCCC[C@H]2C(=O)NCCCCNC(=O)c2ccc(-c3c4nc(c(-c5ccccc5)c5ccc([nH]5)c(-c5ccccc5)c5nc(c(-c6ccccc6)c6ccc3[nH]6)C=C5)C=C4)cc2)n1
REMARK SMILES IDX 21 1 20 2 19 3 17 4 18 5 16 7 11 8 12 9 13 10 15 11 14 12
REMARK SMILES IDX 10 13 3 14 4 15 75 16 5 17 9 18 2 19 1 20 6 21 7 22 8 23
REMARK SMILES IDX 22 24 23 25 24 26 25 27 26 29 27 30 28 31 74 32 29 33 73 34
REMARK SMILES IDX 30 35 31 36 32 37 67 38 33 39 72 40 66 41 68 42 34 43 71 44
REMARK SMILES IDX 65 45 64 46 35 48 57 49 42 50 56 51 43 52 46 53 55 54 69 55
REMARK SMILES IDX 44 56 45 57 54 59 70 60 47 61 36 62 37 63 41 64 38 65 40 66
REMARK SMILES IDX 39 67 58 68 59 69 63 70 60 71 62 72 61 73 48 74 49 75 53 76
REMARK SMILES IDX 50 77 52 78 51 79
REMARK H PARENT 19 6 24 28 68 47 46 58
REMARK Flexibility Score: inf
ROOT
ATOM      1  C   UNL A   1      36.162  21.537  25.431  1.00  0.00     0.023 C 
ENDROOT
BRANCH   1   2
ATOM      2  C   UNL A   1      36.056  23.048  25.267  1.00  0.00     0.116 C 
BRANCH   2   3
ATOM      3  N   UNL A   1      35.526  23.437  23.978  1.00  0.00    -0.354 N 
ATOM      4  C   UNL A   1      34.456  24.199  23.622  1.00  0.00     0.242 C 
ATOM      5  O   UNL A   1      34.434  24.523  22.425  1.00  0.00    -0.273 OA
ATOM      6  H   UNL A   1      36.037  23.084  23.214  1.00  0.00     0.163 HD
BRANCH   4   7
ATOM      7  C   UNL A   1      33.254  24.556  24.539  1.00  0.00     0.173 C 
ATOM      8  N   UNL A   1      32.136  25.290  23.930  1.00  0.00    -0.344 N 
ATOM      9  C   UNL A   1      31.198  24.564  23.070  1.00  0.00     0.119 C 
ATOM     10  C   UNL A   1      30.690  23.296  23.742  1.00  0.00     0.022 C 
ATOM     11  C   UNL A   1      32.702  23.288  25.225  1.00  0.00     0.035 C 
ATOM     12  C   UNL A   1      31.841  22.455  24.278  1.00  0.00     0.004 C 
BRANCH   8  13
ATOM     13  C   UNL A   1      31.932  26.640  24.172  1.00  0.00     0.133 A 
ATOM     14  C   UNL A   1      31.780  28.388  25.676  1.00  0.00     0.130 A 
ATOM     15  N   UNL A   1      31.320  29.255  24.761  1.00  0.00    -0.235 NA
ATOM     16  N   UNL A   1      32.064  27.096  25.427  1.00  0.00    -0.216 NA
ATOM     17  C   UNL A   1      31.139  28.783  23.515  1.00  0.00     0.072 A 
ATOM     18  C   UNL A   1      31.497  27.494  23.168  1.00  0.00     0.073 A 
BRANCH  14  19
ATOM     19  C   UNL A   1      32.060  28.897  27.065  1.00  0.00     0.074 C 
ATOM     20  C   UNL A   1      32.584  30.325  27.102  1.00  0.00     0.012 C 
ENDBRANCH  14  19
BRANCH  17  21
ATOM     21  C   UNL A   1      30.468  29.688  22.502  1.00  0.00     0.216 C 
BRANCH  21  22
ATOM     22  O   UNL A   1      29.322  29.098  21.874  1.00  0.00    -0.378 OA
ATOM     23  C   UNL A   1      28.177  29.049  22.714  1.00  0.00     0.195 C 
ENDBRANCH  21  22
ENDBRANCH  17  21
ENDBRANCH   8  13
ENDBRANCH   4   7
ENDBRANCH   2   3
ENDBRANCH   1   2
BRANCH   1  24
ATOM     24  C   UNL A   1      37.450  20.923  24.892  1.00  0.00     0.023 C 
BRANCH  24  25
ATOM     25  C   UNL A   1      38.676  21.103  25.780  1.00  0.00     0.116 C 
BRANCH  25  26
ATOM     26  N   UNL A   1      39.594  19.974  25.739  1.00  0.00    -0.352 N 
ATOM     27  C   UNL A   1      40.925  19.910  26.085  1.00  0.00     0.251 C 
ATOM     28  H   UNL A   1      39.205  19.129  25.415  1.00  0.00     0.163 HD
ATOM     29  O   UNL A   1      41.568  18.892  25.893  1.00  0.00    -0.269 OA
BRANCH  27  30
ATOM     30  C   UNL A   1      41.579  21.110  26.648  1.00  0.00     0.039 A 
ATOM     31  C   UNL A   1      42.131  22.044  25.770  1.00  0.00     0.014 A 
ATOM     32  C   UNL A   1      41.592  21.336  28.026  1.00  0.00     0.014 A 
ATOM     33  C   UNL A   1      42.610  23.255  26.270  1.00  0.00     0.010 A 
ATOM     34  C   UNL A   1      41.992  22.576  28.513  1.00  0.00     0.010 A 
ATOM     35  C   UNL A   1      42.495  23.550  27.639  1.00  0.00    -0.014 A 
BRANCH  35  36
ATOM     36  C   UNL A   1      42.865  24.888  28.166  1.00  0.00     0.031 A 
ATOM     37  C   UNL A   1      41.809  25.934  28.394  1.00  0.00     0.074 A 
ATOM     38  C   UNL A   1      44.165  25.186  28.365  1.00  0.00     0.049 A 
ATOM     39  N   UNL A   1      41.950  27.168  28.808  1.00  0.00    -0.248 NA
ATOM     40  C   UNL A   1      40.418  25.557  28.090  1.00  0.00     0.031 C 
ATOM     41  C   UNL A   1      45.293  24.284  28.113  1.00  0.00     0.029 A 
ATOM     42  N   UNL A   1      44.759  26.338  28.817  1.00  0.00    -0.354 N 
ATOM     43  C   UNL A   1      40.675  27.719  28.788  1.00  0.00     0.074 A 
ATOM     44  C   UNL A   1      39.779  26.702  28.283  1.00  0.00     0.031 C 
ATOM     45  C   UNL A   1      46.437  24.907  28.437  1.00  0.00     0.029 A 
ATOM     46  C   UNL A   1      46.130  26.261  28.886  1.00  0.00     0.049 A 
ATOM     47  H   UNL A   1      44.252  27.143  29.067  1.00  0.00     0.167 HD
ATOM     48  C   UNL A   1      40.282  28.956  29.172  1.00  0.00     0.031 A 
ATOM     49  C   UNL A   1      47.039  27.178  29.266  1.00  0.00     0.031 A 
ATOM     50  C   UNL A   1      41.166  29.956  29.707  1.00  0.00     0.049 A 
ATOM     51  C   UNL A   1      46.569  28.531  29.724  1.00  0.00     0.074 A 
ATOM     52  C   UNL A   1      40.846  31.204  30.214  1.00  0.00     0.029 A 
ATOM     53  N   UNL A   1      42.541  29.826  29.799  1.00  0.00    -0.354 N 
ATOM     54  N   UNL A   1      45.347  28.999  29.798  1.00  0.00    -0.248 NA
ATOM     55  C   UNL A   1      47.605  29.477  30.162  1.00  0.00     0.031 C 
ATOM     56  C   UNL A   1      42.034  31.848  30.570  1.00  0.00     0.029 A 
ATOM     57  C   UNL A   1      43.089  30.981  30.331  1.00  0.00     0.049 A 
ATOM     58  H   UNL A   1      43.054  29.030  29.529  1.00  0.00     0.167 HD
ATOM     59  C   UNL A   1      45.465  30.282  30.313  1.00  0.00     0.074 A 
ATOM     60  C   UNL A   1      46.874  30.511  30.554  1.00  0.00     0.031 C 
ATOM     61  C   UNL A   1      44.493  31.193  30.562  1.00  0.00     0.031 A 
BRANCH  48  62
ATOM     62  C   UNL A   1      38.827  29.302  29.032  1.00  0.00    -0.014 A 
ATOM     63  C   UNL A   1      38.300  29.750  27.811  1.00  0.00     0.009 A 
ATOM     64  C   UNL A   1      37.962  29.121  30.121  1.00  0.00     0.009 A 
ATOM     65  C   UNL A   1      36.938  30.034  27.691  1.00  0.00     0.001 A 
ATOM     66  C   UNL A   1      36.596  29.380  29.992  1.00  0.00     0.001 A 
ATOM     67  C   UNL A   1      36.087  29.843  28.779  1.00  0.00     0.000 A 
ENDBRANCH  48  62
BRANCH  49  68
ATOM     68  C   UNL A   1      48.489  26.852  29.243  1.00  0.00    -0.014 A 
ATOM     69  C   UNL A   1      49.122  26.330  30.381  1.00  0.00     0.009 A 
ATOM     70  C   UNL A   1      49.252  27.088  28.089  1.00  0.00     0.009 A 
ATOM     71  C   UNL A   1      50.497  26.085  30.376  1.00  0.00     0.001 A 
ATOM     72  C   UNL A   1      50.621  26.813  28.078  1.00  0.00     0.001 A 
ATOM     73  C   UNL A   1      51.245  26.324  29.224  1.00  0.00     0.000 A 
ENDBRANCH  49  68
BRANCH  61  74
ATOM     74  C   UNL A   1      44.920  32.509  31.147  1.00  0.00    -0.014 A 
ATOM     75  C   UNL A   1      45.233  33.601  30.324  1.00  0.00     0.009 A 
ATOM     76  C   UNL A   1      44.976  32.665  32.540  1.00  0.00     0.009 A 
ATOM     77  C   UNL A   1      45.628  34.816  30.886  1.00  0.00     0.001 A 
ATOM     78  C   UNL A   1      45.344  33.890  33.100  1.00  0.00     0.001 A 
ATOM     79  C   UNL A   1      45.679  34.960  32.272  1.00  0.00     0.000 A 
ENDBRANCH  61  74
ENDBRANCH  35  36
ENDBRANCH  27  30
ENDBRANCH  25  26
ENDBRANCH  24  25
ENDBRANCH   1  24
TORSDOF 15
ENDMDL
