MODEL 1
REMARK VINA RESULT:     -12.2      0.000      0.000
REMARK SMILES Cc1cccc(NC(=O)C[C@@H]2CCCCO2)c1C(=O)NCCCCNC(=O)c1ccc(-c2c3nc(c(-c4ccccc4)c4ccc([nH]4)c(-c4ccccc4)c4nc(c(-c5ccccc5)c5ccc2[nH]5)C=C4)C=C3)cc1
REMARK SMILES IDX 22 1 21 2 20 3 18 4 19 5 17 7 1 8 2 9 3 10 4 11 6 12 5 13
REMARK SMILES IDX 7 14 8 15 9 17 10 18 11 19 12 20 16 21 13 22 15 23 14 24
REMARK SMILES IDX 23 25 24 26 25 27 26 28 27 30 28 31 29 32 75 33 30 34 74 35
REMARK SMILES IDX 31 36 32 37 33 38 68 39 34 40 73 41 67 42 69 43 35 44 72 45
REMARK SMILES IDX 66 46 65 47 36 49 58 50 43 51 57 52 44 53 47 54 56 55 70 56
REMARK SMILES IDX 45 57 46 58 55 60 71 61 48 62 37 63 38 64 42 65 39 66 41 67
REMARK SMILES IDX 40 68 59 69 60 70 64 71 61 72 63 73 62 74 49 75 50 76 54 77
REMARK SMILES IDX 51 78 53 79 52 80
REMARK H PARENT 20 6 7 16 25 29 69 48 47 59
REMARK Flexibility Score: inf
ROOT
ATOM      1  C   UNL A   1      35.077  29.918  27.305  1.00  0.00     0.023 C 
ENDROOT
BRANCH   1   2
ATOM      2  C   UNL A   1      34.410  28.657  26.724  1.00  0.00     0.116 C 
BRANCH   2   3
ATOM      3  N   UNL A   1      33.196  28.351  27.461  1.00  0.00    -0.352 N 
ATOM      4  C   UNL A   1      31.880  28.178  27.113  1.00  0.00     0.253 C 
ATOM      5  O   UNL A   1      31.110  27.945  28.048  1.00  0.00    -0.269 OA
ATOM      6  H   UNL A   1      33.352  28.244  28.428  1.00  0.00     0.163 HD
BRANCH   4   7
ATOM      7  C   UNL A   1      31.380  28.113  25.698  1.00  0.00     0.066 A 
ATOM      8  C   UNL A   1      31.065  30.631  25.333  1.00  0.00     0.045 C 
ATOM      9  C   UNL A   1      31.228  29.222  24.840  1.00  0.00    -0.036 A 
ATOM     10  C   UNL A   1      31.003  29.018  23.464  1.00  0.00     0.004 A 
ATOM     11  C   UNL A   1      30.805  27.740  22.960  1.00  0.00     0.002 A 
ATOM     12  C   UNL A   1      30.895  26.867  25.220  1.00  0.00     0.054 A 
ATOM     13  C   UNL A   1      30.714  26.671  23.844  1.00  0.00     0.027 A 
BRANCH  12  14
ATOM     14  N   UNL A   1      30.465  25.881  26.141  1.00  0.00    -0.325 N 
ATOM     15  C   UNL A   1      30.949  24.613  26.365  1.00  0.00     0.227 C 
ATOM     16  H   UNL A   1      29.704  26.142  26.706  1.00  0.00     0.169 HD
ATOM     17  O   UNL A   1      30.370  23.895  27.189  1.00  0.00    -0.275 OA
BRANCH  15  18
ATOM     18  C   UNL A   1      32.138  24.061  25.599  1.00  0.00     0.132 C 
BRANCH  18  19
ATOM     19  C   UNL A   1      33.509  24.546  26.108  1.00  0.00     0.127 C 
ATOM     20  C   UNL A   1      34.286  25.276  24.998  1.00  0.00     0.033 C 
ATOM     21  O   UNL A   1      34.351  23.528  26.659  1.00  0.00    -0.378 OA
ATOM     22  C   UNL A   1      34.787  24.310  23.923  1.00  0.00     0.005 C 
ATOM     23  C   UNL A   1      34.849  22.570  25.739  1.00  0.00     0.160 C 
ATOM     24  C   UNL A   1      35.582  23.178  24.555  1.00  0.00     0.029 C 
ENDBRANCH  18  19
ENDBRANCH  15  18
ENDBRANCH  12  14
ENDBRANCH   4   7
ENDBRANCH   2   3
ENDBRANCH   1   2
BRANCH   1  25
ATOM     25  C   UNL A   1      34.108  31.060  27.619  1.00  0.00     0.023 C 
BRANCH  25  26
ATOM     26  C   UNL A   1      34.824  32.302  28.119  1.00  0.00     0.116 C 
BRANCH  26  27
ATOM     27  N   UNL A   1      33.940  33.343  28.638  1.00  0.00    -0.352 N 
ATOM     28  C   UNL A   1      33.911  33.929  29.890  1.00  0.00     0.251 C 
ATOM     29  H   UNL A   1      33.266  33.675  28.002  1.00  0.00     0.163 HD
ATOM     30  O   UNL A   1      33.034  34.751  30.162  1.00  0.00    -0.269 OA
BRANCH  28  31
ATOM     31  C   UNL A   1      35.027  33.701  30.841  1.00  0.00     0.039 A 
ATOM     32  C   UNL A   1      36.150  34.527  30.721  1.00  0.00     0.014 A 
ATOM     33  C   UNL A   1      35.100  32.531  31.586  1.00  0.00     0.014 A 
ATOM     34  C   UNL A   1      37.400  34.021  31.059  1.00  0.00     0.010 A 
ATOM     35  C   UNL A   1      36.344  31.971  31.789  1.00  0.00     0.010 A 
ATOM     36  C   UNL A   1      37.494  32.683  31.438  1.00  0.00    -0.014 A 
BRANCH  36  37
ATOM     37  C   UNL A   1      38.729  31.915  31.329  1.00  0.00     0.031 A 
ATOM     38  C   UNL A   1      38.735  30.624  30.603  1.00  0.00     0.074 A 
ATOM     39  C   UNL A   1      39.884  32.426  31.823  1.00  0.00     0.049 A 
ATOM     40  N   UNL A   1      39.600  29.684  30.794  1.00  0.00    -0.248 NA
ATOM     41  C   UNL A   1      37.712  30.264  29.623  1.00  0.00     0.031 C 
ATOM     42  C   UNL A   1      41.235  31.912  31.586  1.00  0.00     0.029 A 
ATOM     43  N   UNL A   1      40.104  33.430  32.770  1.00  0.00    -0.354 N 
ATOM     44  C   UNL A   1      39.460  28.781  29.764  1.00  0.00     0.074 A 
ATOM     45  C   UNL A   1      38.201  29.117  29.144  1.00  0.00     0.031 C 
ATOM     46  C   UNL A   1      42.039  32.347  32.571  1.00  0.00     0.029 A 
ATOM     47  C   UNL A   1      41.189  33.004  33.549  1.00  0.00     0.049 A 
ATOM     48  H   UNL A   1      39.598  34.269  32.870  1.00  0.00     0.167 HD
ATOM     49  C   UNL A   1      40.504  27.961  29.447  1.00  0.00     0.031 A 
ATOM     50  C   UNL A   1      41.116  32.650  34.868  1.00  0.00     0.031 A 
ATOM     51  C   UNL A   1      41.588  28.066  30.427  1.00  0.00     0.049 A 
ATOM     52  C   UNL A   1      41.585  31.225  35.143  1.00  0.00     0.074 A 
ATOM     53  C   UNL A   1      42.825  28.689  30.408  1.00  0.00     0.029 A 
ATOM     54  N   UNL A   1      41.346  27.719  31.752  1.00  0.00    -0.354 N 
ATOM     55  N   UNL A   1      41.744  30.325  34.211  1.00  0.00    -0.248 NA
ATOM     56  C   UNL A   1      41.847  30.681  36.476  1.00  0.00     0.031 C 
ATOM     57  C   UNL A   1      43.284  28.796  31.748  1.00  0.00     0.029 A 
ATOM     58  C   UNL A   1      42.343  28.208  32.574  1.00  0.00     0.049 A 
ATOM     59  H   UNL A   1      40.571  27.195  32.062  1.00  0.00     0.167 HD
ATOM     60  C   UNL A   1      42.093  29.127  34.771  1.00  0.00     0.074 A 
ATOM     61  C   UNL A   1      42.162  29.403  36.195  1.00  0.00     0.031 C 
ATOM     62  C   UNL A   1      42.272  28.004  34.016  1.00  0.00     0.031 A 
BRANCH  49  63
ATOM     63  C   UNL A   1      40.668  27.303  28.090  1.00  0.00    -0.014 A 
ATOM     64  C   UNL A   1      40.178  25.997  27.890  1.00  0.00     0.009 A 
ATOM     65  C   UNL A   1      41.362  27.858  27.002  1.00  0.00     0.009 A 
ATOM     66  C   UNL A   1      40.453  25.265  26.724  1.00  0.00     0.001 A 
ATOM     67  C   UNL A   1      41.665  27.127  25.845  1.00  0.00     0.001 A 
ATOM     68  C   UNL A   1      41.221  25.821  25.711  1.00  0.00     0.000 A 
ENDBRANCH  49  63
BRANCH  50  69
ATOM     69  C   UNL A   1      40.049  33.337  35.644  1.00  0.00    -0.014 A 
ATOM     70  C   UNL A   1      38.835  32.657  35.859  1.00  0.00     0.009 A 
ATOM     71  C   UNL A   1      40.341  34.455  36.435  1.00  0.00     0.009 A 
ATOM     72  C   UNL A   1      37.997  33.010  36.921  1.00  0.00     0.001 A 
ATOM     73  C   UNL A   1      39.495  34.810  37.493  1.00  0.00     0.001 A 
ATOM     74  C   UNL A   1      38.346  34.064  37.759  1.00  0.00     0.000 A 
ENDBRANCH  50  69
BRANCH  62  75
ATOM     75  C   UNL A   1      42.449  26.603  34.544  1.00  0.00    -0.014 A 
ATOM     76  C   UNL A   1      41.497  25.926  35.318  1.00  0.00     0.009 A 
ATOM     77  C   UNL A   1      43.575  25.856  34.126  1.00  0.00     0.009 A 
ATOM     78  C   UNL A   1      41.681  24.585  35.690  1.00  0.00     0.001 A 
ATOM     79  C   UNL A   1      43.740  24.509  34.457  1.00  0.00     0.001 A 
ATOM     80  C   UNL A   1      42.796  23.876  35.250  1.00  0.00     0.000 A 
ENDBRANCH  62  75
ENDBRANCH  36  37
ENDBRANCH  28  31
ENDBRANCH  26  27
ENDBRANCH  25  26
ENDBRANCH   1  25
TORSDOF 14
ENDMDL
MODEL 2
REMARK VINA RESULT:     -12.1      4.143      9.217
REMARK SMILES Cc1cccc(NC(=O)C[C@@H]2CCCCO2)c1C(=O)NCCCCNC(=O)c1ccc(-c2c3nc(c(-c4ccccc4)c4ccc([nH]4)c(-c4ccccc4)c4nc(c(-c5ccccc5)c5ccc2[nH]5)C=C4)C=C3)cc1
REMARK SMILES IDX 22 1 21 2 20 3 18 4 19 5 17 7 1 8 2 9 3 10 4 11 6 12 5 13
REMARK SMILES IDX 7 14 8 15 9 17 10 18 11 19 12 20 16 21 13 22 15 23 14 24
REMARK SMILES IDX 23 25 24 26 25 27 26 28 27 30 28 31 29 32 75 33 30 34 74 35
REMARK SMILES IDX 31 36 32 37 33 38 68 39 34 40 73 41 67 42 69 43 35 44 72 45
REMARK SMILES IDX 66 46 65 47 36 49 58 50 43 51 57 52 44 53 47 54 56 55 70 56
REMARK SMILES IDX 45 57 46 58 55 60 71 61 48 62 37 63 38 64 42 65 39 66 41 67
REMARK SMILES IDX 40 68 59 69 60 70 64 71 61 72 63 73 62 74 49 75 50 76 54 77
REMARK SMILES IDX 51 78 53 79 52 80
REMARK H PARENT 20 6 7 16 25 29 69 48 47 59
REMARK Flexibility Score: inf
ROOT
ATOM      1  C   UNL A   1      37.977  23.687  26.344  1.00  0.00     0.023 C 
ENDROOT
BRANCH   1   2
ATOM      2  C   UNL A   1      36.540  23.935  25.848  1.00  0.00     0.116 C 
BRANCH   2   3
ATOM      3  N   UNL A   1      36.443  23.632  24.431  1.00  0.00    -0.352 N 
ATOM      4  C   UNL A   1      35.501  23.019  23.644  1.00  0.00     0.253 C 
ATOM      5  O   UNL A   1      35.790  22.922  22.449  1.00  0.00    -0.269 OA
ATOM      6  H   UNL A   1      37.229  23.935  23.920  1.00  0.00     0.163 HD
BRANCH   4   7
ATOM      7  C   UNL A   1      34.134  22.615  24.117  1.00  0.00     0.066 A 
ATOM      8  C   UNL A   1      34.689  20.185  24.720  1.00  0.00     0.045 C 
ATOM      9  C   UNL A   1      33.834  21.417  24.799  1.00  0.00    -0.036 A 
ATOM     10  C   UNL A   1      32.580  21.260  25.422  1.00  0.00     0.004 A 
ATOM     11  C   UNL A   1      31.588  22.219  25.268  1.00  0.00     0.002 A 
ATOM     12  C   UNL A   1      33.031  23.426  23.740  1.00  0.00     0.054 A 
ATOM     13  C   UNL A   1      31.802  23.281  24.398  1.00  0.00     0.027 A 
BRANCH  12  14
ATOM     14  N   UNL A   1      33.138  24.275  22.612  1.00  0.00    -0.325 N 
ATOM     15  C   UNL A   1      33.513  25.596  22.534  1.00  0.00     0.227 C 
ATOM     16  H   UNL A   1      32.908  23.857  21.752  1.00  0.00     0.169 HD
ATOM     17  O   UNL A   1      33.474  26.160  21.435  1.00  0.00    -0.275 OA
BRANCH  15  18
ATOM     18  C   UNL A   1      33.927  26.386  23.764  1.00  0.00     0.132 C 
BRANCH  18  19
ATOM     19  C   UNL A   1      33.109  27.668  24.007  1.00  0.00     0.127 C 
ATOM     20  C   UNL A   1      33.789  28.571  25.052  1.00  0.00     0.033 C 
ATOM     21  O   UNL A   1      31.749  27.459  24.402  1.00  0.00    -0.378 OA
ATOM     22  C   UNL A   1      33.691  27.985  26.461  1.00  0.00     0.005 C 
ATOM     23  C   UNL A   1      31.557  26.898  25.691  1.00  0.00     0.160 C 
ATOM     24  C   UNL A   1      32.244  27.668  26.806  1.00  0.00     0.029 C 
ENDBRANCH  18  19
ENDBRANCH  15  18
ENDBRANCH  12  14
ENDBRANCH   4   7
ENDBRANCH   2   3
ENDBRANCH   1   2
BRANCH   1  25
ATOM     25  C   UNL A   1      38.561  22.331  25.942  1.00  0.00     0.023 C 
BRANCH  25  26
ATOM     26  C   UNL A   1      39.807  21.982  26.735  1.00  0.00     0.116 C 
BRANCH  26  27
ATOM     27  N   UNL A   1      40.629  20.931  26.141  1.00  0.00    -0.352 N 
ATOM     28  C   UNL A   1      42.007  20.820  26.080  1.00  0.00     0.251 C 
ATOM     29  H   UNL A   1      40.129  20.195  25.722  1.00  0.00     0.163 HD
ATOM     30  O   UNL A   1      42.519  19.882  25.467  1.00  0.00    -0.269 OA
BRANCH  28  31
ATOM     31  C   UNL A   1      42.860  21.724  26.890  1.00  0.00     0.039 A 
ATOM     32  C   UNL A   1      42.681  21.701  28.278  1.00  0.00     0.014 A 
ATOM     33  C   UNL A   1      43.557  22.768  26.296  1.00  0.00     0.014 A 
ATOM     34  C   UNL A   1      42.904  22.863  29.007  1.00  0.00     0.010 A 
ATOM     35  C   UNL A   1      43.644  23.961  26.983  1.00  0.00     0.010 A 
ATOM     36  C   UNL A   1      43.229  24.028  28.315  1.00  0.00    -0.014 A 
BRANCH  36  37
ATOM     37  C   UNL A   1      42.998  25.362  28.860  1.00  0.00     0.031 A 
ATOM     38  C   UNL A   1      41.833  26.155  28.404  1.00  0.00     0.074 A 
ATOM     39  C   UNL A   1      43.805  25.836  29.842  1.00  0.00     0.049 A 
ATOM     40  N   UNL A   1      41.758  27.443  28.468  1.00  0.00    -0.248 NA
ATOM     41  C   UNL A   1      40.661  25.549  27.777  1.00  0.00     0.031 C 
ATOM     42  C   UNL A   1      43.573  27.028  30.659  1.00  0.00     0.029 A 
ATOM     43  N   UNL A   1      45.090  25.447  30.231  1.00  0.00    -0.354 N 
ATOM     44  C   UNL A   1      40.448  27.791  28.225  1.00  0.00     0.074 A 
ATOM     45  C   UNL A   1      39.843  26.600  27.678  1.00  0.00     0.031 C 
ATOM     46  C   UNL A   1      44.749  27.441  31.161  1.00  0.00     0.029 A 
ATOM     47  C   UNL A   1      45.780  26.627  30.540  1.00  0.00     0.049 A 
ATOM     48  H   UNL A   1      45.440  24.528  30.279  1.00  0.00     0.167 HD
ATOM     49  C   UNL A   1      39.982  28.994  28.669  1.00  0.00     0.031 A 
ATOM     50  C   UNL A   1      46.833  27.129  29.826  1.00  0.00     0.031 A 
ATOM     51  C   UNL A   1      41.063  29.828  29.201  1.00  0.00     0.049 A 
ATOM     52  C   UNL A   1      46.590  28.537  29.293  1.00  0.00     0.074 A 
ATOM     53  C   UNL A   1      41.458  30.160  30.487  1.00  0.00     0.029 A 
ATOM     54  N   UNL A   1      42.100  30.218  28.361  1.00  0.00    -0.354 N 
ATOM     55  N   UNL A   1      45.412  29.097  29.242  1.00  0.00    -0.248 NA
ATOM     56  C   UNL A   1      47.627  29.398  28.721  1.00  0.00     0.031 C 
ATOM     57  C   UNL A   1      42.783  30.669  30.421  1.00  0.00     0.029 A 
ATOM     58  C   UNL A   1      43.176  30.678  29.095  1.00  0.00     0.049 A 
ATOM     59  H   UNL A   1      42.071  30.173  27.377  1.00  0.00     0.167 HD
ATOM     60  C   UNL A   1      45.501  30.324  28.644  1.00  0.00     0.074 A 
ATOM     61  C   UNL A   1      46.914  30.478  28.350  1.00  0.00     0.031 C 
ATOM     62  C   UNL A   1      44.399  31.099  28.422  1.00  0.00     0.031 A 
BRANCH  49  63
ATOM     63  C   UNL A   1      38.512  29.286  28.904  1.00  0.00    -0.014 A 
ATOM     64  C   UNL A   1      37.721  29.762  27.841  1.00  0.00     0.009 A 
ATOM     65  C   UNL A   1      37.862  29.204  30.147  1.00  0.00     0.009 A 
ATOM     66  C   UNL A   1      36.407  30.220  28.031  1.00  0.00     0.001 A 
ATOM     67  C   UNL A   1      36.560  29.683  30.354  1.00  0.00     0.001 A 
ATOM     68  C   UNL A   1      35.836  30.206  29.295  1.00  0.00     0.000 A 
ENDBRANCH  49  63
BRANCH  50  69
ATOM     69  C   UNL A   1      47.661  26.110  29.129  1.00  0.00    -0.014 A 
ATOM     70  C   UNL A   1      47.379  25.828  27.779  1.00  0.00     0.009 A 
ATOM     71  C   UNL A   1      48.892  25.699  29.657  1.00  0.00     0.009 A 
ATOM     72  C   UNL A   1      48.353  25.264  26.948  1.00  0.00     0.001 A 
ATOM     73  C   UNL A   1      49.861  25.126  28.824  1.00  0.00     0.001 A 
ATOM     74  C   UNL A   1      49.606  24.946  27.464  1.00  0.00     0.000 A 
ENDBRANCH  50  69
BRANCH  62  75
ATOM     75  C   UNL A   1      44.356  32.358  27.593  1.00  0.00    -0.014 A 
ATOM     76  C   UNL A   1      44.303  32.379  26.194  1.00  0.00     0.009 A 
ATOM     77  C   UNL A   1      44.217  33.601  28.253  1.00  0.00     0.009 A 
ATOM     78  C   UNL A   1      44.161  33.584  25.489  1.00  0.00     0.001 A 
ATOM     79  C   UNL A   1      44.029  34.797  27.556  1.00  0.00     0.001 A 
ATOM     80  C   UNL A   1      44.014  34.789  26.170  1.00  0.00     0.000 A 
ENDBRANCH  62  75
ENDBRANCH  36  37
ENDBRANCH  28  31
ENDBRANCH  26  27
ENDBRANCH  25  26
ENDBRANCH   1  25
TORSDOF 14
ENDMDL
MODEL 3
REMARK VINA RESULT:     -11.4      2.370      3.989
REMARK SMILES Cc1cccc(NC(=O)C[C@@H]2CCCCO2)c1C(=O)NCCCCNC(=O)c1ccc(-c2c3nc(c(-c4ccccc4)c4ccc([nH]4)c(-c4ccccc4)c4nc(c(-c5ccccc5)c5ccc2[nH]5)C=C4)C=C3)cc1
REMARK SMILES IDX 22 1 21 2 20 3 18 4 19 5 17 7 1 8 2 9 3 10 4 11 6 12 5 13
REMARK SMILES IDX 7 14 8 15 9 17 10 18 11 19 12 20 16 21 13 22 15 23 14 24
REMARK SMILES IDX 23 25 24 26 25 27 26 28 27 30 28 31 29 32 75 33 30 34 74 35
REMARK SMILES IDX 31 36 32 37 33 38 68 39 34 40 73 41 67 42 69 43 35 44 72 45
REMARK SMILES IDX 66 46 65 47 36 49 58 50 43 51 57 52 44 53 47 54 56 55 70 56
REMARK SMILES IDX 45 57 46 58 55 60 71 61 48 62 37 63 38 64 42 65 39 66 41 67
REMARK SMILES IDX 40 68 59 69 60 70 64 71 61 72 63 73 62 74 49 75 50 76 54 77
REMARK SMILES IDX 51 78 53 79 52 80
REMARK H PARENT 20 6 7 16 25 29 69 48 47 59
REMARK Flexibility Score: inf
ROOT
ATOM      1  C   UNL A   1      34.653  29.045  27.236  1.00  0.00     0.023 C 
ENDROOT
BRANCH   1   2
ATOM      2  C   UNL A   1      33.799  28.382  26.139  1.00  0.00     0.116 C 
BRANCH   2   3
ATOM      3  N   UNL A   1      32.563  27.872  26.709  1.00  0.00    -0.352 N 
ATOM      4  C   UNL A   1      31.456  27.246  26.194  1.00  0.00     0.253 C 
ATOM      5  O   UNL A   1      30.573  26.975  27.010  1.00  0.00    -0.269 OA
ATOM      6  H   UNL A   1      32.509  28.004  27.683  1.00  0.00     0.163 HD
BRANCH   4   7
ATOM      7  C   UNL A   1      31.340  26.762  24.777  1.00  0.00     0.066 A 
ATOM      8  C   UNL A   1      30.310  28.887  23.777  1.00  0.00     0.045 C 
ATOM      9  C   UNL A   1      31.032  27.574  23.665  1.00  0.00    -0.036 A 
ATOM     10  C   UNL A   1      31.203  27.072  22.361  1.00  0.00     0.004 A 
ATOM     11  C   UNL A   1      31.553  25.745  22.153  1.00  0.00     0.002 A 
ATOM     12  C   UNL A   1      31.409  25.363  24.542  1.00  0.00     0.054 A 
ATOM     13  C   UNL A   1      31.619  24.884  23.242  1.00  0.00     0.027 A 
BRANCH  12  14
ATOM     14  N   UNL A   1      31.128  24.461  25.596  1.00  0.00    -0.325 N 
ATOM     15  C   UNL A   1      31.986  23.811  26.454  1.00  0.00     0.227 C 
ATOM     16  H   UNL A   1      30.174  24.267  25.737  1.00  0.00     0.169 HD
ATOM     17  O   UNL A   1      31.515  23.009  27.269  1.00  0.00    -0.275 OA
BRANCH  15  18
ATOM     18  C   UNL A   1      33.489  24.017  26.393  1.00  0.00     0.132 C 
BRANCH  18  19
ATOM     19  C   UNL A   1      34.300  22.739  26.105  1.00  0.00     0.127 C 
ATOM     20  C   UNL A   1      35.813  23.021  26.141  1.00  0.00     0.033 C 
ATOM     21  O   UNL A   1      33.988  22.082  24.872  1.00  0.00    -0.378 OA
ATOM     22  C   UNL A   1      36.267  23.839  24.932  1.00  0.00     0.005 C 
ATOM     23  C   UNL A   1      34.355  22.777  23.690  1.00  0.00     0.160 C 
ATOM     24  C   UNL A   1      35.821  23.172  23.640  1.00  0.00     0.029 C 
ENDBRANCH  18  19
ENDBRANCH  15  18
ENDBRANCH  12  14
ENDBRANCH   4   7
ENDBRANCH   2   3
ENDBRANCH   1   2
BRANCH   1  25
ATOM     25  C   UNL A   1      34.107  30.381  27.744  1.00  0.00     0.023 C 
BRANCH  25  26
ATOM     26  C   UNL A   1      35.115  31.507  27.603  1.00  0.00     0.116 C 
BRANCH  26  27
ATOM     27  N   UNL A   1      35.711  31.947  28.862  1.00  0.00    -0.352 N 
ATOM     28  C   UNL A   1      36.610  31.294  29.686  1.00  0.00     0.251 C 
ATOM     29  H   UNL A   1      35.432  32.840  29.168  1.00  0.00     0.163 HD
ATOM     30  O   UNL A   1      36.946  31.806  30.755  1.00  0.00    -0.269 OA
BRANCH  28  31
ATOM     31  C   UNL A   1      37.296  30.067  29.210  1.00  0.00     0.039 A 
ATOM     32  C   UNL A   1      37.400  29.001  30.110  1.00  0.00     0.014 A 
ATOM     33  C   UNL A   1      38.079  30.088  28.063  1.00  0.00     0.014 A 
ATOM     34  C   UNL A   1      38.499  28.154  30.029  1.00  0.00     0.010 A 
ATOM     35  C   UNL A   1      39.242  29.346  28.061  1.00  0.00     0.010 A 
ATOM     36  C   UNL A   1      39.493  28.443  29.097  1.00  0.00    -0.014 A 
BRANCH  36  37
ATOM     37  C   UNL A   1      40.868  27.976  29.236  1.00  0.00     0.031 A 
ATOM     38  C   UNL A   1      41.262  26.661  28.676  1.00  0.00     0.074 A 
ATOM     39  C   UNL A   1      41.798  28.782  29.804  1.00  0.00     0.049 A 
ATOM     40  N   UNL A   1      42.271  25.968  29.085  1.00  0.00    -0.248 NA
ATOM     41  C   UNL A   1      40.498  25.988  27.628  1.00  0.00     0.031 C 
ATOM     42  C   UNL A   1      43.248  28.576  29.800  1.00  0.00     0.029 A 
ATOM     43  N   UNL A   1      41.652  29.890  30.643  1.00  0.00    -0.354 N 
ATOM     44  C   UNL A   1      42.486  24.969  28.162  1.00  0.00     0.074 A 
ATOM     45  C   UNL A   1      41.290  24.948  27.354  1.00  0.00     0.031 C 
ATOM     46  C   UNL A   1      43.783  29.271  30.818  1.00  0.00     0.029 A 
ATOM     47  C   UNL A   1      42.676  29.798  31.597  1.00  0.00     0.049 A 
ATOM     48  H   UNL A   1      40.967  30.594  30.578  1.00  0.00     0.167 HD
ATOM     49  C   UNL A   1      43.717  24.388  28.078  1.00  0.00     0.031 A 
ATOM     50  C   UNL A   1      42.486  29.556  32.929  1.00  0.00     0.031 A 
ATOM     51  C   UNL A   1      44.596  24.829  29.165  1.00  0.00     0.049 A 
ATOM     52  C   UNL A   1      43.207  28.308  33.429  1.00  0.00     0.074 A 
ATOM     53  C   UNL A   1      45.657  25.717  29.225  1.00  0.00     0.029 A 
ATOM     54  N   UNL A   1      44.241  24.555  30.482  1.00  0.00    -0.354 N 
ATOM     55  N   UNL A   1      43.694  27.391  32.640  1.00  0.00    -0.248 NA
ATOM     56  C   UNL A   1      43.381  27.961  34.841  1.00  0.00     0.031 C 
ATOM     57  C   UNL A   1      45.877  26.047  30.589  1.00  0.00     0.029 A 
ATOM     58  C   UNL A   1      44.975  25.332  31.356  1.00  0.00     0.049 A 
ATOM     59  H   UNL A   1      43.561  23.895  30.753  1.00  0.00     0.167 HD
ATOM     60  C   UNL A   1      44.208  26.360  33.379  1.00  0.00     0.074 A 
ATOM     61  C   UNL A   1      44.004  26.771  34.756  1.00  0.00     0.031 C 
ATOM     62  C   UNL A   1      44.737  25.246  32.793  1.00  0.00     0.031 A 
BRANCH  49  63
ATOM     63  C   UNL A   1      44.220  23.668  26.841  1.00  0.00    -0.014 A 
ATOM     64  C   UNL A   1      45.037  24.356  25.923  1.00  0.00     0.009 A 
ATOM     65  C   UNL A   1      43.865  22.361  26.468  1.00  0.00     0.009 A 
ATOM     66  C   UNL A   1      45.386  23.811  24.676  1.00  0.00     0.001 A 
ATOM     67  C   UNL A   1      44.186  21.817  25.216  1.00  0.00     0.001 A 
ATOM     68  C   UNL A   1      44.936  22.550  24.312  1.00  0.00     0.000 A 
ENDBRANCH  49  63
BRANCH  50  69
ATOM     69  C   UNL A   1      41.194  30.043  33.478  1.00  0.00    -0.014 A 
ATOM     70  C   UNL A   1      41.079  31.405  33.812  1.00  0.00     0.009 A 
ATOM     71  C   UNL A   1      40.023  29.285  33.344  1.00  0.00     0.009 A 
ATOM     72  C   UNL A   1      39.826  32.021  33.884  1.00  0.00     0.001 A 
ATOM     73  C   UNL A   1      38.769  29.903  33.425  1.00  0.00     0.001 A 
ATOM     74  C   UNL A   1      38.673  31.277  33.655  1.00  0.00     0.000 A 
ENDBRANCH  50  69
BRANCH  62  75
ATOM     75  C   UNL A   1      45.134  23.977  33.503  1.00  0.00    -0.014 A 
ATOM     76  C   UNL A   1      46.410  23.733  34.026  1.00  0.00     0.009 A 
ATOM     77  C   UNL A   1      44.133  23.022  33.797  1.00  0.00     0.009 A 
ATOM     78  C   UNL A   1      46.684  22.573  34.766  1.00  0.00     0.001 A 
ATOM     79  C   UNL A   1      44.391  21.889  34.572  1.00  0.00     0.001 A 
ATOM     80  C   UNL A   1      45.672  21.658  35.047  1.00  0.00     0.000 A 
ENDBRANCH  62  75
ENDBRANCH  36  37
ENDBRANCH  28  31
ENDBRANCH  26  27
ENDBRANCH  25  26
ENDBRANCH   1  25
TORSDOF 14
ENDMDL
