MODEL 1
REMARK VINA RESULT:     -11.6      0.000      0.000
REMARK SMILES Cc1c(C(=O)NCCCCNC(=O)c2ccc(-c3c4nc(c(-c5ccccc5)c5ccc([nH]5)c(-c5ccccc5)c5nc(c(-c6ccccc6)c6ccc3[nH]6)C=C5)C=C4)cc2)sc2ncnc(NCc3cn4c(n3)SCC4)c12
REMARK SMILES IDX 8 1 7 2 6 3 4 4 5 5 3 7 1 8 2 9 78 10 62 11 63 12 67 13
REMARK SMILES IDX 64 14 66 15 65 16 68 17 69 19 70 20 71 21 74 22 72 23 73 24
REMARK SMILES IDX 77 25 75 26 76 27 9 28 10 29 11 30 12 31 13 33 14 34 15 35
REMARK SMILES IDX 61 36 16 37 60 38 17 39 18 40 19 41 54 42 20 43 59 44 53 45
REMARK SMILES IDX 55 46 21 47 58 48 52 49 51 50 22 52 44 53 29 54 43 55 30 56
REMARK SMILES IDX 33 57 42 58 56 59 31 60 32 61 41 63 57 64 34 65 23 66 24 67
REMARK SMILES IDX 28 68 25 69 27 70 26 71 45 72 46 73 50 74 47 75 49 76 48 77
REMARK SMILES IDX 35 78 36 79 40 80 37 81 39 82 38 83
REMARK H PARENT 6 6 68 18 11 32 55 51 33 62
REMARK Flexibility Score: inf
ROOT
ATOM      1  C   UNL A   1      40.505  20.788  26.619  1.00  0.00     0.023 C 
ENDROOT
BRANCH   1   2
ATOM      2  C   UNL A   1      39.173  21.107  25.944  1.00  0.00     0.116 C 
BRANCH   2   3
ATOM      3  N   UNL A   1      38.847  22.512  26.006  1.00  0.00    -0.351 N 
ATOM      4  C   UNL A   1      37.692  23.231  25.833  1.00  0.00     0.261 C 
ATOM      5  O   UNL A   1      37.858  24.444  26.009  1.00  0.00    -0.268 OA
ATOM      6  H   UNL A   1      39.624  23.078  26.218  1.00  0.00     0.163 HD
BRANCH   4   7
ATOM      7  C   UNL A   1      36.378  22.660  25.505  1.00  0.00     0.098 A 
ATOM      8  C   UNL A   1      36.522  23.105  23.037  1.00  0.00     0.047 C 
ATOM      9  C   UNL A   1      35.761  22.676  24.243  1.00  0.00    -0.014 A 
ATOM     10  C   UNL A   1      34.352  22.250  24.288  1.00  0.00     0.057 A 
ATOM     11  S   UNL A   1      35.402  21.826  26.610  1.00  0.00    -0.110 S 
ATOM     12  C   UNL A   1      34.095  21.736  25.554  1.00  0.00     0.129 A 
ATOM     13  C   UNL A   1      33.226  22.213  23.416  1.00  0.00     0.138 A 
ATOM     14  N   UNL A   1      32.961  21.196  26.023  1.00  0.00    -0.225 NA
ATOM     15  N   UNL A   1      32.070  21.668  23.881  1.00  0.00    -0.219 NA
ATOM     16  C   UNL A   1      31.994  21.194  25.123  1.00  0.00     0.225 A 
BRANCH  13  17
ATOM     17  N   UNL A   1      33.015  22.685  22.159  1.00  0.00    -0.364 N 
ATOM     18  H   UNL A   1      32.551  22.029  21.590  1.00  0.00     0.162 HD
BRANCH  17  19
ATOM     19  C   UNL A   1      33.296  23.899  21.456  1.00  0.00     0.172 C 
BRANCH  19  20
ATOM     20  C   UNL A   1      32.569  25.119  21.940  1.00  0.00     0.079 A 
ATOM     21  C   UNL A   1      32.955  26.455  21.940  1.00  0.00     0.113 A 
ATOM     22  N   UNL A   1      31.348  24.963  22.592  1.00  0.00    -0.226 NA
ATOM     23  N   UNL A   1      32.003  27.073  22.676  1.00  0.00    -0.325 N 
ATOM     24  C   UNL A   1      31.065  26.156  23.027  1.00  0.00     0.168 A 
ATOM     25  C   UNL A   1      32.017  28.313  23.425  1.00  0.00     0.135 C 
ATOM     26  S   UNL A   1      30.067  26.705  24.321  1.00  0.00    -0.086 SA
ATOM     27  C   UNL A   1      31.334  27.971  24.750  1.00  0.00     0.100 C 
ENDBRANCH  19  20
ENDBRANCH  17  19
ENDBRANCH  13  17
ENDBRANCH   4   7
ENDBRANCH   2   3
ENDBRANCH   1   2
BRANCH   1  28
ATOM     28  C   UNL A   1      41.263  19.597  26.014  1.00  0.00     0.023 C 
BRANCH  28  29
ATOM     29  C   UNL A   1      42.634  19.319  26.627  1.00  0.00     0.116 C 
BRANCH  29  30
ATOM     30  N   UNL A   1      43.692  19.178  25.628  1.00  0.00    -0.352 N 
ATOM     31  C   UNL A   1      44.251  20.158  24.829  1.00  0.00     0.251 C 
ATOM     32  H   UNL A   1      44.051  18.270  25.508  1.00  0.00     0.163 HD
ATOM     33  O   UNL A   1      44.841  19.873  23.797  1.00  0.00    -0.269 OA
BRANCH  31  34
ATOM     34  C   UNL A   1      44.137  21.564  25.254  1.00  0.00     0.039 A 
ATOM     35  C   UNL A   1      43.226  22.436  24.661  1.00  0.00     0.014 A 
ATOM     36  C   UNL A   1      44.954  21.995  26.294  1.00  0.00     0.014 A 
ATOM     37  C   UNL A   1      43.082  23.714  25.196  1.00  0.00     0.010 A 
ATOM     38  C   UNL A   1      44.713  23.195  26.915  1.00  0.00     0.010 A 
ATOM     39  C   UNL A   1      43.808  24.079  26.346  1.00  0.00    -0.014 A 
BRANCH  39  40
ATOM     40  C   UNL A   1      43.550  25.349  27.013  1.00  0.00     0.031 A 
ATOM     41  C   UNL A   1      44.508  26.437  26.680  1.00  0.00     0.074 A 
ATOM     42  C   UNL A   1      42.457  25.608  27.761  1.00  0.00     0.049 A 
ATOM     43  N   UNL A   1      45.416  26.928  27.454  1.00  0.00    -0.248 NA
ATOM     44  C   UNL A   1      44.552  26.953  25.304  1.00  0.00     0.031 C 
ATOM     45  C   UNL A   1      41.268  24.778  27.986  1.00  0.00     0.029 A 
ATOM     46  N   UNL A   1      42.149  26.753  28.429  1.00  0.00    -0.354 N 
ATOM     47  C   UNL A   1      46.036  27.945  26.737  1.00  0.00     0.074 A 
ATOM     48  C   UNL A   1      45.567  27.819  25.379  1.00  0.00     0.031 C 
ATOM     49  C   UNL A   1      40.287  25.528  28.538  1.00  0.00     0.029 A 
ATOM     50  C   UNL A   1      40.838  26.825  28.879  1.00  0.00     0.049 A 
ATOM     51  H   UNL A   1      42.804  27.472  28.582  1.00  0.00     0.167 HD
ATOM     52  C   UNL A   1      46.717  28.938  27.375  1.00  0.00     0.031 A 
ATOM     53  C   UNL A   1      40.251  27.878  29.495  1.00  0.00     0.031 A 
ATOM     54  C   UNL A   1      46.973  28.599  28.755  1.00  0.00     0.049 A 
ATOM     55  C   UNL A   1      41.333  28.697  30.084  1.00  0.00     0.074 A 
ATOM     56  C   UNL A   1      47.658  27.589  29.400  1.00  0.00     0.029 A 
ATOM     57  N   UNL A   1      46.133  29.146  29.696  1.00  0.00    -0.354 N 
ATOM     58  N   UNL A   1      42.076  28.287  31.072  1.00  0.00    -0.248 NA
ATOM     59  C   UNL A   1      41.885  29.785  29.295  1.00  0.00     0.031 C 
ATOM     60  C   UNL A   1      46.849  27.265  30.529  1.00  0.00     0.029 A 
ATOM     61  C   UNL A   1      45.760  28.140  30.548  1.00  0.00     0.049 A 
ATOM     62  H   UNL A   1      45.850  30.088  29.748  1.00  0.00     0.167 HD
ATOM     63  C   UNL A   1      43.350  28.734  30.759  1.00  0.00     0.074 A 
ATOM     64  C   UNL A   1      43.151  29.743  29.718  1.00  0.00     0.031 C 
ATOM     65  C   UNL A   1      44.457  28.045  31.167  1.00  0.00     0.031 A 
BRANCH  52  66
ATOM     66  C   UNL A   1      46.783  30.365  26.892  1.00  0.00    -0.014 A 
ATOM     67  C   UNL A   1      48.008  31.054  27.005  1.00  0.00     0.009 A 
ATOM     68  C   UNL A   1      45.648  31.144  26.612  1.00  0.00     0.009 A 
ATOM     69  C   UNL A   1      48.070  32.451  26.946  1.00  0.00     0.001 A 
ATOM     70  C   UNL A   1      45.712  32.537  26.511  1.00  0.00     0.001 A 
ATOM     71  C   UNL A   1      46.917  33.193  26.713  1.00  0.00     0.000 A 
ENDBRANCH  52  66
BRANCH  53  72
ATOM     72  C   UNL A   1      38.855  28.353  29.417  1.00  0.00    -0.014 A 
ATOM     73  C   UNL A   1      38.107  28.568  30.585  1.00  0.00     0.009 A 
ATOM     74  C   UNL A   1      38.359  28.881  28.211  1.00  0.00     0.009 A 
ATOM     75  C   UNL A   1      36.934  29.334  30.556  1.00  0.00     0.001 A 
ATOM     76  C   UNL A   1      37.187  29.644  28.184  1.00  0.00     0.001 A 
ATOM     77  C   UNL A   1      36.485  29.887  29.359  1.00  0.00     0.000 A 
ENDBRANCH  53  72
BRANCH  65  78
ATOM     78  C   UNL A   1      44.266  26.912  32.147  1.00  0.00    -0.014 A 
ATOM     79  C   UNL A   1      44.275  25.557  31.765  1.00  0.00     0.009 A 
ATOM     80  C   UNL A   1      44.251  27.214  33.516  1.00  0.00     0.009 A 
ATOM     81  C   UNL A   1      44.250  24.540  32.727  1.00  0.00     0.001 A 
ATOM     82  C   UNL A   1      44.247  26.200  34.475  1.00  0.00     0.001 A 
ATOM     83  C   UNL A   1      44.243  24.864  34.081  1.00  0.00     0.000 A 
ENDBRANCH  65  78
ENDBRANCH  39  40
ENDBRANCH  31  34
ENDBRANCH  29  30
ENDBRANCH  28  29
ENDBRANCH   1  28
TORSDOF 14
ENDMDL
MODEL 2
REMARK VINA RESULT:     -11.3      2.936      8.242
REMARK SMILES Cc1c(C(=O)NCCCCNC(=O)c2ccc(-c3c4nc(c(-c5ccccc5)c5ccc([nH]5)c(-c5ccccc5)c5nc(c(-c6ccccc6)c6ccc3[nH]6)C=C5)C=C4)cc2)sc2ncnc(NCc3cn4c(n3)SCC4)c12
REMARK SMILES IDX 8 1 7 2 6 3 4 4 5 5 3 7 1 8 2 9 78 10 62 11 63 12 67 13
REMARK SMILES IDX 64 14 66 15 65 16 68 17 69 19 70 20 71 21 74 22 72 23 73 24
REMARK SMILES IDX 77 25 75 26 76 27 9 28 10 29 11 30 12 31 13 33 14 34 15 35
REMARK SMILES IDX 61 36 16 37 60 38 17 39 18 40 19 41 54 42 20 43 59 44 53 45
REMARK SMILES IDX 55 46 21 47 58 48 52 49 51 50 22 52 44 53 29 54 43 55 30 56
REMARK SMILES IDX 33 57 42 58 56 59 31 60 32 61 41 63 57 64 34 65 23 66 24 67
REMARK SMILES IDX 28 68 25 69 27 70 26 71 45 72 46 73 50 74 47 75 49 76 48 77
REMARK SMILES IDX 35 78 36 79 40 80 37 81 39 82 38 83
REMARK H PARENT 6 6 68 18 11 32 55 51 33 62
REMARK Flexibility Score: inf
ROOT
ATOM      1  C   UNL A   1      32.608  29.655  25.237  1.00  0.00     0.023 C 
ENDROOT
BRANCH   1   2
ATOM      2  C   UNL A   1      33.130  29.269  23.856  1.00  0.00     0.116 C 
BRANCH   2   3
ATOM      3  N   UNL A   1      32.084  28.774  22.991  1.00  0.00    -0.351 N 
ATOM      4  C   UNL A   1      31.328  27.631  22.969  1.00  0.00     0.261 C 
ATOM      5  O   UNL A   1      30.505  27.625  22.044  1.00  0.00    -0.268 OA
ATOM      6  H   UNL A   1      31.868  29.392  22.256  1.00  0.00     0.163 HD
BRANCH   4   7
ATOM      7  C   UNL A   1      31.429  26.527  23.933  1.00  0.00     0.098 A 
ATOM      8  C   UNL A   1      33.614  25.639  23.068  1.00  0.00     0.047 C 
ATOM      9  C   UNL A   1      32.416  25.527  23.946  1.00  0.00    -0.014 A 
ATOM     10  C   UNL A   1      32.108  24.428  24.876  1.00  0.00     0.057 A 
ATOM     11  S   UNL A   1      30.379  26.313  25.245  1.00  0.00    -0.110 S 
ATOM     12  C   UNL A   1      31.017  24.809  25.649  1.00  0.00     0.129 A 
ATOM     13  C   UNL A   1      32.612  23.134  25.194  1.00  0.00     0.138 A 
ATOM     14  N   UNL A   1      30.427  24.139  26.649  1.00  0.00    -0.225 NA
ATOM     15  N   UNL A   1      32.020  22.445  26.205  1.00  0.00    -0.219 NA
ATOM     16  C   UNL A   1      30.989  22.964  26.871  1.00  0.00     0.225 A 
BRANCH  13  17
ATOM     17  N   UNL A   1      33.577  22.356  24.638  1.00  0.00    -0.364 N 
ATOM     18  H   UNL A   1      33.678  22.524  23.673  1.00  0.00     0.162 HD
BRANCH  17  19
ATOM     19  C   UNL A   1      34.486  21.354  25.104  1.00  0.00     0.172 C 
BRANCH  19  20
ATOM     20  C   UNL A   1      35.927  21.764  25.183  1.00  0.00     0.079 A 
ATOM     21  C   UNL A   1      37.085  20.999  25.098  1.00  0.00     0.113 A 
ATOM     22  N   UNL A   1      36.237  23.088  25.483  1.00  0.00    -0.226 NA
ATOM     23  N   UNL A   1      38.073  21.857  25.439  1.00  0.00    -0.325 N 
ATOM     24  C   UNL A   1      37.529  23.084  25.643  1.00  0.00     0.168 A 
ATOM     25  C   UNL A   1      39.401  21.635  25.974  1.00  0.00     0.135 C 
ATOM     26  S   UNL A   1      38.586  24.132  26.512  1.00  0.00    -0.086 SA
ATOM     27  C   UNL A   1      39.546  22.671  27.090  1.00  0.00     0.100 C 
ENDBRANCH  19  20
ENDBRANCH  17  19
ENDBRANCH  13  17
ENDBRANCH   4   7
ENDBRANCH   2   3
ENDBRANCH   1   2
BRANCH   1  28
ATOM     28  C   UNL A   1      33.405  29.068  26.412  1.00  0.00     0.023 C 
BRANCH  28  29
ATOM     29  C   UNL A   1      33.596  30.005  27.602  1.00  0.00     0.116 C 
BRANCH  29  30
ATOM     30  N   UNL A   1      34.123  31.315  27.223  1.00  0.00    -0.352 N 
ATOM     31  C   UNL A   1      35.298  31.917  27.634  1.00  0.00     0.251 C 
ATOM     32  H   UNL A   1      33.571  31.834  26.596  1.00  0.00     0.163 HD
ATOM     33  O   UNL A   1      35.450  33.127  27.555  1.00  0.00    -0.269 OA
BRANCH  31  34
ATOM     34  C   UNL A   1      36.380  31.066  28.158  1.00  0.00     0.039 A 
ATOM     35  C   UNL A   1      36.513  29.733  27.774  1.00  0.00     0.014 A 
ATOM     36  C   UNL A   1      37.291  31.643  29.037  1.00  0.00     0.014 A 
ATOM     37  C   UNL A   1      37.630  29.023  28.208  1.00  0.00     0.010 A 
ATOM     38  C   UNL A   1      38.462  30.997  29.346  1.00  0.00     0.010 A 
ATOM     39  C   UNL A   1      38.620  29.671  28.971  1.00  0.00    -0.014 A 
BRANCH  39  40
ATOM     40  C   UNL A   1      39.869  28.992  29.296  1.00  0.00     0.031 A 
ATOM     41  C   UNL A   1      40.105  28.775  30.748  1.00  0.00     0.074 A 
ATOM     42  C   UNL A   1      40.701  28.451  28.381  1.00  0.00     0.049 A 
ATOM     43  N   UNL A   1      40.969  29.384  31.487  1.00  0.00    -0.248 NA
ATOM     44  C   UNL A   1      39.205  27.880  31.491  1.00  0.00     0.031 C 
ATOM     45  C   UNL A   1      40.522  28.310  26.932  1.00  0.00     0.029 A 
ATOM     46  N   UNL A   1      41.888  27.819  28.596  1.00  0.00    -0.354 N 
ATOM     47  C   UNL A   1      40.861  28.828  32.757  1.00  0.00     0.074 A 
ATOM     48  C   UNL A   1      39.668  28.018  32.737  1.00  0.00     0.031 C 
ATOM     49  C   UNL A   1      41.439  27.445  26.441  1.00  0.00     0.029 A 
ATOM     50  C   UNL A   1      42.380  27.127  27.498  1.00  0.00     0.049 A 
ATOM     51  H   UNL A   1      42.358  27.852  29.460  1.00  0.00     0.167 HD
ATOM     52  C   UNL A   1      41.886  28.915  33.650  1.00  0.00     0.031 A 
ATOM     53  C   UNL A   1      43.490  26.352  27.463  1.00  0.00     0.031 A 
ATOM     54  C   UNL A   1      42.864  29.892  33.236  1.00  0.00     0.049 A 
ATOM     55  C   UNL A   1      44.359  26.785  28.578  1.00  0.00     0.074 A 
ATOM     56  C   UNL A   1      42.843  31.250  32.990  1.00  0.00     0.029 A 
ATOM     57  N   UNL A   1      43.998  29.415  32.621  1.00  0.00    -0.354 N 
ATOM     58  N   UNL A   1      44.941  27.949  28.614  1.00  0.00    -0.248 NA
ATOM     59  C   UNL A   1      44.231  26.109  29.858  1.00  0.00     0.031 C 
ATOM     60  C   UNL A   1      43.676  31.425  31.845  1.00  0.00     0.029 A 
ATOM     61  C   UNL A   1      44.213  30.181  31.506  1.00  0.00     0.049 A 
ATOM     62  H   UNL A   1      44.553  28.660  32.925  1.00  0.00     0.167 HD
ATOM     63  C   UNL A   1      44.839  28.349  29.937  1.00  0.00     0.074 A 
ATOM     64  C   UNL A   1      44.497  27.133  30.674  1.00  0.00     0.031 C 
ATOM     65  C   UNL A   1      44.761  29.673  30.268  1.00  0.00     0.031 A 
BRANCH  52  66
ATOM     66  C   UNL A   1      42.222  27.846  34.660  1.00  0.00    -0.014 A 
ATOM     67  C   UNL A   1      42.781  26.639  34.194  1.00  0.00     0.009 A 
ATOM     68  C   UNL A   1      41.750  27.851  35.983  1.00  0.00     0.009 A 
ATOM     69  C   UNL A   1      42.770  25.478  34.976  1.00  0.00     0.001 A 
ATOM     70  C   UNL A   1      41.775  26.704  36.782  1.00  0.00     0.001 A 
ATOM     71  C   UNL A   1      42.253  25.509  36.266  1.00  0.00     0.000 A 
ENDBRANCH  52  66
BRANCH  53  72
ATOM     72  C   UNL A   1      43.752  25.122  26.689  1.00  0.00    -0.014 A 
ATOM     73  C   UNL A   1      42.951  23.982  26.865  1.00  0.00     0.009 A 
ATOM     74  C   UNL A   1      44.595  25.165  25.564  1.00  0.00     0.009 A 
ATOM     75  C   UNL A   1      42.953  22.949  25.919  1.00  0.00     0.001 A 
ATOM     76  C   UNL A   1      44.596  24.133  24.620  1.00  0.00     0.001 A 
ATOM     77  C   UNL A   1      43.761  23.034  24.788  1.00  0.00     0.000 A 
ENDBRANCH  53  72
BRANCH  65  78
ATOM     78  C   UNL A   1      45.007  30.691  29.181  1.00  0.00    -0.014 A 
ATOM     79  C   UNL A   1      44.015  31.098  28.270  1.00  0.00     0.009 A 
ATOM     80  C   UNL A   1      46.225  31.387  29.186  1.00  0.00     0.009 A 
ATOM     81  C   UNL A   1      44.245  32.155  27.381  1.00  0.00     0.001 A 
ATOM     82  C   UNL A   1      46.447  32.454  28.315  1.00  0.00     0.001 A 
ATOM     83  C   UNL A   1      45.459  32.837  27.410  1.00  0.00     0.000 A 
ENDBRANCH  65  78
ENDBRANCH  39  40
ENDBRANCH  31  34
ENDBRANCH  29  30
ENDBRANCH  28  29
ENDBRANCH   1  28
TORSDOF 14
ENDMDL
MODEL 3
REMARK VINA RESULT:     -11.2      3.093      8.391
REMARK SMILES Cc1c(C(=O)NCCCCNC(=O)c2ccc(-c3c4nc(c(-c5ccccc5)c5ccc([nH]5)c(-c5ccccc5)c5nc(c(-c6ccccc6)c6ccc3[nH]6)C=C5)C=C4)cc2)sc2ncnc(NCc3cn4c(n3)SCC4)c12
REMARK SMILES IDX 8 1 7 2 6 3 4 4 5 5 3 7 1 8 2 9 78 10 62 11 63 12 67 13
REMARK SMILES IDX 64 14 66 15 65 16 68 17 69 19 70 20 71 21 74 22 72 23 73 24
REMARK SMILES IDX 77 25 75 26 76 27 9 28 10 29 11 30 12 31 13 33 14 34 15 35
REMARK SMILES IDX 61 36 16 37 60 38 17 39 18 40 19 41 54 42 20 43 59 44 53 45
REMARK SMILES IDX 55 46 21 47 58 48 52 49 51 50 22 52 44 53 29 54 43 55 30 56
REMARK SMILES IDX 33 57 42 58 56 59 31 60 32 61 41 63 57 64 34 65 23 66 24 67
REMARK SMILES IDX 28 68 25 69 27 70 26 71 45 72 46 73 50 74 47 75 49 76 48 77
REMARK SMILES IDX 35 78 36 79 40 80 37 81 39 82 38 83
REMARK H PARENT 6 6 68 18 11 32 55 51 33 62
REMARK Flexibility Score: inf
ROOT
ATOM      1  C   UNL A   1      31.866  30.486  25.869  1.00  0.00     0.023 C 
ENDROOT
BRANCH   1   2
ATOM      2  C   UNL A   1      31.990  29.315  24.898  1.00  0.00     0.116 C 
BRANCH   2   3
ATOM      3  N   UNL A   1      31.102  29.442  23.766  1.00  0.00    -0.351 N 
ATOM      4  C   UNL A   1      30.707  28.592  22.765  1.00  0.00     0.261 C 
ATOM      5  O   UNL A   1      29.889  29.113  21.996  1.00  0.00    -0.268 OA
ATOM      6  H   UNL A   1      30.692  30.334  23.697  1.00  0.00     0.163 HD
BRANCH   4   7
ATOM      7  C   UNL A   1      31.155  27.202  22.605  1.00  0.00     0.098 A 
ATOM      8  C   UNL A   1      29.535  26.226  24.259  1.00  0.00     0.047 C 
ATOM      9  C   UNL A   1      30.709  26.098  23.350  1.00  0.00    -0.014 A 
ATOM     10  C   UNL A   1      31.520  24.889  23.128  1.00  0.00     0.057 A 
ATOM     11  S   UNL A   1      32.265  26.690  21.432  1.00  0.00    -0.110 S 
ATOM     12  C   UNL A   1      32.374  25.133  22.059  1.00  0.00     0.129 A 
ATOM     13  C   UNL A   1      31.653  23.583  23.682  1.00  0.00     0.138 A 
ATOM     14  N   UNL A   1      33.255  24.299  21.486  1.00  0.00    -0.225 NA
ATOM     15  N   UNL A   1      32.543  22.730  23.109  1.00  0.00    -0.219 NA
ATOM     16  C   UNL A   1      33.277  23.113  22.066  1.00  0.00     0.225 A 
BRANCH  13  17
ATOM     17  N   UNL A   1      31.097  22.977  24.763  1.00  0.00    -0.364 N 
ATOM     18  H   UNL A   1      30.127  22.844  24.655  1.00  0.00     0.162 HD
BRANCH  17  19
ATOM     19  C   UNL A   1      31.568  22.482  26.021  1.00  0.00     0.172 C 
BRANCH  19  20
ATOM     20  C   UNL A   1      33.057  22.469  26.201  1.00  0.00     0.079 A 
ATOM     21  C   UNL A   1      33.928  23.491  26.565  1.00  0.00     0.113 A 
ATOM     22  N   UNL A   1      33.766  21.314  25.880  1.00  0.00    -0.226 NA
ATOM     23  N   UNL A   1      35.157  22.962  26.368  1.00  0.00    -0.325 N 
ATOM     24  C   UNL A   1      35.015  21.669  25.979  1.00  0.00     0.168 A 
ATOM     25  C   UNL A   1      36.445  23.579  26.122  1.00  0.00     0.135 C 
ATOM     26  S   UNL A   1      36.452  21.038  25.266  1.00  0.00    -0.086 SA
ATOM     27  C   UNL A   1      37.059  22.755  24.990  1.00  0.00     0.100 C 
ENDBRANCH  19  20
ENDBRANCH  17  19
ENDBRANCH  13  17
ENDBRANCH   4   7
ENDBRANCH   2   3
ENDBRANCH   1   2
BRANCH   1  28
ATOM     28  C   UNL A   1      32.654  30.323  27.178  1.00  0.00     0.023 C 
BRANCH  28  29
ATOM     29  C   UNL A   1      33.994  31.052  27.226  1.00  0.00     0.116 C 
BRANCH  29  30
ATOM     30  N   UNL A   1      34.093  31.999  28.335  1.00  0.00    -0.352 N 
ATOM     31  C   UNL A   1      34.963  31.974  29.409  1.00  0.00     0.251 C 
ATOM     32  H   UNL A   1      33.458  32.751  28.314  1.00  0.00     0.163 HD
ATOM     33  O   UNL A   1      34.715  32.583  30.439  1.00  0.00    -0.269 OA
BRANCH  31  34
ATOM     34  C   UNL A   1      36.214  31.205  29.284  1.00  0.00     0.039 A 
ATOM     35  C   UNL A   1      37.446  31.836  29.126  1.00  0.00     0.014 A 
ATOM     36  C   UNL A   1      36.133  29.819  29.355  1.00  0.00     0.014 A 
ATOM     37  C   UNL A   1      38.600  31.056  29.141  1.00  0.00     0.010 A 
ATOM     38  C   UNL A   1      37.268  29.065  29.518  1.00  0.00     0.010 A 
ATOM     39  C   UNL A   1      38.508  29.670  29.369  1.00  0.00    -0.014 A 
BRANCH  39  40
ATOM     40  C   UNL A   1      39.710  28.866  29.551  1.00  0.00     0.031 A 
ATOM     41  C   UNL A   1      40.093  28.623  30.967  1.00  0.00     0.074 A 
ATOM     42  C   UNL A   1      40.368  28.244  28.550  1.00  0.00     0.049 A 
ATOM     43  N   UNL A   1      41.097  29.138  31.593  1.00  0.00    -0.248 NA
ATOM     44  C   UNL A   1      39.201  27.824  31.821  1.00  0.00     0.031 C 
ATOM     45  C   UNL A   1      40.004  28.125  27.134  1.00  0.00     0.029 A 
ATOM     46  N   UNL A   1      41.501  27.493  28.629  1.00  0.00    -0.354 N 
ATOM     47  C   UNL A   1      41.083  28.593  32.872  1.00  0.00     0.074 A 
ATOM     48  C   UNL A   1      39.820  27.910  33.001  1.00  0.00     0.031 C 
ATOM     49  C   UNL A   1      40.764  27.172  26.547  1.00  0.00     0.029 A 
ATOM     50  C   UNL A   1      41.786  26.756  27.488  1.00  0.00     0.049 A 
ATOM     51  H   UNL A   1      42.072  27.476  29.431  1.00  0.00     0.167 HD
ATOM     52  C   UNL A   1      42.211  28.572  33.637  1.00  0.00     0.031 A 
ATOM     53  C   UNL A   1      42.798  25.871  27.329  1.00  0.00     0.031 A 
ATOM     54  C   UNL A   1      43.228  29.444  33.100  1.00  0.00     0.049 A 
ATOM     55  C   UNL A   1      43.834  26.210  28.329  1.00  0.00     0.074 A 
ATOM     56  C   UNL A   1      43.317  30.798  32.845  1.00  0.00     0.029 A 
ATOM     57  N   UNL A   1      44.226  28.854  32.360  1.00  0.00    -0.354 N 
ATOM     58  N   UNL A   1      44.532  27.308  28.285  1.00  0.00    -0.248 NA
ATOM     59  C   UNL A   1      43.790  25.548  29.622  1.00  0.00     0.031 C 
ATOM     60  C   UNL A   1      44.022  30.889  31.608  1.00  0.00     0.029 A 
ATOM     61  C   UNL A   1      44.385  29.597  31.220  1.00  0.00     0.049 A 
ATOM     62  H   UNL A   1      44.733  28.046  32.604  1.00  0.00     0.167 HD
ATOM     63  C   UNL A   1      44.629  27.714  29.607  1.00  0.00     0.074 A 
ATOM     64  C   UNL A   1      44.254  26.537  30.391  1.00  0.00     0.031 C 
ATOM     65  C   UNL A   1      44.726  29.038  29.931  1.00  0.00     0.031 A 
BRANCH  52  66
ATOM     66  C   UNL A   1      42.553  27.472  34.611  1.00  0.00    -0.014 A 
ATOM     67  C   UNL A   1      42.977  26.231  34.094  1.00  0.00     0.009 A 
ATOM     68  C   UNL A   1      42.201  27.500  35.971  1.00  0.00     0.009 A 
ATOM     69  C   UNL A   1      42.948  25.067  34.871  1.00  0.00     0.001 A 
ATOM     70  C   UNL A   1      42.209  26.348  36.761  1.00  0.00     0.001 A 
ATOM     71  C   UNL A   1      42.549  25.125  36.202  1.00  0.00     0.000 A 
ENDBRANCH  52  66
BRANCH  53  72
ATOM     72  C   UNL A   1      42.839  24.622  26.543  1.00  0.00    -0.014 A 
ATOM     73  C   UNL A   1      43.532  24.567  25.324  1.00  0.00     0.009 A 
ATOM     74  C   UNL A   1      42.452  23.407  27.135  1.00  0.00     0.009 A 
ATOM     75  C   UNL A   1      43.876  23.337  24.748  1.00  0.00     0.001 A 
ATOM     76  C   UNL A   1      42.795  22.179  26.559  1.00  0.00     0.001 A 
ATOM     77  C   UNL A   1      43.524  22.144  25.375  1.00  0.00     0.000 A 
ENDBRANCH  53  72
BRANCH  65  78
ATOM     78  C   UNL A   1      44.946  30.028  28.812  1.00  0.00    -0.014 A 
ATOM     79  C   UNL A   1      43.906  30.501  27.991  1.00  0.00     0.009 A 
ATOM     80  C   UNL A   1      46.206  30.631  28.697  1.00  0.00     0.009 A 
ATOM     81  C   UNL A   1      44.129  31.532  27.071  1.00  0.00     0.001 A 
ATOM     82  C   UNL A   1      46.424  31.673  27.794  1.00  0.00     0.001 A 
ATOM     83  C   UNL A   1      45.387  32.122  26.979  1.00  0.00     0.000 A 
ENDBRANCH  65  78
ENDBRANCH  39  40
ENDBRANCH  31  34
ENDBRANCH  29  30
ENDBRANCH  28  29
ENDBRANCH   1  28
TORSDOF 14
ENDMDL
