MODEL 1
REMARK VINA RESULT:     -11.5      0.000      0.000
REMARK SMILES O=C(C[C@@H](c1cccc([N+](=O)[O-])c1)N1Cc2ccccc2C1=O)NCCCCNC(=O)c1ccc(-c2c3nc(c(-c4ccccc4)c4ccc([nH]4)c(-c4ccccc4)c4nc(c(-c5ccccc5)c5ccc2[nH]5)C=C4)C=C3)cc1
REMARK SMILES IDX 26 1 25 2 24 3 1 4 2 5 3 7 4 8 5 9 6 10 13 11 7 12 9 13 8 14
REMARK SMILES IDX 10 15 11 16 12 17 14 18 15 19 22 20 16 21 21 22 23 23 17 24
REMARK SMILES IDX 20 25 18 26 19 27 27 28 28 29 29 30 30 31 31 33 32 34 33 35
REMARK SMILES IDX 79 36 34 37 78 38 35 39 36 40 37 41 72 42 38 43 77 44 71 45
REMARK SMILES IDX 73 46 39 47 76 48 70 49 69 50 40 52 62 53 47 54 61 55 48 56
REMARK SMILES IDX 51 57 60 58 74 59 49 60 50 61 59 63 75 64 52 65 41 66 42 67
REMARK SMILES IDX 46 68 43 69 45 70 44 71 63 72 64 73 68 74 65 75 67 76 66 77
REMARK SMILES IDX 53 78 54 79 58 80 55 81 57 82 56 83
REMARK H PARENT 24 6 29 32 73 51 51 62
REMARK Flexibility Score: inf
ROOT
ATOM      1  C   UNL A   1      34.785  22.942  23.934  1.00  0.00     0.023 C 
ENDROOT
BRANCH   1   2
ATOM      2  C   UNL A   1      33.958  23.336  22.707  1.00  0.00     0.116 C 
BRANCH   2   3
ATOM      3  N   UNL A   1      32.918  24.299  23.006  1.00  0.00    -0.356 N 
ATOM      4  O   UNL A   1      31.223  22.752  23.168  1.00  0.00    -0.275 OA
ATOM      5  C   UNL A   1      31.624  23.904  23.292  1.00  0.00     0.222 C 
ATOM      6  H   UNL A   1      33.137  25.259  23.007  1.00  0.00     0.163 HD
BRANCH   5   7
ATOM      7  C   UNL A   1      30.754  25.007  23.863  1.00  0.00     0.130 C 
BRANCH   7   8
ATOM      8  C   UNL A   1      31.624  26.235  24.176  1.00  0.00     0.125 C 
BRANCH   8   9
ATOM      9  C   UNL A   1      31.018  27.540  23.619  1.00  0.00    -0.018 A 
ATOM     10  C   UNL A   1      31.789  28.455  22.876  1.00  0.00     0.006 A 
ATOM     11  C   UNL A   1      29.630  27.745  23.719  1.00  0.00     0.091 A 
ATOM     12  C   UNL A   1      31.184  29.500  22.182  1.00  0.00     0.007 A 
ATOM     13  C   UNL A   1      29.031  28.806  23.033  1.00  0.00     0.269 A 
ATOM     14  C   UNL A   1      29.803  29.668  22.244  1.00  0.00     0.085 A 
BRANCH  13  15
ATOM     15  N   UNL A   1      27.583  29.019  23.132  1.00  0.00     0.062 N 
ATOM     16  O   UNL A   1      26.873  28.021  23.335  1.00  0.00    -0.258 OA
ATOM     17  O   UNL A   1      27.151  30.168  22.972  1.00  0.00    -0.258 OA
ENDBRANCH  13  15
ENDBRANCH   8   9
BRANCH   8  18
ATOM     18  N   UNL A   1      31.933  26.443  25.611  1.00  0.00    -0.327 N 
ATOM     19  C   UNL A   1      31.146  27.303  26.487  1.00  0.00     0.157 C 
ATOM     20  C   UNL A   1      33.305  26.579  25.921  1.00  0.00     0.255 C 
ATOM     21  C   UNL A   1      32.136  28.348  26.874  1.00  0.00    -0.016 A 
ATOM     22  C   UNL A   1      33.423  27.886  26.603  1.00  0.00     0.045 A 
ATOM     23  O   UNL A   1      34.237  25.936  25.503  1.00  0.00    -0.269 OA
ATOM     24  C   UNL A   1      31.921  29.656  27.271  1.00  0.00     0.006 A 
ATOM     25  C   UNL A   1      34.528  28.715  26.642  1.00  0.00     0.014 A 
ATOM     26  C   UNL A   1      33.026  30.511  27.320  1.00  0.00     0.000 A 
ATOM     27  C   UNL A   1      34.317  30.048  26.999  1.00  0.00     0.001 A 
ENDBRANCH   8  18
ENDBRANCH   7   8
ENDBRANCH   5   7
ENDBRANCH   2   3
ENDBRANCH   1   2
BRANCH   1  28
ATOM     28  C   UNL A   1      36.309  23.059  23.786  1.00  0.00     0.023 C 
BRANCH  28  29
ATOM     29  C   UNL A   1      37.073  23.503  25.035  1.00  0.00     0.116 C 
BRANCH  29  30
ATOM     30  N   UNL A   1      38.159  22.607  25.385  1.00  0.00    -0.352 N 
ATOM     31  C   UNL A   1      39.320  22.836  26.086  1.00  0.00     0.251 C 
ATOM     32  H   UNL A   1      38.046  21.682  25.068  1.00  0.00     0.163 HD
ATOM     33  O   UNL A   1      40.169  21.950  26.140  1.00  0.00    -0.269 OA
BRANCH  31  34
ATOM     34  C   UNL A   1      39.590  24.136  26.752  1.00  0.00     0.039 A 
ATOM     35  C   UNL A   1      39.082  24.343  28.039  1.00  0.00     0.014 A 
ATOM     36  C   UNL A   1      40.267  25.176  26.111  1.00  0.00     0.014 A 
ATOM     37  C   UNL A   1      39.313  25.554  28.705  1.00  0.00     0.010 A 
ATOM     38  C   UNL A   1      40.544  26.367  26.797  1.00  0.00     0.010 A 
ATOM     39  C   UNL A   1      40.078  26.566  28.104  1.00  0.00    -0.014 A 
BRANCH  39  40
ATOM     40  C   UNL A   1      40.405  27.818  28.844  1.00  0.00     0.031 A 
ATOM     41  C   UNL A   1      41.727  27.988  29.543  1.00  0.00     0.074 A 
ATOM     42  C   UNL A   1      39.488  28.804  28.926  1.00  0.00     0.049 A 
ATOM     43  N   UNL A   1      42.158  29.001  30.257  1.00  0.00    -0.248 NA
ATOM     44  C   UNL A   1      42.683  26.875  29.441  1.00  0.00     0.031 C 
ATOM     45  C   UNL A   1      38.154  28.776  28.322  1.00  0.00     0.029 A 
ATOM     46  N   UNL A   1      39.540  30.025  29.554  1.00  0.00    -0.354 N 
ATOM     47  C   UNL A   1      43.425  28.640  30.702  1.00  0.00     0.074 A 
ATOM     48  C   UNL A   1      43.680  27.304  30.204  1.00  0.00     0.031 C 
ATOM     49  C   UNL A   1      37.527  29.934  28.588  1.00  0.00     0.029 A 
ATOM     50  C   UNL A   1      38.397  30.772  29.407  1.00  0.00     0.049 A 
ATOM     51  H   UNL A   1      40.325  30.336  30.062  1.00  0.00     0.167 HD
ATOM     52  C   UNL A   1      44.302  29.354  31.448  1.00  0.00     0.031 A 
ATOM     53  C   UNL A   1      38.076  31.993  29.877  1.00  0.00     0.031 A 
ATOM     54  C   UNL A   1      44.074  30.688  31.936  1.00  0.00     0.049 A 
ATOM     55  C   UNL A   1      39.062  32.760  30.708  1.00  0.00     0.074 A 
ATOM     56  C   UNL A   1      44.938  31.505  32.648  1.00  0.00     0.029 A 
ATOM     57  N   UNL A   1      42.901  31.403  31.767  1.00  0.00    -0.354 N 
ATOM     58  N   UNL A   1      40.273  32.421  31.073  1.00  0.00    -0.248 NA
ATOM     59  C   UNL A   1      38.635  34.083  31.190  1.00  0.00     0.031 C 
ATOM     60  C   UNL A   1      44.273  32.701  32.942  1.00  0.00     0.029 A 
ATOM     61  C   UNL A   1      43.008  32.641  32.381  1.00  0.00     0.049 A 
ATOM     62  H   UNL A   1      42.107  31.079  31.282  1.00  0.00     0.167 HD
ATOM     63  C   UNL A   1      40.762  33.496  31.804  1.00  0.00     0.074 A 
ATOM     64  C   UNL A   1      39.720  34.502  31.827  1.00  0.00     0.031 C 
ATOM     65  C   UNL A   1      41.969  33.635  32.402  1.00  0.00     0.031 A 
BRANCH  52  66
ATOM     66  C   UNL A   1      45.608  28.697  31.793  1.00  0.00    -0.014 A 
ATOM     67  C   UNL A   1      45.746  27.924  32.956  1.00  0.00     0.009 A 
ATOM     68  C   UNL A   1      46.700  28.817  30.920  1.00  0.00     0.009 A 
ATOM     69  C   UNL A   1      46.962  27.306  33.253  1.00  0.00     0.001 A 
ATOM     70  C   UNL A   1      47.909  28.180  31.209  1.00  0.00     0.001 A 
ATOM     71  C   UNL A   1      48.041  27.432  32.378  1.00  0.00     0.000 A 
ENDBRANCH  52  66
BRANCH  53  72
ATOM     72  C   UNL A   1      36.750  32.582  29.559  1.00  0.00    -0.014 A 
ATOM     73  C   UNL A   1      36.550  33.263  28.350  1.00  0.00     0.009 A 
ATOM     74  C   UNL A   1      35.687  32.476  30.468  1.00  0.00     0.009 A 
ATOM     75  C   UNL A   1      35.313  33.845  28.065  1.00  0.00     0.001 A 
ATOM     76  C   UNL A   1      34.446  33.040  30.170  1.00  0.00     0.001 A 
ATOM     77  C   UNL A   1      34.261  33.730  28.973  1.00  0.00     0.000 A 
ENDBRANCH  53  72
BRANCH  65  78
ATOM     78  C   UNL A   1      42.240  34.931  33.109  1.00  0.00    -0.014 A 
ATOM     79  C   UNL A   1      41.719  35.183  34.386  1.00  0.00     0.009 A 
ATOM     80  C   UNL A   1      43.055  35.898  32.500  1.00  0.00     0.009 A 
ATOM     81  C   UNL A   1      41.986  36.393  35.031  1.00  0.00     0.001 A 
ATOM     82  C   UNL A   1      43.337  37.098  33.155  1.00  0.00     0.001 A 
ATOM     83  C   UNL A   1      42.797  37.348  34.417  1.00  0.00     0.000 A 
ENDBRANCH  65  78
ENDBRANCH  39  40
ENDBRANCH  31  34
ENDBRANCH  29  30
ENDBRANCH  28  29
ENDBRANCH   1  28
TORSDOF 15
ENDMDL
MODEL 2
REMARK VINA RESULT:     -11.2      2.330      6.672
REMARK SMILES O=C(C[C@@H](c1cccc([N+](=O)[O-])c1)N1Cc2ccccc2C1=O)NCCCCNC(=O)c1ccc(-c2c3nc(c(-c4ccccc4)c4ccc([nH]4)c(-c4ccccc4)c4nc(c(-c5ccccc5)c5ccc2[nH]5)C=C4)C=C3)cc1
REMARK SMILES IDX 26 1 25 2 24 3 1 4 2 5 3 7 4 8 5 9 6 10 13 11 7 12 9 13 8 14
REMARK SMILES IDX 10 15 11 16 12 17 14 18 15 19 22 20 16 21 21 22 23 23 17 24
REMARK SMILES IDX 20 25 18 26 19 27 27 28 28 29 29 30 30 31 31 33 32 34 33 35
REMARK SMILES IDX 79 36 34 37 78 38 35 39 36 40 37 41 72 42 38 43 77 44 71 45
REMARK SMILES IDX 73 46 39 47 76 48 70 49 69 50 40 52 62 53 47 54 61 55 48 56
REMARK SMILES IDX 51 57 60 58 74 59 49 60 50 61 59 63 75 64 52 65 41 66 42 67
REMARK SMILES IDX 46 68 43 69 45 70 44 71 63 72 64 73 68 74 65 75 67 76 66 77
REMARK SMILES IDX 53 78 54 79 58 80 55 81 57 82 56 83
REMARK H PARENT 24 6 29 32 73 51 51 62
REMARK Flexibility Score: inf
ROOT
ATOM      1  C   UNL A   1      35.771  20.663  25.000  1.00  0.00     0.023 C 
ENDROOT
BRANCH   1   2
ATOM      2  C   UNL A   1      35.944  22.183  25.039  1.00  0.00     0.116 C 
BRANCH   2   3
ATOM      3  N   UNL A   1      34.706  22.904  24.823  1.00  0.00    -0.356 N 
ATOM      4  O   UNL A   1      35.277  23.706  22.744  1.00  0.00    -0.275 OA
ATOM      5  C   UNL A   1      34.446  23.556  23.632  1.00  0.00     0.222 C 
ATOM      6  H   UNL A   1      34.033  22.930  25.541  1.00  0.00     0.163 HD
BRANCH   5   7
ATOM      7  C   UNL A   1      33.004  23.998  23.474  1.00  0.00     0.130 C 
BRANCH   7   8
ATOM      8  C   UNL A   1      32.944  25.531  23.378  1.00  0.00     0.125 C 
BRANCH   8   9
ATOM      9  C   UNL A   1      31.496  26.063  23.383  1.00  0.00    -0.018 A 
ATOM     10  C   UNL A   1      30.507  25.508  24.218  1.00  0.00     0.006 A 
ATOM     11  C   UNL A   1      31.195  27.228  22.655  1.00  0.00     0.091 A 
ATOM     12  C   UNL A   1      29.279  26.142  24.389  1.00  0.00     0.007 A 
ATOM     13  C   UNL A   1      29.954  27.850  22.818  1.00  0.00     0.269 A 
ATOM     14  C   UNL A   1      29.005  27.323  23.704  1.00  0.00     0.085 A 
BRANCH  13  15
ATOM     15  N   UNL A   1      29.639  29.069  22.064  1.00  0.00     0.062 N 
ATOM     16  O   UNL A   1      28.440  29.327  21.874  1.00  0.00    -0.258 OA
ATOM     17  O   UNL A   1      30.581  29.745  21.630  1.00  0.00    -0.258 OA
ENDBRANCH  13  15
ENDBRANCH   8   9
BRANCH   8  18
ATOM     18  N   UNL A   1      33.710  26.261  24.416  1.00  0.00    -0.327 N 
ATOM     19  C   UNL A   1      33.459  26.124  25.847  1.00  0.00     0.157 C 
ATOM     20  C   UNL A   1      34.008  27.608  24.114  1.00  0.00     0.255 C 
ATOM     21  C   UNL A   1      33.041  27.503  26.225  1.00  0.00    -0.016 A 
ATOM     22  C   UNL A   1      33.432  28.394  25.227  1.00  0.00     0.045 A 
ATOM     23  O   UNL A   1      34.395  28.077  23.071  1.00  0.00    -0.269 OA
ATOM     24  C   UNL A   1      32.237  27.920  27.271  1.00  0.00     0.006 A 
ATOM     25  C   UNL A   1      32.985  29.701  25.187  1.00  0.00     0.014 A 
ATOM     26  C   UNL A   1      31.776  29.240  27.253  1.00  0.00     0.000 A 
ATOM     27  C   UNL A   1      32.139  30.121  26.215  1.00  0.00     0.001 A 
ENDBRANCH   8  18
ENDBRANCH   7   8
ENDBRANCH   5   7
ENDBRANCH   2   3
ENDBRANCH   1   2
BRANCH   1  28
ATOM     28  C   UNL A   1      37.057  19.840  24.837  1.00  0.00     0.023 C 
BRANCH  28  29
ATOM     29  C   UNL A   1      38.333  20.468  25.400  1.00  0.00     0.116 C 
BRANCH  29  30
ATOM     30  N   UNL A   1      39.414  19.513  25.556  1.00  0.00    -0.352 N 
ATOM     31  C   UNL A   1      40.696  19.679  26.026  1.00  0.00     0.251 C 
ATOM     32  H   UNL A   1      39.194  18.594  25.280  1.00  0.00     0.163 HD
ATOM     33  O   UNL A   1      41.491  18.747  25.935  1.00  0.00    -0.269 OA
BRANCH  31  34
ATOM     34  C   UNL A   1      41.156  20.964  26.611  1.00  0.00     0.039 A 
ATOM     35  C   UNL A   1      41.661  21.945  25.750  1.00  0.00     0.014 A 
ATOM     36  C   UNL A   1      41.169  21.196  27.989  1.00  0.00     0.014 A 
ATOM     37  C   UNL A   1      42.107  23.172  26.258  1.00  0.00     0.010 A 
ATOM     38  C   UNL A   1      41.564  22.442  28.493  1.00  0.00     0.010 A 
ATOM     39  C   UNL A   1      42.029  23.448  27.633  1.00  0.00    -0.014 A 
BRANCH  39  40
ATOM     40  C   UNL A   1      42.414  24.785  28.168  1.00  0.00     0.031 A 
ATOM     41  C   UNL A   1      41.390  25.872  28.360  1.00  0.00     0.074 A 
ATOM     42  C   UNL A   1      43.707  25.045  28.447  1.00  0.00     0.049 A 
ATOM     43  N   UNL A   1      41.563  27.101  28.785  1.00  0.00    -0.248 NA
ATOM     44  C   UNL A   1      39.998  25.544  28.020  1.00  0.00     0.031 C 
ATOM     45  C   UNL A   1      44.817  24.102  28.289  1.00  0.00     0.029 A 
ATOM     46  N   UNL A   1      44.309  26.186  28.924  1.00  0.00    -0.354 N 
ATOM     47  C   UNL A   1      40.307  27.696  28.746  1.00  0.00     0.074 A 
ATOM     48  C   UNL A   1      39.389  26.704  28.228  1.00  0.00     0.031 C 
ATOM     49  C   UNL A   1      45.956  24.694  28.685  1.00  0.00     0.029 A 
ATOM     50  C   UNL A   1      45.666  26.065  29.093  1.00  0.00     0.049 A 
ATOM     51  H   UNL A   1      43.812  27.011  29.126  1.00  0.00     0.167 HD
ATOM     52  C   UNL A   1      39.945  28.948  29.117  1.00  0.00     0.031 A 
ATOM     53  C   UNL A   1      46.582  26.954  29.524  1.00  0.00     0.031 A 
ATOM     54  C   UNL A   1      40.840  29.941  29.650  1.00  0.00     0.049 A 
ATOM     55  C   UNL A   1      46.157  28.338  29.919  1.00  0.00     0.074 A 
ATOM     56  C   UNL A   1      40.540  31.215  30.106  1.00  0.00     0.029 A 
ATOM     57  N   UNL A   1      42.206  29.777  29.799  1.00  0.00    -0.354 N 
ATOM     58  N   UNL A   1      44.957  28.862  29.924  1.00  0.00    -0.248 NA
ATOM     59  C   UNL A   1      47.217  29.252  30.373  1.00  0.00     0.031 C 
ATOM     60  C   UNL A   1      41.732  31.835  30.497  1.00  0.00     0.029 A 
ATOM     61  C   UNL A   1      42.768  30.933  30.317  1.00  0.00     0.049 A 
ATOM     62  H   UNL A   1      42.705  28.959  29.570  1.00  0.00     0.167 HD
ATOM     63  C   UNL A   1      45.113  30.156  30.403  1.00  0.00     0.074 A 
ATOM     64  C   UNL A   1      46.521  30.337  30.685  1.00  0.00     0.031 C 
ATOM     65  C   UNL A   1      44.168  31.108  30.593  1.00  0.00     0.031 A 
BRANCH  52  66
ATOM     66  C   UNL A   1      38.501  29.326  28.950  1.00  0.00    -0.014 A 
ATOM     67  C   UNL A   1      37.993  29.717  27.701  1.00  0.00     0.009 A 
ATOM     68  C   UNL A   1      37.629  29.245  30.046  1.00  0.00     0.009 A 
ATOM     69  C   UNL A   1      36.644  30.047  27.561  1.00  0.00     0.001 A 
ATOM     70  C   UNL A   1      36.276  29.557  29.898  1.00  0.00     0.001 A 
ATOM     71  C   UNL A   1      35.786  29.965  28.658  1.00  0.00     0.000 A 
ENDBRANCH  52  66
BRANCH  53  72
ATOM     72  C   UNL A   1      48.010  26.556  29.619  1.00  0.00    -0.014 A 
ATOM     73  C   UNL A   1      48.878  26.774  28.539  1.00  0.00     0.009 A 
ATOM     74  C   UNL A   1      48.506  25.949  30.782  1.00  0.00     0.009 A 
ATOM     75  C   UNL A   1      50.213  26.372  28.615  1.00  0.00     0.001 A 
ATOM     76  C   UNL A   1      49.846  25.567  30.863  1.00  0.00     0.001 A 
ATOM     77  C   UNL A   1      50.697  25.772  29.777  1.00  0.00     0.000 A 
ENDBRANCH  53  72
BRANCH  65  78
ATOM     78  C   UNL A   1      44.622  32.423  31.157  1.00  0.00    -0.014 A 
ATOM     79  C   UNL A   1      44.992  33.483  30.317  1.00  0.00     0.009 A 
ATOM     80  C   UNL A   1      44.649  32.612  32.547  1.00  0.00     0.009 A 
ATOM     81  C   UNL A   1      45.408  34.701  30.859  1.00  0.00     0.001 A 
ATOM     82  C   UNL A   1      45.045  33.837  33.087  1.00  0.00     0.001 A 
ATOM     83  C   UNL A   1      45.430  34.878  32.243  1.00  0.00     0.000 A 
ENDBRANCH  65  78
ENDBRANCH  39  40
ENDBRANCH  31  34
ENDBRANCH  29  30
ENDBRANCH  28  29
ENDBRANCH   1  28
TORSDOF 15
ENDMDL
MODEL 3
REMARK VINA RESULT:     -11.1      0.647      5.770
REMARK SMILES O=C(C[C@@H](c1cccc([N+](=O)[O-])c1)N1Cc2ccccc2C1=O)NCCCCNC(=O)c1ccc(-c2c3nc(c(-c4ccccc4)c4ccc([nH]4)c(-c4ccccc4)c4nc(c(-c5ccccc5)c5ccc2[nH]5)C=C4)C=C3)cc1
REMARK SMILES IDX 26 1 25 2 24 3 1 4 2 5 3 7 4 8 5 9 6 10 13 11 7 12 9 13 8 14
REMARK SMILES IDX 10 15 11 16 12 17 14 18 15 19 22 20 16 21 21 22 23 23 17 24
REMARK SMILES IDX 20 25 18 26 19 27 27 28 28 29 29 30 30 31 31 33 32 34 33 35
REMARK SMILES IDX 79 36 34 37 78 38 35 39 36 40 37 41 72 42 38 43 77 44 71 45
REMARK SMILES IDX 73 46 39 47 76 48 70 49 69 50 40 52 62 53 47 54 61 55 48 56
REMARK SMILES IDX 51 57 60 58 74 59 49 60 50 61 59 63 75 64 52 65 41 66 42 67
REMARK SMILES IDX 46 68 43 69 45 70 44 71 63 72 64 73 68 74 65 75 67 76 66 77
REMARK SMILES IDX 53 78 54 79 58 80 55 81 57 82 56 83
REMARK H PARENT 24 6 29 32 73 51 51 62
REMARK Flexibility Score: inf
ROOT
ATOM      1  C   UNL A   1      34.779  22.273  25.236  1.00  0.00     0.023 C 
ENDROOT
BRANCH   1   2
ATOM      2  C   UNL A   1      33.314  22.499  25.620  1.00  0.00     0.116 C 
BRANCH   2   3
ATOM      3  N   UNL A   1      32.612  23.371  24.701  1.00  0.00    -0.356 N 
ATOM      4  O   UNL A   1      30.524  22.991  25.587  1.00  0.00    -0.275 OA
ATOM      5  C   UNL A   1      31.254  23.604  24.817  1.00  0.00     0.222 C 
ATOM      6  H   UNL A   1      33.113  23.809  23.975  1.00  0.00     0.163 HD
BRANCH   5   7
ATOM      7  C   UNL A   1      30.751  24.755  23.968  1.00  0.00     0.130 C 
BRANCH   7   8
ATOM      8  C   UNL A   1      31.631  25.993  24.208  1.00  0.00     0.125 C 
BRANCH   8   9
ATOM      9  C   UNL A   1      30.975  27.288  23.687  1.00  0.00    -0.018 A 
ATOM     10  C   UNL A   1      31.723  28.279  23.022  1.00  0.00     0.006 A 
ATOM     11  C   UNL A   1      29.576  27.412  23.737  1.00  0.00     0.091 A 
ATOM     12  C   UNL A   1      31.089  29.323  22.352  1.00  0.00     0.007 A 
ATOM     13  C   UNL A   1      28.946  28.471  23.077  1.00  0.00     0.269 A 
ATOM     14  C   UNL A   1      29.699  29.412  22.362  1.00  0.00     0.085 A 
BRANCH  13  15
ATOM     15  N   UNL A   1      27.485  28.600  23.123  1.00  0.00     0.062 N 
ATOM     16  O   UNL A   1      26.986  29.609  22.600  1.00  0.00    -0.258 OA
ATOM     17  O   UNL A   1      26.841  27.721  23.710  1.00  0.00    -0.258 OA
ENDBRANCH  13  15
ENDBRANCH   8   9
BRANCH   8  18
ATOM     18  N   UNL A   1      32.042  26.214  25.615  1.00  0.00    -0.327 N 
ATOM     19  C   UNL A   1      31.248  26.970  26.576  1.00  0.00     0.157 C 
ATOM     20  C   UNL A   1      33.414  26.494  25.807  1.00  0.00     0.255 C 
ATOM     21  C   UNL A   1      32.150  28.112  26.899  1.00  0.00    -0.016 A 
ATOM     22  C   UNL A   1      33.450  27.797  26.506  1.00  0.00     0.045 A 
ATOM     23  O   UNL A   1      34.369  25.963  25.296  1.00  0.00    -0.269 OA
ATOM     24  C   UNL A   1      31.831  29.383  27.343  1.00  0.00     0.006 A 
ATOM     25  C   UNL A   1      34.458  28.741  26.469  1.00  0.00     0.014 A 
ATOM     26  C   UNL A   1      32.838  30.353  27.316  1.00  0.00     0.000 A 
ATOM     27  C   UNL A   1      34.138  30.039  26.874  1.00  0.00     0.001 A 
ENDBRANCH   8  18
ENDBRANCH   7   8
ENDBRANCH   5   7
ENDBRANCH   2   3
ENDBRANCH   1   2
BRANCH   1  28
ATOM     28  C   UNL A   1      35.808  23.161  25.950  1.00  0.00     0.023 C 
BRANCH  28  29
ATOM     29  C   UNL A   1      37.055  23.527  25.144  1.00  0.00     0.116 C 
BRANCH  29  30
ATOM     30  N   UNL A   1      38.180  22.648  25.407  1.00  0.00    -0.352 N 
ATOM     31  C   UNL A   1      39.376  22.889  26.042  1.00  0.00     0.251 C 
ATOM     32  H   UNL A   1      38.067  21.728  25.078  1.00  0.00     0.163 HD
ATOM     33  O   UNL A   1      40.246  22.022  26.024  1.00  0.00    -0.269 OA
BRANCH  31  34
ATOM     34  C   UNL A   1      39.659  24.180  26.719  1.00  0.00     0.039 A 
ATOM     35  C   UNL A   1      39.162  24.377  28.012  1.00  0.00     0.014 A 
ATOM     36  C   UNL A   1      40.336  25.224  26.084  1.00  0.00     0.014 A 
ATOM     37  C   UNL A   1      39.404  25.579  28.689  1.00  0.00     0.010 A 
ATOM     38  C   UNL A   1      40.625  26.405  26.779  1.00  0.00     0.010 A 
ATOM     39  C   UNL A   1      40.170  26.594  28.093  1.00  0.00    -0.014 A 
BRANCH  39  40
ATOM     40  C   UNL A   1      40.510  27.836  28.843  1.00  0.00     0.031 A 
ATOM     41  C   UNL A   1      39.519  28.962  28.976  1.00  0.00     0.074 A 
ATOM     42  C   UNL A   1      41.739  27.977  29.379  1.00  0.00     0.049 A 
ATOM     43  N   UNL A   1      39.666  30.124  29.568  1.00  0.00    -0.248 NA
ATOM     44  C   UNL A   1      38.201  28.767  28.354  1.00  0.00     0.031 C 
ATOM     45  C   UNL A   1      42.814  26.984  29.312  1.00  0.00     0.029 A 
ATOM     46  N   UNL A   1      42.293  29.016  30.088  1.00  0.00    -0.354 N 
ATOM     47  C   UNL A   1      38.469  30.803  29.375  1.00  0.00     0.074 A 
ATOM     48  C   UNL A   1      37.618  29.936  28.586  1.00  0.00     0.031 C 
ATOM     49  C   UNL A   1      43.886  27.452  29.974  1.00  0.00     0.029 A 
ATOM     50  C   UNL A   1      43.588  28.788  30.483  1.00  0.00     0.049 A 
ATOM     51  H   UNL A   1      41.806  29.847  30.294  1.00  0.00     0.167 HD
ATOM     52  C   UNL A   1      38.102  32.029  29.820  1.00  0.00     0.031 A 
ATOM     53  C   UNL A   1      44.448  29.560  31.174  1.00  0.00     0.031 A 
ATOM     54  C   UNL A   1      38.926  32.896  30.620  1.00  0.00     0.049 A 
ATOM     55  C   UNL A   1      44.021  30.919  31.648  1.00  0.00     0.074 A 
ATOM     56  C   UNL A   1      38.606  34.130  31.162  1.00  0.00     0.029 A 
ATOM     57  N   UNL A   1      40.232  32.625  30.991  1.00  0.00    -0.354 N 
ATOM     58  N   UNL A   1      42.867  31.519  31.499  1.00  0.00    -0.248 NA
ATOM     59  C   UNL A   1      45.018  31.705  32.390  1.00  0.00     0.031 C 
ATOM     60  C   UNL A   1      39.732  34.623  31.831  1.00  0.00     0.029 A 
ATOM     61  C   UNL A   1      40.740  33.678  31.735  1.00  0.00     0.049 A 
ATOM     62  H   UNL A   1      40.726  31.805  30.760  1.00  0.00     0.167 HD
ATOM     63  C   UNL A   1      42.990  32.741  32.149  1.00  0.00     0.074 A 
ATOM     64  C   UNL A   1      44.328  32.795  32.699  1.00  0.00     0.031 C 
ATOM     65  C   UNL A   1      42.071  33.728  32.277  1.00  0.00     0.031 A 
BRANCH  52  66
ATOM     66  C   UNL A   1      36.733  32.519  29.442  1.00  0.00    -0.014 A 
ATOM     67  C   UNL A   1      36.520  33.228  28.250  1.00  0.00     0.009 A 
ATOM     68  C   UNL A   1      35.637  32.226  30.267  1.00  0.00     0.009 A 
ATOM     69  C   UNL A   1      35.238  33.660  27.906  1.00  0.00     0.001 A 
ATOM     70  C   UNL A   1      34.352  32.642  29.910  1.00  0.00     0.001 A 
ATOM     71  C   UNL A   1      34.155  33.365  28.734  1.00  0.00     0.000 A 
ENDBRANCH  52  66
BRANCH  53  72
ATOM     72  C   UNL A   1      45.813  29.060  31.477  1.00  0.00    -0.014 A 
ATOM     73  C   UNL A   1      46.851  29.230  30.548  1.00  0.00     0.009 A 
ATOM     74  C   UNL A   1      46.080  28.402  32.686  1.00  0.00     0.009 A 
ATOM     75  C   UNL A   1      48.127  28.732  30.818  1.00  0.00     0.001 A 
ATOM     76  C   UNL A   1      47.362  27.924  32.961  1.00  0.00     0.001 A 
ATOM     77  C   UNL A   1      48.382  28.083  32.024  1.00  0.00     0.000 A 
ENDBRANCH  53  72
BRANCH  65  78
ATOM     78  C   UNL A   1      42.472  34.940  33.065  1.00  0.00    -0.014 A 
ATOM     79  C   UNL A   1      42.183  35.044  34.434  1.00  0.00     0.009 A 
ATOM     80  C   UNL A   1      43.178  35.977  32.436  1.00  0.00     0.009 A 
ATOM     81  C   UNL A   1      42.569  36.177  35.153  1.00  0.00     0.001 A 
ATOM     82  C   UNL A   1      43.581  37.100  33.162  1.00  0.00     0.001 A 
ATOM     83  C   UNL A   1      43.270  37.202  34.518  1.00  0.00     0.000 A 
ENDBRANCH  65  78
ENDBRANCH  39  40
ENDBRANCH  31  34
ENDBRANCH  29  30
ENDBRANCH  28  29
ENDBRANCH   1  28
TORSDOF 15
ENDMDL
