MODEL 1
REMARK VINA RESULT:     -13.6      0.000      0.000
REMARK SMILES Cc1c(Cl)cccc1NC(=O)C[C@H](C(=O)NCCCCNC(=O)c1ccc(-c2c3nc(c(-c4ccccc4)c4ccc([nH]4)c(-c4ccccc4)c4nc(c(-c5ccccc5)c5ccc2[nH]5)C=C4)C=C3)cc1)[C@H](C)c1ccccc1
REMARK SMILES IDX 18 1 17 2 16 3 14 4 15 5 13 7 12 8 10 9 9 10 11 12 8 13 1 14
REMARK SMILES IDX 2 15 3 16 4 17 5 18 7 19 6 20 72 21 73 22 74 23 75 24 79 25
REMARK SMILES IDX 76 26 78 27 77 28 19 29 20 30 21 31 22 32 23 34 24 35 25 36
REMARK SMILES IDX 71 37 26 38 70 39 27 40 28 41 29 42 64 43 30 44 69 45 63 46
REMARK SMILES IDX 65 47 31 48 68 49 62 50 61 51 32 53 54 54 39 55 53 56 40 57
REMARK SMILES IDX 43 58 52 59 66 60 41 61 42 62 51 64 67 65 44 66 33 67 34 68
REMARK SMILES IDX 38 69 35 70 37 71 36 72 55 73 56 74 60 75 57 76 59 77 58 78
REMARK SMILES IDX 45 79 46 80 50 81 47 82 49 83 48 84
REMARK H PARENT 16 6 9 11 21 33 65 52 43 63
REMARK Flexibility Score: inf
ROOT
ATOM      1  C   UNL A   1      37.389  22.382  25.007  1.00  0.00     0.023 C 
ENDROOT
BRANCH   1   2
ATOM      2  C   UNL A   1      35.791  23.366  26.126  1.00  0.00     0.116 C 
BRANCH   2   3
ATOM      3  N   UNL A   1      34.795  22.829  27.270  1.00  0.00    -0.356 N 
ATOM      4  C   UNL A   1      33.479  22.492  27.280  1.00  0.00     0.224 C 
ATOM      5  O   UNL A   1      32.975  22.205  28.369  1.00  0.00    -0.275 OA
ATOM      6  H   UNL A   1      35.230  22.722  28.147  1.00  0.00     0.163 HD
BRANCH   4   7
ATOM      7  C   UNL A   1      32.644  22.512  26.005  1.00  0.00     0.095 C 
BRANCH   7   8
ATOM      8  C   UNL A   1      31.913  23.879  25.973  1.00  0.00     0.114 C 
BRANCH   8   9
ATOM      9  C   UNL A   1      30.559  24.123  26.601  1.00  0.00     0.225 C 
ATOM     10  N   UNL A   1      29.910  25.322  26.512  1.00  0.00    -0.326 N 
ATOM     11  H   UNL A   1      29.196  25.492  27.168  1.00  0.00     0.169 HD
ATOM     12  O   UNL A   1      29.987  23.212  27.209  1.00  0.00    -0.275 OA
BRANCH  10  13
ATOM     13  C   UNL A   1      30.164  26.327  25.580  1.00  0.00     0.045 A 
ATOM     14  C   UNL A   1      32.130  27.495  27.327  1.00  0.00     0.048 C 
ATOM     15  C   UNL A   1      31.247  27.666  26.124  1.00  0.00    -0.009 A 
ATOM     16  C   UNL A   1      31.357  29.180  25.163  1.00  0.00     0.046 A 
ATOM     17  Cl  UNL A   1      32.339  30.482  25.701  1.00  0.00    -0.084 Cl
ATOM     18  C   UNL A   1      30.434  29.348  23.625  1.00  0.00     0.021 A 
ATOM     19  C   UNL A   1      29.275  26.459  24.016  1.00  0.00     0.026 A 
ATOM     20  C   UNL A   1      29.407  27.982  23.029  1.00  0.00     0.004 A 
ENDBRANCH  10  13
ENDBRANCH   8   9
ENDBRANCH   7   8
BRANCH   7  21
ATOM     21  C   UNL A   1      33.460  21.853  24.846  1.00  0.00     0.029 C 
ATOM     22  C   UNL A   1      33.245  22.371  23.426  1.00  0.00     0.013 C 
BRANCH  21  23
ATOM     23  C   UNL A   1      33.525  20.320  24.885  1.00  0.00    -0.044 A 
ATOM     24  C   UNL A   1      34.780  19.685  24.827  1.00  0.00     0.004 A 
ATOM     25  C   UNL A   1      32.374  19.530  24.766  1.00  0.00     0.004 A 
ATOM     26  C   UNL A   1      34.875  18.320  24.549  1.00  0.00     0.000 A 
ATOM     27  C   UNL A   1      32.472  18.170  24.470  1.00  0.00     0.000 A 
ATOM     28  C   UNL A   1      33.721  17.571  24.339  1.00  0.00     0.000 A 
ENDBRANCH  21  23
ENDBRANCH   7  21
ENDBRANCH   4   7
ENDBRANCH   2   3
ENDBRANCH   1   2
BRANCH   1  29
ATOM     29  C   UNL A   1      38.212  20.874  25.061  1.00  0.00     0.023 C 
BRANCH  29  30
ATOM     30  C   UNL A   1      39.243  20.575  26.144  1.00  0.00     0.116 C 
BRANCH  30  31
ATOM     31  N   UNL A   1      40.089  19.423  25.858  1.00  0.00    -0.352 N 
ATOM     32  C   UNL A   1      41.439  19.316  26.064  1.00  0.00     0.251 C 
ATOM     33  H   UNL A   1      39.639  18.635  25.474  1.00  0.00     0.163 HD
ATOM     34  O   UNL A   1      42.064  18.293  25.829  1.00  0.00    -0.269 OA
BRANCH  32  35
ATOM     35  C   UNL A   1      42.122  20.537  26.492  1.00  0.00     0.039 A 
ATOM     36  C   UNL A   1      42.435  21.465  25.501  1.00  0.00     0.014 A 
ATOM     37  C   UNL A   1      42.227  20.836  27.852  1.00  0.00     0.014 A 
ATOM     38  C   UNL A   1      42.821  22.739  25.883  1.00  0.00     0.010 A 
ATOM     39  C   UNL A   1      42.531  22.135  28.226  1.00  0.00     0.010 A 
ATOM     40  C   UNL A   1      42.835  23.090  27.243  1.00  0.00    -0.014 A 
BRANCH  40  41
ATOM     41  C   UNL A   1      43.203  24.465  27.634  1.00  0.00     0.031 A 
ATOM     42  C   UNL A   1      44.640  24.880  27.568  1.00  0.00     0.074 A 
ATOM     43  C   UNL A   1      42.240  25.321  28.023  1.00  0.00     0.049 A 
ATOM     44  N   UNL A   1      45.170  26.048  27.821  1.00  0.00    -0.248 NA
ATOM     45  C   UNL A   1      45.618  23.846  27.184  1.00  0.00     0.031 C 
ATOM     46  C   UNL A   1      40.813  25.000  28.136  1.00  0.00     0.029 A 
ATOM     47  N   UNL A   1      42.309  26.643  28.373  1.00  0.00    -0.354 N 
ATOM     48  C   UNL A   1      46.535  25.885  27.633  1.00  0.00     0.074 A 
ATOM     49  C   UNL A   1      46.764  24.497  27.308  1.00  0.00     0.031 C 
ATOM     50  C   UNL A   1      40.139  26.109  28.482  1.00  0.00     0.029 A 
ATOM     51  C   UNL A   1      41.088  27.203  28.660  1.00  0.00     0.049 A 
ATOM     52  H   UNL A   1      43.155  27.146  28.415  1.00  0.00     0.167 HD
ATOM     53  C   UNL A   1      47.507  26.820  27.703  1.00  0.00     0.031 A 
ATOM     54  C   UNL A   1      40.777  28.459  29.029  1.00  0.00     0.031 A 
ATOM     55  C   UNL A   1      47.261  28.198  28.027  1.00  0.00     0.049 A 
ATOM     56  C   UNL A   1      41.888  29.467  29.143  1.00  0.00     0.074 A 
ATOM     57  C   UNL A   1      48.165  29.242  28.092  1.00  0.00     0.029 A 
ATOM     58  N   UNL A   1      46.017  28.720  28.347  1.00  0.00    -0.354 N 
ATOM     59  N   UNL A   1      43.169  29.316  28.896  1.00  0.00    -0.248 NA
ATOM     60  C   UNL A   1      41.513  30.818  29.573  1.00  0.00     0.031 C 
ATOM     61  C   UNL A   1      47.480  30.379  28.525  1.00  0.00     0.029 A 
ATOM     62  C   UNL A   1      46.135  30.065  28.647  1.00  0.00     0.049 A 
ATOM     63  H   UNL A   1      45.175  28.209  28.359  1.00  0.00     0.167 HD
ATOM     64  C   UNL A   1      43.745  30.560  29.111  1.00  0.00     0.074 A 
ATOM     65  C   UNL A   1      42.670  31.458  29.482  1.00  0.00     0.031 C 
ATOM     66  C   UNL A   1      45.045  30.933  29.011  1.00  0.00     0.031 A 
BRANCH  53  67
ATOM     67  C   UNL A   1      48.921  26.377  27.448  1.00  0.00    -0.014 A 
ATOM     68  C   UNL A   1      49.462  26.358  26.151  1.00  0.00     0.009 A 
ATOM     69  C   UNL A   1      49.735  26.005  28.527  1.00  0.00     0.009 A 
ATOM     70  C   UNL A   1      50.780  25.947  25.940  1.00  0.00     0.001 A 
ATOM     71  C   UNL A   1      51.063  25.628  28.318  1.00  0.00     0.001 A 
ATOM     72  C   UNL A   1      51.581  25.592  27.024  1.00  0.00     0.000 A 
ENDBRANCH  53  67
BRANCH  54  73
ATOM     73  C   UNL A   1      39.367  28.838  29.323  1.00  0.00    -0.014 A 
ATOM     74  C   UNL A   1      38.835  28.696  30.614  1.00  0.00     0.009 A 
ATOM     75  C   UNL A   1      38.531  29.311  28.298  1.00  0.00     0.009 A 
ATOM     76  C   UNL A   1      37.488  28.975  30.862  1.00  0.00     0.001 A 
ATOM     77  C   UNL A   1      37.195  29.627  28.557  1.00  0.00     0.001 A 
ATOM     78  C   UNL A   1      36.671  29.443  29.835  1.00  0.00     0.000 A 
ENDBRANCH  54  73
BRANCH  66  79
ATOM     79  C   UNL A   1      45.365  32.381  29.260  1.00  0.00    -0.014 A 
ATOM     80  C   UNL A   1      45.312  33.332  28.229  1.00  0.00     0.009 A 
ATOM     81  C   UNL A   1      45.679  32.802  30.561  1.00  0.00     0.009 A 
ATOM     82  C   UNL A   1      45.607  34.671  28.492  1.00  0.00     0.001 A 
ATOM     83  C   UNL A   1      45.933  34.147  30.828  1.00  0.00     0.001 A 
ATOM     84  C   UNL A   1      45.911  35.078  29.791  1.00  0.00     0.000 A 
ENDBRANCH  66  79
ENDBRANCH  40  41
ENDBRANCH  32  35
ENDBRANCH  30  31
ENDBRANCH  29  30
ENDBRANCH   1  29
TORSDOF 16
ENDMDL
MODEL 2
REMARK VINA RESULT:     -13.4      2.688      7.249
REMARK SMILES Cc1c(Cl)cccc1NC(=O)C[C@H](C(=O)NCCCCNC(=O)c1ccc(-c2c3nc(c(-c4ccccc4)c4ccc([nH]4)c(-c4ccccc4)c4nc(c(-c5ccccc5)c5ccc2[nH]5)C=C4)C=C3)cc1)[C@H](C)c1ccccc1
REMARK SMILES IDX 18 1 17 2 16 3 14 4 15 5 13 7 12 8 10 9 9 10 11 12 8 13 1 14
REMARK SMILES IDX 2 15 3 16 4 17 5 18 7 19 6 20 72 21 73 22 74 23 75 24 79 25
REMARK SMILES IDX 76 26 78 27 77 28 19 29 20 30 21 31 22 32 23 34 24 35 25 36
REMARK SMILES IDX 71 37 26 38 70 39 27 40 28 41 29 42 64 43 30 44 69 45 63 46
REMARK SMILES IDX 65 47 31 48 68 49 62 50 61 51 32 53 54 54 39 55 53 56 40 57
REMARK SMILES IDX 43 58 52 59 66 60 41 61 42 62 51 64 67 65 44 66 33 67 34 68
REMARK SMILES IDX 38 69 35 70 37 71 36 72 55 73 56 74 60 75 57 76 59 77 58 78
REMARK SMILES IDX 45 79 46 80 50 81 47 82 49 83 48 84
REMARK H PARENT 16 6 9 11 21 33 65 52 43 63
REMARK Flexibility Score: inf
ROOT
ATOM      1  C   UNL A   1      31.544  26.760  26.621  1.00  0.00     0.023 C 
ENDROOT
BRANCH   1   2
ATOM      2  C   UNL A   1      31.780  24.588  26.595  1.00  0.00     0.116 C 
BRANCH   2   3
ATOM      3  N   UNL A   1      32.800  23.611  27.369  1.00  0.00    -0.356 N 
ATOM      4  C   UNL A   1      33.644  22.629  26.958  1.00  0.00     0.224 C 
ATOM      5  O   UNL A   1      34.229  21.983  27.831  1.00  0.00    -0.275 OA
ATOM      6  H   UNL A   1      32.814  23.754  28.343  1.00  0.00     0.163 HD
BRANCH   4   7
ATOM      7  C   UNL A   1      33.829  22.305  25.480  1.00  0.00     0.095 C 
BRANCH   7   8
ATOM      8  C   UNL A   1      34.217  23.631  24.778  1.00  0.00     0.114 C 
BRANCH   8   9
ATOM      9  C   UNL A   1      34.351  23.781  23.280  1.00  0.00     0.225 C 
ATOM     10  N   UNL A   1      33.575  24.637  22.551  1.00  0.00    -0.326 N 
ATOM     11  H   UNL A   1      33.519  24.474  21.582  1.00  0.00     0.169 HD
ATOM     12  O   UNL A   1      35.203  23.127  22.668  1.00  0.00    -0.275 OA
BRANCH  10  13
ATOM     13  C   UNL A   1      32.856  25.722  23.051  1.00  0.00     0.045 A 
ATOM     14  C   UNL A   1      30.499  24.088  23.293  1.00  0.00     0.048 C 
ATOM     15  C   UNL A   1      31.080  25.473  23.262  1.00  0.00    -0.009 A 
ATOM     16  C   UNL A   1      30.002  26.883  23.544  1.00  0.00     0.046 A 
ATOM     17  Cl  UNL A   1      28.305  26.664  23.689  1.00  0.00    -0.084 Cl
ATOM     18  C   UNL A   1      30.693  28.541  23.677  1.00  0.00     0.021 A 
ATOM     19  C   UNL A   1      33.569  27.369  23.233  1.00  0.00     0.026 A 
ATOM     20  C   UNL A   1      32.480  28.793  23.546  1.00  0.00     0.004 A 
ENDBRANCH  10  13
ENDBRANCH   8   9
ENDBRANCH   7   8
BRANCH   7  21
ATOM     21  C   UNL A   1      34.545  20.922  25.344  1.00  0.00     0.029 C 
ATOM     22  C   UNL A   1      36.019  20.908  24.945  1.00  0.00     0.013 C 
BRANCH  21  23
ATOM     23  C   UNL A   1      33.747  19.845  24.596  1.00  0.00    -0.044 A 
ATOM     24  C   UNL A   1      34.262  18.538  24.520  1.00  0.00     0.004 A 
ATOM     25  C   UNL A   1      32.631  20.167  23.812  1.00  0.00     0.004 A 
ATOM     26  C   UNL A   1      33.742  17.620  23.606  1.00  0.00     0.000 A 
ATOM     27  C   UNL A   1      32.125  19.254  22.887  1.00  0.00     0.000 A 
ATOM     28  C   UNL A   1      32.694  17.990  22.768  1.00  0.00     0.000 A 
ENDBRANCH  21  23
ENDBRANCH   7  21
ENDBRANCH   4   7
ENDBRANCH   2   3
ENDBRANCH   1   2
BRANCH   1  29
ATOM     29  C   UNL A   1      32.065  28.066  27.610  1.00  0.00     0.023 C 
BRANCH  29  30
ATOM     30  C   UNL A   1      33.415  28.738  27.384  1.00  0.00     0.116 C 
BRANCH  30  31
ATOM     31  N   UNL A   1      33.446  30.147  27.754  1.00  0.00    -0.352 N 
ATOM     32  C   UNL A   1      34.539  30.876  28.145  1.00  0.00     0.251 C 
ATOM     33  H   UNL A   1      32.588  30.628  27.719  1.00  0.00     0.163 HD
ATOM     34  O   UNL A   1      34.480  32.069  28.401  1.00  0.00    -0.269 OA
BRANCH  32  35
ATOM     35  C   UNL A   1      35.778  30.122  28.338  1.00  0.00     0.039 A 
ATOM     36  C   UNL A   1      36.723  30.190  27.316  1.00  0.00     0.014 A 
ATOM     37  C   UNL A   1      36.071  29.570  29.586  1.00  0.00     0.014 A 
ATOM     38  C   UNL A   1      38.006  29.734  27.567  1.00  0.00     0.010 A 
ATOM     39  C   UNL A   1      37.377  29.195  29.858  1.00  0.00     0.010 A 
ATOM     40  C   UNL A   1      38.348  29.270  28.847  1.00  0.00    -0.014 A 
BRANCH  40  41
ATOM     41  C   UNL A   1      39.731  28.829  29.114  1.00  0.00     0.031 A 
ATOM     42  C   UNL A   1      40.650  29.735  29.874  1.00  0.00     0.074 A 
ATOM     43  C   UNL A   1      40.131  27.616  28.689  1.00  0.00     0.049 A 
ATOM     44  N   UNL A   1      41.882  29.524  30.254  1.00  0.00    -0.248 NA
ATOM     45  C   UNL A   1      40.126  31.063  30.241  1.00  0.00     0.031 C 
ATOM     46  C   UNL A   1      39.311  26.670  27.926  1.00  0.00     0.029 A 
ATOM     47  N   UNL A   1      41.321  26.959  28.858  1.00  0.00    -0.354 N 
ATOM     48  C   UNL A   1      42.278  30.688  30.896  1.00  0.00     0.074 A 
ATOM     49  C   UNL A   1      41.185  31.627  30.801  1.00  0.00     0.031 C 
ATOM     50  C   UNL A   1      40.007  25.538  27.736  1.00  0.00     0.029 A 
ATOM     51  C   UNL A   1      41.334  25.695  28.319  1.00  0.00     0.049 A 
ATOM     52  H   UNL A   1      42.094  27.356  29.321  1.00  0.00     0.167 HD
ATOM     53  C   UNL A   1      43.444  30.940  31.530  1.00  0.00     0.031 A 
ATOM     54  C   UNL A   1      42.314  24.773  28.301  1.00  0.00     0.031 A 
ATOM     55  C   UNL A   1      44.522  29.994  31.616  1.00  0.00     0.049 A 
ATOM     56  C   UNL A   1      43.618  25.102  28.975  1.00  0.00     0.074 A 
ATOM     57  C   UNL A   1      45.736  30.128  32.263  1.00  0.00     0.029 A 
ATOM     58  N   UNL A   1      44.513  28.738  31.027  1.00  0.00    -0.354 N 
ATOM     59  N   UNL A   1      43.956  26.183  29.638  1.00  0.00    -0.248 NA
ATOM     60  C   UNL A   1      44.671  24.081  28.910  1.00  0.00     0.031 C 
ATOM     61  C   UNL A   1      46.492  28.983  32.002  1.00  0.00     0.029 A 
ATOM     62  C   UNL A   1      45.716  28.100  31.265  1.00  0.00     0.049 A 
ATOM     63  H   UNL A   1      43.762  28.357  30.516  1.00  0.00     0.167 HD
ATOM     64  C   UNL A   1      45.248  25.959  30.096  1.00  0.00     0.074 A 
ATOM     65  C   UNL A   1      45.620  24.629  29.655  1.00  0.00     0.031 C 
ATOM     66  C   UNL A   1      46.056  26.775  30.816  1.00  0.00     0.031 A 
BRANCH  53  67
ATOM     67  C   UNL A   1      43.619  32.296  32.155  1.00  0.00    -0.014 A 
ATOM     68  C   UNL A   1      44.148  33.376  31.430  1.00  0.00     0.009 A 
ATOM     69  C   UNL A   1      43.215  32.504  33.481  1.00  0.00     0.009 A 
ATOM     70  C   UNL A   1      44.296  34.628  32.031  1.00  0.00     0.001 A 
ATOM     71  C   UNL A   1      43.330  33.765  34.070  1.00  0.00     0.001 A 
ATOM     72  C   UNL A   1      43.879  34.823  33.347  1.00  0.00     0.000 A 
ENDBRANCH  53  67
BRANCH  54  73
ATOM     73  C   UNL A   1      42.112  23.463  27.622  1.00  0.00    -0.014 A 
ATOM     74  C   UNL A   1      41.585  22.363  28.318  1.00  0.00     0.009 A 
ATOM     75  C   UNL A   1      42.483  23.295  26.278  1.00  0.00     0.009 A 
ATOM     76  C   UNL A   1      41.477  21.115  27.696  1.00  0.00     0.001 A 
ATOM     77  C   UNL A   1      42.337  22.057  25.647  1.00  0.00     0.001 A 
ATOM     78  C   UNL A   1      41.850  20.965  26.362  1.00  0.00     0.000 A 
ENDBRANCH  54  73
BRANCH  66  79
ATOM     79  C   UNL A   1      47.402  26.232  31.211  1.00  0.00    -0.014 A 
ATOM     80  C   UNL A   1      48.509  26.319  30.353  1.00  0.00     0.009 A 
ATOM     81  C   UNL A   1      47.569  25.668  32.485  1.00  0.00     0.009 A 
ATOM     82  C   UNL A   1      49.748  25.812  30.750  1.00  0.00     0.001 A 
ATOM     83  C   UNL A   1      48.817  25.200  32.894  1.00  0.00     0.001 A 
ATOM     84  C   UNL A   1      49.902  25.260  32.022  1.00  0.00     0.000 A 
ENDBRANCH  66  79
ENDBRANCH  40  41
ENDBRANCH  32  35
ENDBRANCH  30  31
ENDBRANCH  29  30
ENDBRANCH   1  29
TORSDOF 16
ENDMDL
MODEL 3
REMARK VINA RESULT:     -13.3      1.695      3.343
REMARK SMILES Cc1c(Cl)cccc1NC(=O)C[C@H](C(=O)NCCCCNC(=O)c1ccc(-c2c3nc(c(-c4ccccc4)c4ccc([nH]4)c(-c4ccccc4)c4nc(c(-c5ccccc5)c5ccc2[nH]5)C=C4)C=C3)cc1)[C@H](C)c1ccccc1
REMARK SMILES IDX 18 1 17 2 16 3 14 4 15 5 13 7 12 8 10 9 9 10 11 12 8 13 1 14
REMARK SMILES IDX 2 15 3 16 4 17 5 18 7 19 6 20 72 21 73 22 74 23 75 24 79 25
REMARK SMILES IDX 76 26 78 27 77 28 19 29 20 30 21 31 22 32 23 34 24 35 25 36
REMARK SMILES IDX 71 37 26 38 70 39 27 40 28 41 29 42 64 43 30 44 69 45 63 46
REMARK SMILES IDX 65 47 31 48 68 49 62 50 61 51 32 53 54 54 39 55 53 56 40 57
REMARK SMILES IDX 43 58 52 59 66 60 41 61 42 62 51 64 67 65 44 66 33 67 34 68
REMARK SMILES IDX 38 69 35 70 37 71 36 72 55 73 56 74 60 75 57 76 59 77 58 78
REMARK SMILES IDX 45 79 46 80 50 81 47 82 49 83 48 84
REMARK H PARENT 16 6 9 11 21 33 65 52 43 63
REMARK Flexibility Score: inf
ROOT
ATOM      1  C   UNL A   1      37.024  22.337  24.628  1.00  0.00     0.023 C 
ENDROOT
BRANCH   1   2
ATOM      2  C   UNL A   1      35.161  23.271  25.281  1.00  0.00     0.116 C 
BRANCH   2   3
ATOM      3  N   UNL A   1      34.113  22.880  26.439  1.00  0.00    -0.356 N 
ATOM      4  C   UNL A   1      32.824  23.229  26.689  1.00  0.00     0.224 C 
ATOM      5  O   UNL A   1      32.321  22.826  27.741  1.00  0.00    -0.275 OA
ATOM      6  H   UNL A   1      34.484  22.258  27.106  1.00  0.00     0.163 HD
BRANCH   4   7
ATOM      7  C   UNL A   1      32.042  24.122  25.733  1.00  0.00     0.095 C 
BRANCH   7   8
ATOM      8  C   UNL A   1      31.360  23.184  24.704  1.00  0.00     0.114 C 
BRANCH   8   9
ATOM      9  C   UNL A   1      31.874  22.961  23.300  1.00  0.00     0.225 C 
ATOM     10  N   UNL A   1      32.088  23.986  22.421  1.00  0.00    -0.326 N 
ATOM     11  H   UNL A   1      32.142  23.752  21.467  1.00  0.00     0.169 HD
ATOM     12  O   UNL A   1      32.137  21.818  22.912  1.00  0.00    -0.275 OA
BRANCH  10  13
ATOM     13  C   UNL A   1      32.239  25.332  22.751  1.00  0.00     0.045 A 
ATOM     14  C   UNL A   1      29.410  25.565  23.227  1.00  0.00     0.048 C 
ATOM     15  C   UNL A   1      30.714  26.271  22.990  1.00  0.00    -0.009 A 
ATOM     16  C   UNL A   1      30.765  28.066  23.055  1.00  0.00     0.046 A 
ATOM     17  Cl  UNL A   1      29.315  28.971  23.224  1.00  0.00    -0.084 Cl
ATOM     18  C   UNL A   1      32.339  28.935  22.939  1.00  0.00     0.021 A 
ATOM     19  C   UNL A   1      33.828  26.184  22.686  1.00  0.00     0.026 A 
ATOM     20  C   UNL A   1      33.881  28.001  22.778  1.00  0.00     0.004 A 
ENDBRANCH  10  13
ENDBRANCH   8   9
ENDBRANCH   7   8
BRANCH   7  21
ATOM     21  C   UNL A   1      31.371  25.279  26.543  1.00  0.00     0.029 C 
ATOM     22  C   UNL A   1      29.848  25.375  26.538  1.00  0.00     0.013 C 
BRANCH  21  23
ATOM     23  C   UNL A   1      32.025  26.657  26.375  1.00  0.00    -0.044 A 
ATOM     24  C   UNL A   1      33.416  26.737  26.176  1.00  0.00     0.004 A 
ATOM     25  C   UNL A   1      31.320  27.843  26.620  1.00  0.00     0.004 A 
ATOM     26  C   UNL A   1      34.089  27.950  26.328  1.00  0.00     0.000 A 
ATOM     27  C   UNL A   1      31.996  29.051  26.789  1.00  0.00     0.000 A 
ATOM     28  C   UNL A   1      33.381  29.101  26.665  1.00  0.00     0.000 A 
ENDBRANCH  21  23
ENDBRANCH   7  21
ENDBRANCH   4   7
ENDBRANCH   2   3
ENDBRANCH   1   2
BRANCH   1  29
ATOM     29  C   UNL A   1      37.885  20.887  24.963  1.00  0.00     0.023 C 
BRANCH  29  30
ATOM     30  C   UNL A   1      39.120  20.891  25.858  1.00  0.00     0.116 C 
BRANCH  30  31
ATOM     31  N   UNL A   1      39.999  19.745  25.660  1.00  0.00    -0.352 N 
ATOM     32  C   UNL A   1      41.306  19.629  26.054  1.00  0.00     0.251 C 
ATOM     33  H   UNL A   1      39.611  18.970  25.193  1.00  0.00     0.163 HD
ATOM     34  O   UNL A   1      41.960  18.611  25.880  1.00  0.00    -0.269 OA
BRANCH  32  35
ATOM     35  C   UNL A   1      41.919  20.834  26.613  1.00  0.00     0.039 A 
ATOM     36  C   UNL A   1      42.322  21.813  25.708  1.00  0.00     0.014 A 
ATOM     37  C   UNL A   1      41.872  21.066  27.989  1.00  0.00     0.014 A 
ATOM     38  C   UNL A   1      42.644  23.071  26.190  1.00  0.00     0.010 A 
ATOM     39  C   UNL A   1      42.112  22.349  28.456  1.00  0.00     0.010 A 
ATOM     40  C   UNL A   1      42.505  23.355  27.558  1.00  0.00    -0.014 A 
BRANCH  40  41
ATOM     41  C   UNL A   1      42.806  24.712  28.053  1.00  0.00     0.031 A 
ATOM     42  C   UNL A   1      44.234  25.106  28.274  1.00  0.00     0.074 A 
ATOM     43  C   UNL A   1      41.795  25.573  28.276  1.00  0.00     0.049 A 
ATOM     44  N   UNL A   1      44.718  26.257  28.658  1.00  0.00    -0.248 NA
ATOM     45  C   UNL A   1      45.256  24.067  28.054  1.00  0.00     0.031 C 
ATOM     46  C   UNL A   1      40.370  25.273  28.106  1.00  0.00     0.029 A 
ATOM     47  N   UNL A   1      41.811  26.884  28.672  1.00  0.00    -0.354 N 
ATOM     48  C   UNL A   1      46.092  26.078  28.729  1.00  0.00     0.074 A 
ATOM     49  C   UNL A   1      46.364  24.695  28.413  1.00  0.00     0.031 C 
ATOM     50  C   UNL A   1      39.655  26.383  28.349  1.00  0.00     0.029 A 
ATOM     51  C   UNL A   1      40.563  27.455  28.737  1.00  0.00     0.049 A 
ATOM     52  H   UNL A   1      42.639  27.371  28.889  1.00  0.00     0.167 HD
ATOM     53  C   UNL A   1      47.043  26.995  29.011  1.00  0.00     0.031 A 
ATOM     54  C   UNL A   1      40.201  28.706  29.076  1.00  0.00     0.031 A 
ATOM     55  C   UNL A   1      46.755  28.367  29.322  1.00  0.00     0.049 A 
ATOM     56  C   UNL A   1      41.281  29.692  29.430  1.00  0.00     0.074 A 
ATOM     57  C   UNL A   1      47.641  29.394  29.589  1.00  0.00     0.029 A 
ATOM     58  N   UNL A   1      45.477  28.900  29.414  1.00  0.00    -0.354 N 
ATOM     59  N   UNL A   1      42.584  29.527  29.428  1.00  0.00    -0.248 NA
ATOM     60  C   UNL A   1      40.845  31.038  29.820  1.00  0.00     0.031 C 
ATOM     61  C   UNL A   1      46.898  30.531  29.917  1.00  0.00     0.029 A 
ATOM     62  C   UNL A   1      45.550  30.235  29.770  1.00  0.00     0.049 A 
ATOM     63  H   UNL A   1      44.643  28.403  29.251  1.00  0.00     0.167 HD
ATOM     64  C   UNL A   1      43.122  30.756  29.785  1.00  0.00     0.074 A 
ATOM     65  C   UNL A   1      42.005  31.661  29.971  1.00  0.00     0.031 C 
ATOM     66  C   UNL A   1      44.421  31.110  29.945  1.00  0.00     0.031 A 
BRANCH  53  67
ATOM     67  C   UNL A   1      48.475  26.536  29.017  1.00  0.00    -0.014 A 
ATOM     68  C   UNL A   1      49.083  26.045  30.184  1.00  0.00     0.009 A 
ATOM     69  C   UNL A   1      49.215  26.562  27.826  1.00  0.00     0.009 A 
ATOM     70  C   UNL A   1      50.413  25.620  30.163  1.00  0.00     0.001 A 
ATOM     71  C   UNL A   1      50.533  26.103  27.799  1.00  0.00     0.001 A 
ATOM     72  C   UNL A   1      51.133  25.640  28.969  1.00  0.00     0.000 A 
ENDBRANCH  53  67
BRANCH  54  73
ATOM     73  C   UNL A   1      38.766  29.100  29.107  1.00  0.00    -0.014 A 
ATOM     74  C   UNL A   1      38.010  28.985  30.285  1.00  0.00     0.009 A 
ATOM     75  C   UNL A   1      38.130  29.560  27.942  1.00  0.00     0.009 A 
ATOM     76  C   UNL A   1      36.643  29.278  30.283  1.00  0.00     0.001 A 
ATOM     77  C   UNL A   1      36.773  29.889  27.952  1.00  0.00     0.001 A 
ATOM     78  C   UNL A   1      36.027  29.732  29.119  1.00  0.00     0.000 A 
ENDBRANCH  54  73
BRANCH  66  79
ATOM     79  C   UNL A   1      44.703  32.545  30.293  1.00  0.00    -0.014 A 
ATOM     80  C   UNL A   1      44.829  32.966  31.626  1.00  0.00     0.009 A 
ATOM     81  C   UNL A   1      44.891  33.479  29.263  1.00  0.00     0.009 A 
ATOM     82  C   UNL A   1      45.098  34.305  31.919  1.00  0.00     0.001 A 
ATOM     83  C   UNL A   1      45.201  34.807  29.557  1.00  0.00     0.001 A 
ATOM     84  C   UNL A   1      45.289  35.222  30.884  1.00  0.00     0.000 A 
ENDBRANCH  66  79
ENDBRANCH  40  41
ENDBRANCH  32  35
ENDBRANCH  30  31
ENDBRANCH  29  30
ENDBRANCH   1  29
TORSDOF 16
ENDMDL
