MODEL 1
REMARK VINA RESULT:     -10.5      0.000      0.000
REMARK SMILES CCCc1nnc(SCC(=O)NCCCCNC(=O)c2ccc(-c3c4nc(c(-c5ccccc5)c5ccc([nH]5)c(-c5ccccc5)c5nc(c(-c6ccccc6)c6ccc3[nH]6)C=C5)C=C4)cc2)n1C[C@H]1CCCO1
REMARK SMILES IDX 13 1 12 2 10 3 11 4 9 6 8 7 7 8 4 9 5 10 68 11 6 12 3 13
REMARK SMILES IDX 2 14 1 15 69 16 70 17 71 18 74 19 72 20 73 21 14 22 15 23
REMARK SMILES IDX 16 24 17 25 18 26 19 28 20 29 21 30 67 31 22 32 66 33 23 34
REMARK SMILES IDX 24 35 25 36 60 37 26 38 65 39 59 40 61 41 27 42 64 43 58 44
REMARK SMILES IDX 57 45 28 47 50 48 35 49 49 50 36 51 39 52 48 53 62 54 37 55
REMARK SMILES IDX 38 56 47 58 63 59 40 60 29 61 30 62 34 63 31 64 33 65 32 66
REMARK SMILES IDX 51 67 52 68 56 69 53 70 55 71 54 72 41 73 42 74 46 75 43 76
REMARK SMILES IDX 45 77 44 78
REMARK H PARENT 12 5 17 27 61 46 39 57
REMARK Flexibility Score: inf
ROOT
ATOM      1  C   UNL A   1      40.085  21.311  26.551  1.00  0.00     0.116 C 
ENDROOT
BRANCH   1   2
ATOM      2  N   UNL A   1      39.311  22.486  26.876  1.00  0.00    -0.355 N 
ATOM      3  C   UNL A   1      38.299  23.003  26.126  1.00  0.00     0.230 C 
ATOM      4  O   UNL A   1      37.935  24.161  26.331  1.00  0.00    -0.274 OA
ATOM      5  H   UNL A   1      39.533  22.954  27.713  1.00  0.00     0.163 HD
BRANCH   3   6
ATOM      6  C   UNL A   1      37.567  22.091  25.186  1.00  0.00     0.178 C 
BRANCH   6   7
ATOM      7  S   UNL A   1      36.668  22.840  23.850  1.00  0.00    -0.076 SA
BRANCH   7   8
ATOM      8  C   UNL A   1      35.094  23.251  24.408  1.00  0.00     0.191 A 
ATOM      9  C   UNL A   1      33.251  23.358  25.559  1.00  0.00     0.133 A 
ATOM     10  N   UNL A   1      33.599  24.584  25.212  1.00  0.00    -0.134 NA
ATOM     11  N   UNL A   1      34.039  22.467  24.821  1.00  0.00    -0.303 N 
ATOM     12  N   UNL A   1      34.753  24.515  24.503  1.00  0.00    -0.123 NA
BRANCH   9  13
ATOM     13  C   UNL A   1      32.218  23.148  26.630  1.00  0.00     0.077 C 
BRANCH  13  14
ATOM     14  C   UNL A   1      30.743  23.412  26.365  1.00  0.00     0.005 C 
ATOM     15  C   UNL A   1      30.398  24.855  26.030  1.00  0.00     0.004 C 
ENDBRANCH  13  14
ENDBRANCH   9  13
BRANCH  11  16
ATOM     16  C   UNL A   1      33.840  21.042  24.694  1.00  0.00     0.158 C 
BRANCH  16  17
ATOM     17  C   UNL A   1      32.489  20.400  24.282  1.00  0.00     0.138 C 
ATOM     18  C   UNL A   1      32.211  19.796  22.914  1.00  0.00     0.036 C 
ATOM     19  O   UNL A   1      32.271  19.296  25.199  1.00  0.00    -0.376 OA
ATOM     20  C   UNL A   1      32.446  18.305  23.037  1.00  0.00     0.031 C 
ATOM     21  C   UNL A   1      32.468  18.046  24.525  1.00  0.00     0.160 C 
ENDBRANCH  16  17
ENDBRANCH  11  16
ENDBRANCH   7   8
ENDBRANCH   6   7
ENDBRANCH   3   6
ENDBRANCH   1   2
BRANCH   1  22
ATOM     22  C   UNL A   1      41.160  21.052  27.602  1.00  0.00     0.023 C 
BRANCH  22  23
ATOM     23  C   UNL A   1      42.288  20.105  27.174  1.00  0.00     0.023 C 
BRANCH  23  24
ATOM     24  C   UNL A   1      42.256  19.700  25.707  1.00  0.00     0.116 C 
BRANCH  24  25
ATOM     25  N   UNL A   1      43.591  19.465  25.169  1.00  0.00    -0.352 N 
ATOM     26  C   UNL A   1      44.539  20.389  24.772  1.00  0.00     0.251 C 
ATOM     27  H   UNL A   1      43.852  18.520  25.076  1.00  0.00     0.163 HD
ATOM     28  O   UNL A   1      45.475  20.073  24.062  1.00  0.00    -0.269 OA
BRANCH  26  29
ATOM     29  C   UNL A   1      44.399  21.776  25.247  1.00  0.00     0.039 A 
ATOM     30  C   UNL A   1      43.453  22.638  24.698  1.00  0.00     0.014 A 
ATOM     31  C   UNL A   1      45.217  22.187  26.294  1.00  0.00     0.014 A 
ATOM     32  C   UNL A   1      43.288  23.894  25.276  1.00  0.00     0.010 A 
ATOM     33  C   UNL A   1      44.958  23.357  26.955  1.00  0.00     0.010 A 
ATOM     34  C   UNL A   1      44.031  24.237  26.418  1.00  0.00    -0.014 A 
BRANCH  34  35
ATOM     35  C   UNL A   1      43.771  25.477  27.131  1.00  0.00     0.031 A 
ATOM     36  C   UNL A   1      44.697  26.590  26.800  1.00  0.00     0.074 A 
ATOM     37  C   UNL A   1      42.663  25.690  27.869  1.00  0.00     0.049 A 
ATOM     38  N   UNL A   1      45.587  27.118  27.569  1.00  0.00    -0.248 NA
ATOM     39  C   UNL A   1      44.721  27.096  25.418  1.00  0.00     0.031 C 
ATOM     40  C   UNL A   1      41.479  24.836  28.031  1.00  0.00     0.029 A 
ATOM     41  N   UNL A   1      42.316  26.809  28.556  1.00  0.00    -0.354 N 
ATOM     42  C   UNL A   1      46.162  28.152  26.839  1.00  0.00     0.074 A 
ATOM     43  C   UNL A   1      45.712  27.986  25.479  1.00  0.00     0.031 C 
ATOM     44  C   UNL A   1      40.467  25.564  28.553  1.00  0.00     0.029 A 
ATOM     45  C   UNL A   1      40.982  26.866  28.931  1.00  0.00     0.049 A 
ATOM     46  H   UNL A   1      42.960  27.523  28.769  1.00  0.00     0.167 HD
ATOM     47  C   UNL A   1      46.771  29.202  27.459  1.00  0.00     0.031 A 
ATOM     48  C   UNL A   1      40.348  27.926  29.486  1.00  0.00     0.031 A 
ATOM     49  C   UNL A   1      47.045  28.920  28.845  1.00  0.00     0.049 A 
ATOM     50  C   UNL A   1      41.390  28.808  30.064  1.00  0.00     0.074 A 
ATOM     51  C   UNL A   1      47.760  27.942  29.509  1.00  0.00     0.029 A 
ATOM     52  N   UNL A   1      46.191  29.453  29.783  1.00  0.00    -0.354 N 
ATOM     53  N   UNL A   1      42.128  28.468  31.082  1.00  0.00    -0.248 NA
ATOM     54  C   UNL A   1      41.930  29.869  29.228  1.00  0.00     0.031 C 
ATOM     55  C   UNL A   1      46.945  27.591  30.627  1.00  0.00     0.029 A 
ATOM     56  C   UNL A   1      45.830  28.432  30.626  1.00  0.00     0.049 A 
ATOM     57  H   UNL A   1      45.894  30.390  29.838  1.00  0.00     0.167 HD
ATOM     58  C   UNL A   1      43.397  28.933  30.767  1.00  0.00     0.074 A 
ATOM     59  C   UNL A   1      43.192  29.874  29.665  1.00  0.00     0.031 C 
ATOM     60  C   UNL A   1      44.520  28.304  31.228  1.00  0.00     0.031 A 
BRANCH  47  61
ATOM     61  C   UNL A   1      46.749  30.609  26.918  1.00  0.00    -0.014 A 
ATOM     62  C   UNL A   1      47.926  31.376  26.970  1.00  0.00     0.009 A 
ATOM     63  C   UNL A   1      45.559  31.298  26.617  1.00  0.00     0.009 A 
ATOM     64  C   UNL A   1      47.898  32.766  26.796  1.00  0.00     0.001 A 
ATOM     65  C   UNL A   1      45.533  32.678  26.400  1.00  0.00     0.001 A 
ATOM     66  C   UNL A   1      46.700  33.416  26.519  1.00  0.00     0.000 A 
ENDBRANCH  47  61
BRANCH  48  67
ATOM     67  C   UNL A   1      38.948  28.363  29.310  1.00  0.00    -0.014 A 
ATOM     68  C   UNL A   1      38.109  28.534  30.421  1.00  0.00     0.009 A 
ATOM     69  C   UNL A   1      38.520  28.888  28.077  1.00  0.00     0.009 A 
ATOM     70  C   UNL A   1      36.907  29.247  30.312  1.00  0.00     0.001 A 
ATOM     71  C   UNL A   1      37.319  29.597  27.967  1.00  0.00     0.001 A 
ATOM     72  C   UNL A   1      36.522  29.792  29.089  1.00  0.00     0.000 A 
ENDBRANCH  48  67
BRANCH  60  73
ATOM     73  C   UNL A   1      44.352  27.207  32.256  1.00  0.00    -0.014 A 
ATOM     74  C   UNL A   1      44.271  25.842  31.925  1.00  0.00     0.009 A 
ATOM     75  C   UNL A   1      44.430  27.551  33.614  1.00  0.00     0.009 A 
ATOM     76  C   UNL A   1      44.232  24.859  32.921  1.00  0.00     0.001 A 
ATOM     77  C   UNL A   1      44.414  26.570  34.608  1.00  0.00     0.001 A 
ATOM     78  C   UNL A   1      44.308  25.224  34.263  1.00  0.00     0.000 A 
ENDBRANCH  60  73
ENDBRANCH  34  35
ENDBRANCH  26  29
ENDBRANCH  24  25
ENDBRANCH  23  24
ENDBRANCH  22  23
ENDBRANCH   1  22
TORSDOF 17
ENDMDL
MODEL 2
REMARK VINA RESULT:     -10.0      5.275     10.351
REMARK SMILES CCCc1nnc(SCC(=O)NCCCCNC(=O)c2ccc(-c3c4nc(c(-c5ccccc5)c5ccc([nH]5)c(-c5ccccc5)c5nc(c(-c6ccccc6)c6ccc3[nH]6)C=C5)C=C4)cc2)n1C[C@H]1CCCO1
REMARK SMILES IDX 13 1 12 2 10 3 11 4 9 6 8 7 7 8 4 9 5 10 68 11 6 12 3 13
REMARK SMILES IDX 2 14 1 15 69 16 70 17 71 18 74 19 72 20 73 21 14 22 15 23
REMARK SMILES IDX 16 24 17 25 18 26 19 28 20 29 21 30 67 31 22 32 66 33 23 34
REMARK SMILES IDX 24 35 25 36 60 37 26 38 65 39 59 40 61 41 27 42 64 43 58 44
REMARK SMILES IDX 57 45 28 47 50 48 35 49 49 50 36 51 39 52 48 53 62 54 37 55
REMARK SMILES IDX 38 56 47 58 63 59 40 60 29 61 30 62 34 63 31 64 33 65 32 66
REMARK SMILES IDX 51 67 52 68 56 69 53 70 55 71 54 72 41 73 42 74 46 75 43 76
REMARK SMILES IDX 45 77 44 78
REMARK H PARENT 12 5 17 27 61 46 39 57
REMARK Flexibility Score: inf
ROOT
ATOM      1  C   UNL A   1      33.614  33.160  28.229  1.00  0.00     0.116 C 
ENDROOT
BRANCH   1   2
ATOM      2  N   UNL A   1      34.651  32.239  27.825  1.00  0.00    -0.355 N 
ATOM      3  C   UNL A   1      34.479  30.915  27.563  1.00  0.00     0.230 C 
ATOM      4  O   UNL A   1      35.463  30.177  27.542  1.00  0.00    -0.274 OA
ATOM      5  H   UNL A   1      35.561  32.601  27.731  1.00  0.00     0.163 HD
BRANCH   3   6
ATOM      6  C   UNL A   1      33.115  30.436  27.158  1.00  0.00     0.178 C 
BRANCH   6   7
ATOM      7  S   UNL A   1      32.911  28.699  26.856  1.00  0.00    -0.076 SA
BRANCH   7   8
ATOM      8  C   UNL A   1      32.458  28.475  25.212  1.00  0.00     0.191 A 
ATOM      9  C   UNL A   1      31.315  28.290  23.371  1.00  0.00     0.133 A 
ATOM     10  N   UNL A   1      32.402  28.997  23.119  1.00  0.00    -0.134 NA
ATOM     11  N   UNL A   1      31.468  27.710  24.635  1.00  0.00    -0.303 N 
ATOM     12  N   UNL A   1      33.107  29.119  24.270  1.00  0.00    -0.123 NA
BRANCH   9  13
ATOM     13  C   UNL A   1      30.182  28.283  22.384  1.00  0.00     0.077 C 
BRANCH  13  14
ATOM     14  C   UNL A   1      29.135  29.388  22.375  1.00  0.00     0.005 C 
ATOM     15  C   UNL A   1      29.273  30.412  23.491  1.00  0.00     0.004 C 
ENDBRANCH  13  14
ENDBRANCH   9  13
BRANCH  11  16
ATOM     16  C   UNL A   1      30.648  26.671  25.211  1.00  0.00     0.158 C 
BRANCH  16  17
ATOM     17  C   UNL A   1      30.892  25.157  24.973  1.00  0.00     0.138 C 
ATOM     18  C   UNL A   1      30.559  24.430  23.678  1.00  0.00     0.036 C 
ATOM     19  O   UNL A   1      32.321  24.950  25.129  1.00  0.00    -0.376 OA
ATOM     20  C   UNL A   1      31.836  24.375  22.866  1.00  0.00     0.031 C 
ATOM     21  C   UNL A   1      32.928  24.711  23.853  1.00  0.00     0.160 C 
ENDBRANCH  16  17
ENDBRANCH  11  16
ENDBRANCH   7   8
ENDBRANCH   6   7
ENDBRANCH   3   6
ENDBRANCH   1   2
BRANCH   1  22
ATOM     22  C   UNL A   1      34.195  34.530  28.563  1.00  0.00     0.023 C 
BRANCH  22  23
ATOM     23  C   UNL A   1      33.167  35.622  28.887  1.00  0.00     0.023 C 
BRANCH  23  24
ATOM     24  C   UNL A   1      33.550  36.534  30.043  1.00  0.00     0.116 C 
BRANCH  24  25
ATOM     25  N   UNL A   1      32.707  36.327  31.214  1.00  0.00    -0.352 N 
ATOM     26  C   UNL A   1      32.795  35.343  32.181  1.00  0.00     0.251 C 
ATOM     27  H   UNL A   1      31.975  36.975  31.332  1.00  0.00     0.163 HD
ATOM     28  O   UNL A   1      31.863  35.095  32.921  1.00  0.00    -0.269 OA
BRANCH  26  29
ATOM     29  C   UNL A   1      34.064  34.607  32.307  1.00  0.00     0.039 A 
ATOM     30  C   UNL A   1      34.154  33.256  31.979  1.00  0.00     0.014 A 
ATOM     31  C   UNL A   1      35.184  35.315  32.729  1.00  0.00     0.014 A 
ATOM     32  C   UNL A   1      35.407  32.651  32.003  1.00  0.00     0.010 A 
ATOM     33  C   UNL A   1      36.433  34.767  32.611  1.00  0.00     0.010 A 
ATOM     34  C   UNL A   1      36.545  33.421  32.300  1.00  0.00    -0.014 A 
BRANCH  34  35
ATOM     35  C   UNL A   1      37.878  32.854  32.183  1.00  0.00     0.031 A 
ATOM     36  C   UNL A   1      38.649  32.810  33.453  1.00  0.00     0.074 A 
ATOM     37  C   UNL A   1      38.321  32.218  31.079  1.00  0.00     0.049 A 
ATOM     38  N   UNL A   1      39.697  33.499  33.753  1.00  0.00    -0.248 NA
ATOM     39  C   UNL A   1      38.127  31.996  34.562  1.00  0.00     0.031 C 
ATOM     40  C   UNL A   1      37.587  31.864  29.858  1.00  0.00     0.029 A 
ATOM     41  N   UNL A   1      39.533  31.642  30.873  1.00  0.00    -0.354 N 
ATOM     42  C   UNL A   1      40.087  33.075  35.018  1.00  0.00     0.074 A 
ATOM     43  C   UNL A   1      39.000  32.279  35.531  1.00  0.00     0.031 C 
ATOM     44  C   UNL A   1      38.285  30.937  29.165  1.00  0.00     0.029 A 
ATOM     45  C   UNL A   1      39.584  30.776  29.791  1.00  0.00     0.049 A 
ATOM     46  H   UNL A   1      40.313  31.824  31.447  1.00  0.00     0.167 HD
ATOM     47  C   UNL A   1      41.372  33.217  35.446  1.00  0.00     0.031 A 
ATOM     48  C   UNL A   1      40.616  29.964  29.459  1.00  0.00     0.031 A 
ATOM     49  C   UNL A   1      42.115  34.134  34.618  1.00  0.00     0.049 A 
ATOM     50  C   UNL A   1      41.827  30.499  30.126  1.00  0.00     0.074 A 
ATOM     51  C   UNL A   1      41.951  35.457  34.255  1.00  0.00     0.029 A 
ATOM     52  N   UNL A   1      42.968  33.597  33.682  1.00  0.00    -0.354 N 
ATOM     53  N   UNL A   1      42.369  31.641  29.812  1.00  0.00    -0.248 NA
ATOM     54  C   UNL A   1      42.161  29.992  31.447  1.00  0.00     0.031 C 
ATOM     55  C   UNL A   1      42.276  35.494  32.865  1.00  0.00     0.029 A 
ATOM     56  C   UNL A   1      42.699  34.217  32.488  1.00  0.00     0.049 A 
ATOM     57  H   UNL A   1      43.644  32.898  33.839  1.00  0.00     0.167 HD
ATOM     58  C   UNL A   1      42.732  32.205  31.027  1.00  0.00     0.074 A 
ATOM     59  C   UNL A   1      42.672  31.102  31.988  1.00  0.00     0.031 C 
ATOM     60  C   UNL A   1      42.764  33.560  31.201  1.00  0.00     0.031 A 
BRANCH  47  61
ATOM     61  C   UNL A   1      42.056  32.228  36.356  1.00  0.00    -0.014 A 
ATOM     62  C   UNL A   1      42.677  32.698  37.527  1.00  0.00     0.009 A 
ATOM     63  C   UNL A   1      42.349  30.906  35.972  1.00  0.00     0.009 A 
ATOM     64  C   UNL A   1      43.593  31.907  38.233  1.00  0.00     0.001 A 
ATOM     65  C   UNL A   1      43.229  30.099  36.698  1.00  0.00     0.001 A 
ATOM     66  C   UNL A   1      43.874  30.611  37.814  1.00  0.00     0.000 A 
ENDBRANCH  47  61
BRANCH  48  67
ATOM     67  C   UNL A   1      40.577  28.622  28.844  1.00  0.00    -0.014 A 
ATOM     68  C   UNL A   1      39.913  27.563  29.482  1.00  0.00     0.009 A 
ATOM     69  C   UNL A   1      40.943  28.450  27.497  1.00  0.00     0.009 A 
ATOM     70  C   UNL A   1      39.585  26.394  28.783  1.00  0.00     0.001 A 
ATOM     71  C   UNL A   1      40.619  27.281  26.799  1.00  0.00     0.001 A 
ATOM     72  C   UNL A   1      39.923  26.262  27.437  1.00  0.00     0.000 A 
ENDBRANCH  48  67
BRANCH  60  73
ATOM     73  C   UNL A   1      42.594  34.440  29.982  1.00  0.00    -0.014 A 
ATOM     74  C   UNL A   1      41.340  34.798  29.455  1.00  0.00     0.009 A 
ATOM     75  C   UNL A   1      43.734  35.051  29.438  1.00  0.00     0.009 A 
ATOM     76  C   UNL A   1      41.234  35.707  28.397  1.00  0.00     0.001 A 
ATOM     77  C   UNL A   1      43.629  35.975  28.397  1.00  0.00     0.001 A 
ATOM     78  C   UNL A   1      42.380  36.299  27.870  1.00  0.00     0.000 A 
ENDBRANCH  60  73
ENDBRANCH  34  35
ENDBRANCH  26  29
ENDBRANCH  24  25
ENDBRANCH  23  24
ENDBRANCH  22  23
ENDBRANCH   1  22
TORSDOF 17
ENDMDL
MODEL 3
REMARK VINA RESULT:      -9.8      2.840      8.318
REMARK SMILES CCCc1nnc(SCC(=O)NCCCCNC(=O)c2ccc(-c3c4nc(c(-c5ccccc5)c5ccc([nH]5)c(-c5ccccc5)c5nc(c(-c6ccccc6)c6ccc3[nH]6)C=C5)C=C4)cc2)n1C[C@H]1CCCO1
REMARK SMILES IDX 13 1 12 2 10 3 11 4 9 6 8 7 7 8 4 9 5 10 68 11 6 12 3 13
REMARK SMILES IDX 2 14 1 15 69 16 70 17 71 18 74 19 72 20 73 21 14 22 15 23
REMARK SMILES IDX 16 24 17 25 18 26 19 28 20 29 21 30 67 31 22 32 66 33 23 34
REMARK SMILES IDX 24 35 25 36 60 37 26 38 65 39 59 40 61 41 27 42 64 43 58 44
REMARK SMILES IDX 57 45 28 47 50 48 35 49 49 50 36 51 39 52 48 53 62 54 37 55
REMARK SMILES IDX 38 56 47 58 63 59 40 60 29 61 30 62 34 63 31 64 33 65 32 66
REMARK SMILES IDX 51 67 52 68 56 69 53 70 55 71 54 72 41 73 42 74 46 75 43 76
REMARK SMILES IDX 45 77 44 78
REMARK H PARENT 12 5 17 27 61 46 39 57
REMARK Flexibility Score: inf
ROOT
ATOM      1  C   UNL A   1      33.178  30.408  26.877  1.00  0.00     0.116 C 
ENDROOT
BRANCH   1   2
ATOM      2  N   UNL A   1      32.748  29.235  27.602  1.00  0.00    -0.355 N 
ATOM      3  C   UNL A   1      31.957  28.243  27.110  1.00  0.00     0.230 C 
ATOM      4  O   UNL A   1      31.403  27.474  27.896  1.00  0.00    -0.274 OA
ATOM      5  H   UNL A   1      33.053  29.146  28.533  1.00  0.00     0.163 HD
BRANCH   3   6
ATOM      6  C   UNL A   1      31.916  28.030  25.624  1.00  0.00     0.178 C 
BRANCH   6   7
ATOM      7  S   UNL A   1      33.096  26.903  24.924  1.00  0.00    -0.076 SA
BRANCH   7   8
ATOM      8  C   UNL A   1      32.396  25.333  24.872  1.00  0.00     0.191 A 
ATOM      9  C   UNL A   1      32.029  23.204  25.122  1.00  0.00     0.133 A 
ATOM     10  N   UNL A   1      30.899  23.852  25.343  1.00  0.00    -0.134 NA
ATOM     11  N   UNL A   1      32.931  24.106  24.547  1.00  0.00    -0.303 N 
ATOM     12  N   UNL A   1      31.133  25.179  25.196  1.00  0.00    -0.123 NA
BRANCH   9  13
ATOM     13  C   UNL A   1      32.163  21.768  25.545  1.00  0.00     0.077 C 
BRANCH  13  14
ATOM     14  C   UNL A   1      32.335  20.657  24.520  1.00  0.00     0.005 C 
ATOM     15  C   UNL A   1      33.631  19.869  24.637  1.00  0.00     0.004 C 
ENDBRANCH  13  14
ENDBRANCH   9  13
BRANCH  11  16
ATOM     16  C   UNL A   1      34.192  23.783  23.921  1.00  0.00     0.158 C 
BRANCH  16  17
ATOM     17  C   UNL A   1      35.560  23.889  24.648  1.00  0.00     0.138 C 
ATOM     18  C   UNL A   1      35.877  23.217  25.975  1.00  0.00     0.036 C 
ATOM     19  O   UNL A   1      36.544  23.336  23.735  1.00  0.00    -0.376 OA
ATOM     20  C   UNL A   1      36.581  21.916  25.649  1.00  0.00     0.031 C 
ATOM     21  C   UNL A   1      36.990  22.057  24.203  1.00  0.00     0.160 C 
ENDBRANCH  16  17
ENDBRANCH  11  16
ENDBRANCH   7   8
ENDBRANCH   6   7
ENDBRANCH   3   6
ENDBRANCH   1   2
BRANCH   1  22
ATOM     22  C   UNL A   1      34.272  31.153  27.635  1.00  0.00     0.023 C 
BRANCH  22  23
ATOM     23  C   UNL A   1      33.996  32.638  27.902  1.00  0.00     0.023 C 
BRANCH  23  24
ATOM     24  C   UNL A   1      35.041  33.334  28.761  1.00  0.00     0.116 C 
BRANCH  24  25
ATOM     25  N   UNL A   1      34.755  33.216  30.186  1.00  0.00    -0.352 N 
ATOM     26  C   UNL A   1      35.245  32.296  31.093  1.00  0.00     0.251 C 
ATOM     27  H   UNL A   1      34.127  33.881  30.551  1.00  0.00     0.163 HD
ATOM     28  O   UNL A   1      34.702  32.109  32.165  1.00  0.00    -0.269 OA
BRANCH  26  29
ATOM     29  C   UNL A   1      36.464  31.550  30.736  1.00  0.00     0.039 A 
ATOM     30  C   UNL A   1      37.702  32.181  30.657  1.00  0.00     0.014 A 
ATOM     31  C   UNL A   1      36.345  30.182  30.516  1.00  0.00     0.014 A 
ATOM     32  C   UNL A   1      38.832  31.398  30.436  1.00  0.00     0.010 A 
ATOM     33  C   UNL A   1      37.461  29.393  30.447  1.00  0.00     0.010 A 
ATOM     34  C   UNL A   1      38.703  30.001  30.353  1.00  0.00    -0.014 A 
BRANCH  34  35
ATOM     35  C   UNL A   1      39.878  29.148  30.276  1.00  0.00     0.031 A 
ATOM     36  C   UNL A   1      40.531  28.871  31.582  1.00  0.00     0.074 A 
ATOM     37  C   UNL A   1      40.239  28.479  29.162  1.00  0.00     0.049 A 
ATOM     38  N   UNL A   1      41.685  29.286  31.980  1.00  0.00    -0.248 NA
ATOM     39  C   UNL A   1      39.764  28.149  32.610  1.00  0.00     0.031 C 
ATOM     40  C   UNL A   1      39.529  28.359  27.883  1.00  0.00     0.029 A 
ATOM     41  N   UNL A   1      41.300  27.650  28.990  1.00  0.00    -0.354 N 
ATOM     42  C   UNL A   1      41.882  28.727  33.238  1.00  0.00     0.074 A 
ATOM     43  C   UNL A   1      40.610  28.179  33.641  1.00  0.00     0.031 C 
ATOM     44  C   UNL A   1      40.044  27.329  27.176  1.00  0.00     0.029 A 
ATOM     45  C   UNL A   1      41.227  26.846  27.862  1.00  0.00     0.049 A 
ATOM     46  H   UNL A   1      42.060  27.621  29.616  1.00  0.00     0.167 HD
ATOM     47  C   UNL A   1      43.134  28.550  33.745  1.00  0.00     0.031 A 
ATOM     48  C   UNL A   1      42.068  25.834  27.541  1.00  0.00     0.031 A 
ATOM     49  C   UNL A   1      44.119  29.308  33.015  1.00  0.00     0.049 A 
ATOM     50  C   UNL A   1      43.321  26.045  28.305  1.00  0.00     0.074 A 
ATOM     51  C   UNL A   1      44.285  30.648  32.723  1.00  0.00     0.029 A 
ATOM     52  N   UNL A   1      44.890  28.632  32.097  1.00  0.00    -0.354 N 
ATOM     53  N   UNL A   1      44.127  27.045  28.090  1.00  0.00    -0.248 NA
ATOM     54  C   UNL A   1      43.441  25.415  29.610  1.00  0.00     0.031 C 
ATOM     55  C   UNL A   1      44.703  30.673  31.358  1.00  0.00     0.029 A 
ATOM     56  C   UNL A   1      44.850  29.352  30.930  1.00  0.00     0.049 A 
ATOM     57  H   UNL A   1      45.377  27.790  32.250  1.00  0.00     0.167 HD
ATOM     58  C   UNL A   1      44.525  27.454  29.355  1.00  0.00     0.074 A 
ATOM     59  C   UNL A   1      44.153  26.352  30.243  1.00  0.00     0.031 C 
ATOM     60  C   UNL A   1      44.852  28.757  29.611  1.00  0.00     0.031 A 
BRANCH  47  61
ATOM     61  C   UNL A   1      43.512  27.390  34.630  1.00  0.00    -0.014 A 
ATOM     62  C   UNL A   1      43.874  26.169  34.034  1.00  0.00     0.009 A 
ATOM     63  C   UNL A   1      43.261  27.367  36.015  1.00  0.00     0.009 A 
ATOM     64  C   UNL A   1      43.916  24.981  34.775  1.00  0.00     0.001 A 
ATOM     65  C   UNL A   1      43.344  26.192  36.767  1.00  0.00     0.001 A 
ATOM     66  C   UNL A   1      43.644  24.992  36.139  1.00  0.00     0.000 A 
ENDBRANCH  47  61
BRANCH  48  67
ATOM     67  C   UNL A   1      41.768  24.566  26.845  1.00  0.00    -0.014 A 
ATOM     68  C   UNL A   1      42.672  24.028  25.918  1.00  0.00     0.009 A 
ATOM     69  C   UNL A   1      40.726  23.737  27.302  1.00  0.00     0.009 A 
ATOM     70  C   UNL A   1      42.568  22.695  25.501  1.00  0.00     0.001 A 
ATOM     71  C   UNL A   1      40.619  22.407  26.883  1.00  0.00     0.001 A 
ATOM     72  C   UNL A   1      41.552  21.881  25.997  1.00  0.00     0.000 A 
ENDBRANCH  48  67
BRANCH  60  73
ATOM     73  C   UNL A   1      44.969  29.706  28.440  1.00  0.00    -0.014 A 
ATOM     74  C   UNL A   1      43.872  30.392  27.887  1.00  0.00     0.009 A 
ATOM     75  C   UNL A   1      46.252  30.035  27.975  1.00  0.00     0.009 A 
ATOM     76  C   UNL A   1      44.051  31.348  26.880  1.00  0.00     0.001 A 
ATOM     77  C   UNL A   1      46.433  31.004  26.985  1.00  0.00     0.001 A 
ATOM     78  C   UNL A   1      45.333  31.655  26.432  1.00  0.00     0.000 A 
ENDBRANCH  60  73
ENDBRANCH  34  35
ENDBRANCH  26  29
ENDBRANCH  24  25
ENDBRANCH  23  24
ENDBRANCH  22  23
ENDBRANCH   1  22
TORSDOF 17
ENDMDL
