MODEL 1
REMARK VINA RESULT:     -10.1      0.000      0.000
REMARK SMILES CCCN(CC)S(=O)(=O)c1ccc(C(=O)NCCCCNC(=O)c2ccc(-c3c4nc(c(-c5ccccc5)c5ccc([nH]5)c(-c5ccccc5)c5nc(c(-c6ccccc6)c6ccc3[nH]6)C=C5)C=C4)cc2)o1
REMARK SMILES IDX 17 1 16 2 14 3 15 4 13 6 10 7 11 8 72 9 12 10 7 11 8 12 9 13
REMARK SMILES IDX 4 14 3 15 2 16 1 17 5 18 6 19 18 20 19 21 20 22 21 23 22 24
REMARK SMILES IDX 23 26 24 27 25 28 71 29 26 30 70 31 27 32 28 33 29 34 64 35
REMARK SMILES IDX 30 36 69 37 63 38 65 39 31 40 68 41 62 42 61 43 32 45 54 46
REMARK SMILES IDX 39 47 53 48 40 49 43 50 52 51 66 52 41 53 42 54 51 56 67 57
REMARK SMILES IDX 44 58 33 59 34 60 38 61 35 62 37 63 36 64 55 65 56 66 60 67
REMARK SMILES IDX 57 68 59 69 58 70 45 71 46 72 50 73 47 74 49 75 48 76
REMARK H PARENT 16 5 21 25 65 44 43 55
REMARK Flexibility Score: inf
ROOT
ATOM      1  C   UNL A   1      35.398  20.258  24.988  1.00  0.00     0.116 C 
ENDROOT
BRANCH   1   2
ATOM      2  N   UNL A   1      34.202  19.466  25.156  1.00  0.00    -0.349 N 
ATOM      3  C   UNL A   1      32.877  19.771  24.938  1.00  0.00     0.287 C 
ATOM      4  O   UNL A   1      32.085  18.849  25.153  1.00  0.00    -0.266 OA
ATOM      5  H   UNL A   1      34.362  18.550  25.482  1.00  0.00     0.163 HD
BRANCH   3   6
ATOM      6  C   UNL A   1      32.453  21.086  24.476  1.00  0.00     0.193 A 
ATOM      7  C   UNL A   1      31.819  23.214  24.883  1.00  0.00     0.234 A 
ATOM      8  C   UNL A   1      31.723  22.992  23.519  1.00  0.00     0.065 A 
ATOM      9  O   UNL A   1      32.273  22.036  25.448  1.00  0.00    -0.438 OA
ATOM     10  C   UNL A   1      32.165  21.670  23.259  1.00  0.00     0.058 A 
BRANCH   7  11
ATOM     11  S   UNL A   1      31.451  24.616  25.948  1.00  0.00     0.276 S 
ATOM     12  O   UNL A   1      31.375  24.070  27.281  1.00  0.00    -0.204 OA
ATOM     13  O   UNL A   1      30.286  25.206  25.312  1.00  0.00    -0.204 OA
BRANCH  11  14
ATOM     14  N   UNL A   1      32.705  25.794  25.931  1.00  0.00    -0.195 NA
BRANCH  14  15
ATOM     15  C   UNL A   1      33.763  25.536  24.888  1.00  0.00     0.102 C 
BRANCH  15  16
ATOM     16  C   UNL A   1      34.930  24.696  25.407  1.00  0.00     0.013 C 
ATOM     17  C   UNL A   1      35.515  23.754  24.356  1.00  0.00     0.005 C 
ENDBRANCH  15  16
ENDBRANCH  14  15
BRANCH  14  18
ATOM     18  C   UNL A   1      32.325  27.238  25.953  1.00  0.00     0.099 C 
ATOM     19  C   UNL A   1      31.656  27.708  27.229  1.00  0.00     0.022 C 
ENDBRANCH  14  18
ENDBRANCH  11  14
ENDBRANCH   7  11
ENDBRANCH   3   6
ENDBRANCH   1   2
BRANCH   1  20
ATOM     20  C   UNL A   1      36.649  19.380  24.945  1.00  0.00     0.023 C 
BRANCH  20  21
ATOM     21  C   UNL A   1      37.946  20.137  24.626  1.00  0.00     0.023 C 
BRANCH  21  22
ATOM     22  C   UNL A   1      38.916  20.275  25.800  1.00  0.00     0.116 C 
BRANCH  22  23
ATOM     23  N   UNL A   1      40.047  19.367  25.715  1.00  0.00    -0.352 N 
ATOM     24  C   UNL A   1      41.360  19.589  26.047  1.00  0.00     0.251 C 
ATOM     25  H   UNL A   1      39.844  18.467  25.369  1.00  0.00     0.163 HD
ATOM     26  O   UNL A   1      42.203  18.730  25.809  1.00  0.00    -0.269 OA
BRANCH  24  27
ATOM     27  C   UNL A   1      41.771  20.880  26.635  1.00  0.00     0.039 A 
ATOM     28  C   UNL A   1      42.226  21.880  25.770  1.00  0.00     0.014 A 
ATOM     29  C   UNL A   1      41.726  21.111  28.013  1.00  0.00     0.014 A 
ATOM     30  C   UNL A   1      42.577  23.130  26.277  1.00  0.00     0.010 A 
ATOM     31  C   UNL A   1      42.035  22.375  28.515  1.00  0.00     0.010 A 
ATOM     32  C   UNL A   1      42.458  23.394  27.650  1.00  0.00    -0.014 A 
BRANCH  32  33
ATOM     33  C   UNL A   1      42.752  24.746  28.181  1.00  0.00     0.031 A 
ATOM     34  C   UNL A   1      44.152  25.132  28.559  1.00  0.00     0.074 A 
ATOM     35  C   UNL A   1      41.741  25.616  28.356  1.00  0.00     0.049 A 
ATOM     36  N   UNL A   1      44.592  26.277  29.015  1.00  0.00    -0.248 NA
ATOM     37  C   UNL A   1      45.185  24.095  28.426  1.00  0.00     0.031 C 
ATOM     38  C   UNL A   1      40.328  25.341  28.081  1.00  0.00     0.029 A 
ATOM     39  N   UNL A   1      41.748  26.910  28.808  1.00  0.00    -0.354 N 
ATOM     40  C   UNL A   1      45.949  26.093  29.243  1.00  0.00     0.074 A 
ATOM     41  C   UNL A   1      46.255  24.720  28.899  1.00  0.00     0.031 C 
ATOM     42  C   UNL A   1      39.608  26.444  28.343  1.00  0.00     0.029 A 
ATOM     43  C   UNL A   1      40.506  27.495  28.813  1.00  0.00     0.049 A 
ATOM     44  H   UNL A   1      42.564  27.375  29.100  1.00  0.00     0.167 HD
ATOM     45  C   UNL A   1      46.862  26.989  29.688  1.00  0.00     0.031 A 
ATOM     46  C   UNL A   1      40.134  28.745  29.141  1.00  0.00     0.031 A 
ATOM     47  C   UNL A   1      46.570  28.358  30.013  1.00  0.00     0.049 A 
ATOM     48  C   UNL A   1      41.175  29.740  29.564  1.00  0.00     0.074 A 
ATOM     49  C   UNL A   1      47.439  29.354  30.425  1.00  0.00     0.029 A 
ATOM     50  N   UNL A   1      45.308  28.927  29.953  1.00  0.00    -0.354 N 
ATOM     51  N   UNL A   1      42.465  29.568  29.711  1.00  0.00    -0.248 NA
ATOM     52  C   UNL A   1      40.708  31.104  29.843  1.00  0.00     0.031 C 
ATOM     53  C   UNL A   1      46.698  30.524  30.631  1.00  0.00     0.029 A 
ATOM     54  C   UNL A   1      45.373  30.259  30.322  1.00  0.00     0.049 A 
ATOM     55  H   UNL A   1      44.487  28.453  29.688  1.00  0.00     0.167 HD
ATOM     56  C   UNL A   1      42.969  30.807  30.080  1.00  0.00     0.074 A 
ATOM     57  C   UNL A   1      41.847  31.723  30.125  1.00  0.00     0.031 C 
ATOM     58  C   UNL A   1      44.249  31.155  30.355  1.00  0.00     0.031 A 
BRANCH  45  59
ATOM     59  C   UNL A   1      48.271  26.501  29.851  1.00  0.00    -0.014 A 
ATOM     60  C   UNL A   1      48.689  25.896  31.047  1.00  0.00     0.009 A 
ATOM     61  C   UNL A   1      49.185  26.635  28.796  1.00  0.00     0.009 A 
ATOM     62  C   UNL A   1      50.008  25.462  31.193  1.00  0.00     0.001 A 
ATOM     63  C   UNL A   1      50.499  26.183  28.939  1.00  0.00     0.001 A 
ATOM     64  C   UNL A   1      50.910  25.605  30.140  1.00  0.00     0.000 A 
ENDBRANCH  45  59
BRANCH  46  65
ATOM     65  C   UNL A   1      38.711  29.143  29.027  1.00  0.00    -0.014 A 
ATOM     66  C   UNL A   1      37.863  29.050  30.141  1.00  0.00     0.009 A 
ATOM     67  C   UNL A   1      38.200  29.626  27.815  1.00  0.00     0.009 A 
ATOM     68  C   UNL A   1      36.520  29.416  30.037  1.00  0.00     0.001 A 
ATOM     69  C   UNL A   1      36.860  30.007  27.718  1.00  0.00     0.001 A 
ATOM     70  C   UNL A   1      36.021  29.897  28.827  1.00  0.00     0.000 A 
ENDBRANCH  46  65
BRANCH  58  71
ATOM     71  C   UNL A   1      44.500  32.592  30.699  1.00  0.00    -0.014 A 
ATOM     72  C   UNL A   1      44.383  33.049  32.021  1.00  0.00     0.009 A 
ATOM     73  C   UNL A   1      44.878  33.493  29.692  1.00  0.00     0.009 A 
ATOM     74  C   UNL A   1      44.613  34.391  32.322  1.00  0.00     0.001 A 
ATOM     75  C   UNL A   1      45.122  34.831  30.000  1.00  0.00     0.001 A 
ATOM     76  C   UNL A   1      44.983  35.281  31.313  1.00  0.00     0.000 A 
ENDBRANCH  58  71
ENDBRANCH  32  33
ENDBRANCH  24  27
ENDBRANCH  22  23
ENDBRANCH  21  22
ENDBRANCH  20  21
ENDBRANCH   1  20
TORSDOF 16
ENDMDL
MODEL 2
REMARK VINA RESULT:     -10.1      0.715      6.084
REMARK SMILES CCCN(CC)S(=O)(=O)c1ccc(C(=O)NCCCCNC(=O)c2ccc(-c3c4nc(c(-c5ccccc5)c5ccc([nH]5)c(-c5ccccc5)c5nc(c(-c6ccccc6)c6ccc3[nH]6)C=C5)C=C4)cc2)o1
REMARK SMILES IDX 17 1 16 2 14 3 15 4 13 6 10 7 11 8 72 9 12 10 7 11 8 12 9 13
REMARK SMILES IDX 4 14 3 15 2 16 1 17 5 18 6 19 18 20 19 21 20 22 21 23 22 24
REMARK SMILES IDX 23 26 24 27 25 28 71 29 26 30 70 31 27 32 28 33 29 34 64 35
REMARK SMILES IDX 30 36 69 37 63 38 65 39 31 40 68 41 62 42 61 43 32 45 54 46
REMARK SMILES IDX 39 47 53 48 40 49 43 50 52 51 66 52 41 53 42 54 51 56 67 57
REMARK SMILES IDX 44 58 33 59 34 60 38 61 35 62 37 63 36 64 55 65 56 66 60 67
REMARK SMILES IDX 57 68 59 69 58 70 45 71 46 72 50 73 47 74 49 75 48 76
REMARK H PARENT 16 5 21 25 65 44 43 55
REMARK Flexibility Score: inf
ROOT
ATOM      1  C   UNL A   1      35.400  21.408  25.689  1.00  0.00     0.116 C 
ENDROOT
BRANCH   1   2
ATOM      2  N   UNL A   1      34.393  20.372  25.702  1.00  0.00    -0.349 N 
ATOM      3  C   UNL A   1      33.090  20.371  25.256  1.00  0.00     0.287 C 
ATOM      4  O   UNL A   1      32.493  19.299  25.388  1.00  0.00    -0.266 OA
ATOM      5  H   UNL A   1      34.691  19.520  26.098  1.00  0.00     0.163 HD
BRANCH   3   6
ATOM      6  C   UNL A   1      32.476  21.550  24.663  1.00  0.00     0.193 A 
ATOM      7  C   UNL A   1      31.435  23.544  24.854  1.00  0.00     0.234 A 
ATOM      8  C   UNL A   1      31.498  23.221  23.508  1.00  0.00     0.065 A 
ATOM      9  O   UNL A   1      32.045  22.511  25.541  1.00  0.00    -0.438 OA
ATOM     10  C   UNL A   1      32.193  21.991  23.386  1.00  0.00     0.058 A 
BRANCH   7  11
ATOM     11  S   UNL A   1      30.729  24.917  25.775  1.00  0.00     0.276 S 
ATOM     12  O   UNL A   1      30.106  24.318  26.930  1.00  0.00    -0.204 OA
ATOM     13  O   UNL A   1      29.939  25.608  24.770  1.00  0.00    -0.204 OA
BRANCH  11  14
ATOM     14  N   UNL A   1      31.931  26.014  26.334  1.00  0.00    -0.195 NA
BRANCH  14  15
ATOM     15  C   UNL A   1      33.300  25.756  25.757  1.00  0.00     0.102 C 
BRANCH  15  16
ATOM     16  C   UNL A   1      33.711  26.777  24.696  1.00  0.00     0.013 C 
ATOM     17  C   UNL A   1      33.528  26.276  23.266  1.00  0.00     0.005 C 
ENDBRANCH  15  16
ENDBRANCH  14  15
BRANCH  14  18
ATOM     18  C   UNL A   1      31.621  27.475  26.326  1.00  0.00     0.099 C 
ATOM     19  C   UNL A   1      31.534  28.121  27.694  1.00  0.00     0.022 C 
ENDBRANCH  14  18
ENDBRANCH  11  14
ENDBRANCH   7  11
ENDBRANCH   3   6
ENDBRANCH   1   2
BRANCH   1  20
ATOM     20  C   UNL A   1      36.465  21.140  24.624  1.00  0.00     0.023 C 
BRANCH  20  21
ATOM     21  C   UNL A   1      37.451  20.019  24.980  1.00  0.00     0.023 C 
BRANCH  21  22
ATOM     22  C   UNL A   1      38.706  20.477  25.722  1.00  0.00     0.116 C 
BRANCH  22  23
ATOM     23  N   UNL A   1      39.759  19.477  25.733  1.00  0.00    -0.352 N 
ATOM     24  C   UNL A   1      41.074  19.610  26.103  1.00  0.00     0.251 C 
ATOM     25  H   UNL A   1      39.493  18.577  25.432  1.00  0.00     0.163 HD
ATOM     26  O   UNL A   1      41.850  18.673  25.947  1.00  0.00    -0.269 OA
BRANCH  24  27
ATOM     27  C   UNL A   1      41.572  20.897  26.632  1.00  0.00     0.039 A 
ATOM     28  C   UNL A   1      41.985  21.867  25.714  1.00  0.00     0.014 A 
ATOM     29  C   UNL A   1      41.648  21.150  28.004  1.00  0.00     0.014 A 
ATOM     30  C   UNL A   1      42.415  23.113  26.169  1.00  0.00     0.010 A 
ATOM     31  C   UNL A   1      42.035  22.411  28.457  1.00  0.00     0.010 A 
ATOM     32  C   UNL A   1      42.417  23.403  27.542  1.00  0.00    -0.014 A 
BRANCH  32  33
ATOM     33  C   UNL A   1      42.795  24.752  28.022  1.00  0.00     0.031 A 
ATOM     34  C   UNL A   1      41.749  25.800  28.264  1.00  0.00     0.074 A 
ATOM     35  C   UNL A   1      44.096  25.042  28.205  1.00  0.00     0.049 A 
ATOM     36  N   UNL A   1      41.899  27.023  28.705  1.00  0.00    -0.248 NA
ATOM     37  C   UNL A   1      40.360  25.436  27.950  1.00  0.00     0.031 C 
ATOM     38  C   UNL A   1      45.213  24.128  27.951  1.00  0.00     0.029 A 
ATOM     39  N   UNL A   1      44.699  26.189  28.651  1.00  0.00    -0.354 N 
ATOM     40  C   UNL A   1      40.628  27.581  28.705  1.00  0.00     0.074 A 
ATOM     41  C   UNL A   1      39.723  26.573  28.195  1.00  0.00     0.031 C 
ATOM     42  C   UNL A   1      46.363  24.742  28.272  1.00  0.00     0.029 A 
ATOM     43  C   UNL A   1      46.065  26.091  28.743  1.00  0.00     0.049 A 
ATOM     44  H   UNL A   1      44.200  27.005  28.883  1.00  0.00     0.167 HD
ATOM     45  C   UNL A   1      40.246  28.818  29.104  1.00  0.00     0.031 A 
ATOM     46  C   UNL A   1      46.975  26.981  29.175  1.00  0.00     0.031 A 
ATOM     47  C   UNL A   1      41.136  29.817  29.628  1.00  0.00     0.049 A 
ATOM     48  C   UNL A   1      46.519  28.320  29.678  1.00  0.00     0.074 A 
ATOM     49  C   UNL A   1      40.834  31.082  30.104  1.00  0.00     0.029 A 
ATOM     50  N   UNL A   1      42.507  29.658  29.755  1.00  0.00    -0.354 N 
ATOM     51  N   UNL A   1      45.306  28.808  29.732  1.00  0.00    -0.248 NA
ATOM     52  C   UNL A   1      47.560  29.217  30.199  1.00  0.00     0.031 C 
ATOM     53  C   UNL A   1      42.028  31.696  30.504  1.00  0.00     0.029 A 
ATOM     54  C   UNL A   1      43.066  30.801  30.299  1.00  0.00     0.049 A 
ATOM     55  H   UNL A   1      43.009  28.852  29.496  1.00  0.00     0.167 HD
ATOM     56  C   UNL A   1      45.431  30.062  30.312  1.00  0.00     0.074 A 
ATOM     57  C   UNL A   1      46.837  30.256  30.600  1.00  0.00     0.031 C 
ATOM     58  C   UNL A   1      44.465  30.973  30.584  1.00  0.00     0.031 A 
BRANCH  45  59
ATOM     59  C   UNL A   1      38.790  29.154  28.978  1.00  0.00    -0.014 A 
ATOM     60  C   UNL A   1      38.261  29.620  27.764  1.00  0.00     0.009 A 
ATOM     61  C   UNL A   1      37.936  28.992  30.079  1.00  0.00     0.009 A 
ATOM     62  C   UNL A   1      36.908  29.946  27.665  1.00  0.00     0.001 A 
ATOM     63  C   UNL A   1      36.579  29.301  29.971  1.00  0.00     0.001 A 
ATOM     64  C   UNL A   1      36.068  29.785  28.767  1.00  0.00     0.000 A 
ENDBRANCH  45  59
BRANCH  46  65
ATOM     65  C   UNL A   1      48.410  26.612  29.205  1.00  0.00    -0.014 A 
ATOM     66  C   UNL A   1      49.240  26.922  28.117  1.00  0.00     0.009 A 
ATOM     67  C   UNL A   1      48.956  25.961  30.320  1.00  0.00     0.009 A 
ATOM     68  C   UNL A   1      50.590  26.569  28.138  1.00  0.00     0.001 A 
ATOM     69  C   UNL A   1      50.311  25.624  30.344  1.00  0.00     0.001 A 
ATOM     70  C   UNL A   1      51.124  25.923  29.252  1.00  0.00     0.000 A 
ENDBRANCH  46  65
BRANCH  58  71
ATOM     71  C   UNL A   1      44.900  32.243  31.250  1.00  0.00    -0.014 A 
ATOM     72  C   UNL A   1      44.912  32.356  32.649  1.00  0.00     0.009 A 
ATOM     73  C   UNL A   1      45.322  33.329  30.470  1.00  0.00     0.009 A 
ATOM     74  C   UNL A   1      45.312  33.548  33.252  1.00  0.00     0.001 A 
ATOM     75  C   UNL A   1      45.736  34.514  31.078  1.00  0.00     0.001 A 
ATOM     76  C   UNL A   1      45.725  34.626  32.467  1.00  0.00     0.000 A 
ENDBRANCH  58  71
ENDBRANCH  32  33
ENDBRANCH  24  27
ENDBRANCH  22  23
ENDBRANCH  21  22
ENDBRANCH  20  21
ENDBRANCH   1  20
TORSDOF 16
ENDMDL
MODEL 3
REMARK VINA RESULT:      -9.9      2.124      3.398
REMARK SMILES CCCN(CC)S(=O)(=O)c1ccc(C(=O)NCCCCNC(=O)c2ccc(-c3c4nc(c(-c5ccccc5)c5ccc([nH]5)c(-c5ccccc5)c5nc(c(-c6ccccc6)c6ccc3[nH]6)C=C5)C=C4)cc2)o1
REMARK SMILES IDX 17 1 16 2 14 3 15 4 13 6 10 7 11 8 72 9 12 10 7 11 8 12 9 13
REMARK SMILES IDX 4 14 3 15 2 16 1 17 5 18 6 19 18 20 19 21 20 22 21 23 22 24
REMARK SMILES IDX 23 26 24 27 25 28 71 29 26 30 70 31 27 32 28 33 29 34 64 35
REMARK SMILES IDX 30 36 69 37 63 38 65 39 31 40 68 41 62 42 61 43 32 45 54 46
REMARK SMILES IDX 39 47 53 48 40 49 43 50 52 51 66 52 41 53 42 54 51 56 67 57
REMARK SMILES IDX 44 58 33 59 34 60 38 61 35 62 37 63 36 64 55 65 56 66 60 67
REMARK SMILES IDX 57 68 59 69 58 70 45 71 46 72 50 73 47 74 49 75 48 76
REMARK H PARENT 16 5 21 25 65 44 43 55
REMARK Flexibility Score: inf
ROOT
ATOM      1  C   UNL A   1      35.427  20.412  24.958  1.00  0.00     0.116 C 
ENDROOT
BRANCH   1   2
ATOM      2  N   UNL A   1      34.226  19.662  25.245  1.00  0.00    -0.349 N 
ATOM      3  C   UNL A   1      32.898  19.974  25.058  1.00  0.00     0.287 C 
ATOM      4  O   UNL A   1      32.101  19.091  25.386  1.00  0.00    -0.266 OA
ATOM      5  H   UNL A   1      34.385  18.775  25.643  1.00  0.00     0.163 HD
BRANCH   3   6
ATOM      6  C   UNL A   1      32.475  21.252  24.502  1.00  0.00     0.193 A 
ATOM      7  C   UNL A   1      31.783  23.386  24.756  1.00  0.00     0.234 A 
ATOM      8  C   UNL A   1      31.764  23.087  23.402  1.00  0.00     0.065 A 
ATOM      9  O   UNL A   1      32.227  22.251  25.408  1.00  0.00    -0.438 OA
ATOM     10  C   UNL A   1      32.243  21.763  23.241  1.00  0.00     0.058 A 
BRANCH   7  11
ATOM     11  S   UNL A   1      31.334  24.836  25.719  1.00  0.00     0.276 S 
ATOM     12  O   UNL A   1      31.306  24.387  27.090  1.00  0.00    -0.204 OA
ATOM     13  O   UNL A   1      30.127  25.301  25.058  1.00  0.00    -0.204 OA
BRANCH  11  14
ATOM     14  N   UNL A   1      32.508  26.089  25.598  1.00  0.00    -0.195 NA
BRANCH  14  15
ATOM     15  C   UNL A   1      32.470  26.827  24.284  1.00  0.00     0.102 C 
BRANCH  15  16
ATOM     16  C   UNL A   1      33.762  27.586  23.981  1.00  0.00     0.013 C 
ATOM     17  C   UNL A   1      33.540  28.862  23.172  1.00  0.00     0.005 C 
ENDBRANCH  15  16
ENDBRANCH  14  15
BRANCH  14  18
ATOM     18  C   UNL A   1      32.649  27.043  26.738  1.00  0.00     0.099 C 
ATOM     19  C   UNL A   1      31.510  28.030  26.896  1.00  0.00     0.022 C 
ENDBRANCH  14  18
ENDBRANCH  11  14
ENDBRANCH   7  11
ENDBRANCH   3   6
ENDBRANCH   1   2
BRANCH   1  20
ATOM     20  C   UNL A   1      35.637  21.540  25.969  1.00  0.00     0.023 C 
BRANCH  20  21
ATOM     21  C   UNL A   1      35.642  22.948  25.358  1.00  0.00     0.023 C 
BRANCH  21  22
ATOM     22  C   UNL A   1      37.024  23.589  25.226  1.00  0.00     0.116 C 
BRANCH  22  23
ATOM     23  N   UNL A   1      38.110  22.658  25.482  1.00  0.00    -0.352 N 
ATOM     24  C   UNL A   1      39.296  22.874  26.137  1.00  0.00     0.251 C 
ATOM     25  H   UNL A   1      37.977  21.745  25.136  1.00  0.00     0.163 HD
ATOM     26  O   UNL A   1      40.146  21.989  26.167  1.00  0.00    -0.269 OA
BRANCH  24  27
ATOM     27  C   UNL A   1      39.579  24.187  26.752  1.00  0.00     0.039 A 
ATOM     28  C   UNL A   1      39.129  24.410  28.057  1.00  0.00     0.014 A 
ATOM     29  C   UNL A   1      40.261  25.192  26.063  1.00  0.00     0.014 A 
ATOM     30  C   UNL A   1      39.416  25.616  28.694  1.00  0.00     0.010 A 
ATOM     31  C   UNL A   1      40.588  26.381  26.715  1.00  0.00     0.010 A 
ATOM     32  C   UNL A   1      40.172  26.599  28.036  1.00  0.00    -0.014 A 
BRANCH  32  33
ATOM     33  C   UNL A   1      40.549  27.848  28.738  1.00  0.00     0.031 A 
ATOM     34  C   UNL A   1      41.929  28.025  29.299  1.00  0.00     0.074 A 
ATOM     35  C   UNL A   1      39.625  28.813  28.902  1.00  0.00     0.049 A 
ATOM     36  N   UNL A   1      42.436  29.059  29.921  1.00  0.00    -0.248 NA
ATOM     37  C   UNL A   1      42.852  26.888  29.163  1.00  0.00     0.031 C 
ATOM     38  C   UNL A   1      38.232  28.738  28.453  1.00  0.00     0.029 A 
ATOM     39  N   UNL A   1      39.722  30.047  29.489  1.00  0.00    -0.354 N 
ATOM     40  C   UNL A   1      43.729  28.691  30.267  1.00  0.00     0.074 A 
ATOM     41  C   UNL A   1      43.921  27.331  29.810  1.00  0.00     0.031 C 
ATOM     42  C   UNL A   1      37.612  29.890  28.757  1.00  0.00     0.029 A 
ATOM     43  C   UNL A   1      38.559  30.775  29.429  1.00  0.00     0.049 A 
ATOM     44  H   UNL A   1      40.545  30.380  29.913  1.00  0.00     0.167 HD
ATOM     45  C   UNL A   1      44.678  29.424  30.899  1.00  0.00     0.031 A 
ATOM     46  C   UNL A   1      38.290  32.023  29.851  1.00  0.00     0.031 A 
ATOM     47  C   UNL A   1      44.501  30.781  31.339  1.00  0.00     0.049 A 
ATOM     48  C   UNL A   1      39.378  32.840  30.485  1.00  0.00     0.074 A 
ATOM     49  C   UNL A   1      45.420  31.621  31.945  1.00  0.00     0.029 A 
ATOM     50  N   UNL A   1      43.325  31.501  31.211  1.00  0.00    -0.354 N 
ATOM     51  N   UNL A   1      40.615  32.500  30.746  1.00  0.00    -0.248 NA
ATOM     52  C   UNL A   1      39.033  34.218  30.861  1.00  0.00     0.031 C 
ATOM     53  C   UNL A   1      44.792  32.846  32.199  1.00  0.00     0.029 A 
ATOM     54  C   UNL A   1      43.491  32.774  31.727  1.00  0.00     0.049 A 
ATOM     55  H   UNL A   1      42.493  31.157  30.812  1.00  0.00     0.167 HD
ATOM     56  C   UNL A   1      41.206  33.628  31.297  1.00  0.00     0.074 A 
ATOM     57  C   UNL A   1      40.193  34.664  31.325  1.00  0.00     0.031 C 
ATOM     58  C   UNL A   1      42.476  33.792  31.740  1.00  0.00     0.031 A 
BRANCH  45  59
ATOM     59  C   UNL A   1      45.996  28.756  31.154  1.00  0.00    -0.014 A 
ATOM     60  C   UNL A   1      47.030  28.821  30.207  1.00  0.00     0.009 A 
ATOM     61  C   UNL A   1      46.212  28.068  32.356  1.00  0.00     0.009 A 
ATOM     62  C   UNL A   1      48.247  28.181  30.448  1.00  0.00     0.001 A 
ATOM     63  C   UNL A   1      47.437  27.444  32.602  1.00  0.00     0.001 A 
ATOM     64  C   UNL A   1      48.450  27.495  31.645  1.00  0.00     0.000 A 
ENDBRANCH  45  59
BRANCH  46  65
ATOM     65  C   UNL A   1      36.942  32.599  29.634  1.00  0.00    -0.014 A 
ATOM     66  C   UNL A   1      35.951  32.460  30.617  1.00  0.00     0.009 A 
ATOM     67  C   UNL A   1      36.645  33.297  28.454  1.00  0.00     0.009 A 
ATOM     68  C   UNL A   1      34.677  32.994  30.414  1.00  0.00     0.001 A 
ATOM     69  C   UNL A   1      35.375  33.843  28.262  1.00  0.00     0.001 A 
ATOM     70  C   UNL A   1      34.392  33.688  29.238  1.00  0.00     0.000 A 
ENDBRANCH  46  65
BRANCH  58  71
ATOM     71  C   UNL A   1      42.841  35.148  32.262  1.00  0.00    -0.014 A 
ATOM     72  C   UNL A   1      42.523  35.525  33.576  1.00  0.00     0.009 A 
ATOM     73  C   UNL A   1      43.529  36.050  31.437  1.00  0.00     0.009 A 
ATOM     74  C   UNL A   1      42.863  36.794  34.044  1.00  0.00     0.001 A 
ATOM     75  C   UNL A   1      43.881  37.312  31.913  1.00  0.00     0.001 A 
ATOM     76  C   UNL A   1      43.543  37.686  33.213  1.00  0.00     0.000 A 
ENDBRANCH  58  71
ENDBRANCH  32  33
ENDBRANCH  24  27
ENDBRANCH  22  23
ENDBRANCH  21  22
ENDBRANCH  20  21
ENDBRANCH   1  20
TORSDOF 16
ENDMDL
