MODEL 1
REMARK VINA RESULT:     -11.7      0.000      0.000
REMARK SMILES CS(=O)(=O)c1ccc(/C=C(/C(=O)NCCCCNC(=O)c2ccc(-c3c4nc(c(-c5ccccc5)c5ccc([nH]5)c(-c5ccccc5)c5nc(c(-c6ccccc6)c6ccc3[nH]6)C=C5)C=C4)cc2)c2cccc(Br)c2)cc1
REMARK SMILES IDX 15 1 14 2 13 3 11 4 12 5 10 7 9 8 8 9 5 10 6 11 77 12 7 13
REMARK SMILES IDX 76 14 2 15 1 16 3 17 4 18 69 19 70 20 75 21 71 22 73 23
REMARK SMILES IDX 72 24 74 25 16 26 17 27 18 28 19 29 20 31 21 32 22 33 68 34
REMARK SMILES IDX 23 35 67 36 24 37 25 38 26 39 61 40 27 41 66 42 60 43 62 44
REMARK SMILES IDX 28 45 65 46 59 47 58 48 29 50 51 51 36 52 50 53 37 54 40 55
REMARK SMILES IDX 49 56 63 57 38 58 39 59 48 61 64 62 41 63 30 64 31 65 35 66
REMARK SMILES IDX 32 67 34 68 33 69 52 70 53 71 57 72 54 73 56 74 55 75 42 76
REMARK SMILES IDX 43 77 47 78 44 79 46 80 45 81
REMARK H PARENT 13 6 18 30 62 49 40 60
REMARK Flexibility Score: inf
ROOT
ATOM      1  C   UNL A   1      36.114  20.914  24.759  1.00  0.00     0.023 C 
ENDROOT
BRANCH   1   2
ATOM      2  C   UNL A   1      36.168  22.076  25.754  1.00  0.00     0.116 C 
BRANCH   2   3
ATOM      3  N   UNL A   1      35.263  21.837  26.861  1.00  0.00    -0.352 N 
ATOM      4  C   UNL A   1      34.001  22.252  27.151  1.00  0.00     0.251 C 
ATOM      5  O   UNL A   1      33.541  21.862  28.228  1.00  0.00    -0.269 OA
ATOM      6  H   UNL A   1      35.644  21.245  27.550  1.00  0.00     0.163 HD
BRANCH   4   7
ATOM      7  C   UNL A   1      33.144  23.074  26.210  1.00  0.00     0.047 C 
ATOM      8  C   UNL A   1      32.613  24.266  26.565  1.00  0.00     0.022 C 
BRANCH   8   9
ATOM      9  C   UNL A   1      31.837  25.227  25.755  1.00  0.00    -0.025 A 
ATOM     10  C   UNL A   1      30.510  27.086  24.126  1.00  0.00     0.067 A 
ATOM     11  C   UNL A   1      29.785  26.073  24.757  1.00  0.00     0.021 A 
ATOM     12  C   UNL A   1      31.882  27.214  24.339  1.00  0.00     0.021 A 
ATOM     13  C   UNL A   1      30.449  25.158  25.581  1.00  0.00     0.009 A 
ATOM     14  C   UNL A   1      32.539  26.284  25.148  1.00  0.00     0.009 A 
BRANCH  10  15
ATOM     15  S   UNL A   1      29.659  28.243  23.081  1.00  0.00     0.175 S 
ATOM     16  C   UNL A   1      30.058  29.823  23.783  1.00  0.00     0.163 C 
ATOM     17  O   UNL A   1      28.236  28.032  23.252  1.00  0.00    -0.224 OA
ATOM     18  O   UNL A   1      30.274  28.158  21.768  1.00  0.00    -0.224 OA
ENDBRANCH  10  15
ENDBRANCH   8   9
BRANCH   7  19
ATOM     19  C   UNL A   1      32.757  22.439  24.924  1.00  0.00    -0.012 A 
ATOM     20  C   UNL A   1      32.657  23.245  23.775  1.00  0.00     0.009 A 
ATOM     21  C   UNL A   1      32.581  21.055  24.800  1.00  0.00     0.024 A 
ATOM     22  C   UNL A   1      32.415  22.682  22.524  1.00  0.00     0.002 A 
ATOM     23  C   UNL A   1      32.357  20.497  23.540  1.00  0.00     0.018 A 
ATOM     24  C   UNL A   1      32.275  21.302  22.403  1.00  0.00     0.016 A 
ATOM     25  Br  UNL A   1      32.212  18.619  23.362  1.00  0.00    -0.051 Br
ENDBRANCH   7  19
ENDBRANCH   4   7
ENDBRANCH   2   3
ENDBRANCH   1   2
BRANCH   1  26
ATOM     26  C   UNL A   1      37.293  19.936  24.851  1.00  0.00     0.023 C 
BRANCH  26  27
ATOM     27  C   UNL A   1      38.566  20.502  25.474  1.00  0.00     0.116 C 
BRANCH  27  28
ATOM     28  N   UNL A   1      39.657  19.543  25.512  1.00  0.00    -0.352 N 
ATOM     29  C   UNL A   1      40.939  19.699  25.974  1.00  0.00     0.251 C 
ATOM     30  H   UNL A   1      39.445  18.650  25.155  1.00  0.00     0.163 HD
ATOM     31  O   UNL A   1      41.750  18.788  25.829  1.00  0.00    -0.269 OA
BRANCH  29  32
ATOM     32  C   UNL A   1      41.364  20.967  26.606  1.00  0.00     0.039 A 
ATOM     33  C   UNL A   1      41.906  21.961  25.787  1.00  0.00     0.014 A 
ATOM     34  C   UNL A   1      41.256  21.178  27.983  1.00  0.00     0.014 A 
ATOM     35  C   UNL A   1      42.290  23.184  26.339  1.00  0.00     0.010 A 
ATOM     36  C   UNL A   1      41.583  22.421  28.525  1.00  0.00     0.010 A 
ATOM     37  C   UNL A   1      42.106  23.433  27.709  1.00  0.00    -0.014 A 
BRANCH  37  38
ATOM     38  C   UNL A   1      42.443  24.760  28.279  1.00  0.00     0.031 A 
ATOM     39  C   UNL A   1      43.852  25.090  28.683  1.00  0.00     0.074 A 
ATOM     40  C   UNL A   1      41.461  25.666  28.458  1.00  0.00     0.049 A 
ATOM     41  N   UNL A   1      44.333  26.217  29.145  1.00  0.00    -0.248 NA
ATOM     42  C   UNL A   1      44.846  24.013  28.572  1.00  0.00     0.031 C 
ATOM     43  C   UNL A   1      40.043  25.448  28.165  1.00  0.00     0.029 A 
ATOM     44  N   UNL A   1      41.511  26.956  28.923  1.00  0.00    -0.354 N 
ATOM     45  C   UNL A   1      45.680  25.982  29.390  1.00  0.00     0.074 A 
ATOM     46  C   UNL A   1      45.930  24.592  29.069  1.00  0.00     0.031 C 
ATOM     47  C   UNL A   1      39.364  26.579  28.418  1.00  0.00     0.029 A 
ATOM     48  C   UNL A   1      40.293  27.591  28.909  1.00  0.00     0.049 A 
ATOM     49  H   UNL A   1      42.340  27.385  29.236  1.00  0.00     0.167 HD
ATOM     50  C   UNL A   1      46.628  26.846  29.823  1.00  0.00     0.031 A 
ATOM     51  C   UNL A   1      39.964  28.853  29.236  1.00  0.00     0.031 A 
ATOM     52  C   UNL A   1      46.384  28.230  30.133  1.00  0.00     0.049 A 
ATOM     53  C   UNL A   1      41.040  29.804  29.678  1.00  0.00     0.074 A 
ATOM     54  C   UNL A   1      47.290  29.200  30.527  1.00  0.00     0.029 A 
ATOM     55  N   UNL A   1      45.141  28.840  30.086  1.00  0.00    -0.354 N 
ATOM     56  N   UNL A   1      42.324  29.586  29.825  1.00  0.00    -0.248 NA
ATOM     57  C   UNL A   1      40.621  31.180  29.976  1.00  0.00     0.031 C 
ATOM     58  C   UNL A   1      46.589  30.389  30.752  1.00  0.00     0.029 A 
ATOM     59  C   UNL A   1      45.254  30.171  30.456  1.00  0.00     0.049 A 
ATOM     60  H   UNL A   1      44.302  28.394  29.828  1.00  0.00     0.167 HD
ATOM     61  C   UNL A   1      42.870  30.803  30.209  1.00  0.00     0.074 A 
ATOM     62  C   UNL A   1      41.780  31.757  30.252  1.00  0.00     0.031 C 
ATOM     63  C   UNL A   1      44.159  31.104  30.500  1.00  0.00     0.031 A 
BRANCH  50  64
ATOM     64  C   UNL A   1      48.024  26.312  29.984  1.00  0.00    -0.014 A 
ATOM     65  C   UNL A   1      48.921  26.291  28.904  1.00  0.00     0.009 A 
ATOM     66  C   UNL A   1      48.456  25.847  31.235  1.00  0.00     0.009 A 
ATOM     67  C   UNL A   1      50.211  25.782  29.065  1.00  0.00     0.001 A 
ATOM     68  C   UNL A   1      49.756  25.364  31.399  1.00  0.00     0.001 A 
ATOM     69  C   UNL A   1      50.628  25.323  30.313  1.00  0.00     0.000 A 
ENDBRANCH  50  64
BRANCH  51  70
ATOM     70  C   UNL A   1      38.557  29.309  29.106  1.00  0.00    -0.014 A 
ATOM     71  C   UNL A   1      38.076  29.782  27.875  1.00  0.00     0.009 A 
ATOM     72  C   UNL A   1      37.690  29.275  30.208  1.00  0.00     0.009 A 
ATOM     73  C   UNL A   1      36.761  30.236  27.758  1.00  0.00     0.001 A 
ATOM     74  C   UNL A   1      36.369  29.706  30.081  1.00  0.00     0.001 A 
ATOM     75  C   UNL A   1      35.908  30.194  28.859  1.00  0.00     0.000 A 
ENDBRANCH  51  70
BRANCH  63  76
ATOM     76  C   UNL A   1      44.457  32.531  30.864  1.00  0.00    -0.014 A 
ATOM     77  C   UNL A   1      44.782  33.480  29.882  1.00  0.00     0.009 A 
ATOM     78  C   UNL A   1      44.405  32.930  32.208  1.00  0.00     0.009 A 
ATOM     79  C   UNL A   1      45.088  34.792  30.244  1.00  0.00     0.001 A 
ATOM     80  C   UNL A   1      44.686  34.250  32.564  1.00  0.00     0.001 A 
ATOM     81  C   UNL A   1      45.038  35.177  31.584  1.00  0.00     0.000 A 
ENDBRANCH  63  76
ENDBRANCH  37  38
ENDBRANCH  29  32
ENDBRANCH  27  28
ENDBRANCH  26  27
ENDBRANCH   1  26
TORSDOF 14
ENDMDL
MODEL 2
REMARK VINA RESULT:     -11.6      2.868      7.285
REMARK SMILES CS(=O)(=O)c1ccc(/C=C(/C(=O)NCCCCNC(=O)c2ccc(-c3c4nc(c(-c5ccccc5)c5ccc([nH]5)c(-c5ccccc5)c5nc(c(-c6ccccc6)c6ccc3[nH]6)C=C5)C=C4)cc2)c2cccc(Br)c2)cc1
REMARK SMILES IDX 15 1 14 2 13 3 11 4 12 5 10 7 9 8 8 9 5 10 6 11 77 12 7 13
REMARK SMILES IDX 76 14 2 15 1 16 3 17 4 18 69 19 70 20 75 21 71 22 73 23
REMARK SMILES IDX 72 24 74 25 16 26 17 27 18 28 19 29 20 31 21 32 22 33 68 34
REMARK SMILES IDX 23 35 67 36 24 37 25 38 26 39 61 40 27 41 66 42 60 43 62 44
REMARK SMILES IDX 28 45 65 46 59 47 58 48 29 50 51 51 36 52 50 53 37 54 40 55
REMARK SMILES IDX 49 56 63 57 38 58 39 59 48 61 64 62 41 63 30 64 31 65 35 66
REMARK SMILES IDX 32 67 34 68 33 69 52 70 53 71 57 72 54 73 56 74 55 75 42 76
REMARK SMILES IDX 43 77 47 78 44 79 46 80 45 81
REMARK H PARENT 13 6 18 30 62 49 40 60
REMARK Flexibility Score: inf
ROOT
ATOM      1  C   UNL A   1      35.323  23.549  23.434  1.00  0.00     0.023 C 
ENDROOT
BRANCH   1   2
ATOM      2  C   UNL A   1      34.192  24.566  23.605  1.00  0.00     0.116 C 
BRANCH   2   3
ATOM      3  N   UNL A   1      32.994  23.914  24.097  1.00  0.00    -0.352 N 
ATOM      4  C   UNL A   1      31.763  24.359  24.463  1.00  0.00     0.251 C 
ATOM      5  O   UNL A   1      30.980  23.498  24.874  1.00  0.00    -0.269 OA
ATOM      6  H   UNL A   1      33.095  22.938  24.184  1.00  0.00     0.163 HD
BRANCH   4   7
ATOM      7  C   UNL A   1      31.308  25.797  24.320  1.00  0.00     0.047 C 
ATOM      8  C   UNL A   1      30.778  26.281  23.173  1.00  0.00     0.022 C 
BRANCH   8   9
ATOM      9  C   UNL A   1      30.211  27.615  22.890  1.00  0.00    -0.025 A 
ATOM     10  C   UNL A   1      29.020  30.123  22.485  1.00  0.00     0.067 A 
ATOM     11  C   UNL A   1      30.331  29.899  22.059  1.00  0.00     0.021 A 
ATOM     12  C   UNL A   1      28.278  29.095  23.065  1.00  0.00     0.021 A 
ATOM     13  C   UNL A   1      30.915  28.642  22.248  1.00  0.00     0.009 A 
ATOM     14  C   UNL A   1      28.877  27.848  23.268  1.00  0.00     0.009 A 
BRANCH  10  15
ATOM     15  S   UNL A   1      28.287  31.722  22.241  1.00  0.00     0.175 S 
ATOM     16  C   UNL A   1      27.860  31.735  20.519  1.00  0.00     0.163 C 
ATOM     17  O   UNL A   1      29.318  32.719  22.447  1.00  0.00    -0.224 OA
ATOM     18  O   UNL A   1      27.059  31.747  23.017  1.00  0.00    -0.224 OA
ENDBRANCH  10  15
ENDBRANCH   8   9
BRANCH   7  19
ATOM     19  C   UNL A   1      31.626  26.719  25.441  1.00  0.00    -0.012 A 
ATOM     20  C   UNL A   1      30.735  26.794  26.527  1.00  0.00     0.009 A 
ATOM     21  C   UNL A   1      32.824  27.441  25.494  1.00  0.00     0.024 A 
ATOM     22  C   UNL A   1      31.043  27.551  27.656  1.00  0.00     0.002 A 
ATOM     23  C   UNL A   1      33.134  28.182  26.637  1.00  0.00     0.018 A 
ATOM     24  C   UNL A   1      32.252  28.239  27.717  1.00  0.00     0.016 A 
ATOM     25  Br  UNL A   1      34.795  29.081  26.745  1.00  0.00    -0.051 Br
ENDBRANCH   7  19
ENDBRANCH   4   7
ENDBRANCH   2   3
ENDBRANCH   1   2
BRANCH   1  26
ATOM     26  C   UNL A   1      35.904  23.008  24.748  1.00  0.00     0.023 C 
BRANCH  26  27
ATOM     27  C   UNL A   1      37.172  23.703  25.238  1.00  0.00     0.116 C 
BRANCH  27  28
ATOM     28  N   UNL A   1      38.256  22.777  25.517  1.00  0.00    -0.352 N 
ATOM     29  C   UNL A   1      39.438  22.992  26.180  1.00  0.00     0.251 C 
ATOM     30  H   UNL A   1      38.123  21.860  25.183  1.00  0.00     0.163 HD
ATOM     31  O   UNL A   1      40.277  22.097  26.229  1.00  0.00    -0.269 OA
BRANCH  29  32
ATOM     32  C   UNL A   1      39.726  24.304  26.799  1.00  0.00     0.039 A 
ATOM     33  C   UNL A   1      39.305  24.518  28.114  1.00  0.00     0.014 A 
ATOM     34  C   UNL A   1      40.381  25.322  26.100  1.00  0.00     0.014 A 
ATOM     35  C   UNL A   1      39.585  25.731  28.745  1.00  0.00     0.010 A 
ATOM     36  C   UNL A   1      40.715  26.510  26.750  1.00  0.00     0.010 A 
ATOM     37  C   UNL A   1      40.317  26.726  28.077  1.00  0.00    -0.014 A 
BRANCH  37  38
ATOM     38  C   UNL A   1      40.681  27.983  28.775  1.00  0.00     0.031 A 
ATOM     39  C   UNL A   1      39.678  29.089  28.943  1.00  0.00     0.074 A 
ATOM     40  C   UNL A   1      41.936  28.136  29.240  1.00  0.00     0.049 A 
ATOM     41  N   UNL A   1      39.808  30.230  29.574  1.00  0.00    -0.248 NA
ATOM     42  C   UNL A   1      38.367  28.901  28.306  1.00  0.00     0.031 C 
ATOM     43  C   UNL A   1      43.020  27.164  29.087  1.00  0.00     0.029 A 
ATOM     44  N   UNL A   1      42.509  29.166  29.942  1.00  0.00    -0.354 N 
ATOM     45  C   UNL A   1      38.603  30.898  29.401  1.00  0.00     0.074 A 
ATOM     46  C   UNL A   1      37.771  30.056  28.567  1.00  0.00     0.031 C 
ATOM     47  C   UNL A   1      44.115  27.625  29.713  1.00  0.00     0.029 A 
ATOM     48  C   UNL A   1      43.816  28.931  30.292  1.00  0.00     0.049 A 
ATOM     49  H   UNL A   1      42.029  29.994  30.173  1.00  0.00     0.167 HD
ATOM     50  C   UNL A   1      38.215  32.094  29.905  1.00  0.00     0.031 A 
ATOM     51  C   UNL A   1      44.673  29.674  31.014  1.00  0.00     0.031 A 
ATOM     52  C   UNL A   1      39.038  32.928  30.741  1.00  0.00     0.049 A 
ATOM     53  C   UNL A   1      44.207  30.980  31.594  1.00  0.00     0.074 A 
ATOM     54  C   UNL A   1      38.715  34.131  31.345  1.00  0.00     0.029 A 
ATOM     55  N   UNL A   1      40.349  32.644  31.090  1.00  0.00    -0.354 N 
ATOM     56  N   UNL A   1      43.036  31.558  31.488  1.00  0.00    -0.248 NA
ATOM     57  C   UNL A   1      45.178  31.720  32.412  1.00  0.00     0.031 C 
ATOM     58  C   UNL A   1      39.843  34.593  32.032  1.00  0.00     0.029 A 
ATOM     59  C   UNL A   1      40.853  33.655  31.891  1.00  0.00     0.049 A 
ATOM     60  H   UNL A   1      40.847  31.842  30.810  1.00  0.00     0.167 HD
ATOM     61  C   UNL A   1      43.121  32.719  32.245  1.00  0.00     0.074 A 
ATOM     62  C   UNL A   1      44.451  32.750  32.819  1.00  0.00     0.031 C 
ATOM     63  C   UNL A   1      42.181  33.674  32.448  1.00  0.00     0.031 A 
BRANCH  50  64
ATOM     64  C   UNL A   1      36.831  32.568  29.561  1.00  0.00    -0.014 A 
ATOM     65  C   UNL A   1      36.583  33.282  28.378  1.00  0.00     0.009 A 
ATOM     66  C   UNL A   1      35.758  32.276  30.416  1.00  0.00     0.009 A 
ATOM     67  C   UNL A   1      35.294  33.725  28.076  1.00  0.00     0.001 A 
ATOM     68  C   UNL A   1      34.465  32.697  30.098  1.00  0.00     0.001 A 
ATOM     69  C   UNL A   1      34.236  33.429  28.934  1.00  0.00     0.000 A 
ENDBRANCH  50  64
BRANCH  51  70
ATOM     70  C   UNL A   1      46.046  29.176  31.277  1.00  0.00    -0.014 A 
ATOM     71  C   UNL A   1      47.094  29.494  30.399  1.00  0.00     0.009 A 
ATOM     72  C   UNL A   1      46.318  28.383  32.401  1.00  0.00     0.009 A 
ATOM     73  C   UNL A   1      48.382  29.005  30.629  1.00  0.00     0.001 A 
ATOM     74  C   UNL A   1      47.611  27.917  32.643  1.00  0.00     0.001 A 
ATOM     75  C   UNL A   1      48.640  28.221  31.752  1.00  0.00     0.000 A 
ENDBRANCH  51  70
BRANCH  63  76
ATOM     76  C   UNL A   1      42.556  34.816  33.348  1.00  0.00    -0.014 A 
ATOM     77  C   UNL A   1      42.327  34.758  34.732  1.00  0.00     0.009 A 
ATOM     78  C   UNL A   1      43.154  35.963  32.803  1.00  0.00     0.009 A 
ATOM     79  C   UNL A   1      42.653  35.843  35.546  1.00  0.00     0.001 A 
ATOM     80  C   UNL A   1      43.503  37.036  33.625  1.00  0.00     0.001 A 
ATOM     81  C   UNL A   1      43.242  36.979  34.993  1.00  0.00     0.000 A 
ENDBRANCH  63  76
ENDBRANCH  37  38
ENDBRANCH  29  32
ENDBRANCH  27  28
ENDBRANCH  26  27
ENDBRANCH   1  26
TORSDOF 14
ENDMDL
MODEL 3
REMARK VINA RESULT:     -11.6      5.115      8.773
REMARK SMILES CS(=O)(=O)c1ccc(/C=C(/C(=O)NCCCCNC(=O)c2ccc(-c3c4nc(c(-c5ccccc5)c5ccc([nH]5)c(-c5ccccc5)c5nc(c(-c6ccccc6)c6ccc3[nH]6)C=C5)C=C4)cc2)c2cccc(Br)c2)cc1
REMARK SMILES IDX 15 1 14 2 13 3 11 4 12 5 10 7 9 8 8 9 5 10 6 11 77 12 7 13
REMARK SMILES IDX 76 14 2 15 1 16 3 17 4 18 69 19 70 20 75 21 71 22 73 23
REMARK SMILES IDX 72 24 74 25 16 26 17 27 18 28 19 29 20 31 21 32 22 33 68 34
REMARK SMILES IDX 23 35 67 36 24 37 25 38 26 39 61 40 27 41 66 42 60 43 62 44
REMARK SMILES IDX 28 45 65 46 59 47 58 48 29 50 51 51 36 52 50 53 37 54 40 55
REMARK SMILES IDX 49 56 63 57 38 58 39 59 48 61 64 62 41 63 30 64 31 65 35 66
REMARK SMILES IDX 32 67 34 68 33 69 52 70 53 71 57 72 54 73 56 74 55 75 42 76
REMARK SMILES IDX 43 77 47 78 44 79 46 80 45 81
REMARK H PARENT 13 6 18 30 62 49 40 60
REMARK Flexibility Score: inf
ROOT
ATOM      1  C   UNL A   1      42.887  23.018  26.863  1.00  0.00     0.023 C 
ENDROOT
BRANCH   1   2
ATOM      2  C   UNL A   1      44.349  22.567  26.923  1.00  0.00     0.116 C 
BRANCH   2   3
ATOM      3  N   UNL A   1      44.981  22.727  25.628  1.00  0.00    -0.352 N 
ATOM      4  C   UNL A   1      45.549  23.780  24.983  1.00  0.00     0.251 C 
ATOM      5  O   UNL A   1      45.972  23.549  23.846  1.00  0.00    -0.269 OA
ATOM      6  H   UNL A   1      45.006  21.893  25.105  1.00  0.00     0.163 HD
BRANCH   4   7
ATOM      7  C   UNL A   1      45.744  25.147  25.605  1.00  0.00     0.047 C 
ATOM      8  C   UNL A   1      45.039  26.232  25.213  1.00  0.00     0.022 C 
BRANCH   8   9
ATOM      9  C   UNL A   1      45.041  27.603  25.763  1.00  0.00    -0.025 A 
ATOM     10  C   UNL A   1      44.896  30.167  26.893  1.00  0.00     0.067 A 
ATOM     11  C   UNL A   1      46.129  29.658  26.481  1.00  0.00     0.021 A 
ATOM     12  C   UNL A   1      43.726  29.433  26.701  1.00  0.00     0.021 A 
ATOM     13  C   UNL A   1      46.194  28.386  25.904  1.00  0.00     0.009 A 
ATOM     14  C   UNL A   1      43.804  28.155  26.141  1.00  0.00     0.009 A 
BRANCH  10  15
ATOM     15  S   UNL A   1      44.823  31.783  27.626  1.00  0.00     0.175 S 
ATOM     16  C   UNL A   1      44.830  32.882  26.233  1.00  0.00     0.163 C 
ATOM     17  O   UNL A   1      46.054  31.994  28.360  1.00  0.00    -0.224 OA
ATOM     18  O   UNL A   1      43.533  31.890  28.286  1.00  0.00    -0.224 OA
ENDBRANCH  10  15
ENDBRANCH   8   9
BRANCH   7  19
ATOM     19  C   UNL A   1      46.876  25.298  26.556  1.00  0.00    -0.012 A 
ATOM     20  C   UNL A   1      46.612  25.229  27.937  1.00  0.00     0.009 A 
ATOM     21  C   UNL A   1      48.203  25.411  26.123  1.00  0.00     0.024 A 
ATOM     22  C   UNL A   1      47.651  25.245  28.866  1.00  0.00     0.002 A 
ATOM     23  C   UNL A   1      49.238  25.407  27.061  1.00  0.00     0.018 A 
ATOM     24  C   UNL A   1      48.969  25.322  28.427  1.00  0.00     0.016 A 
ATOM     25  Br  UNL A   1      51.034  25.465  26.469  1.00  0.00    -0.051 Br
ENDBRANCH   7  19
ENDBRANCH   4   7
ENDBRANCH   2   3
ENDBRANCH   1   2
BRANCH   1  26
ATOM     26  C   UNL A   1      41.984  22.152  25.973  1.00  0.00     0.023 C 
BRANCH  26  27
ATOM     27  C   UNL A   1      40.727  21.609  26.648  1.00  0.00     0.116 C 
BRANCH  27  28
ATOM     28  N   UNL A   1      39.507  21.947  25.936  1.00  0.00    -0.352 N 
ATOM     29  C   UNL A   1      38.778  23.109  25.959  1.00  0.00     0.251 C 
ATOM     30  H   UNL A   1      39.152  21.240  25.350  1.00  0.00     0.163 HD
ATOM     31  O   UNL A   1      37.711  23.167  25.354  1.00  0.00    -0.269 OA
BRANCH  29  32
ATOM     32  C   UNL A   1      39.244  24.276  26.738  1.00  0.00     0.039 A 
ATOM     33  C   UNL A   1      40.036  25.227  26.089  1.00  0.00     0.014 A 
ATOM     34  C   UNL A   1      38.933  24.433  28.092  1.00  0.00     0.014 A 
ATOM     35  C   UNL A   1      40.470  26.359  26.780  1.00  0.00     0.010 A 
ATOM     36  C   UNL A   1      39.316  25.593  28.765  1.00  0.00     0.010 A 
ATOM     37  C   UNL A   1      40.090  26.564  28.116  1.00  0.00    -0.014 A 
BRANCH  37  38
ATOM     38  C   UNL A   1      40.488  27.805  28.825  1.00  0.00     0.031 A 
ATOM     39  C   UNL A   1      41.879  27.969  29.370  1.00  0.00     0.074 A 
ATOM     40  C   UNL A   1      39.577  28.782  29.001  1.00  0.00     0.049 A 
ATOM     41  N   UNL A   1      42.413  29.005  29.966  1.00  0.00    -0.248 NA
ATOM     42  C   UNL A   1      42.782  26.815  29.248  1.00  0.00     0.031 C 
ATOM     43  C   UNL A   1      38.177  28.721  28.575  1.00  0.00     0.029 A 
ATOM     44  N   UNL A   1      39.696  30.020  29.578  1.00  0.00    -0.354 N 
ATOM     45  C   UNL A   1      43.707  28.627  30.298  1.00  0.00     0.074 A 
ATOM     46  C   UNL A   1      43.863  27.249  29.880  1.00  0.00     0.031 C 
ATOM     47  C   UNL A   1      37.578  29.887  28.868  1.00  0.00     0.029 A 
ATOM     48  C   UNL A   1      38.544  30.765  29.519  1.00  0.00     0.049 A 
ATOM     49  H   UNL A   1      40.528  30.344  29.994  1.00  0.00     0.167 HD
ATOM     50  C   UNL A   1      44.684  29.362  30.881  1.00  0.00     0.031 A 
ATOM     51  C   UNL A   1      38.297  32.024  29.926  1.00  0.00     0.031 A 
ATOM     52  C   UNL A   1      44.534  30.734  31.289  1.00  0.00     0.049 A 
ATOM     53  C   UNL A   1      39.408  32.831  30.536  1.00  0.00     0.074 A 
ATOM     54  C   UNL A   1      45.481  31.580  31.838  1.00  0.00     0.029 A 
ATOM     55  N   UNL A   1      43.357  31.459  31.194  1.00  0.00    -0.354 N 
ATOM     56  N   UNL A   1      40.649  32.483  30.768  1.00  0.00    -0.248 NA
ATOM     57  C   UNL A   1      39.084  34.213  30.916  1.00  0.00     0.031 C 
ATOM     58  C   UNL A   1      44.868  32.809  32.107  1.00  0.00     0.029 A 
ATOM     59  C   UNL A   1      43.551  32.740  31.684  1.00  0.00     0.049 A 
ATOM     60  H   UNL A   1      42.509  31.116  30.829  1.00  0.00     0.167 HD
ATOM     61  C   UNL A   1      41.262  33.610  31.299  1.00  0.00     0.074 A 
ATOM     62  C   UNL A   1      40.260  34.656  31.335  1.00  0.00     0.031 C 
ATOM     63  C   UNL A   1      42.541  33.765  31.719  1.00  0.00     0.031 A 
BRANCH  50  64
ATOM     64  C   UNL A   1      46.008  28.688  31.108  1.00  0.00    -0.014 A 
ATOM     65  C   UNL A   1      47.091  28.907  30.242  1.00  0.00     0.009 A 
ATOM     66  C   UNL A   1      46.184  27.845  32.216  1.00  0.00     0.009 A 
ATOM     67  C   UNL A   1      48.312  28.267  30.460  1.00  0.00     0.001 A 
ATOM     68  C   UNL A   1      47.414  27.227  32.446  1.00  0.00     0.001 A 
ATOM     69  C   UNL A   1      48.474  27.430  31.564  1.00  0.00     0.000 A 
ENDBRANCH  50  64
BRANCH  51  70
ATOM     70  C   UNL A   1      36.952  32.618  29.722  1.00  0.00    -0.014 A 
ATOM     71  C   UNL A   1      35.988  32.553  30.740  1.00  0.00     0.009 A 
ATOM     72  C   UNL A   1      36.625  33.250  28.513  1.00  0.00     0.009 A 
ATOM     73  C   UNL A   1      34.713  33.088  30.541  1.00  0.00     0.001 A 
ATOM     74  C   UNL A   1      35.359  33.806  28.327  1.00  0.00     0.001 A 
ATOM     75  C   UNL A   1      34.401  33.717  29.337  1.00  0.00     0.000 A 
ENDBRANCH  51  70
BRANCH  63  76
ATOM     76  C   UNL A   1      42.928  35.125  32.229  1.00  0.00    -0.014 A 
ATOM     77  C   UNL A   1      43.531  36.073  31.387  1.00  0.00     0.009 A 
ATOM     78  C   UNL A   1      42.678  35.462  33.567  1.00  0.00     0.009 A 
ATOM     79  C   UNL A   1      43.913  37.318  31.888  1.00  0.00     0.001 A 
ATOM     80  C   UNL A   1      43.038  36.718  34.059  1.00  0.00     0.001 A 
ATOM     81  C   UNL A   1      43.664  37.640  33.222  1.00  0.00     0.000 A 
ENDBRANCH  63  76
ENDBRANCH  37  38
ENDBRANCH  29  32
ENDBRANCH  27  28
ENDBRANCH  26  27
ENDBRANCH   1  26
TORSDOF 14
ENDMDL
