MODEL 1
REMARK VINA RESULT:     -10.7      0.000      0.000
REMARK SMILES O=C(C[N@@H+]1CCC[C@@H]1C(=O)NCCCCNC(=O)c1ccc(-c2c3nc(c(-c4ccccc4)c4ccc([nH]4)c(-c4ccccc4)c4nc(c(-c5ccccc5)c5ccc2[nH]5)C=C4)C=C3)cc1)NCc1ccc(Cl)cc1
REMARK SMILES IDX 12 1 11 2 9 3 10 4 8 6 4 7 5 8 6 10 7 11 3 12 2 13 1 14
REMARK SMILES IDX 67 15 68 17 69 18 70 19 75 20 71 21 74 22 72 23 73 24 13 25
REMARK SMILES IDX 14 26 15 27 16 28 17 29 18 31 19 32 20 33 66 34 21 35 65 36
REMARK SMILES IDX 22 37 23 38 24 39 59 40 25 41 64 42 58 43 60 44 26 45 63 46
REMARK SMILES IDX 57 47 56 48 27 50 49 51 34 52 48 53 35 54 38 55 47 56 61 57
REMARK SMILES IDX 36 58 37 59 46 61 62 62 39 63 28 64 29 65 33 66 30 67 32 68
REMARK SMILES IDX 31 69 50 70 51 71 55 72 52 73 54 74 53 75 40 76 41 77 45 78
REMARK SMILES IDX 42 79 44 80 43 81
REMARK H PARENT 11 5 4 9 67 16 16 30 60 49 38 60
REMARK Flexibility Score: inf
ROOT
ATOM      1  C   UNL A   1      37.296  22.653  25.474  1.00  0.00     0.116 C 
ENDROOT
BRANCH   1   2
ATOM      2  N   UNL A   1      36.284  22.278  26.437  1.00  0.00    -0.351 N 
ATOM      3  C   UNL A   1      35.083  21.657  26.244  1.00  0.00     0.278 C 
ATOM      4  O   UNL A   1      34.410  21.446  27.257  1.00  0.00    -0.268 OA
ATOM      5  H   UNL A   1      36.492  22.504  27.372  1.00  0.00     0.163 HD
BRANCH   3   6
ATOM      6  C   UNL A   1      34.559  21.258  24.862  1.00  0.00     0.274 C 
ATOM      7  N   UNL A   1      33.841  22.239  24.047  1.00  0.00    -0.317 N 
ATOM      8  C   UNL A   1      32.698  21.613  23.399  1.00  0.00     0.263 C 
ATOM      9  H   UNL A   1      34.680  22.503  23.530  1.00  0.00     0.349 HD
ATOM     10  C   UNL A   1      32.346  20.418  24.264  1.00  0.00     0.068 C 
ATOM     11  C   UNL A   1      33.644  20.031  24.953  1.00  0.00     0.081 C 
BRANCH   7  12
ATOM     12  C   UNL A   1      33.782  23.685  24.184  1.00  0.00     0.364 C 
BRANCH  12  13
ATOM     13  C   UNL A   1      32.648  24.245  25.049  1.00  0.00     0.275 C 
ATOM     14  O   UNL A   1      32.499  23.952  26.231  1.00  0.00    -0.268 OA
ATOM     15  N   UNL A   1      31.873  25.183  24.409  1.00  0.00    -0.347 N 
ATOM     16  H   UNL A   1      32.100  25.419  23.481  1.00  0.00     0.164 HD
BRANCH  15  17
ATOM     17  C   UNL A   1      30.745  25.842  25.024  1.00  0.00     0.151 C 
BRANCH  17  18
ATOM     18  C   UNL A   1      31.129  27.222  25.515  1.00  0.00    -0.029 A 
ATOM     19  C   UNL A   1      31.182  28.317  24.635  1.00  0.00     0.007 A 
ATOM     20  C   UNL A   1      31.473  27.428  26.860  1.00  0.00     0.007 A 
ATOM     21  C   UNL A   1      31.521  29.592  25.095  1.00  0.00     0.021 A 
ATOM     22  C   UNL A   1      31.831  28.700  27.318  1.00  0.00     0.021 A 
ATOM     23  C   UNL A   1      31.844  29.777  26.436  1.00  0.00     0.041 A 
ATOM     24  Cl  UNL A   1      32.266  31.346  27.000  1.00  0.00    -0.084 Cl
ENDBRANCH  17  18
ENDBRANCH  15  17
ENDBRANCH  12  13
ENDBRANCH   7  12
ENDBRANCH   3   6
ENDBRANCH   1   2
BRANCH   1  25
ATOM     25  C   UNL A   1      38.644  22.014  25.764  1.00  0.00     0.023 C 
BRANCH  25  26
ATOM     26  C   UNL A   1      38.789  20.605  25.188  1.00  0.00     0.023 C 
BRANCH  26  27
ATOM     27  C   UNL A   1      39.325  19.559  26.162  1.00  0.00     0.116 C 
BRANCH  27  28
ATOM     28  N   UNL A   1      40.622  19.027  25.781  1.00  0.00    -0.352 N 
ATOM     29  C   UNL A   1      41.850  19.644  25.792  1.00  0.00     0.251 C 
ATOM     30  H   UNL A   1      40.622  18.093  25.472  1.00  0.00     0.163 HD
ATOM     31  O   UNL A   1      42.822  19.086  25.302  1.00  0.00    -0.269 OA
BRANCH  29  32
ATOM     32  C   UNL A   1      41.984  20.999  26.370  1.00  0.00     0.039 A 
ATOM     33  C   UNL A   1      41.799  21.158  27.743  1.00  0.00     0.014 A 
ATOM     34  C   UNL A   1      42.300  22.100  25.568  1.00  0.00     0.014 A 
ATOM     35  C   UNL A   1      41.984  22.414  28.321  1.00  0.00     0.010 A 
ATOM     36  C   UNL A   1      42.568  23.333  26.158  1.00  0.00     0.010 A 
ATOM     37  C   UNL A   1      42.403  23.505  27.540  1.00  0.00    -0.014 A 
BRANCH  37  38
ATOM     38  C   UNL A   1      42.670  24.820  28.176  1.00  0.00     0.031 A 
ATOM     39  C   UNL A   1      44.057  25.189  28.628  1.00  0.00     0.074 A 
ATOM     40  C   UNL A   1      41.652  25.686  28.356  1.00  0.00     0.049 A 
ATOM     41  N   UNL A   1      44.483  26.317  29.139  1.00  0.00    -0.248 NA
ATOM     42  C   UNL A   1      45.096  24.154  28.511  1.00  0.00     0.031 C 
ATOM     43  C   UNL A   1      40.251  25.429  28.011  1.00  0.00     0.029 A 
ATOM     44  N   UNL A   1      41.642  26.964  28.857  1.00  0.00    -0.354 N 
ATOM     45  C   UNL A   1      45.833  26.125  29.406  1.00  0.00     0.074 A 
ATOM     46  C   UNL A   1      46.142  24.755  29.060  1.00  0.00     0.031 C 
ATOM     47  C   UNL A   1      39.528  26.531  28.264  1.00  0.00     0.029 A 
ATOM     48  C   UNL A   1      40.402  27.557  28.822  1.00  0.00     0.049 A 
ATOM     49  H   UNL A   1      42.444  27.412  29.208  1.00  0.00     0.167 HD
ATOM     50  C   UNL A   1      46.742  27.013  29.876  1.00  0.00     0.031 A 
ATOM     51  C   UNL A   1      40.015  28.793  29.188  1.00  0.00     0.031 A 
ATOM     52  C   UNL A   1      46.435  28.376  30.225  1.00  0.00     0.049 A 
ATOM     53  C   UNL A   1      41.041  29.757  29.714  1.00  0.00     0.074 A 
ATOM     54  C   UNL A   1      47.296  29.369  30.659  1.00  0.00     0.029 A 
ATOM     55  N   UNL A   1      45.167  28.934  30.188  1.00  0.00    -0.354 N 
ATOM     56  N   UNL A   1      42.330  29.585  29.878  1.00  0.00    -0.248 NA
ATOM     57  C   UNL A   1      40.557  31.092  30.088  1.00  0.00     0.031 C 
ATOM     58  C   UNL A   1      46.539  30.510  30.945  1.00  0.00     0.029 A 
ATOM     59  C   UNL A   1      45.217  30.250  30.620  1.00  0.00     0.049 A 
ATOM     60  H   UNL A   1      44.351  28.466  29.898  1.00  0.00     0.167 HD
ATOM     61  C   UNL A   1      42.816  30.799  30.348  1.00  0.00     0.074 A 
ATOM     62  C   UNL A   1      41.686  31.703  30.416  1.00  0.00     0.031 C 
ATOM     63  C   UNL A   1      44.083  31.136  30.694  1.00  0.00     0.031 A 
BRANCH  50  64
ATOM     64  C   UNL A   1      48.157  26.532  30.047  1.00  0.00    -0.014 A 
ATOM     65  C   UNL A   1      48.570  25.875  31.218  1.00  0.00     0.009 A 
ATOM     66  C   UNL A   1      49.086  26.707  29.008  1.00  0.00     0.009 A 
ATOM     67  C   UNL A   1      49.888  25.438  31.360  1.00  0.00     0.001 A 
ATOM     68  C   UNL A   1      50.395  26.241  29.140  1.00  0.00     0.001 A 
ATOM     69  C   UNL A   1      50.797  25.616  30.319  1.00  0.00     0.000 A 
ENDBRANCH  50  64
BRANCH  51  70
ATOM     70  C   UNL A   1      38.590  29.200  29.050  1.00  0.00    -0.014 A 
ATOM     71  C   UNL A   1      38.101  29.693  27.831  1.00  0.00     0.009 A 
ATOM     72  C   UNL A   1      37.715  29.109  30.143  1.00  0.00     0.009 A 
ATOM     73  C   UNL A   1      36.775  30.118  27.718  1.00  0.00     0.001 A 
ATOM     74  C   UNL A   1      36.381  29.503  30.019  1.00  0.00     0.001 A 
ATOM     75  C   UNL A   1      35.915  30.018  28.811  1.00  0.00     0.000 A 
ENDBRANCH  51  70
BRANCH  63  76
ATOM     76  C   UNL A   1      44.315  32.553  31.144  1.00  0.00    -0.014 A 
ATOM     77  C   UNL A   1      44.623  33.572  30.227  1.00  0.00     0.009 A 
ATOM     78  C   UNL A   1      44.213  32.875  32.506  1.00  0.00     0.009 A 
ATOM     79  C   UNL A   1      44.876  34.871  30.674  1.00  0.00     0.001 A 
ATOM     80  C   UNL A   1      44.430  34.181  32.945  1.00  0.00     0.001 A 
ATOM     81  C   UNL A   1      44.776  35.174  32.031  1.00  0.00     0.000 A 
ENDBRANCH  63  76
ENDBRANCH  37  38
ENDBRANCH  29  32
ENDBRANCH  27  28
ENDBRANCH  26  27
ENDBRANCH  25  26
ENDBRANCH   1  25
TORSDOF 15
ENDMDL
MODEL 2
REMARK VINA RESULT:     -10.6      2.186      7.264
REMARK SMILES O=C(C[N@@H+]1CCC[C@@H]1C(=O)NCCCCNC(=O)c1ccc(-c2c3nc(c(-c4ccccc4)c4ccc([nH]4)c(-c4ccccc4)c4nc(c(-c5ccccc5)c5ccc2[nH]5)C=C4)C=C3)cc1)NCc1ccc(Cl)cc1
REMARK SMILES IDX 12 1 11 2 9 3 10 4 8 6 4 7 5 8 6 10 7 11 3 12 2 13 1 14
REMARK SMILES IDX 67 15 68 17 69 18 70 19 75 20 71 21 74 22 72 23 73 24 13 25
REMARK SMILES IDX 14 26 15 27 16 28 17 29 18 31 19 32 20 33 66 34 21 35 65 36
REMARK SMILES IDX 22 37 23 38 24 39 59 40 25 41 64 42 58 43 60 44 26 45 63 46
REMARK SMILES IDX 57 47 56 48 27 50 49 51 34 52 48 53 35 54 38 55 47 56 61 57
REMARK SMILES IDX 36 58 37 59 46 61 62 62 39 63 28 64 29 65 33 66 30 67 32 68
REMARK SMILES IDX 31 69 50 70 51 71 55 72 52 73 54 74 53 75 40 76 41 77 45 78
REMARK SMILES IDX 42 79 44 80 43 81
REMARK H PARENT 11 5 4 9 67 16 16 30 60 49 38 60
REMARK Flexibility Score: inf
ROOT
ATOM      1  C   UNL A   1      31.493  26.165  26.089  1.00  0.00     0.116 C 
ENDROOT
BRANCH   1   2
ATOM      2  N   UNL A   1      31.429  24.931  26.841  1.00  0.00    -0.351 N 
ATOM      3  C   UNL A   1      32.261  23.849  26.814  1.00  0.00     0.278 C 
ATOM      4  O   UNL A   1      31.974  22.921  27.577  1.00  0.00    -0.268 OA
ATOM      5  H   UNL A   1      30.672  24.861  27.465  1.00  0.00     0.163 HD
BRANCH   3   6
ATOM      6  C   UNL A   1      33.473  23.747  25.884  1.00  0.00     0.274 C 
ATOM      7  N   UNL A   1      33.340  23.074  24.591  1.00  0.00    -0.317 N 
ATOM      8  C   UNL A   1      34.511  22.249  24.332  1.00  0.00     0.263 C 
ATOM      9  H   UNL A   1      33.171  23.948  24.093  1.00  0.00     0.349 HD
ATOM     10  C   UNL A   1      35.091  21.928  25.696  1.00  0.00     0.068 C 
ATOM     11  C   UNL A   1      34.656  23.076  26.593  1.00  0.00     0.081 C 
BRANCH   7  12
ATOM     12  C   UNL A   1      32.138  22.722  23.853  1.00  0.00     0.364 C 
BRANCH  12  13
ATOM     13  C   UNL A   1      31.443  23.858  23.094  1.00  0.00     0.275 C 
ATOM     14  O   UNL A   1      30.246  24.101  23.201  1.00  0.00    -0.268 OA
ATOM     15  N   UNL A   1      32.303  24.641  22.361  1.00  0.00    -0.347 N 
ATOM     16  H   UNL A   1      33.263  24.425  22.383  1.00  0.00     0.164 HD
BRANCH  15  17
ATOM     17  C   UNL A   1      31.874  25.765  21.562  1.00  0.00     0.151 C 
BRANCH  17  18
ATOM     18  C   UNL A   1      31.660  26.990  22.426  1.00  0.00    -0.029 A 
ATOM     19  C   UNL A   1      32.748  27.690  22.977  1.00  0.00     0.007 A 
ATOM     20  C   UNL A   1      30.361  27.433  22.722  1.00  0.00     0.007 A 
ATOM     21  C   UNL A   1      32.546  28.828  23.760  1.00  0.00     0.021 A 
ATOM     22  C   UNL A   1      30.157  28.562  23.521  1.00  0.00     0.021 A 
ATOM     23  C   UNL A   1      31.250  29.260  24.028  1.00  0.00     0.041 A 
ATOM     24  Cl  UNL A   1      31.003  30.660  24.997  1.00  0.00    -0.084 Cl
ENDBRANCH  17  18
ENDBRANCH  15  17
ENDBRANCH  12  13
ENDBRANCH   7  12
ENDBRANCH   3   6
ENDBRANCH   1   2
BRANCH   1  25
ATOM     25  C   UNL A   1      31.072  27.372  26.911  1.00  0.00     0.023 C 
BRANCH  25  26
ATOM     26  C   UNL A   1      32.138  27.839  27.902  1.00  0.00     0.023 C 
BRANCH  26  27
ATOM     27  C   UNL A   1      33.332  28.559  27.278  1.00  0.00     0.116 C 
BRANCH  27  28
ATOM     28  N   UNL A   1      33.322  29.994  27.505  1.00  0.00    -0.352 N 
ATOM     29  C   UNL A   1      34.308  30.796  28.027  1.00  0.00     0.251 C 
ATOM     30  H   UNL A   1      32.493  30.457  27.246  1.00  0.00     0.163 HD
ATOM     31  O   UNL A   1      34.074  31.971  28.278  1.00  0.00    -0.269 OA
BRANCH  29  32
ATOM     32  C   UNL A   1      35.641  30.226  28.317  1.00  0.00     0.039 A 
ATOM     33  C   UNL A   1      36.613  30.267  27.318  1.00  0.00     0.014 A 
ATOM     34  C   UNL A   1      35.933  29.666  29.564  1.00  0.00     0.014 A 
ATOM     35  C   UNL A   1      37.898  29.794  27.588  1.00  0.00     0.010 A 
ATOM     36  C   UNL A   1      37.237  29.274  29.859  1.00  0.00     0.010 A 
ATOM     37  C   UNL A   1      38.231  29.325  28.871  1.00  0.00    -0.014 A 
BRANCH  37  38
ATOM     38  C   UNL A   1      39.620  28.894  29.171  1.00  0.00     0.031 A 
ATOM     39  C   UNL A   1      40.552  29.785  29.947  1.00  0.00     0.074 A 
ATOM     40  C   UNL A   1      40.048  27.693  28.733  1.00  0.00     0.049 A 
ATOM     41  N   UNL A   1      41.772  29.542  30.356  1.00  0.00    -0.248 NA
ATOM     42  C   UNL A   1      40.061  31.129  30.291  1.00  0.00     0.031 C 
ATOM     43  C   UNL A   1      39.262  26.757  27.925  1.00  0.00     0.029 A 
ATOM     44  N   UNL A   1      41.244  27.046  28.921  1.00  0.00    -0.354 N 
ATOM     45  C   UNL A   1      42.192  30.699  31.000  1.00  0.00     0.074 A 
ATOM     46  C   UNL A   1      41.122  31.665  30.873  1.00  0.00     0.031 C 
ATOM     47  C   UNL A   1      39.977  25.638  27.730  1.00  0.00     0.029 A 
ATOM     48  C   UNL A   1      41.282  25.790  28.364  1.00  0.00     0.049 A 
ATOM     49  H   UNL A   1      42.001  27.443  29.407  1.00  0.00     0.167 HD
ATOM     50  C   UNL A   1      43.353  30.933  31.657  1.00  0.00     0.031 A 
ATOM     51  C   UNL A   1      42.255  24.860  28.371  1.00  0.00     0.031 A 
ATOM     52  C   UNL A   1      44.420  29.974  31.781  1.00  0.00     0.049 A 
ATOM     53  C   UNL A   1      43.537  25.147  29.101  1.00  0.00     0.074 A 
ATOM     54  C   UNL A   1      45.613  30.097  32.471  1.00  0.00     0.029 A 
ATOM     55  N   UNL A   1      44.425  28.719  31.192  1.00  0.00    -0.354 N 
ATOM     56  N   UNL A   1      43.882  26.214  29.779  1.00  0.00    -0.248 NA
ATOM     57  C   UNL A   1      44.555  24.088  29.081  1.00  0.00     0.031 C 
ATOM     58  C   UNL A   1      46.368  28.940  32.248  1.00  0.00     0.029 A 
ATOM     59  C   UNL A   1      45.615  28.068  31.479  1.00  0.00     0.049 A 
ATOM     60  H   UNL A   1      43.694  28.345  30.650  1.00  0.00     0.167 HD
ATOM     61  C   UNL A   1      45.147  25.946  30.288  1.00  0.00     0.074 A 
ATOM     62  C   UNL A   1      45.492  24.605  29.863  1.00  0.00     0.031 C 
ATOM     63  C   UNL A   1      45.951  26.738  31.039  1.00  0.00     0.031 A 
BRANCH  50  64
ATOM     64  C   UNL A   1      43.532  32.287  32.289  1.00  0.00    -0.014 A 
ATOM     65  C   UNL A   1      44.100  33.357  31.578  1.00  0.00     0.009 A 
ATOM     66  C   UNL A   1      43.094  32.508  33.605  1.00  0.00     0.009 A 
ATOM     67  C   UNL A   1      44.261  34.605  32.182  1.00  0.00     0.001 A 
ATOM     68  C   UNL A   1      43.226  33.766  34.195  1.00  0.00     0.001 A 
ATOM     69  C   UNL A   1      43.818  34.811  33.487  1.00  0.00     0.000 A 
ENDBRANCH  50  64
BRANCH  51  70
ATOM     70  C   UNL A   1      42.048  23.556  27.683  1.00  0.00    -0.014 A 
ATOM     71  C   UNL A   1      41.428  22.486  28.346  1.00  0.00     0.009 A 
ATOM     72  C   UNL A   1      42.481  23.374  26.361  1.00  0.00     0.009 A 
ATOM     73  C   UNL A   1      41.278  21.251  27.713  1.00  0.00     0.001 A 
ATOM     74  C   UNL A   1      42.299  22.148  25.717  1.00  0.00     0.001 A 
ATOM     75  C   UNL A   1      41.709  21.085  26.397  1.00  0.00     0.000 A 
ENDBRANCH  51  70
BRANCH  63  76
ATOM     76  C   UNL A   1      47.268  26.156  31.476  1.00  0.00    -0.014 A 
ATOM     77  C   UNL A   1      48.396  26.185  30.639  1.00  0.00     0.009 A 
ATOM     78  C   UNL A   1      47.384  25.578  32.750  1.00  0.00     0.009 A 
ATOM     79  C   UNL A   1      49.596  25.599  31.050  1.00  0.00     0.001 A 
ATOM     80  C   UNL A   1      48.594  25.027  33.172  1.00  0.00     0.001 A 
ATOM     81  C   UNL A   1      49.694  25.024  32.316  1.00  0.00     0.000 A 
ENDBRANCH  63  76
ENDBRANCH  37  38
ENDBRANCH  29  32
ENDBRANCH  27  28
ENDBRANCH  26  27
ENDBRANCH  25  26
ENDBRANCH   1  25
TORSDOF 15
ENDMDL
MODEL 3
REMARK VINA RESULT:     -10.6      2.411      7.495
REMARK SMILES O=C(C[N@@H+]1CCC[C@@H]1C(=O)NCCCCNC(=O)c1ccc(-c2c3nc(c(-c4ccccc4)c4ccc([nH]4)c(-c4ccccc4)c4nc(c(-c5ccccc5)c5ccc2[nH]5)C=C4)C=C3)cc1)NCc1ccc(Cl)cc1
REMARK SMILES IDX 12 1 11 2 9 3 10 4 8 6 4 7 5 8 6 10 7 11 3 12 2 13 1 14
REMARK SMILES IDX 67 15 68 17 69 18 70 19 75 20 71 21 74 22 72 23 73 24 13 25
REMARK SMILES IDX 14 26 15 27 16 28 17 29 18 31 19 32 20 33 66 34 21 35 65 36
REMARK SMILES IDX 22 37 23 38 24 39 59 40 25 41 64 42 58 43 60 44 26 45 63 46
REMARK SMILES IDX 57 47 56 48 27 50 49 51 34 52 48 53 35 54 38 55 47 56 61 57
REMARK SMILES IDX 36 58 37 59 46 61 62 62 39 63 28 64 29 65 33 66 30 67 32 68
REMARK SMILES IDX 31 69 50 70 51 71 55 72 52 73 54 74 53 75 40 76 41 77 45 78
REMARK SMILES IDX 42 79 44 80 43 81
REMARK H PARENT 11 5 4 9 67 16 16 30 60 49 38 60
REMARK Flexibility Score: inf
ROOT
ATOM      1  C   UNL A   1      32.764  26.620  26.193  1.00  0.00     0.116 C 
ENDROOT
BRANCH   1   2
ATOM      2  N   UNL A   1      31.798  25.650  26.655  1.00  0.00    -0.351 N 
ATOM      3  C   UNL A   1      31.921  24.298  26.805  1.00  0.00     0.278 C 
ATOM      4  O   UNL A   1      30.927  23.704  27.234  1.00  0.00    -0.268 OA
ATOM      5  H   UNL A   1      30.918  26.018  26.897  1.00  0.00     0.163 HD
BRANCH   3   6
ATOM      6  C   UNL A   1      33.195  23.528  26.448  1.00  0.00     0.274 C 
ATOM      7  N   UNL A   1      33.289  22.839  25.160  1.00  0.00    -0.317 N 
ATOM      8  C   UNL A   1      33.921  21.539  25.332  1.00  0.00     0.263 C 
ATOM      9  H   UNL A   1      33.770  23.622  24.716  1.00  0.00     0.349 HD
ATOM     10  C   UNL A   1      33.679  21.158  26.779  1.00  0.00     0.068 C 
ATOM     11  C   UNL A   1      33.523  22.478  27.516  1.00  0.00     0.081 C 
BRANCH   7  12
ATOM     12  C   UNL A   1      32.473  22.999  23.967  1.00  0.00     0.364 C 
BRANCH  12  13
ATOM     13  C   UNL A   1      32.848  24.154  23.031  1.00  0.00     0.275 C 
ATOM     14  O   UNL A   1      33.701  24.056  22.155  1.00  0.00    -0.268 OA
ATOM     15  N   UNL A   1      32.071  25.275  23.196  1.00  0.00    -0.347 N 
ATOM     16  H   UNL A   1      31.356  25.251  23.873  1.00  0.00     0.164 HD
BRANCH  15  17
ATOM     17  C   UNL A   1      32.245  26.487  22.430  1.00  0.00     0.151 C 
BRANCH  17  18
ATOM     18  C   UNL A   1      31.073  27.425  22.634  1.00  0.00    -0.029 A 
ATOM     19  C   UNL A   1      31.163  28.785  22.287  1.00  0.00     0.007 A 
ATOM     20  C   UNL A   1      29.880  26.958  23.206  1.00  0.00     0.007 A 
ATOM     21  C   UNL A   1      30.075  29.643  22.462  1.00  0.00     0.021 A 
ATOM     22  C   UNL A   1      28.796  27.821  23.399  1.00  0.00     0.021 A 
ATOM     23  C   UNL A   1      28.895  29.156  23.017  1.00  0.00     0.041 A 
ATOM     24  Cl  UNL A   1      27.558  30.216  23.236  1.00  0.00    -0.084 Cl
ENDBRANCH  17  18
ENDBRANCH  15  17
ENDBRANCH  12  13
ENDBRANCH   7  12
ENDBRANCH   3   6
ENDBRANCH   1   2
BRANCH   1  25
ATOM     25  C   UNL A   1      32.193  28.026  26.124  1.00  0.00     0.023 C 
BRANCH  25  26
ATOM     26  C   UNL A   1      33.261  29.120  26.116  1.00  0.00     0.023 C 
BRANCH  26  27
ATOM     27  C   UNL A   1      34.309  29.012  27.222  1.00  0.00     0.116 C 
BRANCH  27  28
ATOM     28  N   UNL A   1      34.302  30.142  28.134  1.00  0.00    -0.352 N 
ATOM     29  C   UNL A   1      35.303  30.598  28.958  1.00  0.00     0.251 C 
ATOM     30  H   UNL A   1      33.462  30.655  28.166  1.00  0.00     0.163 HD
ATOM     31  O   UNL A   1      35.075  31.486  29.768  1.00  0.00    -0.269 OA
BRANCH  29  32
ATOM     32  C   UNL A   1      36.648  29.988  28.885  1.00  0.00     0.039 A 
ATOM     33  C   UNL A   1      37.361  30.091  27.690  1.00  0.00     0.014 A 
ATOM     34  C   UNL A   1      37.206  29.331  29.985  1.00  0.00     0.014 A 
ATOM     35  C   UNL A   1      38.657  29.580  27.616  1.00  0.00     0.010 A 
ATOM     36  C   UNL A   1      38.530  28.899  29.936  1.00  0.00     0.010 A 
ATOM     37  C   UNL A   1      39.265  29.010  28.747  1.00  0.00    -0.014 A 
BRANCH  37  38
ATOM     38  C   UNL A   1      40.672  28.537  28.680  1.00  0.00     0.031 A 
ATOM     39  C   UNL A   1      40.987  27.106  28.340  1.00  0.00     0.074 A 
ATOM     40  C   UNL A   1      41.673  29.403  28.937  1.00  0.00     0.049 A 
ATOM     41  N   UNL A   1      42.155  26.539  28.172  1.00  0.00    -0.248 NA
ATOM     42  C   UNL A   1      39.847  26.188  28.189  1.00  0.00     0.031 C 
ATOM     43  C   UNL A   1      41.501  30.804  29.331  1.00  0.00     0.029 A 
ATOM     44  N   UNL A   1      43.034  29.237  28.888  1.00  0.00    -0.354 N 
ATOM     45  C   UNL A   1      41.890  25.202  27.899  1.00  0.00     0.074 A 
ATOM     46  C   UNL A   1      40.456  25.029  27.986  1.00  0.00     0.031 C 
ATOM     47  C   UNL A   1      42.708  31.381  29.438  1.00  0.00     0.029 A 
ATOM     48  C   UNL A   1      43.737  30.387  29.159  1.00  0.00     0.049 A 
ATOM     49  H   UNL A   1      43.466  28.378  28.679  1.00  0.00     0.167 HD
ATOM     50  C   UNL A   1      42.757  24.211  27.583  1.00  0.00     0.031 A 
ATOM     51  C   UNL A   1      45.064  30.617  29.171  1.00  0.00     0.031 A 
ATOM     52  C   UNL A   1      44.184  24.380  27.500  1.00  0.00     0.049 A 
ATOM     53  C   UNL A   1      46.005  29.498  28.824  1.00  0.00     0.074 A 
ATOM     54  C   UNL A   1      45.143  23.450  27.135  1.00  0.00     0.029 A 
ATOM     55  N   UNL A   1      44.858  25.555  27.794  1.00  0.00    -0.354 N 
ATOM     56  N   UNL A   1      45.732  28.262  28.484  1.00  0.00    -0.248 NA
ATOM     57  C   UNL A   1      47.439  29.815  28.846  1.00  0.00     0.031 C 
ATOM     58  C   UNL A   1      46.402  24.045  27.270  1.00  0.00     0.029 A 
ATOM     59  C   UNL A   1      46.223  25.366  27.648  1.00  0.00     0.049 A 
ATOM     60  H   UNL A   1      44.431  26.399  28.066  1.00  0.00     0.167 HD
ATOM     61  C   UNL A   1      46.958  27.661  28.225  1.00  0.00     0.074 A 
ATOM     62  C   UNL A   1      47.970  28.678  28.421  1.00  0.00     0.031 C 
ATOM     63  C   UNL A   1      47.222  26.383  27.858  1.00  0.00     0.031 A 
BRANCH  50  64
ATOM     64  C   UNL A   1      42.182  22.847  27.309  1.00  0.00    -0.014 A 
ATOM     65  C   UNL A   1      41.882  21.957  28.354  1.00  0.00     0.009 A 
ATOM     66  C   UNL A   1      41.902  22.457  25.990  1.00  0.00     0.009 A 
ATOM     67  C   UNL A   1      41.352  20.695  28.082  1.00  0.00     0.001 A 
ATOM     68  C   UNL A   1      41.341  21.207  25.722  1.00  0.00     0.001 A 
ATOM     69  C   UNL A   1      41.075  20.324  26.767  1.00  0.00     0.000 A 
ENDBRANCH  50  64
BRANCH  51  70
ATOM     70  C   UNL A   1      45.583  31.972  29.502  1.00  0.00    -0.014 A 
ATOM     71  C   UNL A   1      45.874  32.323  30.830  1.00  0.00     0.009 A 
ATOM     72  C   UNL A   1      45.780  32.925  28.492  1.00  0.00     0.009 A 
ATOM     73  C   UNL A   1      46.317  33.610  31.142  1.00  0.00     0.001 A 
ATOM     74  C   UNL A   1      46.256  34.201  28.802  1.00  0.00     0.001 A 
ATOM     75  C   UNL A   1      46.513  34.546  30.127  1.00  0.00     0.000 A 
ENDBRANCH  51  70
BRANCH  63  76
ATOM     76  C   UNL A   1      48.663  26.027  27.614  1.00  0.00    -0.014 A 
ATOM     77  C   UNL A   1      49.471  25.496  28.633  1.00  0.00     0.009 A 
ATOM     78  C   UNL A   1      49.218  26.217  26.338  1.00  0.00     0.009 A 
ATOM     79  C   UNL A   1      50.818  25.214  28.392  1.00  0.00     0.001 A 
ATOM     80  C   UNL A   1      50.554  25.900  26.091  1.00  0.00     0.001 A 
ATOM     81  C   UNL A   1      51.357  25.413  27.122  1.00  0.00     0.000 A 
ENDBRANCH  63  76
ENDBRANCH  37  38
ENDBRANCH  29  32
ENDBRANCH  27  28
ENDBRANCH  26  27
ENDBRANCH  25  26
ENDBRANCH   1  25
TORSDOF 15
ENDMDL
