MODEL 1
REMARK VINA RESULT:     -10.6      0.000      0.000
REMARK SMILES CCCCCCNC(=O)Oc1cccc(-c2ccc([C@@H](C)C(=O)NCCCCNC(=O)c3ccc(-c4c5nc(c(-c6ccccc6)c6ccc([nH]6)c(-c6ccccc6)c6nc(c(-c7ccccc7)c7ccc4[nH]7)C=C6)C=C5)cc3)cc2N)c1
REMARK SMILES IDX 20 1 21 2 19 3 16 4 17 5 81 6 18 7 80 8 15 9 11 10 12 11
REMARK SMILES IDX 83 12 13 13 14 14 10 15 8 16 7 17 9 19 6 20 5 21 4 22 3 23
REMARK SMILES IDX 2 24 1 25 82 26 22 29 23 30 24 31 25 33 26 34 27 35 28 36
REMARK SMILES IDX 29 37 30 38 31 40 32 41 33 42 79 43 34 44 78 45 35 46 36 47
REMARK SMILES IDX 37 48 72 49 38 50 77 51 71 52 73 53 39 54 76 55 70 56 69 57
REMARK SMILES IDX 40 59 62 60 47 61 61 62 48 63 51 64 60 65 74 66 49 67 50 68
REMARK SMILES IDX 59 70 75 71 52 72 41 73 42 74 46 75 43 76 45 77 44 78 63 79
REMARK SMILES IDX 64 80 68 81 65 82 67 83 66 84 53 85 54 86 58 87 55 88 57 89
REMARK SMILES IDX 56 90
REMARK H PARENT 7 18 82 27 82 28 24 32 29 39 73 58 51 69
REMARK Flexibility Score: inf
ROOT
ATOM      1  C   UNL A   1      29.649  27.472  22.953  1.00  0.00     0.105 C 
ATOM      2  C   UNL A   1      28.359  27.601  23.764  1.00  0.00     0.023 C 
ENDROOT
BRANCH   1   3
ATOM      3  C   UNL A   1      30.540  26.297  23.322  1.00  0.00    -0.034 A 
ATOM      4  C   UNL A   1      32.033  23.961  24.032  1.00  0.00     0.005 A 
ATOM      5  C   UNL A   1      32.156  24.576  22.772  1.00  0.00     0.011 A 
ATOM      6  C   UNL A   1      31.219  24.613  24.988  1.00  0.00     0.040 A 
ATOM      7  C   UNL A   1      31.476  25.753  22.447  1.00  0.00     0.005 A 
ATOM      8  C   UNL A   1      30.426  25.709  24.592  1.00  0.00     0.030 A 
BRANCH   4   9
ATOM      9  C   UNL A   1      32.774  22.694  24.285  1.00  0.00    -0.013 A 
ATOM     10  C   UNL A   1      34.807  21.471  24.836  1.00  0.00     0.133 A 
ATOM     11  C   UNL A   1      34.143  20.251  24.737  1.00  0.00     0.047 A 
ATOM     12  C   UNL A   1      34.136  22.681  24.639  1.00  0.00     0.056 A 
ATOM     13  C   UNL A   1      32.790  20.241  24.431  1.00  0.00     0.004 A 
ATOM     14  C   UNL A   1      32.122  21.446  24.190  1.00  0.00     0.009 A 
BRANCH  10  15
ATOM     15  O   UNL A   1      36.206  21.404  24.960  1.00  0.00    -0.410 OA
BRANCH  15  16
ATOM     16  C   UNL A   1      37.014  22.424  24.486  1.00  0.00     0.412 C 
ATOM     17  N   UNL A   1      38.265  22.407  25.045  1.00  0.00    -0.321 N 
ATOM     18  H   UNL A   1      38.880  23.125  24.774  1.00  0.00     0.167 HD
ATOM     19  O   UNL A   1      36.691  23.280  23.673  1.00  0.00    -0.224 OA
BRANCH  17  20
ATOM     20  C   UNL A   1      38.772  21.435  25.994  1.00  0.00     0.119 C 
BRANCH  20  21
ATOM     21  C   UNL A   1      40.295  21.496  26.120  1.00  0.00     0.021 C 
BRANCH  21  22
ATOM     22  C   UNL A   1      40.821  21.559  27.558  1.00  0.00     0.002 C 
BRANCH  22  23
ATOM     23  C   UNL A   1      42.221  22.162  27.723  1.00  0.00    -0.000 C 
BRANCH  23  24
ATOM     24  C   UNL A   1      42.448  22.953  29.014  1.00  0.00    -0.003 C 
ATOM     25  C   UNL A   1      43.537  24.006  28.891  1.00  0.00     0.004 C 
ENDBRANCH  23  24
ENDBRANCH  22  23
ENDBRANCH  21  22
ENDBRANCH  20  21
ENDBRANCH  17  20
ENDBRANCH  15  16
ENDBRANCH  10  15
ENDBRANCH   4   9
BRANCH   6  26
ATOM     26  N   UNL A   1      31.079  24.155  26.301  1.00  0.00    -0.398 N 
ATOM     27  H   UNL A   1      31.597  24.575  27.026  1.00  0.00     0.156 HD
ATOM     28  H   UNL A   1      30.463  23.414  26.501  1.00  0.00     0.156 HD
ENDBRANCH   6  26
ENDBRANCH   1   3
BRANCH   1  29
ATOM     29  C   UNL A   1      30.401  28.800  22.762  1.00  0.00     0.227 C 
ATOM     30  O   UNL A   1      30.479  29.307  21.636  1.00  0.00    -0.274 OA
ATOM     31  N   UNL A   1      30.985  29.498  23.775  1.00  0.00    -0.356 N 
ATOM     32  H   UNL A   1      31.354  30.370  23.504  1.00  0.00     0.163 HD
BRANCH  31  33
ATOM     33  C   UNL A   1      31.158  29.190  25.178  1.00  0.00     0.116 C 
BRANCH  33  34
ATOM     34  C   UNL A   1      32.258  30.037  25.819  1.00  0.00     0.023 C 
BRANCH  34  35
ATOM     35  C   UNL A   1      31.771  31.286  26.547  1.00  0.00     0.023 C 
BRANCH  35  36
ATOM     36  C   UNL A   1      32.859  32.097  27.237  1.00  0.00     0.116 C 
BRANCH  36  37
ATOM     37  N   UNL A   1      32.474  33.463  27.564  1.00  0.00    -0.352 N 
ATOM     38  C   UNL A   1      33.116  34.344  28.406  1.00  0.00     0.251 C 
ATOM     39  H   UNL A   1      31.655  33.797  27.132  1.00  0.00     0.163 HD
ATOM     40  O   UNL A   1      32.640  35.449  28.644  1.00  0.00    -0.269 OA
BRANCH  38  41
ATOM     41  C   UNL A   1      34.366  33.913  29.061  1.00  0.00     0.039 A 
ATOM     42  C   UNL A   1      34.291  33.121  30.208  1.00  0.00     0.014 A 
ATOM     43  C   UNL A   1      35.603  34.218  28.487  1.00  0.00     0.014 A 
ATOM     44  C   UNL A   1      35.457  32.565  30.735  1.00  0.00     0.010 A 
ATOM     45  C   UNL A   1      36.750  33.595  28.962  1.00  0.00     0.010 A 
ATOM     46  C   UNL A   1      36.688  32.760  30.089  1.00  0.00    -0.014 A 
BRANCH  46  47
ATOM     47  C   UNL A   1      37.928  32.104  30.571  1.00  0.00     0.031 A 
ATOM     48  C   UNL A   1      38.698  32.703  31.714  1.00  0.00     0.074 A 
ATOM     49  C   UNL A   1      38.401  31.015  29.934  1.00  0.00     0.049 A 
ATOM     50  N   UNL A   1      39.831  32.316  32.239  1.00  0.00    -0.248 NA
ATOM     51  C   UNL A   1      38.131  33.914  32.329  1.00  0.00     0.031 C 
ATOM     52  C   UNL A   1      37.772  30.362  28.784  1.00  0.00     0.029 A 
ATOM     53  N   UNL A   1      39.527  30.267  30.167  1.00  0.00    -0.354 N 
ATOM     54  C   UNL A   1      40.123  33.245  33.229  1.00  0.00     0.074 A 
ATOM     55  C   UNL A   1      39.079  34.246  33.191  1.00  0.00     0.031 C 
ATOM     56  C   UNL A   1      38.498  29.287  28.439  1.00  0.00     0.029 A 
ATOM     57  C   UNL A   1      39.663  29.199  29.314  1.00  0.00     0.049 A 
ATOM     58  H   UNL A   1      40.175  30.475  30.877  1.00  0.00     0.167 HD
ATOM     59  C   UNL A   1      41.152  33.255  34.109  1.00  0.00     0.031 A 
ATOM     60  C   UNL A   1      40.617  28.251  29.250  1.00  0.00     0.031 A 
ATOM     61  C   UNL A   1      42.184  32.256  34.155  1.00  0.00     0.049 A 
ATOM     62  C   UNL A   1      41.758  28.291  30.225  1.00  0.00     0.074 A 
ATOM     63  C   UNL A   1      43.241  32.145  35.041  1.00  0.00     0.029 A 
ATOM     64  N   UNL A   1      42.288  31.192  33.272  1.00  0.00    -0.354 N 
ATOM     65  N   UNL A   1      41.988  29.141  31.196  1.00  0.00    -0.248 NA
ATOM     66  C   UNL A   1      42.769  27.232  30.099  1.00  0.00     0.031 C 
ATOM     67  C   UNL A   1      44.008  31.037  34.667  1.00  0.00     0.029 A 
ATOM     68  C   UNL A   1      43.401  30.430  33.579  1.00  0.00     0.049 A 
ATOM     69  H   UNL A   1      41.662  31.007  32.534  1.00  0.00     0.167 HD
ATOM     70  C   UNL A   1      43.152  28.705  31.814  1.00  0.00     0.074 A 
ATOM     71  C   UNL A   1      43.575  27.509  31.116  1.00  0.00     0.031 C 
ATOM     72  C   UNL A   1      43.809  29.245  32.871  1.00  0.00     0.031 A 
BRANCH  59  73
ATOM     73  C   UNL A   1      41.201  34.396  35.087  1.00  0.00    -0.014 A 
ATOM     74  C   UNL A   1      40.601  34.294  36.354  1.00  0.00     0.009 A 
ATOM     75  C   UNL A   1      41.847  35.592  34.737  1.00  0.00     0.009 A 
ATOM     76  C   UNL A   1      40.603  35.381  37.228  1.00  0.00     0.001 A 
ATOM     77  C   UNL A   1      41.874  36.667  35.627  1.00  0.00     0.001 A 
ATOM     78  C   UNL A   1      41.242  36.566  36.865  1.00  0.00     0.000 A 
ENDBRANCH  59  73
BRANCH  60  79
ATOM     79  C   UNL A   1      40.510  27.158  28.250  1.00  0.00    -0.014 A 
ATOM     80  C   UNL A   1      41.162  27.271  27.012  1.00  0.00     0.009 A 
ATOM     81  C   UNL A   1      39.768  25.999  28.524  1.00  0.00     0.009 A 
ATOM     82  C   UNL A   1      41.057  26.253  26.060  1.00  0.00     0.001 A 
ATOM     83  C   UNL A   1      39.685  24.973  27.580  1.00  0.00     0.001 A 
ATOM     84  C   UNL A   1      40.323  25.104  26.347  1.00  0.00     0.000 A 
ENDBRANCH  60  79
BRANCH  72  85
ATOM     85  C   UNL A   1      45.035  28.524  33.353  1.00  0.00    -0.014 A 
ATOM     86  C   UNL A   1      44.956  27.538  34.349  1.00  0.00     0.009 A 
ATOM     87  C   UNL A   1      46.280  28.812  32.773  1.00  0.00     0.009 A 
ATOM     88  C   UNL A   1      46.109  26.875  34.774  1.00  0.00     0.001 A 
ATOM     89  C   UNL A   1      47.426  28.128  33.182  1.00  0.00     0.001 A 
ATOM     90  C   UNL A   1      47.341  27.167  34.188  1.00  0.00     0.000 A 
ENDBRANCH  72  85
ENDBRANCH  46  47
ENDBRANCH  38  41
ENDBRANCH  36  37
ENDBRANCH  35  36
ENDBRANCH  34  35
ENDBRANCH  33  34
ENDBRANCH  31  33
ENDBRANCH   1  29
TORSDOF 21
ENDMDL
MODEL 2
REMARK VINA RESULT:     -10.4      1.203      5.777
REMARK SMILES CCCCCCNC(=O)Oc1cccc(-c2ccc([C@@H](C)C(=O)NCCCCNC(=O)c3ccc(-c4c5nc(c(-c6ccccc6)c6ccc([nH]6)c(-c6ccccc6)c6nc(c(-c7ccccc7)c7ccc4[nH]7)C=C6)C=C5)cc3)cc2N)c1
REMARK SMILES IDX 20 1 21 2 19 3 16 4 17 5 81 6 18 7 80 8 15 9 11 10 12 11
REMARK SMILES IDX 83 12 13 13 14 14 10 15 8 16 7 17 9 19 6 20 5 21 4 22 3 23
REMARK SMILES IDX 2 24 1 25 82 26 22 29 23 30 24 31 25 33 26 34 27 35 28 36
REMARK SMILES IDX 29 37 30 38 31 40 32 41 33 42 79 43 34 44 78 45 35 46 36 47
REMARK SMILES IDX 37 48 72 49 38 50 77 51 71 52 73 53 39 54 76 55 70 56 69 57
REMARK SMILES IDX 40 59 62 60 47 61 61 62 48 63 51 64 60 65 74 66 49 67 50 68
REMARK SMILES IDX 59 70 75 71 52 72 41 73 42 74 46 75 43 76 45 77 44 78 63 79
REMARK SMILES IDX 64 80 68 81 65 82 67 83 66 84 53 85 54 86 58 87 55 88 57 89
REMARK SMILES IDX 56 90
REMARK H PARENT 7 18 82 27 82 28 24 32 29 39 73 58 51 69
REMARK Flexibility Score: inf
ROOT
ATOM      1  C   UNL A   1      29.462  27.794  22.999  1.00  0.00     0.105 C 
ATOM      2  C   UNL A   1      28.025  28.008  23.475  1.00  0.00     0.023 C 
ENDROOT
BRANCH   1   3
ATOM      3  C   UNL A   1      30.242  26.716  23.735  1.00  0.00    -0.034 A 
ATOM      4  C   UNL A   1      31.882  24.835  25.137  1.00  0.00     0.005 A 
ATOM      5  C   UNL A   1      30.691  25.349  25.685  1.00  0.00     0.011 A 
ATOM      6  C   UNL A   1      32.184  25.200  23.804  1.00  0.00     0.040 A 
ATOM      7  C   UNL A   1      29.858  26.218  24.977  1.00  0.00     0.005 A 
ATOM      8  C   UNL A   1      31.414  26.194  23.166  1.00  0.00     0.030 A 
BRANCH   4   9
ATOM      9  C   UNL A   1      32.724  23.934  25.972  1.00  0.00    -0.013 A 
ATOM     10  C   UNL A   1      34.878  23.002  26.620  1.00  0.00     0.133 A 
ATOM     11  C   UNL A   1      34.279  22.188  27.578  1.00  0.00     0.047 A 
ATOM     12  C   UNL A   1      34.124  23.884  25.841  1.00  0.00     0.056 A 
ATOM     13  C   UNL A   1      32.904  22.252  27.755  1.00  0.00     0.004 A 
ATOM     14  C   UNL A   1      32.138  23.101  26.949  1.00  0.00     0.009 A 
BRANCH  10  15
ATOM     15  O   UNL A   1      36.238  22.752  26.361  1.00  0.00    -0.410 OA
BRANCH  15  16
ATOM     16  C   UNL A   1      36.627  21.990  25.272  1.00  0.00     0.412 C 
ATOM     17  N   UNL A   1      37.989  21.866  25.178  1.00  0.00    -0.321 N 
ATOM     18  H   UNL A   1      38.335  21.362  24.407  1.00  0.00     0.167 HD
ATOM     19  O   UNL A   1      35.882  21.477  24.447  1.00  0.00    -0.224 OA
BRANCH  17  20
ATOM     20  C   UNL A   1      38.970  22.403  26.101  1.00  0.00     0.119 C 
BRANCH  20  21
ATOM     21  C   UNL A   1      40.010  21.357  26.506  1.00  0.00     0.021 C 
BRANCH  21  22
ATOM     22  C   UNL A   1      40.925  21.773  27.663  1.00  0.00     0.002 C 
BRANCH  22  23
ATOM     23  C   UNL A   1      42.128  22.641  27.274  1.00  0.00    -0.000 C 
BRANCH  23  24
ATOM     24  C   UNL A   1      42.567  22.538  25.811  1.00  0.00    -0.003 C 
ATOM     25  C   UNL A   1      43.078  23.852  25.244  1.00  0.00     0.004 C 
ENDBRANCH  23  24
ENDBRANCH  22  23
ENDBRANCH  21  22
ENDBRANCH  20  21
ENDBRANCH  17  20
ENDBRANCH  15  16
ENDBRANCH  10  15
ENDBRANCH   4   9
BRANCH   6  26
ATOM     26  N   UNL A   1      33.288  24.694  23.113  1.00  0.00    -0.398 N 
ATOM     27  H   UNL A   1      33.412  24.908  22.160  1.00  0.00     0.156 HD
ATOM     28  H   UNL A   1      33.941  24.123  23.579  1.00  0.00     0.156 HD
ENDBRANCH   6  26
ENDBRANCH   1   3
BRANCH   1  29
ATOM     29  C   UNL A   1      30.245  29.097  22.772  1.00  0.00     0.227 C 
ATOM     30  O   UNL A   1      30.266  29.616  21.649  1.00  0.00    -0.274 OA
ATOM     31  N   UNL A   1      30.917  29.763  23.752  1.00  0.00    -0.356 N 
ATOM     32  H   UNL A   1      31.298  30.625  23.466  1.00  0.00     0.163 HD
BRANCH  31  33
ATOM     33  C   UNL A   1      31.171  29.432  25.137  1.00  0.00     0.116 C 
BRANCH  33  34
ATOM     34  C   UNL A   1      32.326  30.248  25.719  1.00  0.00     0.023 C 
BRANCH  34  35
ATOM     35  C   UNL A   1      31.942  31.191  26.856  1.00  0.00     0.023 C 
BRANCH  35  36
ATOM     36  C   UNL A   1      33.021  32.185  27.262  1.00  0.00     0.116 C 
BRANCH  36  37
ATOM     37  N   UNL A   1      32.528  33.528  27.539  1.00  0.00    -0.352 N 
ATOM     38  C   UNL A   1      33.056  34.461  28.401  1.00  0.00     0.251 C 
ATOM     39  H   UNL A   1      31.718  33.799  27.049  1.00  0.00     0.163 HD
ATOM     40  O   UNL A   1      32.495  35.536  28.588  1.00  0.00    -0.269 OA
BRANCH  38  41
ATOM     41  C   UNL A   1      34.287  34.125  29.141  1.00  0.00     0.039 A 
ATOM     42  C   UNL A   1      34.180  33.483  30.377  1.00  0.00     0.014 A 
ATOM     43  C   UNL A   1      35.540  34.363  28.570  1.00  0.00     0.014 A 
ATOM     44  C   UNL A   1      35.332  33.006  31.003  1.00  0.00     0.010 A 
ATOM     45  C   UNL A   1      36.674  33.812  29.153  1.00  0.00     0.010 A 
ATOM     46  C   UNL A   1      36.581  33.126  30.373  1.00  0.00    -0.014 A 
BRANCH  46  47
ATOM     47  C   UNL A   1      37.808  32.544  30.970  1.00  0.00     0.031 A 
ATOM     48  C   UNL A   1      38.446  31.336  30.344  1.00  0.00     0.074 A 
ATOM     49  C   UNL A   1      38.304  33.054  32.114  1.00  0.00     0.049 A 
ATOM     50  N   UNL A   1      39.482  30.646  30.748  1.00  0.00    -0.248 NA
ATOM     51  C   UNL A   1      37.819  30.819  29.117  1.00  0.00     0.031 C 
ATOM     52  C   UNL A   1      37.751  34.197  32.845  1.00  0.00     0.029 A 
ATOM     53  N   UNL A   1      39.387  32.672  32.864  1.00  0.00    -0.354 N 
ATOM     54  C   UNL A   1      39.616  29.605  29.839  1.00  0.00     0.074 A 
ATOM     55  C   UNL A   1      38.523  29.720  28.899  1.00  0.00     0.031 C 
ATOM     56  C   UNL A   1      38.524  34.448  33.915  1.00  0.00     0.029 A 
ATOM     57  C   UNL A   1      39.599  33.462  33.967  1.00  0.00     0.049 A 
ATOM     58  H   UNL A   1      39.958  31.904  32.633  1.00  0.00     0.167 HD
ATOM     59  C   UNL A   1      40.576  28.652  29.775  1.00  0.00     0.031 A 
ATOM     60  C   UNL A   1      40.555  33.400  34.912  1.00  0.00     0.031 A 
ATOM     61  C   UNL A   1      41.668  28.543  30.702  1.00  0.00     0.049 A 
ATOM     62  C   UNL A   1      41.601  32.325  34.830  1.00  0.00     0.074 A 
ATOM     63  C   UNL A   1      42.722  27.647  30.695  1.00  0.00     0.029 A 
ATOM     64  N   UNL A   1      41.845  29.361  31.808  1.00  0.00    -0.354 N 
ATOM     65  N   UNL A   1      41.751  31.384  33.930  1.00  0.00    -0.248 NA
ATOM     66  C   UNL A   1      42.614  32.309  35.895  1.00  0.00     0.031 C 
ATOM     67  C   UNL A   1      43.514  27.896  31.820  1.00  0.00     0.029 A 
ATOM     68  C   UNL A   1      42.980  28.979  32.501  1.00  0.00     0.049 A 
ATOM     69  H   UNL A   1      41.250  30.103  32.063  1.00  0.00     0.167 HD
ATOM     70  C   UNL A   1      42.890  30.683  34.301  1.00  0.00     0.074 A 
ATOM     71  C   UNL A   1      43.398  31.314  35.502  1.00  0.00     0.031 C 
ATOM     72  C   UNL A   1      43.468  29.615  33.697  1.00  0.00     0.031 A 
BRANCH  59  73
ATOM     73  C   UNL A   1      40.469  27.652  28.657  1.00  0.00    -0.014 A 
ATOM     74  C   UNL A   1      41.075  27.887  27.411  1.00  0.00     0.009 A 
ATOM     75  C   UNL A   1      39.747  26.463  28.847  1.00  0.00     0.009 A 
ATOM     76  C   UNL A   1      40.917  26.978  26.364  1.00  0.00     0.001 A 
ATOM     77  C   UNL A   1      39.618  25.541  27.808  1.00  0.00     0.001 A 
ATOM     78  C   UNL A   1      40.191  25.804  26.564  1.00  0.00     0.000 A 
ENDBRANCH  59  73
BRANCH  60  79
ATOM     79  C   UNL A   1      40.595  34.416  35.995  1.00  0.00    -0.014 A 
ATOM     80  C   UNL A   1      41.299  35.615  35.809  1.00  0.00     0.009 A 
ATOM     81  C   UNL A   1      39.928  34.201  37.211  1.00  0.00     0.009 A 
ATOM     82  C   UNL A   1      41.352  36.572  36.826  1.00  0.00     0.001 A 
ATOM     83  C   UNL A   1      39.963  35.169  38.217  1.00  0.00     0.001 A 
ATOM     84  C   UNL A   1      40.680  36.350  38.027  1.00  0.00     0.000 A 
ENDBRANCH  60  79
BRANCH  72  85
ATOM     85  C   UNL A   1      44.732  29.084  34.310  1.00  0.00    -0.014 A 
ATOM     86  C   UNL A   1      44.709  28.005  35.208  1.00  0.00     0.009 A 
ATOM     87  C   UNL A   1      45.966  29.649  33.952  1.00  0.00     0.009 A 
ATOM     88  C   UNL A   1      45.899  27.522  35.757  1.00  0.00     0.001 A 
ATOM     89  C   UNL A   1      47.154  29.147  34.483  1.00  0.00     0.001 A 
ATOM     90  C   UNL A   1      47.119  28.090  35.391  1.00  0.00     0.000 A 
ENDBRANCH  72  85
ENDBRANCH  46  47
ENDBRANCH  38  41
ENDBRANCH  36  37
ENDBRANCH  35  36
ENDBRANCH  34  35
ENDBRANCH  33  34
ENDBRANCH  31  33
ENDBRANCH   1  29
TORSDOF 21
ENDMDL
MODEL 3
REMARK VINA RESULT:     -10.4      1.696      6.577
REMARK SMILES CCCCCCNC(=O)Oc1cccc(-c2ccc([C@@H](C)C(=O)NCCCCNC(=O)c3ccc(-c4c5nc(c(-c6ccccc6)c6ccc([nH]6)c(-c6ccccc6)c6nc(c(-c7ccccc7)c7ccc4[nH]7)C=C6)C=C5)cc3)cc2N)c1
REMARK SMILES IDX 20 1 21 2 19 3 16 4 17 5 81 6 18 7 80 8 15 9 11 10 12 11
REMARK SMILES IDX 83 12 13 13 14 14 10 15 8 16 7 17 9 19 6 20 5 21 4 22 3 23
REMARK SMILES IDX 2 24 1 25 82 26 22 29 23 30 24 31 25 33 26 34 27 35 28 36
REMARK SMILES IDX 29 37 30 38 31 40 32 41 33 42 79 43 34 44 78 45 35 46 36 47
REMARK SMILES IDX 37 48 72 49 38 50 77 51 71 52 73 53 39 54 76 55 70 56 69 57
REMARK SMILES IDX 40 59 62 60 47 61 61 62 48 63 51 64 60 65 74 66 49 67 50 68
REMARK SMILES IDX 59 70 75 71 52 72 41 73 42 74 46 75 43 76 45 77 44 78 63 79
REMARK SMILES IDX 64 80 68 81 65 82 67 83 66 84 53 85 54 86 58 87 55 88 57 89
REMARK SMILES IDX 56 90
REMARK H PARENT 7 18 82 27 82 28 24 32 29 39 73 58 51 69
REMARK Flexibility Score: inf
ROOT
ATOM      1  C   UNL A   1      28.530  29.338  22.487  1.00  0.00     0.105 C 
ATOM      2  C   UNL A   1      27.147  29.230  23.128  1.00  0.00     0.023 C 
ENDROOT
BRANCH   1   3
ATOM      3  C   UNL A   1      29.504  28.224  22.837  1.00  0.00    -0.034 A 
ATOM      4  C   UNL A   1      31.475  26.284  23.575  1.00  0.00     0.005 A 
ATOM      5  C   UNL A   1      30.210  26.341  24.189  1.00  0.00     0.011 A 
ATOM      6  C   UNL A   1      31.700  27.161  22.487  1.00  0.00     0.040 A 
ATOM      7  C   UNL A   1      29.224  27.245  23.787  1.00  0.00     0.005 A 
ATOM      8  C   UNL A   1      30.753  28.164  22.198  1.00  0.00     0.030 A 
BRANCH   4   9
ATOM      9  C   UNL A   1      32.476  25.306  24.085  1.00  0.00    -0.013 A 
ATOM     10  C   UNL A   1      33.373  23.049  24.260  1.00  0.00     0.133 A 
ATOM     11  C   UNL A   1      34.396  23.481  25.100  1.00  0.00     0.047 A 
ATOM     12  C   UNL A   1      32.437  23.944  23.735  1.00  0.00     0.056 A 
ATOM     13  C   UNL A   1      34.480  24.828  25.425  1.00  0.00     0.004 A 
ATOM     14  C   UNL A   1      33.521  25.722  24.938  1.00  0.00     0.009 A 
BRANCH  10  15
ATOM     15  O   UNL A   1      33.233  21.656  24.125  1.00  0.00    -0.410 OA
BRANCH  15  16
ATOM     16  C   UNL A   1      32.358  20.946  24.932  1.00  0.00     0.412 C 
ATOM     17  N   UNL A   1      32.659  19.611  24.984  1.00  0.00    -0.321 N 
ATOM     18  H   UNL A   1      32.058  19.042  25.516  1.00  0.00     0.167 HD
ATOM     19  O   UNL A   1      31.401  21.408  25.538  1.00  0.00    -0.224 OA
BRANCH  17  20
ATOM     20  C   UNL A   1      33.776  18.951  24.335  1.00  0.00     0.119 C 
BRANCH  20  21
ATOM     21  C   UNL A   1      33.314  17.858  23.370  1.00  0.00     0.021 C 
BRANCH  21  22
ATOM     22  C   UNL A   1      34.145  16.570  23.410  1.00  0.00     0.002 C 
BRANCH  22  23
ATOM     23  C   UNL A   1      34.380  15.980  24.805  1.00  0.00    -0.000 C 
BRANCH  23  24
ATOM     24  C   UNL A   1      33.137  15.876  25.693  1.00  0.00    -0.003 C 
ATOM     25  C   UNL A   1      32.447  14.524  25.605  1.00  0.00     0.004 C 
ENDBRANCH  23  24
ENDBRANCH  22  23
ENDBRANCH  21  22
ENDBRANCH  20  21
ENDBRANCH  17  20
ENDBRANCH  15  16
ENDBRANCH  10  15
ENDBRANCH   4   9
BRANCH   6  26
ATOM     26  N   UNL A   1      32.878  27.148  21.736  1.00  0.00    -0.398 N 
ATOM     27  H   UNL A   1      33.375  26.306  21.615  1.00  0.00     0.156 HD
ATOM     28  H   UNL A   1      33.211  27.980  21.328  1.00  0.00     0.156 HD
ENDBRANCH   6  26
ENDBRANCH   1   3
BRANCH   1  29
ATOM     29  C   UNL A   1      29.138  30.749  22.548  1.00  0.00     0.227 C 
ATOM     30  O   UNL A   1      29.076  31.489  21.558  1.00  0.00    -0.274 OA
ATOM     31  N   UNL A   1      29.735  31.276  23.653  1.00  0.00    -0.356 N 
ATOM     32  H   UNL A   1      29.999  32.219  23.559  1.00  0.00     0.163 HD
BRANCH  31  33
ATOM     33  C   UNL A   1      30.050  30.697  24.941  1.00  0.00     0.116 C 
BRANCH  33  34
ATOM     34  C   UNL A   1      31.014  31.573  25.743  1.00  0.00     0.023 C 
BRANCH  34  35
ATOM     35  C   UNL A   1      32.047  30.810  26.566  1.00  0.00     0.023 C 
BRANCH  35  36
ATOM     36  C   UNL A   1      33.059  31.681  27.298  1.00  0.00     0.116 C 
BRANCH  36  37
ATOM     37  N   UNL A   1      32.591  33.030  27.590  1.00  0.00    -0.352 N 
ATOM     38  C   UNL A   1      33.208  33.991  28.358  1.00  0.00     0.251 C 
ATOM     39  H   UNL A   1      31.728  33.283  27.190  1.00  0.00     0.163 HD
ATOM     40  O   UNL A   1      32.665  35.068  28.577  1.00  0.00    -0.269 OA
BRANCH  38  41
ATOM     41  C   UNL A   1      34.520  33.681  28.960  1.00  0.00     0.039 A 
ATOM     42  C   UNL A   1      34.560  33.042  30.200  1.00  0.00     0.014 A 
ATOM     43  C   UNL A   1      35.698  33.943  28.256  1.00  0.00     0.014 A 
ATOM     44  C   UNL A   1      35.783  32.589  30.699  1.00  0.00     0.010 A 
ATOM     45  C   UNL A   1      36.899  33.416  28.713  1.00  0.00     0.010 A 
ATOM     46  C   UNL A   1      36.954  32.732  29.936  1.00  0.00    -0.014 A 
BRANCH  46  47
ATOM     47  C   UNL A   1      38.249  32.177  30.397  1.00  0.00     0.031 A 
ATOM     48  C   UNL A   1      38.753  30.879  29.831  1.00  0.00     0.074 A 
ATOM     49  C   UNL A   1      38.935  32.798  31.376  1.00  0.00     0.049 A 
ATOM     50  N   UNL A   1      39.826  30.201  30.146  1.00  0.00    -0.248 NA
ATOM     51  C   UNL A   1      37.923  30.246  28.792  1.00  0.00     0.031 C 
ATOM     52  C   UNL A   1      38.532  34.041  32.040  1.00  0.00     0.029 A 
ATOM     53  N   UNL A   1      40.118  32.465  31.984  1.00  0.00    -0.354 N 
ATOM     54  C   UNL A   1      39.790  29.056  29.363  1.00  0.00     0.074 A 
ATOM     55  C   UNL A   1      38.561  29.102  28.601  1.00  0.00     0.031 C 
ATOM     56  C   UNL A   1      39.474  34.386  32.933  1.00  0.00     0.029 A 
ATOM     57  C   UNL A   1      40.523  33.371  32.934  1.00  0.00     0.049 A 
ATOM     58  H   UNL A   1      40.628  31.653  31.762  1.00  0.00     0.167 HD
ATOM     59  C   UNL A   1      40.707  28.064  29.264  1.00  0.00     0.031 A 
ATOM     60  C   UNL A   1      41.619  33.384  33.715  1.00  0.00     0.031 A 
ATOM     61  C   UNL A   1      41.933  28.023  30.011  1.00  0.00     0.049 A 
ATOM     62  C   UNL A   1      42.616  32.266  33.600  1.00  0.00     0.074 A 
ATOM     63  C   UNL A   1      42.954  27.090  29.946  1.00  0.00     0.029 A 
ATOM     64  N   UNL A   1      42.304  28.957  30.966  1.00  0.00    -0.354 N 
ATOM     65  N   UNL A   1      42.598  31.220  32.810  1.00  0.00    -0.248 NA
ATOM     66  C   UNL A   1      43.788  32.336  34.483  1.00  0.00     0.031 C 
ATOM     67  C   UNL A   1      43.924  27.439  30.892  1.00  0.00     0.029 A 
ATOM     68  C   UNL A   1      43.530  28.615  31.511  1.00  0.00     0.049 A 
ATOM     69  H   UNL A   1      41.774  29.748  31.219  1.00  0.00     0.167 HD
ATOM     70  C   UNL A   1      43.769  30.523  33.078  1.00  0.00     0.074 A 
ATOM     71  C   UNL A   1      44.478  31.270  34.097  1.00  0.00     0.031 C 
ATOM     72  C   UNL A   1      44.218  29.369  32.526  1.00  0.00     0.031 A 
BRANCH  59  73
ATOM     73  C   UNL A   1      40.399  26.944  28.309  1.00  0.00    -0.014 A 
ATOM     74  C   UNL A   1      39.681  25.811  28.726  1.00  0.00     0.009 A 
ATOM     75  C   UNL A   1      40.839  27.017  26.978  1.00  0.00     0.009 A 
ATOM     76  C   UNL A   1      39.455  24.752  27.845  1.00  0.00     0.001 A 
ATOM     77  C   UNL A   1      40.583  25.971  26.091  1.00  0.00     0.001 A 
ATOM     78  C   UNL A   1      39.904  24.834  26.527  1.00  0.00     0.000 A 
ENDBRANCH  59  73
BRANCH  60  79
ATOM     79  C   UNL A   1      41.855  34.518  34.644  1.00  0.00    -0.014 A 
ATOM     80  C   UNL A   1      41.289  34.504  35.928  1.00  0.00     0.009 A 
ATOM     81  C   UNL A   1      42.646  35.612  34.262  1.00  0.00     0.009 A 
ATOM     82  C   UNL A   1      41.495  35.573  36.805  1.00  0.00     0.001 A 
ATOM     83  C   UNL A   1      42.869  36.668  35.149  1.00  0.00     0.001 A 
ATOM     84  C   UNL A   1      42.288  36.651  36.417  1.00  0.00     0.000 A 
ENDBRANCH  60  79
BRANCH  72  85
ATOM     85  C   UNL A   1      45.555  28.865  32.990  1.00  0.00    -0.014 A 
ATOM     86  C   UNL A   1      45.678  28.098  34.160  1.00  0.00     0.009 A 
ATOM     87  C   UNL A   1      46.700  29.130  32.223  1.00  0.00     0.009 A 
ATOM     88  C   UNL A   1      46.930  27.632  34.566  1.00  0.00     0.001 A 
ATOM     89  C   UNL A   1      47.945  28.639  32.619  1.00  0.00     0.001 A 
ATOM     90  C   UNL A   1      48.061  27.898  33.794  1.00  0.00     0.000 A 
ENDBRANCH  72  85
ENDBRANCH  46  47
ENDBRANCH  38  41
ENDBRANCH  36  37
ENDBRANCH  35  36
ENDBRANCH  34  35
ENDBRANCH  33  34
ENDBRANCH  31  33
ENDBRANCH   1  29
TORSDOF 21
ENDMDL
