MODEL 1
REMARK VINA RESULT:     -12.2      0.000      0.000
REMARK SMILES O=C(NCCCCNC(=O)c1ccc2nc(-c3c[nH]nc3-c3ccc(F)cc3F)[nH]c2c1)c1ccc(-c2c3nc(c(-c4ccccc4)c4ccc([nH]4)c(-c4ccccc4)c4nc(c(-c5ccccc5)c5ccc2[nH]5)C=C4)C=C3)cc1
REMARK SMILES IDX 5 1 4 2 3 3 1 4 2 5 33 7 34 8 80 9 35 10 79 11 36 12 37 13
REMARK SMILES IDX 38 14 73 15 39 16 78 17 72 18 74 19 40 20 77 21 71 22 70 23
REMARK SMILES IDX 41 25 63 26 48 27 62 28 49 29 52 30 61 31 75 32 50 33 51 34
REMARK SMILES IDX 60 36 76 37 53 38 42 39 43 40 47 41 44 42 46 43 45 44 64 45
REMARK SMILES IDX 65 46 69 47 66 48 68 49 67 50 54 51 55 52 59 53 56 54 58 55
REMARK SMILES IDX 57 56 6 57 7 58 8 59 9 60 10 62 11 63 12 64 32 65 13 66
REMARK SMILES IDX 31 67 14 68 30 69 15 70 16 71 17 73 18 74 21 75 19 76 20 77
REMARK SMILES IDX 22 79 23 80 28 81 24 82 27 83 29 84 25 85 26 86
REMARK H PARENT 3 6 74 24 52 35 8 61 30 72 19 78
REMARK Flexibility Score: inf
ROOT
ATOM      1  C   UNL A   1      35.826  23.259  25.774  1.00  0.00     0.023 C 
ENDROOT
BRANCH   1   2
ATOM      2  C   UNL A   1      37.170  23.557  25.123  1.00  0.00     0.116 C 
BRANCH   2   3
ATOM      3  N   UNL A   1      38.205  22.604  25.492  1.00  0.00    -0.352 N 
ATOM      4  O   UNL A   1      40.197  21.914  26.298  1.00  0.00    -0.269 OA
ATOM      5  C   UNL A   1      39.369  22.814  26.189  1.00  0.00     0.251 C 
ATOM      6  H   UNL A   1      38.048  21.677  25.200  1.00  0.00     0.163 HD
BRANCH   5   7
ATOM      7  C   UNL A   1      39.638  24.141  26.784  1.00  0.00     0.039 A 
ATOM      8  C   UNL A   1      40.296  25.129  26.049  1.00  0.00     0.014 A 
ATOM      9  C   UNL A   1      39.237  24.392  28.099  1.00  0.00     0.014 A 
ATOM     10  C   UNL A   1      40.687  26.307  26.674  1.00  0.00     0.010 A 
ATOM     11  C   UNL A   1      39.554  25.612  28.699  1.00  0.00     0.010 A 
ATOM     12  C   UNL A   1      40.312  26.567  28.003  1.00  0.00    -0.014 A 
BRANCH  12  13
ATOM     13  C   UNL A   1      40.676  27.868  28.616  1.00  0.00     0.031 A 
ATOM     14  C   UNL A   1      39.658  28.958  28.801  1.00  0.00     0.074 A 
ATOM     15  C   UNL A   1      41.942  28.047  29.041  1.00  0.00     0.049 A 
ATOM     16  N   UNL A   1      39.810  30.137  29.352  1.00  0.00    -0.248 NA
ATOM     17  C   UNL A   1      38.299  28.701  28.301  1.00  0.00     0.031 C 
ATOM     18  C   UNL A   1      43.022  27.066  28.909  1.00  0.00     0.029 A 
ATOM     19  N   UNL A   1      42.529  29.103  29.688  1.00  0.00    -0.354 N 
ATOM     20  C   UNL A   1      38.576  30.769  29.247  1.00  0.00     0.074 A 
ATOM     21  C   UNL A   1      37.692  29.851  28.562  1.00  0.00     0.031 C 
ATOM     22  C   UNL A   1      44.125  27.543  29.504  1.00  0.00     0.029 A 
ATOM     23  C   UNL A   1      43.848  28.885  30.003  1.00  0.00     0.049 A 
ATOM     24  H   UNL A   1      42.053  29.936  29.906  1.00  0.00     0.167 HD
ATOM     25  C   UNL A   1      38.215  31.999  29.685  1.00  0.00     0.031 A 
ATOM     26  C   UNL A   1      44.745  29.678  30.614  1.00  0.00     0.031 A 
ATOM     27  C   UNL A   1      39.096  32.909  30.372  1.00  0.00     0.049 A 
ATOM     28  C   UNL A   1      44.322  31.042  31.072  1.00  0.00     0.074 A 
ATOM     29  C   UNL A   1      38.810  34.164  30.883  1.00  0.00     0.029 A 
ATOM     30  N   UNL A   1      40.433  32.664  30.640  1.00  0.00    -0.354 N 
ATOM     31  N   UNL A   1      43.143  31.608  30.992  1.00  0.00    -0.248 NA
ATOM     32  C   UNL A   1      45.353  31.874  31.703  1.00  0.00     0.031 C 
ATOM     33  C   UNL A   1      39.988  34.697  31.418  1.00  0.00     0.029 A 
ATOM     34  C   UNL A   1      40.993  33.753  31.287  1.00  0.00     0.049 A 
ATOM     35  H   UNL A   1      40.915  31.838  30.405  1.00  0.00     0.167 HD
ATOM     36  C   UNL A   1      43.288  32.860  31.572  1.00  0.00     0.074 A 
ATOM     37  C   UNL A   1      44.662  32.959  32.021  1.00  0.00     0.031 C 
ATOM     38  C   UNL A   1      42.364  33.841  31.716  1.00  0.00     0.031 A 
BRANCH  25  39
ATOM     39  C   UNL A   1      36.807  32.450  29.412  1.00  0.00    -0.014 A 
ATOM     40  C   UNL A   1      35.787  32.273  30.358  1.00  0.00     0.009 A 
ATOM     41  C   UNL A   1      36.511  33.114  28.210  1.00  0.00     0.009 A 
ATOM     42  C   UNL A   1      34.492  32.728  30.096  1.00  0.00     0.001 A 
ATOM     43  C   UNL A   1      35.222  33.588  27.961  1.00  0.00     0.001 A 
ATOM     44  C   UNL A   1      34.212  33.388  28.900  1.00  0.00     0.000 A 
ENDBRANCH  25  39
BRANCH  26  45
ATOM     45  C   UNL A   1      46.135  29.198  30.814  1.00  0.00    -0.014 A 
ATOM     46  C   UNL A   1      46.489  28.491  31.972  1.00  0.00     0.009 A 
ATOM     47  C   UNL A   1      47.111  29.426  29.830  1.00  0.00     0.009 A 
ATOM     48  C   UNL A   1      47.797  28.035  32.148  1.00  0.00     0.001 A 
ATOM     49  C   UNL A   1      48.410  28.944  29.996  1.00  0.00     0.001 A 
ATOM     50  C   UNL A   1      48.754  28.256  31.158  1.00  0.00     0.000 A 
ENDBRANCH  26  45
BRANCH  38  51
ATOM     51  C   UNL A   1      42.812  35.098  32.405  1.00  0.00    -0.014 A 
ATOM     52  C   UNL A   1      42.575  35.298  33.774  1.00  0.00     0.009 A 
ATOM     53  C   UNL A   1      43.497  36.083  31.679  1.00  0.00     0.009 A 
ATOM     54  C   UNL A   1      42.986  36.479  34.394  1.00  0.00     0.001 A 
ATOM     55  C   UNL A   1      43.930  37.251  32.307  1.00  0.00     0.001 A 
ATOM     56  C   UNL A   1      43.666  37.452  33.662  1.00  0.00     0.000 A 
ENDBRANCH  38  51
ENDBRANCH  12  13
ENDBRANCH   5   7
ENDBRANCH   2   3
ENDBRANCH   1   2
BRANCH   1  57
ATOM     57  C   UNL A   1      35.611  21.802  26.182  1.00  0.00     0.023 C 
BRANCH  57  58
ATOM     58  C   UNL A   1      34.344  21.539  26.993  1.00  0.00     0.116 C 
BRANCH  58  59
ATOM     59  N   UNL A   1      33.520  20.504  26.394  1.00  0.00    -0.352 N 
ATOM     60  C   UNL A   1      32.600  20.624  25.386  1.00  0.00     0.251 C 
ATOM     61  H   UNL A   1      33.638  19.597  26.760  1.00  0.00     0.163 HD
ATOM     62  O   UNL A   1      31.859  19.693  25.092  1.00  0.00    -0.269 OA
BRANCH  60  63
ATOM     63  C   UNL A   1      32.502  21.900  24.659  1.00  0.00     0.042 A 
ATOM     64  C   UNL A   1      33.111  22.029  23.403  1.00  0.00     0.016 A 
ATOM     65  C   UNL A   1      31.786  22.946  25.258  1.00  0.00     0.042 A 
ATOM     66  C   UNL A   1      33.015  23.231  22.695  1.00  0.00     0.031 A 
ATOM     67  C   UNL A   1      31.733  24.137  24.534  1.00  0.00     0.067 A 
ATOM     68  C   UNL A   1      32.291  24.287  23.269  1.00  0.00     0.089 A 
ATOM     69  N   UNL A   1      31.183  25.365  24.805  1.00  0.00    -0.338 N 
ATOM     70  N   UNL A   1      31.993  25.515  22.750  1.00  0.00    -0.228 NA
ATOM     71  C   UNL A   1      31.317  26.145  23.686  1.00  0.00     0.142 A 
ATOM     72  H   UNL A   1      30.765  25.638  25.654  1.00  0.00     0.168 HD
BRANCH  71  73
ATOM     73  C   UNL A   1      30.736  27.494  23.514  1.00  0.00     0.063 A 
ATOM     74  C   UNL A   1      29.834  27.879  22.552  1.00  0.00     0.117 A 
ATOM     75  C   UNL A   1      31.011  28.661  24.283  1.00  0.00     0.106 A 
ATOM     76  N   UNL A   1      29.545  29.182  22.834  1.00  0.00    -0.284 N 
ATOM     77  N   UNL A   1      30.273  29.694  23.837  1.00  0.00    -0.175 NA
ATOM     78  H   UNL A   1      28.866  29.700  22.346  1.00  0.00     0.189 HD
BRANCH  75  79
ATOM     79  C   UNL A   1      32.043  28.844  25.297  1.00  0.00     0.039 A 
ATOM     80  C   UNL A   1      31.667  29.111  26.628  1.00  0.00     0.016 A 
ATOM     81  C   UNL A   1      33.403  28.743  24.991  1.00  0.00     0.135 A 
ATOM     82  C   UNL A   1      32.633  29.284  27.618  1.00  0.00     0.040 A 
ATOM     83  C   UNL A   1      34.372  28.908  25.980  1.00  0.00     0.079 A 
ATOM     84  F   UNL A   1      33.813  28.504  23.737  1.00  0.00    -0.206 F 
ATOM     85  C   UNL A   1      33.978  29.180  27.283  1.00  0.00     0.126 A 
ATOM     86  F   UNL A   1      34.905  29.341  28.236  1.00  0.00    -0.207 F 
ENDBRANCH  75  79
ENDBRANCH  71  73
ENDBRANCH  60  63
ENDBRANCH  58  59
ENDBRANCH  57  58
ENDBRANCH   1  57
TORSDOF 13
ENDMDL
MODEL 2
REMARK VINA RESULT:     -12.2      2.889      7.817
REMARK SMILES O=C(NCCCCNC(=O)c1ccc2nc(-c3c[nH]nc3-c3ccc(F)cc3F)[nH]c2c1)c1ccc(-c2c3nc(c(-c4ccccc4)c4ccc([nH]4)c(-c4ccccc4)c4nc(c(-c5ccccc5)c5ccc2[nH]5)C=C4)C=C3)cc1
REMARK SMILES IDX 5 1 4 2 3 3 1 4 2 5 33 7 34 8 80 9 35 10 79 11 36 12 37 13
REMARK SMILES IDX 38 14 73 15 39 16 78 17 72 18 74 19 40 20 77 21 71 22 70 23
REMARK SMILES IDX 41 25 63 26 48 27 62 28 49 29 52 30 61 31 75 32 50 33 51 34
REMARK SMILES IDX 60 36 76 37 53 38 42 39 43 40 47 41 44 42 46 43 45 44 64 45
REMARK SMILES IDX 65 46 69 47 66 48 68 49 67 50 54 51 55 52 59 53 56 54 58 55
REMARK SMILES IDX 57 56 6 57 7 58 8 59 9 60 10 62 11 63 12 64 32 65 13 66
REMARK SMILES IDX 31 67 14 68 30 69 15 70 16 71 17 73 18 74 21 75 19 76 20 77
REMARK SMILES IDX 22 79 23 80 28 81 24 82 27 83 29 84 25 85 26 86
REMARK H PARENT 3 6 74 24 52 35 8 61 30 72 19 78
REMARK Flexibility Score: inf
ROOT
ATOM      1  C   UNL A   1      33.787  28.265  25.877  1.00  0.00     0.023 C 
ENDROOT
BRANCH   1   2
ATOM      2  C   UNL A   1      33.553  28.543  27.356  1.00  0.00     0.116 C 
BRANCH   2   3
ATOM      3  N   UNL A   1      33.490  29.963  27.665  1.00  0.00    -0.352 N 
ATOM      4  O   UNL A   1      34.190  31.934  28.516  1.00  0.00    -0.269 OA
ATOM      5  C   UNL A   1      34.459  30.779  28.196  1.00  0.00     0.251 C 
ATOM      6  H   UNL A   1      32.631  30.401  27.466  1.00  0.00     0.163 HD
BRANCH   5   7
ATOM      7  C   UNL A   1      35.824  30.253  28.411  1.00  0.00     0.039 A 
ATOM      8  C   UNL A   1      36.191  29.709  29.644  1.00  0.00     0.014 A 
ATOM      9  C   UNL A   1      36.751  30.316  27.366  1.00  0.00     0.014 A 
ATOM     10  C   UNL A   1      37.518  29.373  29.880  1.00  0.00     0.010 A 
ATOM     11  C   UNL A   1      38.065  29.894  27.579  1.00  0.00     0.010 A 
ATOM     12  C   UNL A   1      38.468  29.452  28.849  1.00  0.00    -0.014 A 
BRANCH  12  13
ATOM     13  C   UNL A   1      39.860  29.009  29.112  1.00  0.00     0.031 A 
ATOM     14  C   UNL A   1      40.836  29.887  29.844  1.00  0.00     0.074 A 
ATOM     15  C   UNL A   1      40.229  27.777  28.708  1.00  0.00     0.049 A 
ATOM     16  N   UNL A   1      42.076  29.629  30.183  1.00  0.00    -0.248 NA
ATOM     17  C   UNL A   1      40.371  31.224  30.242  1.00  0.00     0.031 C 
ATOM     18  C   UNL A   1      39.374  26.837  27.981  1.00  0.00     0.029 A 
ATOM     19  N   UNL A   1      41.408  27.098  28.870  1.00  0.00    -0.354 N 
ATOM     20  C   UNL A   1      42.544  30.776  30.814  1.00  0.00     0.074 A 
ATOM     21  C   UNL A   1      41.463  31.738  30.793  1.00  0.00     0.031 C 
ATOM     22  C   UNL A   1      40.036  25.684  27.807  1.00  0.00     0.029 A 
ATOM     23  C   UNL A   1      41.380  25.826  28.353  1.00  0.00     0.049 A 
ATOM     24  H   UNL A   1      42.198  27.482  29.315  1.00  0.00     0.167 HD
ATOM     25  C   UNL A   1      43.761  31.003  31.362  1.00  0.00     0.031 A 
ATOM     26  C   UNL A   1      42.333  24.878  28.309  1.00  0.00     0.031 A 
ATOM     27  C   UNL A   1      44.835  30.042  31.386  1.00  0.00     0.049 A 
ATOM     28  C   UNL A   1      43.677  25.164  28.907  1.00  0.00     0.074 A 
ATOM     29  C   UNL A   1      46.093  30.171  31.949  1.00  0.00     0.029 A 
ATOM     30  N   UNL A   1      44.778  28.779  30.820  1.00  0.00    -0.354 N 
ATOM     31  N   UNL A   1      44.090  26.242  29.527  1.00  0.00    -0.248 NA
ATOM     32  C   UNL A   1      44.685  24.102  28.799  1.00  0.00     0.031 C 
ATOM     33  C   UNL A   1      46.814  29.001  31.682  1.00  0.00     0.029 A 
ATOM     34  C   UNL A   1      45.986  28.126  30.998  1.00  0.00     0.049 A 
ATOM     35  H   UNL A   1      43.994  28.400  30.360  1.00  0.00     0.167 HD
ATOM     36  C   UNL A   1      45.403  25.985  29.893  1.00  0.00     0.074 A 
ATOM     37  C   UNL A   1      45.708  24.640  29.447  1.00  0.00     0.031 C 
ATOM     38  C   UNL A   1      46.278  26.794  30.539  1.00  0.00     0.031 A 
BRANCH  25  39
ATOM     39  C   UNL A   1      44.013  32.358  31.962  1.00  0.00    -0.014 A 
ATOM     40  C   UNL A   1      44.507  33.420  31.190  1.00  0.00     0.009 A 
ATOM     41  C   UNL A   1      43.698  32.589  33.311  1.00  0.00     0.009 A 
ATOM     42  C   UNL A   1      44.705  34.679  31.761  1.00  0.00     0.001 A 
ATOM     43  C   UNL A   1      43.875  33.855  33.874  1.00  0.00     0.001 A 
ATOM     44  C   UNL A   1      44.385  34.896  33.101  1.00  0.00     0.000 A 
ENDBRANCH  25  39
BRANCH  26  45
ATOM     45  C   UNL A   1      42.042  23.574  27.660  1.00  0.00    -0.014 A 
ATOM     46  C   UNL A   1      42.376  23.354  26.316  1.00  0.00     0.009 A 
ATOM     47  C   UNL A   1      41.446  22.535  28.393  1.00  0.00     0.009 A 
ATOM     48  C   UNL A   1      42.106  22.123  25.715  1.00  0.00     0.001 A 
ATOM     49  C   UNL A   1      41.204  21.297  27.798  1.00  0.00     0.001 A 
ATOM     50  C   UNL A   1      41.527  21.095  26.457  1.00  0.00     0.000 A 
ENDBRANCH  26  45
BRANCH  38  51
ATOM     51  C   UNL A   1      47.643  26.232  30.814  1.00  0.00    -0.014 A 
ATOM     52  C   UNL A   1      47.968  25.700  32.071  1.00  0.00     0.009 A 
ATOM     53  C   UNL A   1      48.608  26.217  29.795  1.00  0.00     0.009 A 
ATOM     54  C   UNL A   1      49.247  25.195  32.313  1.00  0.00     0.001 A 
ATOM     55  C   UNL A   1      49.877  25.688  30.032  1.00  0.00     0.001 A 
ATOM     56  C   UNL A   1      50.199  25.186  31.293  1.00  0.00     0.000 A 
ENDBRANCH  38  51
ENDBRANCH  12  13
ENDBRANCH   5   7
ENDBRANCH   2   3
ENDBRANCH   1   2
BRANCH   1  57
ATOM     57  C   UNL A   1      33.298  29.357  24.926  1.00  0.00     0.023 C 
BRANCH  57  58
ATOM     58  C   UNL A   1      33.389  29.007  23.443  1.00  0.00     0.116 C 
BRANCH  58  59
ATOM     59  N   UNL A   1      32.090  29.051  22.794  1.00  0.00    -0.352 N 
ATOM     60  C   UNL A   1      31.155  28.055  22.689  1.00  0.00     0.251 C 
ATOM     61  H   UNL A   1      31.850  29.910  22.374  1.00  0.00     0.163 HD
ATOM     62  O   UNL A   1      30.171  28.185  21.970  1.00  0.00    -0.269 OA
BRANCH  60  63
ATOM     63  C   UNL A   1      31.353  26.810  23.448  1.00  0.00     0.042 A 
ATOM     64  C   UNL A   1      30.798  26.684  24.729  1.00  0.00     0.016 A 
ATOM     65  C   UNL A   1      32.093  25.781  22.846  1.00  0.00     0.042 A 
ATOM     66  C   UNL A   1      30.967  25.503  25.456  1.00  0.00     0.031 A 
ATOM     67  C   UNL A   1      32.262  24.628  23.611  1.00  0.00     0.067 A 
ATOM     68  C   UNL A   1      31.692  24.455  24.867  1.00  0.00     0.089 A 
ATOM     69  N   UNL A   1      32.945  23.459  23.390  1.00  0.00    -0.338 N 
ATOM     70  N   UNL A   1      31.925  23.194  25.337  1.00  0.00    -0.228 NA
ATOM     71  C   UNL A   1      32.673  22.607  24.428  1.00  0.00     0.142 A 
ATOM     72  H   UNL A   1      33.529  23.266  22.620  1.00  0.00     0.168 HD
BRANCH  71  73
ATOM     73  C   UNL A   1      33.106  21.194  24.507  1.00  0.00     0.063 A 
ATOM     74  C   UNL A   1      32.299  20.086  24.412  1.00  0.00     0.117 A 
ATOM     75  C   UNL A   1      34.424  20.701  24.720  1.00  0.00     0.106 A 
ATOM     76  N   UNL A   1      33.148  19.020  24.474  1.00  0.00    -0.284 N 
ATOM     77  N   UNL A   1      34.425  19.357  24.708  1.00  0.00    -0.175 NA
ATOM     78  H   UNL A   1      32.851  18.089  24.359  1.00  0.00     0.189 HD
BRANCH  75  79
ATOM     79  C   UNL A   1      35.618  21.460  25.079  1.00  0.00     0.039 A 
ATOM     80  C   UNL A   1      35.488  22.795  25.507  1.00  0.00     0.016 A 
ATOM     81  C   UNL A   1      36.894  20.892  25.030  1.00  0.00     0.135 A 
ATOM     82  C   UNL A   1      36.612  23.540  25.862  1.00  0.00     0.040 A 
ATOM     83  C   UNL A   1      38.020  21.630  25.392  1.00  0.00     0.079 A 
ATOM     84  F   UNL A   1      37.073  19.628  24.617  1.00  0.00    -0.206 F 
ATOM     85  C   UNL A   1      37.868  22.948  25.802  1.00  0.00     0.126 A 
ATOM     86  F   UNL A   1      38.946  23.663  26.148  1.00  0.00    -0.207 F 
ENDBRANCH  75  79
ENDBRANCH  71  73
ENDBRANCH  60  63
ENDBRANCH  58  59
ENDBRANCH  57  58
ENDBRANCH   1  57
TORSDOF 13
ENDMDL
MODEL 3
REMARK VINA RESULT:     -12.2      2.788      7.820
REMARK SMILES O=C(NCCCCNC(=O)c1ccc2nc(-c3c[nH]nc3-c3ccc(F)cc3F)[nH]c2c1)c1ccc(-c2c3nc(c(-c4ccccc4)c4ccc([nH]4)c(-c4ccccc4)c4nc(c(-c5ccccc5)c5ccc2[nH]5)C=C4)C=C3)cc1
REMARK SMILES IDX 5 1 4 2 3 3 1 4 2 5 33 7 34 8 80 9 35 10 79 11 36 12 37 13
REMARK SMILES IDX 38 14 73 15 39 16 78 17 72 18 74 19 40 20 77 21 71 22 70 23
REMARK SMILES IDX 41 25 63 26 48 27 62 28 49 29 52 30 61 31 75 32 50 33 51 34
REMARK SMILES IDX 60 36 76 37 53 38 42 39 43 40 47 41 44 42 46 43 45 44 64 45
REMARK SMILES IDX 65 46 69 47 66 48 68 49 67 50 54 51 55 52 59 53 56 54 58 55
REMARK SMILES IDX 57 56 6 57 7 58 8 59 9 60 10 62 11 63 12 64 32 65 13 66
REMARK SMILES IDX 31 67 14 68 30 69 15 70 16 71 17 73 18 74 21 75 19 76 20 77
REMARK SMILES IDX 22 79 23 80 28 81 24 82 27 83 29 84 25 85 26 86
REMARK H PARENT 3 6 74 24 52 35 8 61 30 72 19 78
REMARK Flexibility Score: inf
ROOT
ATOM      1  C   UNL A   1      34.035  28.650  25.766  1.00  0.00     0.023 C 
ENDROOT
BRANCH   1   2
ATOM      2  C   UNL A   1      33.746  28.735  27.259  1.00  0.00     0.116 C 
BRANCH   2   3
ATOM      3  N   UNL A   1      33.687  30.103  27.749  1.00  0.00    -0.352 N 
ATOM      4  O   UNL A   1      34.379  31.938  28.867  1.00  0.00    -0.269 OA
ATOM      5  C   UNL A   1      34.648  30.832  28.407  1.00  0.00     0.251 C 
ATOM      6  H   UNL A   1      32.837  30.574  27.586  1.00  0.00     0.163 HD
BRANCH   5   7
ATOM      7  C   UNL A   1      36.001  30.265  28.586  1.00  0.00     0.039 A 
ATOM      8  C   UNL A   1      36.372  29.679  29.798  1.00  0.00     0.014 A 
ATOM      9  C   UNL A   1      36.914  30.335  27.530  1.00  0.00     0.014 A 
ATOM     10  C   UNL A   1      37.693  29.303  30.005  1.00  0.00     0.010 A 
ATOM     11  C   UNL A   1      38.220  29.875  27.711  1.00  0.00     0.010 A 
ATOM     12  C   UNL A   1      38.631  29.387  28.962  1.00  0.00    -0.014 A 
BRANCH  12  13
ATOM     13  C   UNL A   1      40.014  28.902  29.192  1.00  0.00     0.031 A 
ATOM     14  C   UNL A   1      40.445  27.529  28.756  1.00  0.00     0.074 A 
ATOM     15  C   UNL A   1      40.899  29.735  29.773  1.00  0.00     0.049 A 
ATOM     16  N   UNL A   1      41.626  26.972  28.853  1.00  0.00    -0.248 NA
ATOM     17  C   UNL A   1      39.423  26.667  28.143  1.00  0.00     0.031 C 
ATOM     18  C   UNL A   1      40.598  31.088  30.246  1.00  0.00     0.029 A 
ATOM     19  N   UNL A   1      42.233  29.577  30.044  1.00  0.00    -0.354 N 
ATOM     20  C   UNL A   1      41.487  25.691  28.332  1.00  0.00     0.074 A 
ATOM     21  C   UNL A   1      40.102  25.545  27.940  1.00  0.00     0.031 C 
ATOM     22  C   UNL A   1      41.725  31.657  30.699  1.00  0.00     0.029 A 
ATOM     23  C   UNL A   1      42.811  30.689  30.607  1.00  0.00     0.049 A 
ATOM     24  H   UNL A   1      42.730  28.749  29.853  1.00  0.00     0.167 HD
ATOM     25  C   UNL A   1      42.428  24.727  28.192  1.00  0.00     0.031 A 
ATOM     26  C   UNL A   1      44.072  30.906  31.019  1.00  0.00     0.031 A 
ATOM     27  C   UNL A   1      43.809  24.875  28.578  1.00  0.00     0.049 A 
ATOM     28  C   UNL A   1      45.089  29.815  30.868  1.00  0.00     0.074 A 
ATOM     29  C   UNL A   1      44.843  23.965  28.443  1.00  0.00     0.029 A 
ATOM     30  N   UNL A   1      44.344  26.004  29.177  1.00  0.00    -0.354 N 
ATOM     31  N   UNL A   1      44.945  28.623  30.344  1.00  0.00    -0.248 NA
ATOM     32  C   UNL A   1      46.440  30.100  31.365  1.00  0.00     0.031 C 
ATOM     33  C   UNL A   1      45.995  24.526  29.005  1.00  0.00     0.029 A 
ATOM     34  C   UNL A   1      45.690  25.804  29.442  1.00  0.00     0.049 A 
ATOM     35  H   UNL A   1      43.844  26.826  29.385  1.00  0.00     0.167 HD
ATOM     36  C   UNL A   1      46.190  28.018  30.439  1.00  0.00     0.074 A 
ATOM     37  C   UNL A   1      47.082  28.985  31.047  1.00  0.00     0.031 C 
ATOM     38  C   UNL A   1      46.560  26.771  30.058  1.00  0.00     0.031 A 
BRANCH  25  39
ATOM     39  C   UNL A   1      41.994  23.407  27.616  1.00  0.00    -0.014 A 
ATOM     40  C   UNL A   1      41.443  22.403  28.426  1.00  0.00     0.009 A 
ATOM     41  C   UNL A   1      42.088  23.189  26.232  1.00  0.00     0.009 A 
ATOM     42  C   UNL A   1      41.019  21.196  27.865  1.00  0.00     0.001 A 
ATOM     43  C   UNL A   1      41.641  21.991  25.672  1.00  0.00     0.001 A 
ATOM     44  C   UNL A   1      41.114  20.993  26.489  1.00  0.00     0.000 A 
ENDBRANCH  25  39
BRANCH  26  45
ATOM     45  C   UNL A   1      44.432  32.214  31.624  1.00  0.00    -0.014 A 
ATOM     46  C   UNL A   1      44.320  32.417  33.007  1.00  0.00     0.009 A 
ATOM     47  C   UNL A   1      44.912  33.259  30.818  1.00  0.00     0.009 A 
ATOM     48  C   UNL A   1      44.668  33.647  33.569  1.00  0.00     0.001 A 
ATOM     49  C   UNL A   1      45.286  34.477  31.387  1.00  0.00     0.001 A 
ATOM     50  C   UNL A   1      45.155  34.672  32.761  1.00  0.00     0.000 A 
ENDBRANCH  26  45
BRANCH  38  51
ATOM     51  C   UNL A   1      47.997  26.395  30.275  1.00  0.00    -0.014 A 
ATOM     52  C   UNL A   1      48.424  25.829  31.486  1.00  0.00     0.009 A 
ATOM     53  C   UNL A   1      48.931  26.592  29.246  1.00  0.00     0.009 A 
ATOM     54  C   UNL A   1      49.767  25.499  31.674  1.00  0.00     0.001 A 
ATOM     55  C   UNL A   1      50.268  26.238  29.428  1.00  0.00     0.001 A 
ATOM     56  C   UNL A   1      50.687  25.700  30.645  1.00  0.00     0.000 A 
ENDBRANCH  38  51
ENDBRANCH  12  13
ENDBRANCH   5   7
ENDBRANCH   2   3
ENDBRANCH   1   2
BRANCH   1  57
ATOM     57  C   UNL A   1      32.931  29.189  24.858  1.00  0.00     0.023 C 
BRANCH  57  58
ATOM     58  C   UNL A   1      31.539  28.622  25.129  1.00  0.00     0.116 C 
BRANCH  58  59
ATOM     59  N   UNL A   1      30.659  28.772  23.983  1.00  0.00    -0.352 N 
ATOM     60  C   UNL A   1      30.610  28.017  22.841  1.00  0.00     0.251 C 
ATOM     61  H   UNL A   1      30.013  29.515  24.034  1.00  0.00     0.163 HD
ATOM     62  O   UNL A   1      29.925  28.360  21.885  1.00  0.00    -0.269 OA
BRANCH  60  63
ATOM     63  C   UNL A   1      31.406  26.781  22.770  1.00  0.00     0.042 A 
ATOM     64  C   UNL A   1      32.584  26.760  22.010  1.00  0.00     0.016 A 
ATOM     65  C   UNL A   1      30.952  25.662  23.482  1.00  0.00     0.042 A 
ATOM     66  C   UNL A   1      33.357  25.598  21.943  1.00  0.00     0.031 A 
ATOM     67  C   UNL A   1      31.736  24.514  23.372  1.00  0.00     0.067 A 
ATOM     68  C   UNL A   1      32.930  24.470  22.659  1.00  0.00     0.089 A 
ATOM     69  N   UNL A   1      31.596  23.242  23.869  1.00  0.00    -0.338 N 
ATOM     70  N   UNL A   1      33.542  23.259  22.813  1.00  0.00    -0.228 NA
ATOM     71  C   UNL A   1      32.728  22.537  23.553  1.00  0.00     0.142 A 
ATOM     72  H   UNL A   1      30.819  22.897  24.366  1.00  0.00     0.168 HD
BRANCH  71  73
ATOM     73  C   UNL A   1      33.037  21.169  24.021  1.00  0.00     0.063 A 
ATOM     74  C   UNL A   1      32.186  20.090  24.011  1.00  0.00     0.117 A 
ATOM     75  C   UNL A   1      34.255  20.702  24.592  1.00  0.00     0.106 A 
ATOM     76  N   UNL A   1      32.931  19.044  24.470  1.00  0.00    -0.284 N 
ATOM     77  N   UNL A   1      34.162  19.390  24.873  1.00  0.00    -0.175 NA
ATOM     78  H   UNL A   1      32.596  18.119  24.502  1.00  0.00     0.189 HD
BRANCH  75  79
ATOM     79  C   UNL A   1      35.410  21.489  25.007  1.00  0.00     0.039 A 
ATOM     80  C   UNL A   1      36.694  21.127  24.556  1.00  0.00     0.016 A 
ATOM     81  C   UNL A   1      35.280  22.612  25.830  1.00  0.00     0.135 A 
ATOM     82  C   UNL A   1      37.814  21.868  24.933  1.00  0.00     0.040 A 
ATOM     83  C   UNL A   1      36.397  23.358  26.203  1.00  0.00     0.079 A 
ATOM     84  F   UNL A   1      34.081  22.990  26.298  1.00  0.00    -0.206 F 
ATOM     85  C   UNL A   1      37.653  22.977  25.753  1.00  0.00     0.126 A 
ATOM     86  F   UNL A   1      38.730  23.689  26.111  1.00  0.00    -0.207 F 
ENDBRANCH  75  79
ENDBRANCH  71  73
ENDBRANCH  60  63
ENDBRANCH  58  59
ENDBRANCH  57  58
ENDBRANCH   1  57
TORSDOF 13
ENDMDL
