MODEL 1
REMARK VINA RESULT:     -11.3      0.000      0.000
REMARK SMILES C[C@H](c1ccncc1)[N@H+]1[C@@H]2CC[C@H]1C[C@H](CC(=O)NCCCCNC(=O)c1ccc(-c3c4nc(c(-c5ccccc5)c5ccc([nH]5)c(-c5ccccc5)c5nc(c(-c6ccccc6)c6ccc3[nH]6)C=C5)C=C4)cc1)C2
REMARK SMILES IDX 21 1 20 2 19 3 17 4 18 5 16 7 15 8 9 9 10 10 13 11 11 13
REMARK SMILES IDX 75 14 12 15 14 16 2 17 1 18 3 19 4 20 8 21 5 22 7 23 6 24
REMARK SMILES IDX 22 25 23 26 24 27 25 28 26 30 27 31 28 32 74 33 29 34 73 35
REMARK SMILES IDX 30 36 31 37 32 38 67 39 33 40 72 41 66 42 68 43 34 44 71 45
REMARK SMILES IDX 65 46 64 47 35 49 57 50 42 51 56 52 43 53 46 54 55 55 69 56
REMARK SMILES IDX 44 57 45 58 54 60 70 61 47 62 36 63 37 64 41 65 38 66 40 67
REMARK SMILES IDX 39 68 58 69 59 70 63 71 60 72 62 73 61 74 48 75 49 76 53 77
REMARK SMILES IDX 50 78 52 79 51 80
REMARK H PARENT 19 6 9 12 24 29 68 48 46 59
REMARK Flexibility Score: inf
ROOT
ATOM      1  C   UNL A   1      34.934  30.773  28.052  1.00  0.00     0.023 C 
ENDROOT
BRANCH   1   2
ATOM      2  C   UNL A   1      34.715  29.517  27.205  1.00  0.00     0.116 C 
BRANCH   2   3
ATOM      3  N   UNL A   1      33.638  28.712  27.753  1.00  0.00    -0.356 N 
ATOM      4  C   UNL A   1      32.327  28.617  27.390  1.00  0.00     0.220 C 
ATOM      5  O   UNL A   1      31.572  27.972  28.119  1.00  0.00    -0.275 OA
ATOM      6  H   UNL A   1      33.897  28.141  28.511  1.00  0.00     0.163 HD
BRANCH   4   7
ATOM      7  C   UNL A   1      31.813  29.252  26.108  1.00  0.00     0.104 C 
BRANCH   7   8
ATOM      8  C   UNL A   1      31.645  28.284  24.912  1.00  0.00     0.010 C 
ATOM      9  N   UNL A   1      29.435  28.102  22.903  1.00  0.00    -0.324 N 
ATOM     10  C   UNL A   1      30.781  28.475  22.467  1.00  0.00     0.185 C 
ATOM     11  C   UNL A   1      29.682  26.966  23.788  1.00  0.00     0.185 C 
ATOM     12  H   UNL A   1      28.893  27.927  22.058  1.00  0.00     0.349 HD
ATOM     13  C   UNL A   1      31.317  27.096  22.035  1.00  0.00     0.071 C 
ATOM     14  C   UNL A   1      31.667  29.066  23.582  1.00  0.00     0.069 C 
ATOM     15  C   UNL A   1      30.602  26.096  22.938  1.00  0.00     0.071 C 
ATOM     16  C   UNL A   1      30.388  27.416  25.066  1.00  0.00     0.069 C 
BRANCH   9  17
ATOM     17  C   UNL A   1      28.429  29.066  23.380  1.00  0.00     0.212 C 
ATOM     18  C   UNL A   1      27.046  28.417  23.226  1.00  0.00     0.081 C 
BRANCH  17  19
ATOM     19  C   UNL A   1      28.431  30.461  22.783  1.00  0.00     0.012 A 
ATOM     20  C   UNL A   1      28.782  31.594  23.527  1.00  0.00     0.030 A 
ATOM     21  C   UNL A   1      28.059  30.653  21.445  1.00  0.00     0.030 A 
ATOM     22  C   UNL A   1      28.676  32.844  22.936  1.00  0.00     0.111 A 
ATOM     23  C   UNL A   1      27.994  31.943  20.940  1.00  0.00     0.111 A 
ATOM     24  N   UNL A   1      28.282  33.044  21.660  1.00  0.00    -0.265 NA
ENDBRANCH  17  19
ENDBRANCH   9  17
ENDBRANCH   7   8
ENDBRANCH   4   7
ENDBRANCH   2   3
ENDBRANCH   1   2
BRANCH   1  25
ATOM     25  C   UNL A   1      33.830  31.809  27.989  1.00  0.00     0.023 C 
BRANCH  25  26
ATOM     26  C   UNL A   1      34.336  33.233  28.016  1.00  0.00     0.116 C 
BRANCH  26  27
ATOM     27  N   UNL A   1      33.575  34.111  28.899  1.00  0.00    -0.352 N 
ATOM     28  C   UNL A   1      33.804  34.366  30.233  1.00  0.00     0.251 C 
ATOM     29  H   UNL A   1      32.808  34.577  28.493  1.00  0.00     0.163 HD
ATOM     30  O   UNL A   1      33.046  35.073  30.889  1.00  0.00    -0.269 OA
BRANCH  28  31
ATOM     31  C   UNL A   1      34.965  33.713  30.866  1.00  0.00     0.039 A 
ATOM     32  C   UNL A   1      34.774  32.531  31.585  1.00  0.00     0.014 A 
ATOM     33  C   UNL A   1      36.248  34.182  30.583  1.00  0.00     0.014 A 
ATOM     34  C   UNL A   1      35.884  31.760  31.934  1.00  0.00     0.010 A 
ATOM     35  C   UNL A   1      37.335  33.358  30.826  1.00  0.00     0.010 A 
ATOM     36  C   UNL A   1      37.166  32.140  31.506  1.00  0.00    -0.014 A 
BRANCH  36  37
ATOM     37  C   UNL A   1      38.367  31.311  31.769  1.00  0.00     0.031 A 
ATOM     38  C   UNL A   1      39.238  31.647  32.949  1.00  0.00     0.074 A 
ATOM     39  C   UNL A   1      38.740  30.349  30.903  1.00  0.00     0.049 A 
ATOM     40  N   UNL A   1      40.423  31.193  33.260  1.00  0.00    -0.248 NA
ATOM     41  C   UNL A   1      38.724  32.673  33.873  1.00  0.00     0.031 C 
ATOM     42  C   UNL A   1      38.013  29.955  29.694  1.00  0.00     0.029 A 
ATOM     43  N   UNL A   1      39.845  29.535  30.903  1.00  0.00    -0.354 N 
ATOM     44  C   UNL A   1      40.815  31.915  34.380  1.00  0.00     0.074 A 
ATOM     45  C   UNL A   1      39.768  32.869  34.663  1.00  0.00     0.031 C 
ATOM     46  C   UNL A   1      38.677  28.956  29.086  1.00  0.00     0.029 A 
ATOM     47  C   UNL A   1      39.896  28.670  29.835  1.00  0.00     0.049 A 
ATOM     48  H   UNL A   1      40.538  29.567  31.601  1.00  0.00     0.167 HD
ATOM     49  C   UNL A   1      41.937  31.782  35.123  1.00  0.00     0.031 A 
ATOM     50  C   UNL A   1      40.826  27.758  29.496  1.00  0.00     0.031 A 
ATOM     51  C   UNL A   1      42.949  30.793  34.877  1.00  0.00     0.049 A 
ATOM     52  C   UNL A   1      42.043  27.593  30.364  1.00  0.00     0.074 A 
ATOM     53  C   UNL A   1      44.089  30.525  35.613  1.00  0.00     0.029 A 
ATOM     54  N   UNL A   1      42.930  29.899  33.818  1.00  0.00    -0.354 N 
ATOM     55  N   UNL A   1      42.379  28.253  31.446  1.00  0.00    -0.248 NA
ATOM     56  C   UNL A   1      43.004  26.554  29.968  1.00  0.00     0.031 C 
ATOM     57  C   UNL A   1      44.773  29.479  34.984  1.00  0.00     0.029 A 
ATOM     58  C   UNL A   1      44.039  29.076  33.880  1.00  0.00     0.049 A 
ATOM     59  H   UNL A   1      42.231  29.856  33.127  1.00  0.00     0.167 HD
ATOM     60  C   UNL A   1      43.572  27.688  31.878  1.00  0.00     0.074 A 
ATOM     61  C   UNL A   1      43.896  26.628  30.946  1.00  0.00     0.031 C 
ATOM     62  C   UNL A   1      44.330  28.016  32.951  1.00  0.00     0.031 A 
BRANCH  49  63
ATOM     63  C   UNL A   1      42.114  32.730  36.275  1.00  0.00    -0.014 A 
ATOM     64  C   UNL A   1      41.568  32.450  37.538  1.00  0.00     0.009 A 
ATOM     65  C   UNL A   1      42.840  33.916  36.095  1.00  0.00     0.009 A 
ATOM     66  C   UNL A   1      41.704  33.362  38.585  1.00  0.00     0.001 A 
ATOM     67  C   UNL A   1      43.003  34.812  37.153  1.00  0.00     0.001 A 
ATOM     68  C   UNL A   1      42.426  34.540  38.392  1.00  0.00     0.000 A 
ENDBRANCH  49  63
BRANCH  50  69
ATOM     69  C   UNL A   1      40.634  26.905  28.294  1.00  0.00    -0.014 A 
ATOM     70  C   UNL A   1      39.853  25.742  28.372  1.00  0.00     0.009 A 
ATOM     71  C   UNL A   1      41.231  27.241  27.070  1.00  0.00     0.009 A 
ATOM     72  C   UNL A   1      39.695  24.918  27.255  1.00  0.00     0.001 A 
ATOM     73  C   UNL A   1      41.050  26.428  25.948  1.00  0.00     0.001 A 
ATOM     74  C   UNL A   1      40.290  25.264  26.043  1.00  0.00     0.000 A 
ENDBRANCH  50  69
BRANCH  62  75
ATOM     75  C   UNL A   1      45.555  27.189  33.208  1.00  0.00    -0.014 A 
ATOM     76  C   UNL A   1      45.492  26.012  33.966  1.00  0.00     0.009 A 
ATOM     77  C   UNL A   1      46.775  27.565  32.623  1.00  0.00     0.009 A 
ATOM     78  C   UNL A   1      46.638  25.236  34.153  1.00  0.00     0.001 A 
ATOM     79  C   UNL A   1      47.912  26.776  32.794  1.00  0.00     0.001 A 
ATOM     80  C   UNL A   1      47.844  25.615  33.563  1.00  0.00     0.000 A 
ENDBRANCH  62  75
ENDBRANCH  36  37
ENDBRANCH  28  31
ENDBRANCH  26  27
ENDBRANCH  25  26
ENDBRANCH   1  25
TORSDOF 14
ENDMDL
MODEL 2
REMARK VINA RESULT:     -11.3      4.124      6.443
REMARK SMILES C[C@H](c1ccncc1)[N@H+]1[C@@H]2CC[C@H]1C[C@H](CC(=O)NCCCCNC(=O)c1ccc(-c3c4nc(c(-c5ccccc5)c5ccc([nH]5)c(-c5ccccc5)c5nc(c(-c6ccccc6)c6ccc3[nH]6)C=C5)C=C4)cc1)C2
REMARK SMILES IDX 21 1 20 2 19 3 17 4 18 5 16 7 15 8 9 9 10 10 13 11 11 13
REMARK SMILES IDX 75 14 12 15 14 16 2 17 1 18 3 19 4 20 8 21 5 22 7 23 6 24
REMARK SMILES IDX 22 25 23 26 24 27 25 28 26 30 27 31 28 32 74 33 29 34 73 35
REMARK SMILES IDX 30 36 31 37 32 38 67 39 33 40 72 41 66 42 68 43 34 44 71 45
REMARK SMILES IDX 65 46 64 47 35 49 57 50 42 51 56 52 43 53 46 54 55 55 69 56
REMARK SMILES IDX 44 57 45 58 54 60 70 61 47 62 36 63 37 64 41 65 38 66 40 67
REMARK SMILES IDX 39 68 58 69 59 70 63 71 60 72 62 73 61 74 48 75 49 76 53 77
REMARK SMILES IDX 50 78 52 79 51 80
REMARK H PARENT 19 6 9 12 24 29 68 48 46 59
REMARK Flexibility Score: inf
ROOT
ATOM      1  C   UNL A   1      32.971  28.959  24.541  1.00  0.00     0.023 C 
ENDROOT
BRANCH   1   2
ATOM      2  C   UNL A   1      31.950  28.082  23.813  1.00  0.00     0.116 C 
BRANCH   2   3
ATOM      3  N   UNL A   1      32.523  27.532  22.597  1.00  0.00    -0.356 N 
ATOM      4  C   UNL A   1      33.108  26.323  22.358  1.00  0.00     0.220 C 
ATOM      5  O   UNL A   1      33.661  26.155  21.271  1.00  0.00    -0.275 OA
ATOM      6  H   UNL A   1      32.482  28.130  21.817  1.00  0.00     0.163 HD
BRANCH   4   7
ATOM      7  C   UNL A   1      33.052  25.202  23.382  1.00  0.00     0.104 C 
BRANCH   7   8
ATOM      8  C   UNL A   1      34.425  24.714  23.904  1.00  0.00     0.010 C 
ATOM      9  N   UNL A   1      35.145  22.146  25.261  1.00  0.00    -0.324 N 
ATOM     10  C   UNL A   1      35.706  22.451  23.945  1.00  0.00     0.185 C 
ATOM     11  C   UNL A   1      35.315  23.402  25.988  1.00  0.00     0.185 C 
ATOM     12  H   UNL A   1      35.649  21.332  25.611  1.00  0.00     0.349 HD
ATOM     13  C   UNL A   1      37.051  23.075  24.363  1.00  0.00     0.071 C 
ATOM     14  C   UNL A   1      34.881  23.463  23.124  1.00  0.00     0.069 C 
ATOM     15  C   UNL A   1      36.778  23.732  25.712  1.00  0.00     0.071 C 
ATOM     16  C   UNL A   1      34.398  24.486  25.422  1.00  0.00     0.069 C 
BRANCH   9  17
ATOM     17  C   UNL A   1      33.854  21.468  25.467  1.00  0.00     0.212 C 
ATOM     18  C   UNL A   1      33.698  21.200  26.971  1.00  0.00     0.081 C 
BRANCH  17  19
ATOM     19  C   UNL A   1      33.567  20.209  24.670  1.00  0.00     0.012 A 
ATOM     20  C   UNL A   1      32.520  20.130  23.744  1.00  0.00     0.030 A 
ATOM     21  C   UNL A   1      34.356  19.065  24.858  1.00  0.00     0.030 A 
ATOM     22  C   UNL A   1      32.269  18.918  23.117  1.00  0.00     0.111 A 
ATOM     23  C   UNL A   1      34.032  17.902  24.176  1.00  0.00     0.111 A 
ATOM     24  N   UNL A   1      32.997  17.800  23.319  1.00  0.00    -0.265 NA
ENDBRANCH  17  19
ENDBRANCH   9  17
ENDBRANCH   7   8
ENDBRANCH   4   7
ENDBRANCH   2   3
ENDBRANCH   1   2
BRANCH   1  25
ATOM     25  C   UNL A   1      32.520  29.526  25.872  1.00  0.00     0.023 C 
BRANCH  25  26
ATOM     26  C   UNL A   1      33.581  29.458  26.947  1.00  0.00     0.116 C 
BRANCH  26  27
ATOM     27  N   UNL A   1      33.668  30.665  27.764  1.00  0.00    -0.352 N 
ATOM     28  C   UNL A   1      34.725  31.078  28.544  1.00  0.00     0.251 C 
ATOM     29  H   UNL A   1      32.878  31.253  27.755  1.00  0.00     0.163 HD
ATOM     30  O   UNL A   1      34.650  32.081  29.246  1.00  0.00    -0.269 OA
BRANCH  28  31
ATOM     31  C   UNL A   1      35.939  30.239  28.555  1.00  0.00     0.039 A 
ATOM     32  C   UNL A   1      36.824  30.309  27.478  1.00  0.00     0.014 A 
ATOM     33  C   UNL A   1      36.271  29.537  29.714  1.00  0.00     0.014 A 
ATOM     34  C   UNL A   1      38.098  29.753  27.607  1.00  0.00     0.010 A 
ATOM     35  C   UNL A   1      37.572  29.092  29.881  1.00  0.00     0.010 A 
ATOM     36  C   UNL A   1      38.499  29.192  28.830  1.00  0.00    -0.014 A 
BRANCH  36  37
ATOM     37  C   UNL A   1      39.869  28.670  29.052  1.00  0.00     0.031 A 
ATOM     38  C   UNL A   1      40.922  29.599  29.593  1.00  0.00     0.074 A 
ATOM     39  C   UNL A   1      40.198  27.421  28.670  1.00  0.00     0.049 A 
ATOM     40  N   UNL A   1      42.214  29.423  29.685  1.00  0.00    -0.248 NA
ATOM     41  C   UNL A   1      40.462  30.926  30.038  1.00  0.00     0.031 C 
ATOM     42  C   UNL A   1      39.285  26.434  28.087  1.00  0.00     0.029 A 
ATOM     43  N   UNL A   1      41.408  26.774  28.699  1.00  0.00    -0.354 N 
ATOM     44  C   UNL A   1      42.721  30.630  30.147  1.00  0.00     0.074 A 
ATOM     45  C   UNL A   1      41.609  31.545  30.267  1.00  0.00     0.031 C 
ATOM     46  C   UNL A   1      39.962  25.299  27.843  1.00  0.00     0.029 A 
ATOM     47  C   UNL A   1      41.361  25.490  28.207  1.00  0.00     0.049 A 
ATOM     48  H   UNL A   1      42.232  27.188  29.041  1.00  0.00     0.167 HD
ATOM     49  C   UNL A   1      43.997  30.946  30.466  1.00  0.00     0.031 A 
ATOM     50  C   UNL A   1      42.340  24.578  28.059  1.00  0.00     0.031 A 
ATOM     51  C   UNL A   1      45.092  30.019  30.404  1.00  0.00     0.049 A 
ATOM     52  C   UNL A   1      43.743  24.935  28.465  1.00  0.00     0.074 A 
ATOM     53  C   UNL A   1      46.409  30.216  30.774  1.00  0.00     0.029 A 
ATOM     54  N   UNL A   1      44.987  28.712  29.955  1.00  0.00    -0.354 N 
ATOM     55  N   UNL A   1      44.200  26.067  28.942  1.00  0.00    -0.248 NA
ATOM     56  C   UNL A   1      44.762  23.886  28.320  1.00  0.00     0.031 C 
ATOM     57  C   UNL A   1      47.110  29.030  30.527  1.00  0.00     0.029 A 
ATOM     58  C   UNL A   1      46.218  28.089  30.038  1.00  0.00     0.049 A 
ATOM     59  H   UNL A   1      44.160  28.292  29.627  1.00  0.00     0.167 HD
ATOM     60  C   UNL A   1      45.552  25.857  29.184  1.00  0.00     0.074 A 
ATOM     61  C   UNL A   1      45.838  24.488  28.808  1.00  0.00     0.031 C 
ATOM     62  C   UNL A   1      46.473  26.720  29.675  1.00  0.00     0.031 A 
BRANCH  49  63
ATOM     63  C   UNL A   1      44.263  32.354  30.916  1.00  0.00    -0.014 A 
ATOM     64  C   UNL A   1      44.585  33.363  29.994  1.00  0.00     0.009 A 
ATOM     65  C   UNL A   1      44.188  32.676  32.279  1.00  0.00     0.009 A 
ATOM     66  C   UNL A   1      44.872  34.657  30.434  1.00  0.00     0.001 A 
ATOM     67  C   UNL A   1      44.445  33.978  32.713  1.00  0.00     0.001 A 
ATOM     68  C   UNL A   1      44.798  34.963  31.792  1.00  0.00     0.000 A 
ENDBRANCH  49  63
BRANCH  50  69
ATOM     69  C   UNL A   1      42.027  23.226  27.527  1.00  0.00    -0.014 A 
ATOM     70  C   UNL A   1      42.207  22.945  26.164  1.00  0.00     0.009 A 
ATOM     71  C   UNL A   1      41.543  22.214  28.371  1.00  0.00     0.009 A 
ATOM     72  C   UNL A   1      41.885  21.686  25.651  1.00  0.00     0.001 A 
ATOM     73  C   UNL A   1      41.246  20.949  27.859  1.00  0.00     0.001 A 
ATOM     74  C   UNL A   1      41.408  20.688  26.500  1.00  0.00     0.000 A 
ENDBRANCH  50  69
BRANCH  62  75
ATOM     75  C   UNL A   1      47.864  26.196  29.884  1.00  0.00    -0.014 A 
ATOM     76  C   UNL A   1      48.777  26.116  28.824  1.00  0.00     0.009 A 
ATOM     77  C   UNL A   1      48.280  25.842  31.178  1.00  0.00     0.009 A 
ATOM     78  C   UNL A   1      50.079  25.667  29.053  1.00  0.00     0.001 A 
ATOM     79  C   UNL A   1      49.588  25.416  31.406  1.00  0.00     0.001 A 
ATOM     80  C   UNL A   1      50.485  25.324  30.343  1.00  0.00     0.000 A 
ENDBRANCH  62  75
ENDBRANCH  36  37
ENDBRANCH  28  31
ENDBRANCH  26  27
ENDBRANCH  25  26
ENDBRANCH   1  25
TORSDOF 14
ENDMDL
MODEL 3
REMARK VINA RESULT:     -11.1      3.524      5.869
REMARK SMILES C[C@H](c1ccncc1)[N@H+]1[C@@H]2CC[C@H]1C[C@H](CC(=O)NCCCCNC(=O)c1ccc(-c3c4nc(c(-c5ccccc5)c5ccc([nH]5)c(-c5ccccc5)c5nc(c(-c6ccccc6)c6ccc3[nH]6)C=C5)C=C4)cc1)C2
REMARK SMILES IDX 21 1 20 2 19 3 17 4 18 5 16 7 15 8 9 9 10 10 13 11 11 13
REMARK SMILES IDX 75 14 12 15 14 16 2 17 1 18 3 19 4 20 8 21 5 22 7 23 6 24
REMARK SMILES IDX 22 25 23 26 24 27 25 28 26 30 27 31 28 32 74 33 29 34 73 35
REMARK SMILES IDX 30 36 31 37 32 38 67 39 33 40 72 41 66 42 68 43 34 44 71 45
REMARK SMILES IDX 65 46 64 47 35 49 57 50 42 51 56 52 43 53 46 54 55 55 69 56
REMARK SMILES IDX 44 57 45 58 54 60 70 61 47 62 36 63 37 64 41 65 38 66 40 67
REMARK SMILES IDX 39 68 58 69 59 70 63 71 60 72 62 73 61 74 48 75 49 76 53 77
REMARK SMILES IDX 50 78 52 79 51 80
REMARK H PARENT 19 6 9 12 24 29 68 48 46 59
REMARK Flexibility Score: inf
ROOT
ATOM      1  C   UNL A   1      31.874  29.624  25.283  1.00  0.00     0.023 C 
ENDROOT
BRANCH   1   2
ATOM      2  C   UNL A   1      31.522  29.145  23.872  1.00  0.00     0.116 C 
BRANCH   2   3
ATOM      3  N   UNL A   1      32.711  29.079  23.042  1.00  0.00    -0.356 N 
ATOM      4  C   UNL A   1      33.290  28.023  22.401  1.00  0.00     0.220 C 
ATOM      5  O   UNL A   1      34.394  28.197  21.883  1.00  0.00    -0.275 OA
ATOM      6  H   UNL A   1      33.178  29.937  22.923  1.00  0.00     0.163 HD
BRANCH   4   7
ATOM      7  C   UNL A   1      32.585  26.681  22.292  1.00  0.00     0.104 C 
BRANCH   7   8
ATOM      8  C   UNL A   1      32.043  26.109  23.625  1.00  0.00     0.010 C 
ATOM      9  N   UNL A   1      32.431  23.399  24.832  1.00  0.00    -0.324 N 
ATOM     10  C   UNL A   1      32.973  24.578  25.509  1.00  0.00     0.185 C 
ATOM     11  C   UNL A   1      31.082  23.824  24.467  1.00  0.00     0.185 C 
ATOM     12  H   UNL A   1      32.514  22.623  25.488  1.00  0.00     0.349 HD
ATOM     13  C   UNL A   1      31.825  24.876  26.493  1.00  0.00     0.071 C 
ATOM     14  C   UNL A   1      33.209  25.788  24.583  1.00  0.00     0.069 C 
ATOM     15  C   UNL A   1      30.563  24.398  25.781  1.00  0.00     0.071 C 
ATOM     16  C   UNL A   1      31.126  24.902  23.384  1.00  0.00     0.069 C 
BRANCH   9  17
ATOM     17  C   UNL A   1      33.155  22.640  23.799  1.00  0.00     0.212 C 
ATOM     18  C   UNL A   1      32.325  21.392  23.465  1.00  0.00     0.081 C 
BRANCH  17  19
ATOM     19  C   UNL A   1      34.600  22.262  24.065  1.00  0.00     0.012 A 
ATOM     20  C   UNL A   1      35.674  22.977  23.521  1.00  0.00     0.030 A 
ATOM     21  C   UNL A   1      34.899  21.153  24.869  1.00  0.00     0.030 A 
ATOM     22  C   UNL A   1      36.965  22.519  23.739  1.00  0.00     0.111 A 
ATOM     23  C   UNL A   1      36.224  20.779  25.038  1.00  0.00     0.111 A 
ATOM     24  N   UNL A   1      37.263  21.430  24.480  1.00  0.00    -0.265 NA
ENDBRANCH  17  19
ENDBRANCH   9  17
ENDBRANCH   7   8
ENDBRANCH   4   7
ENDBRANCH   2   3
ENDBRANCH   1   2
BRANCH   1  25
ATOM     25  C   UNL A   1      33.307  29.391  25.717  1.00  0.00     0.023 C 
BRANCH  25  26
ATOM     26  C   UNL A   1      33.475  29.290  27.215  1.00  0.00     0.116 C 
BRANCH  26  27
ATOM     27  N   UNL A   1      33.617  30.583  27.879  1.00  0.00    -0.352 N 
ATOM     28  C   UNL A   1      34.724  31.074  28.535  1.00  0.00     0.251 C 
ATOM     29  H   UNL A   1      32.828  31.172  27.855  1.00  0.00     0.163 HD
ATOM     30  O   UNL A   1      34.696  32.153  29.119  1.00  0.00    -0.269 OA
BRANCH  28  31
ATOM     31  C   UNL A   1      35.935  30.233  28.562  1.00  0.00     0.039 A 
ATOM     32  C   UNL A   1      36.815  30.269  27.479  1.00  0.00     0.014 A 
ATOM     33  C   UNL A   1      36.271  29.563  29.739  1.00  0.00     0.014 A 
ATOM     34  C   UNL A   1      38.087  29.713  27.617  1.00  0.00     0.010 A 
ATOM     35  C   UNL A   1      37.572  29.118  29.912  1.00  0.00     0.010 A 
ATOM     36  C   UNL A   1      38.494  29.186  28.853  1.00  0.00    -0.014 A 
BRANCH  36  37
ATOM     37  C   UNL A   1      39.863  28.666  29.082  1.00  0.00     0.031 A 
ATOM     38  C   UNL A   1      40.909  29.593  29.637  1.00  0.00     0.074 A 
ATOM     39  C   UNL A   1      40.199  27.420  28.694  1.00  0.00     0.049 A 
ATOM     40  N   UNL A   1      42.201  29.420  29.739  1.00  0.00    -0.248 NA
ATOM     41  C   UNL A   1      40.442  30.916  30.088  1.00  0.00     0.031 C 
ATOM     42  C   UNL A   1      39.293  26.435  28.097  1.00  0.00     0.029 A 
ATOM     43  N   UNL A   1      41.410  26.776  28.728  1.00  0.00    -0.354 N 
ATOM     44  C   UNL A   1      42.702  30.626  30.213  1.00  0.00     0.074 A 
ATOM     45  C   UNL A   1      41.586  31.537  30.330  1.00  0.00     0.031 C 
ATOM     46  C   UNL A   1      39.974  25.303  27.850  1.00  0.00     0.029 A 
ATOM     47  C   UNL A   1      41.371  25.496  28.226  1.00  0.00     0.049 A 
ATOM     48  H   UNL A   1      42.231  27.190  29.079  1.00  0.00     0.167 HD
ATOM     49  C   UNL A   1      43.974  30.943  30.544  1.00  0.00     0.031 A 
ATOM     50  C   UNL A   1      42.353  24.587  28.080  1.00  0.00     0.031 A 
ATOM     51  C   UNL A   1      45.071  30.019  30.484  1.00  0.00     0.049 A 
ATOM     52  C   UNL A   1      43.752  24.945  28.499  1.00  0.00     0.074 A 
ATOM     53  C   UNL A   1      46.386  30.217  30.866  1.00  0.00     0.029 A 
ATOM     54  N   UNL A   1      44.974  28.716  30.025  1.00  0.00    -0.354 N 
ATOM     55  N   UNL A   1      44.202  26.075  28.988  1.00  0.00    -0.248 NA
ATOM     56  C   UNL A   1      44.775  23.900  28.355  1.00  0.00     0.031 C 
ATOM     57  C   UNL A   1      47.091  29.035  30.616  1.00  0.00     0.029 A 
ATOM     58  C   UNL A   1      46.206  28.095  30.114  1.00  0.00     0.049 A 
ATOM     59  H   UNL A   1      44.151  28.295  29.687  1.00  0.00     0.167 HD
ATOM     60  C   UNL A   1      45.552  25.867  29.239  1.00  0.00     0.074 A 
ATOM     61  C   UNL A   1      45.845  24.502  28.856  1.00  0.00     0.031 C 
ATOM     62  C   UNL A   1      46.468  26.729  29.743  1.00  0.00     0.031 A 
BRANCH  49  63
ATOM     63  C   UNL A   1      44.233  32.349  31.006  1.00  0.00    -0.014 A 
ATOM     64  C   UNL A   1      44.563  33.364  30.094  1.00  0.00     0.009 A 
ATOM     65  C   UNL A   1      44.141  32.662  32.370  1.00  0.00     0.009 A 
ATOM     66  C   UNL A   1      44.844  34.655  30.545  1.00  0.00     0.001 A 
ATOM     67  C   UNL A   1      44.391  33.961  32.814  1.00  0.00     0.001 A 
ATOM     68  C   UNL A   1      44.753  34.953  31.904  1.00  0.00     0.000 A 
ENDBRANCH  49  63
BRANCH  50  69
ATOM     69  C   UNL A   1      42.048  23.238  27.536  1.00  0.00    -0.014 A 
ATOM     70  C   UNL A   1      42.251  22.963  26.175  1.00  0.00     0.009 A 
ATOM     71  C   UNL A   1      41.549  22.223  28.367  1.00  0.00     0.009 A 
ATOM     72  C   UNL A   1      41.937  21.708  25.650  1.00  0.00     0.001 A 
ATOM     73  C   UNL A   1      41.259  20.961  27.843  1.00  0.00     0.001 A 
ATOM     74  C   UNL A   1      41.444  20.706  26.486  1.00  0.00     0.000 A 
ENDBRANCH  50  69
BRANCH  62  75
ATOM     75  C   UNL A   1      47.858  26.208  29.959  1.00  0.00    -0.014 A 
ATOM     76  C   UNL A   1      48.787  26.160  28.911  1.00  0.00     0.009 A 
ATOM     77  C   UNL A   1      48.257  25.823  31.249  1.00  0.00     0.009 A 
ATOM     78  C   UNL A   1      50.089  25.712  29.148  1.00  0.00     0.001 A 
ATOM     79  C   UNL A   1      49.564  25.398  31.486  1.00  0.00     0.001 A 
ATOM     80  C   UNL A   1      50.477  25.338  30.434  1.00  0.00     0.000 A 
ENDBRANCH  62  75
ENDBRANCH  36  37
ENDBRANCH  28  31
ENDBRANCH  26  27
ENDBRANCH  25  26
ENDBRANCH   1  25
TORSDOF 14
ENDMDL
