MODEL 1
REMARK VINA RESULT:     -10.4      0.000      0.000
REMARK SMILES CC(C)(C)OC(=O)N1CC[C@@H]2CO[C@@H](CC(=O)NCCCCNC(=O)c3ccc(-c4c5nc(c(-c6ccccc6)c6ccc([nH]6)c(-c6ccccc6)c6nc(c(-c7ccccc7)c7ccc4[nH]7)C=C6)C=C5)cc3)[C@@H]2C1
REMARK SMILES IDX 19 1 18 2 16 3 17 4 15 6 14 7 8 8 9 9 75 10 10 11 74 12
REMARK SMILES IDX 11 13 12 14 13 15 6 16 7 17 5 18 2 19 1 20 3 21 4 22 20 23
REMARK SMILES IDX 21 24 22 25 23 26 24 27 25 29 26 30 27 31 73 32 28 33 72 34
REMARK SMILES IDX 29 35 30 36 31 37 66 38 32 39 71 40 65 41 67 42 33 43 70 44
REMARK SMILES IDX 64 45 63 46 34 48 56 49 41 50 55 51 42 52 45 53 54 54 68 55
REMARK SMILES IDX 43 56 44 57 53 59 69 60 46 61 35 62 36 63 40 64 37 65 39 66
REMARK SMILES IDX 38 67 57 68 58 69 62 70 59 71 61 72 60 73 47 74 48 75 52 76
REMARK SMILES IDX 49 77 51 78 50 79
REMARK H PARENT 18 5 23 28 67 47 45 58
REMARK Flexibility Score: inf
ROOT
ATOM      1  C   UNL A   1      37.843  23.301  26.215  1.00  0.00     0.116 C 
ENDROOT
BRANCH   1   2
ATOM      2  N   UNL A   1      37.480  23.539  24.829  1.00  0.00    -0.356 N 
ATOM      3  C   UNL A   1      36.754  22.757  23.980  1.00  0.00     0.222 C 
ATOM      4  O   UNL A   1      36.639  23.110  22.804  1.00  0.00    -0.275 OA
ATOM      5  H   UNL A   1      37.807  24.386  24.446  1.00  0.00     0.163 HD
BRANCH   3   6
ATOM      6  C   UNL A   1      36.055  21.514  24.488  1.00  0.00     0.132 C 
BRANCH   6   7
ATOM      7  C   UNL A   1      34.757  21.729  25.274  1.00  0.00     0.132 C 
ATOM      8  N   UNL A   1      31.748  23.986  25.558  1.00  0.00    -0.308 N 
ATOM      9  C   UNL A   1      30.962  23.290  24.555  1.00  0.00     0.123 C 
ATOM     10  C   UNL A   1      33.001  23.366  25.967  1.00  0.00     0.129 C 
ATOM     11  C   UNL A   1      31.801  22.970  23.325  1.00  0.00     0.028 C 
ATOM     12  C   UNL A   1      33.887  22.894  24.799  1.00  0.00     0.044 C 
ATOM     13  C   UNL A   1      33.094  22.244  23.674  1.00  0.00     0.024 C 
ATOM     14  C   UNL A   1      32.898  20.820  24.170  1.00  0.00     0.164 C 
ATOM     15  O   UNL A   1      33.884  20.597  25.189  1.00  0.00    -0.377 OA
BRANCH   8  16
ATOM     16  C   UNL A   1      31.119  24.937  26.345  1.00  0.00     0.410 C 
ATOM     17  O   UNL A   1      29.902  24.980  26.503  1.00  0.00    -0.224 OA
BRANCH  16  18
ATOM     18  O   UNL A   1      31.996  25.817  26.887  1.00  0.00    -0.444 OA
BRANCH  18  19
ATOM     19  C   UNL A   1      32.165  27.154  26.349  1.00  0.00     0.106 C 
ATOM     20  C   UNL A   1      33.670  27.268  26.058  1.00  0.00     0.056 C 
ATOM     21  C   UNL A   1      31.778  28.178  27.417  1.00  0.00     0.056 C 
ATOM     22  C   UNL A   1      31.409  27.392  25.034  1.00  0.00     0.056 C 
ENDBRANCH  18  19
ENDBRANCH  16  18
ENDBRANCH   8  16
ENDBRANCH   6   7
ENDBRANCH   3   6
ENDBRANCH   1   2
BRANCH   1  23
ATOM     23  C   UNL A   1      39.235  22.680  26.366  1.00  0.00     0.023 C 
BRANCH  23  24
ATOM     24  C   UNL A   1      39.399  21.287  25.760  1.00  0.00     0.023 C 
BRANCH  24  25
ATOM     25  C   UNL A   1      40.145  20.293  26.637  1.00  0.00     0.116 C 
BRANCH  25  26
ATOM     26  N   UNL A   1      41.349  19.778  26.002  1.00  0.00    -0.352 N 
ATOM     27  C   UNL A   1      42.540  20.412  25.748  1.00  0.00     0.251 C 
ATOM     28  H   UNL A   1      41.302  18.839  25.710  1.00  0.00     0.163 HD
ATOM     29  O   UNL A   1      43.402  19.858  25.073  1.00  0.00    -0.269 OA
BRANCH  27  30
ATOM     30  C   UNL A   1      42.773  21.775  26.267  1.00  0.00     0.039 A 
ATOM     31  C   UNL A   1      42.939  22.822  25.357  1.00  0.00     0.014 A 
ATOM     32  C   UNL A   1      42.822  22.023  27.642  1.00  0.00     0.014 A 
ATOM     33  C   UNL A   1      43.085  24.129  25.825  1.00  0.00     0.010 A 
ATOM     34  C   UNL A   1      42.896  23.331  28.106  1.00  0.00     0.010 A 
ATOM     35  C   UNL A   1      43.030  24.396  27.202  1.00  0.00    -0.014 A 
BRANCH  35  36
ATOM     36  C   UNL A   1      43.111  25.782  27.723  1.00  0.00     0.031 A 
ATOM     37  C   UNL A   1      44.441  26.367  28.104  1.00  0.00     0.074 A 
ATOM     38  C   UNL A   1      41.981  26.485  27.923  1.00  0.00     0.049 A 
ATOM     39  N   UNL A   1      44.705  27.527  28.650  1.00  0.00    -0.248 NA
ATOM     40  C   UNL A   1      45.626  25.527  27.866  1.00  0.00     0.031 C 
ATOM     41  C   UNL A   1      40.623  26.014  27.638  1.00  0.00     0.029 A 
ATOM     42  N   UNL A   1      41.796  27.748  28.426  1.00  0.00    -0.354 N 
ATOM     43  C   UNL A   1      46.081  27.546  28.842  1.00  0.00     0.074 A 
ATOM     44  C   UNL A   1      46.589  26.267  28.393  1.00  0.00     0.031 C 
ATOM     45  C   UNL A   1      39.747  26.982  27.954  1.00  0.00     0.029 A 
ATOM     46  C   UNL A   1      40.476  28.126  28.490  1.00  0.00     0.049 A 
ATOM     47  H   UNL A   1      42.537  28.328  28.714  1.00  0.00     0.167 HD
ATOM     48  C   UNL A   1      46.855  28.543  29.330  1.00  0.00     0.031 A 
ATOM     49  C   UNL A   1      39.917  29.265  28.937  1.00  0.00     0.031 A 
ATOM     50  C   UNL A   1      46.355  29.820  29.760  1.00  0.00     0.049 A 
ATOM     51  C   UNL A   1      40.796  30.364  29.459  1.00  0.00     0.074 A 
ATOM     52  C   UNL A   1      47.067  30.916  30.219  1.00  0.00     0.029 A 
ATOM     53  N   UNL A   1      45.016  30.174  29.781  1.00  0.00    -0.354 N 
ATOM     54  N   UNL A   1      42.101  30.388  29.581  1.00  0.00    -0.248 NA
ATOM     55  C   UNL A   1      40.125  31.597  29.894  1.00  0.00     0.031 C 
ATOM     56  C   UNL A   1      46.152  31.923  30.548  1.00  0.00     0.029 A 
ATOM     57  C   UNL A   1      44.877  31.467  30.257  1.00  0.00     0.049 A 
ATOM     58  H   UNL A   1      44.273  29.592  29.499  1.00  0.00     0.167 HD
ATOM     59  C   UNL A   1      42.410  31.643  30.088  1.00  0.00     0.074 A 
ATOM     60  C   UNL A   1      41.157  32.355  30.237  1.00  0.00     0.031 C 
ATOM     61  C   UNL A   1      43.623  32.158  30.402  1.00  0.00     0.031 A 
BRANCH  48  62
ATOM     62  C   UNL A   1      48.330  28.279  29.426  1.00  0.00    -0.014 A 
ATOM     63  C   UNL A   1      48.893  27.732  30.591  1.00  0.00     0.009 A 
ATOM     64  C   UNL A   1      49.166  28.568  28.338  1.00  0.00     0.009 A 
ATOM     65  C   UNL A   1      50.270  27.518  30.678  1.00  0.00     0.001 A 
ATOM     66  C   UNL A   1      50.540  28.328  28.418  1.00  0.00     0.001 A 
ATOM     67  C   UNL A   1      51.091  27.813  29.591  1.00  0.00     0.000 A 
ENDBRANCH  48  62
BRANCH  49  68
ATOM     68  C   UNL A   1      38.442  29.430  28.888  1.00  0.00    -0.014 A 
ATOM     69  C   UNL A   1      37.809  29.799  27.691  1.00  0.00     0.009 A 
ATOM     70  C   UNL A   1      37.660  29.208  30.032  1.00  0.00     0.009 A 
ATOM     71  C   UNL A   1      36.424  29.961  27.645  1.00  0.00     0.001 A 
ATOM     72  C   UNL A   1      36.272  29.349  29.977  1.00  0.00     0.001 A 
ATOM     73  C   UNL A   1      35.656  29.732  28.787  1.00  0.00     0.000 A 
ENDBRANCH  49  68
BRANCH  61  74
ATOM     74  C   UNL A   1      43.653  33.568  30.915  1.00  0.00    -0.014 A 
ATOM     75  C   UNL A   1      43.737  34.657  30.036  1.00  0.00     0.009 A 
ATOM     76  C   UNL A   1      43.561  33.806  32.295  1.00  0.00     0.009 A 
ATOM     77  C   UNL A   1      43.754  35.963  30.533  1.00  0.00     0.001 A 
ATOM     78  C   UNL A   1      43.557  35.112  32.787  1.00  0.00     0.001 A 
ATOM     79  C   UNL A   1      43.660  36.188  31.906  1.00  0.00     0.000 A 
ENDBRANCH  61  74
ENDBRANCH  35  36
ENDBRANCH  27  30
ENDBRANCH  25  26
ENDBRANCH  24  25
ENDBRANCH  23  24
ENDBRANCH   1  23
TORSDOF 15
ENDMDL
MODEL 2
REMARK VINA RESULT:     -10.2      1.901      2.624
REMARK SMILES CC(C)(C)OC(=O)N1CC[C@@H]2CO[C@@H](CC(=O)NCCCCNC(=O)c3ccc(-c4c5nc(c(-c6ccccc6)c6ccc([nH]6)c(-c6ccccc6)c6nc(c(-c7ccccc7)c7ccc4[nH]7)C=C6)C=C5)cc3)[C@@H]2C1
REMARK SMILES IDX 19 1 18 2 16 3 17 4 15 6 14 7 8 8 9 9 75 10 10 11 74 12
REMARK SMILES IDX 11 13 12 14 13 15 6 16 7 17 5 18 2 19 1 20 3 21 4 22 20 23
REMARK SMILES IDX 21 24 22 25 23 26 24 27 25 29 26 30 27 31 73 32 28 33 72 34
REMARK SMILES IDX 29 35 30 36 31 37 66 38 32 39 71 40 65 41 67 42 33 43 70 44
REMARK SMILES IDX 64 45 63 46 34 48 56 49 41 50 55 51 42 52 45 53 54 54 68 55
REMARK SMILES IDX 43 56 44 57 53 59 69 60 46 61 35 62 36 63 40 64 37 65 39 66
REMARK SMILES IDX 38 67 57 68 58 69 62 70 59 71 61 72 60 73 47 74 48 75 52 76
REMARK SMILES IDX 49 77 51 78 50 79
REMARK H PARENT 18 5 23 28 67 47 45 58
REMARK Flexibility Score: inf
ROOT
ATOM      1  C   UNL A   1      34.892  20.365  24.966  1.00  0.00     0.116 C 
ENDROOT
BRANCH   1   2
ATOM      2  N   UNL A   1      34.363  20.729  26.269  1.00  0.00    -0.356 N 
ATOM      3  C   UNL A   1      34.359  21.942  26.891  1.00  0.00     0.222 C 
ATOM      4  O   UNL A   1      33.933  22.011  28.046  1.00  0.00    -0.275 OA
ATOM      5  H   UNL A   1      33.948  19.993  26.776  1.00  0.00     0.163 HD
BRANCH   3   6
ATOM      6  C   UNL A   1      34.812  23.185  26.155  1.00  0.00     0.132 C 
BRANCH   6   7
ATOM      7  C   UNL A   1      33.711  24.131  25.663  1.00  0.00     0.132 C 
ATOM      8  N   UNL A   1      32.857  26.598  22.941  1.00  0.00    -0.308 N 
ATOM      9  C   UNL A   1      32.341  25.605  22.016  1.00  0.00     0.123 C 
ATOM     10  C   UNL A   1      33.173  26.147  24.289  1.00  0.00     0.129 C 
ATOM     11  C   UNL A   1      33.258  24.390  21.948  1.00  0.00     0.028 C 
ATOM     12  C   UNL A   1      34.005  24.853  24.347  1.00  0.00     0.044 C 
ATOM     13  C   UNL A   1      33.565  23.814  23.324  1.00  0.00     0.024 C 
ATOM     14  C   UNL A   1      32.380  23.146  24.003  1.00  0.00     0.164 C 
ATOM     15  O   UNL A   1      32.484  23.439  25.404  1.00  0.00    -0.377 OA
BRANCH   8  16
ATOM     16  C   UNL A   1      32.646  27.937  22.654  1.00  0.00     0.410 C 
ATOM     17  O   UNL A   1      33.530  28.787  22.724  1.00  0.00    -0.224 OA
BRANCH  16  18
ATOM     18  O   UNL A   1      31.358  28.194  22.320  1.00  0.00    -0.444 OA
BRANCH  18  19
ATOM     19  C   UNL A   1      30.402  28.689  23.294  1.00  0.00     0.106 C 
ATOM     20  C   UNL A   1      29.483  27.491  23.580  1.00  0.00     0.056 C 
ATOM     21  C   UNL A   1      29.583  29.817  22.664  1.00  0.00     0.056 C 
ATOM     22  C   UNL A   1      31.040  29.124  24.621  1.00  0.00     0.056 C 
ENDBRANCH  18  19
ENDBRANCH  16  18
ENDBRANCH   8  16
ENDBRANCH   6   7
ENDBRANCH   3   6
ENDBRANCH   1   2
BRANCH   1  23
ATOM     23  C   UNL A   1      36.311  20.895  24.734  1.00  0.00     0.023 C 
BRANCH  23  24
ATOM     24  C   UNL A   1      37.432  19.877  24.941  1.00  0.00     0.023 C 
BRANCH  24  25
ATOM     25  C   UNL A   1      38.705  20.445  25.549  1.00  0.00     0.116 C 
BRANCH  25  26
ATOM     26  N   UNL A   1      39.762  19.451  25.665  1.00  0.00    -0.352 N 
ATOM     27  C   UNL A   1      41.063  19.606  26.074  1.00  0.00     0.251 C 
ATOM     28  H   UNL A   1      39.507  18.534  25.412  1.00  0.00     0.163 HD
ATOM     29  O   UNL A   1      41.856  18.674  25.974  1.00  0.00    -0.269 OA
BRANCH  27  30
ATOM     30  C   UNL A   1      41.516  20.905  26.611  1.00  0.00     0.039 A 
ATOM     31  C   UNL A   1      42.075  21.838  25.733  1.00  0.00     0.014 A 
ATOM     32  C   UNL A   1      41.386  21.206  27.970  1.00  0.00     0.014 A 
ATOM     33  C   UNL A   1      42.440  23.099  26.206  1.00  0.00     0.010 A 
ATOM     34  C   UNL A   1      41.684  22.486  28.425  1.00  0.00     0.010 A 
ATOM     35  C   UNL A   1      42.215  23.444  27.548  1.00  0.00    -0.014 A 
BRANCH  35  36
ATOM     36  C   UNL A   1      42.527  24.799  28.059  1.00  0.00     0.031 A 
ATOM     37  C   UNL A   1      43.926  25.139  28.490  1.00  0.00     0.074 A 
ATOM     38  C   UNL A   1      41.538  25.700  28.206  1.00  0.00     0.049 A 
ATOM     39  N   UNL A   1      44.376  26.239  29.036  1.00  0.00    -0.248 NA
ATOM     40  C   UNL A   1      44.946  24.093  28.308  1.00  0.00     0.031 C 
ATOM     41  C   UNL A   1      40.129  25.479  27.870  1.00  0.00     0.029 A 
ATOM     42  N   UNL A   1      41.567  26.983  28.690  1.00  0.00    -0.354 N 
ATOM     43  C   UNL A   1      45.724  26.010  29.284  1.00  0.00     0.074 A 
ATOM     44  C   UNL A   1      46.007  24.653  28.868  1.00  0.00     0.031 C 
ATOM     45  C   UNL A   1      39.433  26.596  28.140  1.00  0.00     0.029 A 
ATOM     46  C   UNL A   1      40.337  27.596  28.696  1.00  0.00     0.049 A 
ATOM     47  H   UNL A   1      42.390  27.423  29.003  1.00  0.00     0.167 HD
ATOM     48  C   UNL A   1      46.648  26.857  29.795  1.00  0.00     0.031 A 
ATOM     49  C   UNL A   1      39.979  28.826  29.110  1.00  0.00     0.031 A 
ATOM     50  C   UNL A   1      46.373  28.211  30.193  1.00  0.00     0.049 A 
ATOM     51  C   UNL A   1      41.023  29.755  29.658  1.00  0.00     0.074 A 
ATOM     52  C   UNL A   1      47.254  29.166  30.671  1.00  0.00     0.029 A 
ATOM     53  N   UNL A   1      45.121  28.804  30.156  1.00  0.00    -0.354 N 
ATOM     54  N   UNL A   1      42.304  29.542  29.833  1.00  0.00    -0.248 NA
ATOM     55  C   UNL A   1      40.573  31.096  30.053  1.00  0.00     0.031 C 
ATOM     56  C   UNL A   1      46.527  30.328  30.953  1.00  0.00     0.029 A 
ATOM     57  C   UNL A   1      45.202  30.107  30.614  1.00  0.00     0.049 A 
ATOM     58  H   UNL A   1      44.296  28.362  29.848  1.00  0.00     0.167 HD
ATOM     59  C   UNL A   1      42.817  30.728  30.342  1.00  0.00     0.074 A 
ATOM     60  C   UNL A   1      41.712  31.659  30.432  1.00  0.00     0.031 C 
ATOM     61  C   UNL A   1      44.091  31.019  30.700  1.00  0.00     0.031 A 
BRANCH  48  62
ATOM     62  C   UNL A   1      48.045  26.331  29.955  1.00  0.00    -0.014 A 
ATOM     63  C   UNL A   1      48.972  26.410  28.903  1.00  0.00     0.009 A 
ATOM     64  C   UNL A   1      48.444  25.760  31.172  1.00  0.00     0.009 A 
ATOM     65  C   UNL A   1      50.260  25.892  29.055  1.00  0.00     0.001 A 
ATOM     66  C   UNL A   1      49.740  25.265  31.330  1.00  0.00     0.001 A 
ATOM     67  C   UNL A   1      50.643  25.323  30.268  1.00  0.00     0.000 A 
ENDBRANCH  48  62
BRANCH  49  68
ATOM     68  C   UNL A   1      38.562  29.255  28.998  1.00  0.00    -0.014 A 
ATOM     69  C   UNL A   1      37.699  29.145  30.100  1.00  0.00     0.009 A 
ATOM     70  C   UNL A   1      38.069  29.788  27.798  1.00  0.00     0.009 A 
ATOM     71  C   UNL A   1      36.366  29.542  29.995  1.00  0.00     0.001 A 
ATOM     72  C   UNL A   1      36.740  30.205  27.702  1.00  0.00     0.001 A 
ATOM     73  C   UNL A   1      35.888  30.075  28.798  1.00  0.00     0.000 A 
ENDBRANCH  49  68
BRANCH  61  74
ATOM     74  C   UNL A   1      44.359  32.407  31.203  1.00  0.00    -0.014 A 
ATOM     75  C   UNL A   1      44.576  33.469  30.313  1.00  0.00     0.009 A 
ATOM     76  C   UNL A   1      44.357  32.659  32.583  1.00  0.00     0.009 A 
ATOM     77  C   UNL A   1      44.815  34.757  30.800  1.00  0.00     0.001 A 
ATOM     78  C   UNL A   1      44.573  33.950  33.065  1.00  0.00     0.001 A 
ATOM     79  C   UNL A   1      44.808  34.996  32.174  1.00  0.00     0.000 A 
ENDBRANCH  61  74
ENDBRANCH  35  36
ENDBRANCH  27  30
ENDBRANCH  25  26
ENDBRANCH  24  25
ENDBRANCH  23  24
ENDBRANCH   1  23
TORSDOF 15
ENDMDL
MODEL 3
REMARK VINA RESULT:     -10.2      1.034      6.015
REMARK SMILES CC(C)(C)OC(=O)N1CC[C@@H]2CO[C@@H](CC(=O)NCCCCNC(=O)c3ccc(-c4c5nc(c(-c6ccccc6)c6ccc([nH]6)c(-c6ccccc6)c6nc(c(-c7ccccc7)c7ccc4[nH]7)C=C6)C=C5)cc3)[C@@H]2C1
REMARK SMILES IDX 19 1 18 2 16 3 17 4 15 6 14 7 8 8 9 9 75 10 10 11 74 12
REMARK SMILES IDX 11 13 12 14 13 15 6 16 7 17 5 18 2 19 1 20 3 21 4 22 20 23
REMARK SMILES IDX 21 24 22 25 23 26 24 27 25 29 26 30 27 31 73 32 28 33 72 34
REMARK SMILES IDX 29 35 30 36 31 37 66 38 32 39 71 40 65 41 67 42 33 43 70 44
REMARK SMILES IDX 64 45 63 46 34 48 56 49 41 50 55 51 42 52 45 53 54 54 68 55
REMARK SMILES IDX 43 56 44 57 53 59 69 60 46 61 35 62 36 63 40 64 37 65 39 66
REMARK SMILES IDX 38 67 57 68 58 69 62 70 59 71 61 72 60 73 47 74 48 75 52 76
REMARK SMILES IDX 49 77 51 78 50 79
REMARK H PARENT 18 5 23 28 67 47 45 58
REMARK Flexibility Score: inf
ROOT
ATOM      1  C   UNL A   1      37.724  23.393  26.175  1.00  0.00     0.116 C 
ENDROOT
BRANCH   1   2
ATOM      2  N   UNL A   1      37.351  23.647  24.795  1.00  0.00    -0.356 N 
ATOM      3  C   UNL A   1      36.610  22.880  23.945  1.00  0.00     0.222 C 
ATOM      4  O   UNL A   1      36.486  23.245  22.775  1.00  0.00    -0.275 OA
ATOM      5  H   UNL A   1      37.680  24.495  24.417  1.00  0.00     0.163 HD
BRANCH   3   6
ATOM      6  C   UNL A   1      35.905  21.637  24.449  1.00  0.00     0.132 C 
BRANCH   6   7
ATOM      7  C   UNL A   1      34.572  21.850  25.174  1.00  0.00     0.132 C 
ATOM      8  N   UNL A   1      31.633  24.198  25.445  1.00  0.00    -0.308 N 
ATOM      9  C   UNL A   1      30.882  23.601  24.355  1.00  0.00     0.123 C 
ATOM     10  C   UNL A   1      32.837  23.504  25.879  1.00  0.00     0.129 C 
ATOM     11  C   UNL A   1      31.780  23.332  23.154  1.00  0.00     0.028 C 
ATOM     12  C   UNL A   1      33.772  23.077  24.733  1.00  0.00     0.044 C 
ATOM     13  C   UNL A   1      33.024  22.534  23.523  1.00  0.00     0.024 C 
ATOM     14  C   UNL A   1      32.750  21.089  23.909  1.00  0.00     0.164 C 
ATOM     15  O   UNL A   1      33.666  20.760  24.963  1.00  0.00    -0.377 OA
BRANCH   8  16
ATOM     16  C   UNL A   1      30.993  25.118  26.259  1.00  0.00     0.410 C 
ATOM     17  O   UNL A   1      29.770  25.194  26.357  1.00  0.00    -0.224 OA
BRANCH  16  18
ATOM     18  O   UNL A   1      31.866  25.930  26.903  1.00  0.00    -0.444 OA
BRANCH  18  19
ATOM     19  C   UNL A   1      32.162  27.267  26.420  1.00  0.00     0.106 C 
ATOM     20  C   UNL A   1      31.669  28.201  27.535  1.00  0.00     0.056 C 
ATOM     21  C   UNL A   1      31.358  27.529  25.146  1.00  0.00     0.056 C 
ATOM     22  C   UNL A   1      33.660  27.530  26.209  1.00  0.00     0.056 C 
ENDBRANCH  18  19
ENDBRANCH  16  18
ENDBRANCH   8  16
ENDBRANCH   6   7
ENDBRANCH   3   6
ENDBRANCH   1   2
BRANCH   1  23
ATOM     23  C   UNL A   1      39.103  22.737  26.305  1.00  0.00     0.023 C 
BRANCH  23  24
ATOM     24  C   UNL A   1      39.256  21.392  25.597  1.00  0.00     0.023 C 
BRANCH  24  25
ATOM     25  C   UNL A   1      39.566  20.219  26.515  1.00  0.00     0.116 C 
BRANCH  25  26
ATOM     26  N   UNL A   1      40.685  19.418  26.042  1.00  0.00    -0.352 N 
ATOM     27  C   UNL A   1      42.014  19.747  25.946  1.00  0.00     0.251 C 
ATOM     28  H   UNL A   1      40.456  18.506  25.748  1.00  0.00     0.163 HD
ATOM     29  O   UNL A   1      42.800  18.987  25.389  1.00  0.00    -0.269 OA
BRANCH  27  30
ATOM     30  C   UNL A   1      42.494  21.034  26.490  1.00  0.00     0.039 A 
ATOM     31  C   UNL A   1      42.924  22.022  25.601  1.00  0.00     0.014 A 
ATOM     32  C   UNL A   1      42.515  21.269  27.868  1.00  0.00     0.014 A 
ATOM     33  C   UNL A   1      43.311  23.271  26.089  1.00  0.00     0.010 A 
ATOM     34  C   UNL A   1      42.832  22.535  28.348  1.00  0.00     0.010 A 
ATOM     35  C   UNL A   1      43.234  23.547  27.463  1.00  0.00    -0.014 A 
BRANCH  35  36
ATOM     36  C   UNL A   1      43.570  24.887  28.000  1.00  0.00     0.031 A 
ATOM     37  C   UNL A   1      42.481  25.887  28.270  1.00  0.00     0.074 A 
ATOM     38  C   UNL A   1      44.860  25.231  28.173  1.00  0.00     0.049 A 
ATOM     39  N   UNL A   1      42.582  27.131  28.663  1.00  0.00    -0.248 NA
ATOM     40  C   UNL A   1      41.099  25.435  28.042  1.00  0.00     0.031 C 
ATOM     41  C   UNL A   1      46.014  24.370  27.903  1.00  0.00     0.029 A 
ATOM     42  N   UNL A   1      45.417  26.406  28.609  1.00  0.00    -0.354 N 
ATOM     43  C   UNL A   1      41.281  27.617  28.706  1.00  0.00     0.074 A 
ATOM     44  C   UNL A   1      40.414  26.548  28.260  1.00  0.00     0.031 C 
ATOM     45  C   UNL A   1      47.140  25.040  28.198  1.00  0.00     0.029 A 
ATOM     46  C   UNL A   1      46.791  26.383  28.645  1.00  0.00     0.049 A 
ATOM     47  H   UNL A   1      44.885  27.191  28.871  1.00  0.00     0.167 HD
ATOM     48  C   UNL A   1      40.845  28.836  29.098  1.00  0.00     0.031 A 
ATOM     49  C   UNL A   1      47.669  27.341  28.994  1.00  0.00     0.031 A 
ATOM     50  C   UNL A   1      41.703  29.895  29.558  1.00  0.00     0.049 A 
ATOM     51  C   UNL A   1      47.163  28.681  29.441  1.00  0.00     0.074 A 
ATOM     52  C   UNL A   1      41.351  31.148  30.029  1.00  0.00     0.029 A 
ATOM     53  N   UNL A   1      43.086  29.821  29.607  1.00  0.00    -0.354 N 
ATOM     54  N   UNL A   1      45.926  29.106  29.531  1.00  0.00    -0.248 NA
ATOM     55  C   UNL A   1      48.172  29.668  29.848  1.00  0.00     0.031 C 
ATOM     56  C   UNL A   1      42.526  31.845  30.334  1.00  0.00     0.029 A 
ATOM     57  C   UNL A   1      43.605  31.010  30.089  1.00  0.00     0.049 A 
ATOM     58  H   UNL A   1      43.620  29.038  29.340  1.00  0.00     0.167 HD
ATOM     59  C   UNL A   1      46.007  30.403  30.020  1.00  0.00     0.074 A 
ATOM     60  C   UNL A   1      47.413  30.688  30.222  1.00  0.00     0.031 C 
ATOM     61  C   UNL A   1      45.006  31.278  30.280  1.00  0.00     0.031 A 
BRANCH  48  62
ATOM     62  C   UNL A   1      39.365  29.085  29.038  1.00  0.00    -0.014 A 
ATOM     63  C   UNL A   1      38.550  28.877  30.163  1.00  0.00     0.009 A 
ATOM     64  C   UNL A   1      38.780  29.545  27.850  1.00  0.00     0.009 A 
ATOM     65  C   UNL A   1      37.172  29.086  30.086  1.00  0.00     0.001 A 
ATOM     66  C   UNL A   1      37.404  29.779  27.783  1.00  0.00     0.001 A 
ATOM     67  C   UNL A   1      36.601  29.539  28.898  1.00  0.00     0.000 A 
ENDBRANCH  48  62
BRANCH  49  68
ATOM     68  C   UNL A   1      49.125  27.054  28.953  1.00  0.00    -0.014 A 
ATOM     69  C   UNL A   1      49.772  26.511  30.074  1.00  0.00     0.009 A 
ATOM     70  C   UNL A   1      49.872  27.310  27.794  1.00  0.00     0.009 A 
ATOM     71  C   UNL A   1      51.142  26.247  30.040  1.00  0.00     0.001 A 
ATOM     72  C   UNL A   1      51.238  27.024  27.755  1.00  0.00     0.001 A 
ATOM     73  C   UNL A   1      51.873  26.500  28.880  1.00  0.00     0.000 A 
ENDBRANCH  49  68
BRANCH  61  74
ATOM     74  C   UNL A   1      45.396  32.618  30.832  1.00  0.00    -0.014 A 
ATOM     75  C   UNL A   1      45.638  33.707  29.983  1.00  0.00     0.009 A 
ATOM     76  C   UNL A   1      45.486  32.797  32.220  1.00  0.00     0.009 A 
ATOM     77  C   UNL A   1      45.991  34.950  30.516  1.00  0.00     0.001 A 
ATOM     78  C   UNL A   1      45.817  34.045  32.751  1.00  0.00     0.001 A 
ATOM     79  C   UNL A   1      46.075  35.117  31.898  1.00  0.00     0.000 A 
ENDBRANCH  61  74
ENDBRANCH  35  36
ENDBRANCH  27  30
ENDBRANCH  25  26
ENDBRANCH  24  25
ENDBRANCH  23  24
ENDBRANCH   1  23
TORSDOF 15
ENDMDL
