MODEL 1
REMARK VINA RESULT:     -10.9      0.000      0.000
REMARK SMILES N#Cc1ccn2cc(C(=O)NCCCCNC(=O)c3ccc(-c4c5nc(c(-c6ccccc6)c6ccc([nH]6)c(-c6ccccc6)c6nc(c(-c7ccccc7)c7ccc4[nH]7)C=C6)C=C5)cc3)nc2c1
REMARK SMILES IDX 14 1 13 2 12 3 11 4 9 5 10 6 8 8 3 9 4 10 69 11 5 12 68 13
REMARK SMILES IDX 6 14 67 15 7 16 2 17 1 18 15 19 16 20 17 21 18 23 19 24
REMARK SMILES IDX 20 25 66 26 21 27 65 28 22 29 23 30 24 31 59 32 25 33 64 34
REMARK SMILES IDX 58 35 60 36 26 37 63 38 57 39 56 40 27 42 49 43 34 44 48 45
REMARK SMILES IDX 35 46 38 47 47 48 61 49 36 50 37 51 46 53 62 54 39 55 28 56
REMARK SMILES IDX 29 57 33 58 30 59 32 60 31 61 50 62 51 63 55 64 52 65 54 66
REMARK SMILES IDX 53 67 40 68 41 69 45 70 42 71 44 72 43 73
REMARK H PARENT 11 7 16 22 60 41 38 52
REMARK Flexibility Score: inf
ROOT
ATOM      1  C   UNL A   1      46.682  26.319  27.943  1.00  0.00     0.023 C 
ENDROOT
BRANCH   1   2
ATOM      2  C   UNL A   1      45.804  27.434  27.364  1.00  0.00     0.023 C 
BRANCH   2   3
ATOM      3  C   UNL A   1      45.709  27.456  25.840  1.00  0.00     0.116 C 
BRANCH   3   4
ATOM      4  N   UNL A   1      44.368  27.770  25.377  1.00  0.00    -0.351 N 
ATOM      5  C   UNL A   1      43.303  26.957  25.047  1.00  0.00     0.271 C 
ATOM      6  O   UNL A   1      42.256  27.498  24.711  1.00  0.00    -0.267 OA
ATOM      7  H   UNL A   1      44.187  28.733  25.281  1.00  0.00     0.163 HD
BRANCH   5   8
ATOM      8  C   UNL A   1      43.426  25.495  25.110  1.00  0.00     0.147 A 
ATOM      9  C   UNL A   1      44.479  21.138  24.998  1.00  0.00     0.057 A 
ATOM     10  C   UNL A   1      43.201  21.026  25.702  1.00  0.00     0.038 A 
ATOM     11  C   UNL A   1      44.963  22.331  24.604  1.00  0.00     0.067 A 
ATOM     12  C   UNL A   1      42.500  22.145  25.963  1.00  0.00     0.094 A 
ATOM     13  C   UNL A   1      44.219  23.506  24.879  1.00  0.00     0.138 A 
ATOM     14  N   UNL A   1      43.013  23.374  25.553  1.00  0.00    -0.306 N 
ATOM     15  N   UNL A   1      44.476  24.758  24.601  1.00  0.00    -0.223 NA
ATOM     16  C   UNL A   1      42.508  24.639  25.700  1.00  0.00     0.127 A 
BRANCH   9  17
ATOM     17  C   UNL A   1      45.275  19.878  24.701  1.00  0.00     0.099 C 
ATOM     18  N   UNL A   1      45.935  18.834  24.454  1.00  0.00    -0.192 NA
ENDBRANCH   9  17
ENDBRANCH   5   8
ENDBRANCH   3   4
ENDBRANCH   2   3
ENDBRANCH   1   2
BRANCH   1  19
ATOM     19  C   UNL A   1      46.033  24.934  27.966  1.00  0.00     0.116 C 
BRANCH  19  20
ATOM     20  N   UNL A   1      45.631  24.482  29.282  1.00  0.00    -0.352 N 
ATOM     21  C   UNL A   1      44.579  24.752  30.112  1.00  0.00     0.251 C 
ATOM     22  H   UNL A   1      46.259  23.830  29.667  1.00  0.00     0.163 HD
ATOM     23  O   UNL A   1      44.439  23.994  31.076  1.00  0.00    -0.269 OA
BRANCH  21  24
ATOM     24  C   UNL A   1      43.663  25.919  29.988  1.00  0.00     0.039 A 
ATOM     25  C   UNL A   1      42.761  26.145  28.951  1.00  0.00     0.014 A 
ATOM     26  C   UNL A   1      43.786  26.895  30.998  1.00  0.00     0.014 A 
ATOM     27  C   UNL A   1      42.081  27.358  28.866  1.00  0.00     0.010 A 
ATOM     28  C   UNL A   1      43.104  28.103  30.924  1.00  0.00     0.010 A 
ATOM     29  C   UNL A   1      42.282  28.351  29.832  1.00  0.00    -0.014 A 
BRANCH  29  30
ATOM     30  C   UNL A   1      41.442  29.547  29.778  1.00  0.00     0.031 A 
ATOM     31  C   UNL A   1      42.223  30.787  29.507  1.00  0.00     0.074 A 
ATOM     32  C   UNL A   1      40.093  29.534  29.838  1.00  0.00     0.049 A 
ATOM     33  N   UNL A   1      42.331  31.833  30.256  1.00  0.00    -0.248 NA
ATOM     34  C   UNL A   1      43.115  30.800  28.332  1.00  0.00     0.031 C 
ATOM     35  C   UNL A   1      39.217  28.359  29.837  1.00  0.00     0.029 A 
ATOM     36  N   UNL A   1      39.203  30.573  29.805  1.00  0.00    -0.354 N 
ATOM     37  C   UNL A   1      43.151  32.719  29.558  1.00  0.00     0.074 A 
ATOM     38  C   UNL A   1      43.730  31.973  28.475  1.00  0.00     0.031 C 
ATOM     39  C   UNL A   1      37.949  28.742  29.560  1.00  0.00     0.029 A 
ATOM     40  C   UNL A   1      37.894  30.192  29.506  1.00  0.00     0.049 A 
ATOM     41  H   UNL A   1      39.462  31.507  29.977  1.00  0.00     0.167 HD
ATOM     42  C   UNL A   1      43.076  34.060  29.775  1.00  0.00     0.031 A 
ATOM     43  C   UNL A   1      36.854  31.007  29.189  1.00  0.00     0.031 A 
ATOM     44  C   UNL A   1      42.445  34.345  31.037  1.00  0.00     0.049 A 
ATOM     45  C   UNL A   1      37.184  32.358  29.681  1.00  0.00     0.074 A 
ATOM     46  C   UNL A   1      42.760  34.145  32.362  1.00  0.00     0.029 A 
ATOM     47  N   UNL A   1      41.094  34.564  30.970  1.00  0.00    -0.354 N 
ATOM     48  N   UNL A   1      37.251  32.673  30.940  1.00  0.00    -0.248 NA
ATOM     49  C   UNL A   1      37.790  33.306  28.761  1.00  0.00     0.031 C 
ATOM     50  C   UNL A   1      41.516  33.917  33.016  1.00  0.00     0.029 A 
ATOM     51  C   UNL A   1      40.483  34.065  32.087  1.00  0.00     0.049 A 
ATOM     52  H   UNL A   1      40.631  35.016  30.227  1.00  0.00     0.167 HD
ATOM     53  C   UNL A   1      38.290  33.582  31.005  1.00  0.00     0.074 A 
ATOM     54  C   UNL A   1      38.463  34.057  29.635  1.00  0.00     0.031 C 
ATOM     55  C   UNL A   1      39.100  33.628  32.103  1.00  0.00     0.031 A 
BRANCH  42  56
ATOM     56  C   UNL A   1      43.104  35.074  28.647  1.00  0.00    -0.014 A 
ATOM     57  C   UNL A   1      41.950  35.645  28.077  1.00  0.00     0.009 A 
ATOM     58  C   UNL A   1      44.326  35.699  28.331  1.00  0.00     0.009 A 
ATOM     59  C   UNL A   1      42.000  36.786  27.268  1.00  0.00     0.001 A 
ATOM     60  C   UNL A   1      44.379  36.861  27.549  1.00  0.00     0.001 A 
ATOM     61  C   UNL A   1      43.214  37.407  27.023  1.00  0.00     0.000 A 
ENDBRANCH  42  56
BRANCH  43  62
ATOM     62  C   UNL A   1      35.735  30.806  28.237  1.00  0.00    -0.014 A 
ATOM     63  C   UNL A   1      34.671  31.722  28.197  1.00  0.00     0.009 A 
ATOM     64  C   UNL A   1      35.542  29.557  27.617  1.00  0.00     0.009 A 
ATOM     65  C   UNL A   1      33.439  31.379  27.626  1.00  0.00     0.001 A 
ATOM     66  C   UNL A   1      34.306  29.211  27.049  1.00  0.00     0.001 A 
ATOM     67  C   UNL A   1      33.249  30.115  27.074  1.00  0.00     0.000 A 
ENDBRANCH  43  62
BRANCH  55  68
ATOM     68  C   UNL A   1      38.611  32.984  33.380  1.00  0.00    -0.014 A 
ATOM     69  C   UNL A   1      37.973  33.812  34.318  1.00  0.00     0.009 A 
ATOM     70  C   UNL A   1      38.877  31.652  33.745  1.00  0.00     0.009 A 
ATOM     71  C   UNL A   1      37.636  33.341  35.587  1.00  0.00     0.001 A 
ATOM     72  C   UNL A   1      38.506  31.169  35.006  1.00  0.00     0.001 A 
ATOM     73  C   UNL A   1      37.899  32.018  35.931  1.00  0.00     0.000 A 
ENDBRANCH  55  68
ENDBRANCH  29  30
ENDBRANCH  21  24
ENDBRANCH  19  20
ENDBRANCH   1  19
TORSDOF 12
ENDMDL
MODEL 2
REMARK VINA RESULT:     -10.8      4.633     11.056
REMARK SMILES N#Cc1ccn2cc(C(=O)NCCCCNC(=O)c3ccc(-c4c5nc(c(-c6ccccc6)c6ccc([nH]6)c(-c6ccccc6)c6nc(c(-c7ccccc7)c7ccc4[nH]7)C=C6)C=C5)cc3)nc2c1
REMARK SMILES IDX 14 1 13 2 12 3 11 4 9 5 10 6 8 8 3 9 4 10 69 11 5 12 68 13
REMARK SMILES IDX 6 14 67 15 7 16 2 17 1 18 15 19 16 20 17 21 18 23 19 24
REMARK SMILES IDX 20 25 66 26 21 27 65 28 22 29 23 30 24 31 59 32 25 33 64 34
REMARK SMILES IDX 58 35 60 36 26 37 63 38 57 39 56 40 27 42 49 43 34 44 48 45
REMARK SMILES IDX 35 46 38 47 47 48 61 49 36 50 37 51 46 53 62 54 39 55 28 56
REMARK SMILES IDX 29 57 33 58 30 59 32 60 31 61 50 62 51 63 55 64 52 65 54 66
REMARK SMILES IDX 53 67 40 68 41 69 45 70 42 71 44 72 43 73
REMARK H PARENT 11 7 16 22 60 41 38 52
REMARK Flexibility Score: inf
ROOT
ATOM      1  C   UNL A   1      33.005  28.696  27.276  1.00  0.00     0.023 C 
ENDROOT
BRANCH   1   2
ATOM      2  C   UNL A   1      32.545  27.695  26.210  1.00  0.00     0.023 C 
BRANCH   2   3
ATOM      3  C   UNL A   1      33.456  27.591  24.988  1.00  0.00     0.116 C 
BRANCH   3   4
ATOM      4  N   UNL A   1      33.136  26.439  24.161  1.00  0.00    -0.351 N 
ATOM      5  C   UNL A   1      32.103  26.212  23.274  1.00  0.00     0.271 C 
ATOM      6  O   UNL A   1      32.092  25.144  22.674  1.00  0.00    -0.267 OA
ATOM      7  H   UNL A   1      33.766  25.688  24.249  1.00  0.00     0.163 HD
BRANCH   5   8
ATOM      8  C   UNL A   1      31.064  27.227  23.055  1.00  0.00     0.147 A 
ATOM      9  C   UNL A   1      28.422  30.693  22.004  1.00  0.00     0.057 A 
ATOM     10  C   UNL A   1      27.417  29.856  22.659  1.00  0.00     0.038 A 
ATOM     11  C   UNL A   1      29.704  30.297  21.891  1.00  0.00     0.067 A 
ATOM     12  C   UNL A   1      27.787  28.661  23.155  1.00  0.00     0.094 A 
ATOM     13  C   UNL A   1      30.089  29.038  22.418  1.00  0.00     0.138 A 
ATOM     14  N   UNL A   1      29.115  28.260  23.029  1.00  0.00    -0.306 N 
ATOM     15  N   UNL A   1      31.254  28.443  22.432  1.00  0.00    -0.223 NA
ATOM     16  C   UNL A   1      29.735  27.108  23.436  1.00  0.00     0.127 A 
BRANCH   9  17
ATOM     17  C   UNL A   1      28.010  32.044  21.442  1.00  0.00     0.099 C 
ATOM     18  N   UNL A   1      27.669  33.164  20.976  1.00  0.00    -0.192 NA
ENDBRANCH   9  17
ENDBRANCH   5   8
ENDBRANCH   3   4
ENDBRANCH   2   3
ENDBRANCH   1   2
BRANCH   1  19
ATOM     19  C   UNL A   1      33.412  30.069  26.738  1.00  0.00     0.116 C 
BRANCH  19  20
ATOM     20  N   UNL A   1      33.622  31.075  27.759  1.00  0.00    -0.352 N 
ATOM     21  C   UNL A   1      34.711  31.545  28.438  1.00  0.00     0.251 C 
ATOM     22  H   UNL A   1      32.787  31.524  28.026  1.00  0.00     0.163 HD
ATOM     23  O   UNL A   1      34.543  32.585  29.080  1.00  0.00    -0.269 OA
BRANCH  21  24
ATOM     24  C   UNL A   1      36.030  30.862  28.525  1.00  0.00     0.039 A 
ATOM     25  C   UNL A   1      36.278  29.520  28.245  1.00  0.00     0.014 A 
ATOM     26  C   UNL A   1      37.095  31.658  28.995  1.00  0.00     0.014 A 
ATOM     27  C   UNL A   1      37.523  28.963  28.527  1.00  0.00     0.010 A 
ATOM     28  C   UNL A   1      38.343  31.111  29.269  1.00  0.00     0.010 A 
ATOM     29  C   UNL A   1      38.542  29.750  29.075  1.00  0.00    -0.014 A 
BRANCH  29  30
ATOM     30  C   UNL A   1      39.871  29.157  29.220  1.00  0.00     0.031 A 
ATOM     31  C   UNL A   1      40.215  28.857  30.639  1.00  0.00     0.074 A 
ATOM     32  C   UNL A   1      40.662  28.795  28.187  1.00  0.00     0.049 A 
ATOM     33  N   UNL A   1      41.195  29.332  31.332  1.00  0.00    -0.248 NA
ATOM     34  C   UNL A   1      39.264  28.049  31.425  1.00  0.00     0.031 C 
ATOM     35  C   UNL A   1      40.316  28.800  26.762  1.00  0.00     0.029 A 
ATOM     36  N   UNL A   1      41.914  28.242  28.191  1.00  0.00    -0.354 N 
ATOM     37  C   UNL A   1      41.098  28.735  32.588  1.00  0.00     0.074 A 
ATOM     38  C   UNL A   1      39.812  28.095  32.638  1.00  0.00     0.031 C 
ATOM     39  C   UNL A   1      41.218  28.060  26.077  1.00  0.00     0.029 A 
ATOM     40  C   UNL A   1      42.279  27.650  26.981  1.00  0.00     0.049 A 
ATOM     41  H   UNL A   1      42.505  28.260  28.977  1.00  0.00     0.167 HD
ATOM     42  C   UNL A   1      42.193  28.595  33.383  1.00  0.00     0.031 A 
ATOM     43  C   UNL A   1      43.346  26.843  26.751  1.00  0.00     0.031 A 
ATOM     44  C   UNL A   1      43.243  29.492  32.979  1.00  0.00     0.049 A 
ATOM     45  C   UNL A   1      44.321  27.078  27.833  1.00  0.00     0.074 A 
ATOM     46  C   UNL A   1      43.422  30.857  32.970  1.00  0.00     0.029 A 
ATOM     47  N   UNL A   1      44.155  28.958  32.105  1.00  0.00    -0.354 N 
ATOM     48  N   UNL A   1      44.989  28.183  27.976  1.00  0.00    -0.248 NA
ATOM     49  C   UNL A   1      44.308  26.195  28.988  1.00  0.00     0.031 C 
ATOM     50  C   UNL A   1      44.222  31.126  31.823  1.00  0.00     0.029 A 
ATOM     51  C   UNL A   1      44.571  29.915  31.221  1.00  0.00     0.049 A 
ATOM     52  H   UNL A   1      44.466  28.023  32.114  1.00  0.00     0.167 HD
ATOM     53  C   UNL A   1      45.073  28.351  29.346  1.00  0.00     0.074 A 
ATOM     54  C   UNL A   1      44.796  27.032  29.906  1.00  0.00     0.031 C 
ATOM     55  C   UNL A   1      45.057  29.603  29.890  1.00  0.00     0.031 A 
BRANCH  42  56
ATOM     56  C   UNL A   1      42.482  27.325  34.162  1.00  0.00    -0.014 A 
ATOM     57  C   UNL A   1      41.643  26.817  35.172  1.00  0.00     0.009 A 
ATOM     58  C   UNL A   1      43.474  26.449  33.681  1.00  0.00     0.009 A 
ATOM     59  C   UNL A   1      41.760  25.509  35.657  1.00  0.00     0.001 A 
ATOM     60  C   UNL A   1      43.574  25.127  34.137  1.00  0.00     0.001 A 
ATOM     61  C   UNL A   1      42.712  24.656  35.121  1.00  0.00     0.000 A 
ENDBRANCH  42  56
BRANCH  43  62
ATOM     62  C   UNL A   1      43.483  25.665  25.860  1.00  0.00    -0.014 A 
ATOM     63  C   UNL A   1      42.527  24.636  25.900  1.00  0.00     0.009 A 
ATOM     64  C   UNL A   1      44.710  25.390  25.225  1.00  0.00     0.009 A 
ATOM     65  C   UNL A   1      42.811  23.362  25.393  1.00  0.00     0.001 A 
ATOM     66  C   UNL A   1      44.996  24.112  24.722  1.00  0.00     0.001 A 
ATOM     67  C   UNL A   1      44.053  23.093  24.825  1.00  0.00     0.000 A 
ENDBRANCH  43  62
BRANCH  55  68
ATOM     68  C   UNL A   1      45.359  30.779  28.990  1.00  0.00    -0.014 A 
ATOM     69  C   UNL A   1      44.305  31.282  28.209  1.00  0.00     0.009 A 
ATOM     70  C   UNL A   1      46.646  31.305  28.783  1.00  0.00     0.009 A 
ATOM     71  C   UNL A   1      44.529  32.254  27.234  1.00  0.00     0.001 A 
ATOM     72  C   UNL A   1      46.864  32.307  27.829  1.00  0.00     0.001 A 
ATOM     73  C   UNL A   1      45.808  32.770  27.046  1.00  0.00     0.000 A 
ENDBRANCH  55  68
ENDBRANCH  29  30
ENDBRANCH  21  24
ENDBRANCH  19  20
ENDBRANCH   1  19
TORSDOF 12
ENDMDL
MODEL 3
REMARK VINA RESULT:     -10.8      4.600     11.344
REMARK SMILES N#Cc1ccn2cc(C(=O)NCCCCNC(=O)c3ccc(-c4c5nc(c(-c6ccccc6)c6ccc([nH]6)c(-c6ccccc6)c6nc(c(-c7ccccc7)c7ccc4[nH]7)C=C6)C=C5)cc3)nc2c1
REMARK SMILES IDX 14 1 13 2 12 3 11 4 9 5 10 6 8 8 3 9 4 10 69 11 5 12 68 13
REMARK SMILES IDX 6 14 67 15 7 16 2 17 1 18 15 19 16 20 17 21 18 23 19 24
REMARK SMILES IDX 20 25 66 26 21 27 65 28 22 29 23 30 24 31 59 32 25 33 64 34
REMARK SMILES IDX 58 35 60 36 26 37 63 38 57 39 56 40 27 42 49 43 34 44 48 45
REMARK SMILES IDX 35 46 38 47 47 48 61 49 36 50 37 51 46 53 62 54 39 55 28 56
REMARK SMILES IDX 29 57 33 58 30 59 32 60 31 61 50 62 51 63 55 64 52 65 54 66
REMARK SMILES IDX 53 67 40 68 41 69 45 70 42 71 44 72 43 73
REMARK H PARENT 11 7 16 22 60 41 38 52
REMARK Flexibility Score: inf
ROOT
ATOM      1  C   UNL A   1      33.607  29.785  26.079  1.00  0.00     0.023 C 
ENDROOT
BRANCH   1   2
ATOM      2  C   UNL A   1      33.956  28.322  25.786  1.00  0.00     0.023 C 
BRANCH   2   3
ATOM      3  C   UNL A   1      32.786  27.346  25.891  1.00  0.00     0.116 C 
BRANCH   3   4
ATOM      4  N   UNL A   1      32.802  26.353  24.829  1.00  0.00    -0.351 N 
ATOM      5  C   UNL A   1      32.065  26.248  23.668  1.00  0.00     0.271 C 
ATOM      6  O   UNL A   1      32.310  25.308  22.921  1.00  0.00    -0.267 OA
ATOM      7  H   UNL A   1      33.454  25.627  24.963  1.00  0.00     0.163 HD
BRANCH   5   8
ATOM      8  C   UNL A   1      31.031  27.238  23.342  1.00  0.00     0.147 A 
ATOM      9  C   UNL A   1      28.432  30.647  22.026  1.00  0.00     0.057 A 
ATOM     10  C   UNL A   1      27.383  29.780  22.563  1.00  0.00     0.038 A 
ATOM     11  C   UNL A   1      29.728  30.282  22.052  1.00  0.00     0.067 A 
ATOM     12  C   UNL A   1      27.727  28.590  23.090  1.00  0.00     0.094 A 
ATOM     13  C   UNL A   1      30.085  29.029  22.611  1.00  0.00     0.138 A 
ATOM     14  N   UNL A   1      29.071  28.223  23.109  1.00  0.00    -0.306 N 
ATOM     15  N   UNL A   1      31.256  28.463  22.749  1.00  0.00    -0.223 NA
ATOM     16  C   UNL A   1      29.672  27.083  23.574  1.00  0.00     0.127 A 
BRANCH   9  17
ATOM     17  C   UNL A   1      28.050  31.991  21.429  1.00  0.00     0.099 C 
ATOM     18  N   UNL A   1      27.734  33.106  20.934  1.00  0.00    -0.192 NA
ENDBRANCH   9  17
ENDBRANCH   5   8
ENDBRANCH   3   4
ENDBRANCH   2   3
ENDBRANCH   1   2
BRANCH   1  19
ATOM     19  C   UNL A   1      33.625  30.169  27.560  1.00  0.00     0.116 C 
BRANCH  19  20
ATOM     20  N   UNL A   1      34.347  31.389  27.855  1.00  0.00    -0.352 N 
ATOM     21  C   UNL A   1      35.665  31.712  28.018  1.00  0.00     0.251 C 
ATOM     22  H   UNL A   1      33.751  32.165  27.963  1.00  0.00     0.163 HD
ATOM     23  O   UNL A   1      35.931  32.917  28.033  1.00  0.00    -0.269 OA
BRANCH  21  24
ATOM     24  C   UNL A   1      36.765  30.739  28.261  1.00  0.00     0.039 A 
ATOM     25  C   UNL A   1      36.688  29.358  28.097  1.00  0.00     0.014 A 
ATOM     26  C   UNL A   1      37.963  31.292  28.759  1.00  0.00     0.014 A 
ATOM     27  C   UNL A   1      37.736  28.543  28.518  1.00  0.00     0.010 A 
ATOM     28  C   UNL A   1      39.016  30.484  29.172  1.00  0.00     0.010 A 
ATOM     29  C   UNL A   1      38.883  29.104  29.091  1.00  0.00    -0.014 A 
BRANCH  29  30
ATOM     30  C   UNL A   1      40.011  28.221  29.385  1.00  0.00     0.031 A 
ATOM     31  C   UNL A   1      40.387  28.230  30.827  1.00  0.00     0.074 A 
ATOM     32  C   UNL A   1      40.581  27.386  28.489  1.00  0.00     0.049 A 
ATOM     33  N   UNL A   1      41.517  28.577  31.348  1.00  0.00    -0.248 NA
ATOM     34  C   UNL A   1      39.328  27.967  31.820  1.00  0.00     0.031 C 
ATOM     35  C   UNL A   1      40.123  27.105  27.125  1.00  0.00     0.029 A 
ATOM     36  N   UNL A   1      41.633  26.524  28.637  1.00  0.00    -0.354 N 
ATOM     37  C   UNL A   1      41.375  28.394  32.723  1.00  0.00     0.074 A 
ATOM     38  C   UNL A   1      39.974  28.181  32.965  1.00  0.00     0.031 C 
ATOM     39  C   UNL A   1      40.728  25.984  26.669  1.00  0.00     0.029 A 
ATOM     40  C   UNL A   1      41.716  25.550  27.642  1.00  0.00     0.049 A 
ATOM     41  H   UNL A   1      42.275  26.586  29.381  1.00  0.00     0.167 HD
ATOM     42  C   UNL A   1      42.459  28.168  33.514  1.00  0.00     0.031 A 
ATOM     43  C   UNL A   1      42.502  24.443  27.640  1.00  0.00     0.031 A 
ATOM     44  C   UNL A   1      43.671  28.589  32.862  1.00  0.00     0.049 A 
ATOM     45  C   UNL A   1      43.597  24.675  28.602  1.00  0.00     0.074 A 
ATOM     46  C   UNL A   1      44.208  29.792  32.464  1.00  0.00     0.029 A 
ATOM     47  N   UNL A   1      44.324  27.604  32.166  1.00  0.00    -0.354 N 
ATOM     48  N   UNL A   1      44.547  25.542  28.419  1.00  0.00    -0.248 NA
ATOM     49  C   UNL A   1      43.450  24.177  29.959  1.00  0.00     0.031 C 
ATOM     50  C   UNL A   1      44.945  29.505  31.280  1.00  0.00     0.029 A 
ATOM     51  C   UNL A   1      44.901  28.129  31.043  1.00  0.00     0.049 A 
ATOM     52  H   UNL A   1      44.371  26.658  32.437  1.00  0.00     0.167 HD
ATOM     53  C   UNL A   1      44.795  26.042  29.684  1.00  0.00     0.074 A 
ATOM     54  C   UNL A   1      44.225  25.057  30.598  1.00  0.00     0.031 C 
ATOM     55  C   UNL A   1      45.165  27.346  29.851  1.00  0.00     0.031 A 
BRANCH  42  56
ATOM     56  C   UNL A   1      42.464  27.128  34.618  1.00  0.00    -0.014 A 
ATOM     57  C   UNL A   1      41.818  27.296  35.858  1.00  0.00     0.009 A 
ATOM     58  C   UNL A   1      42.883  25.819  34.310  1.00  0.00     0.009 A 
ATOM     59  C   UNL A   1      41.574  26.227  36.727  1.00  0.00     0.001 A 
ATOM     60  C   UNL A   1      42.612  24.739  35.161  1.00  0.00     0.001 A 
ATOM     61  C   UNL A   1      41.951  24.943  36.367  1.00  0.00     0.000 A 
ENDBRANCH  42  56
BRANCH  43  62
ATOM     62  C   UNL A   1      42.238  23.080  27.118  1.00  0.00    -0.014 A 
ATOM     63  C   UNL A   1      41.377  22.214  27.813  1.00  0.00     0.009 A 
ATOM     64  C   UNL A   1      43.080  22.515  26.141  1.00  0.00     0.009 A 
ATOM     65  C   UNL A   1      41.407  20.831  27.593  1.00  0.00     0.001 A 
ATOM     66  C   UNL A   1      43.113  21.129  25.924  1.00  0.00     0.001 A 
ATOM     67  C   UNL A   1      42.291  20.286  26.667  1.00  0.00     0.000 A 
ENDBRANCH  43  62
BRANCH  55  68
ATOM     68  C   UNL A   1      45.690  28.100  28.651  1.00  0.00    -0.014 A 
ATOM     69  C   UNL A   1      44.746  28.712  27.809  1.00  0.00     0.009 A 
ATOM     70  C   UNL A   1      47.038  28.109  28.252  1.00  0.00     0.009 A 
ATOM     71  C   UNL A   1      45.126  29.289  26.597  1.00  0.00     0.001 A 
ATOM     72  C   UNL A   1      47.424  28.719  27.052  1.00  0.00     0.001 A 
ATOM     73  C   UNL A   1      46.465  29.295  26.219  1.00  0.00     0.000 A 
ENDBRANCH  55  68
ENDBRANCH  29  30
ENDBRANCH  21  24
ENDBRANCH  19  20
ENDBRANCH   1  19
TORSDOF 12
ENDMDL
