MODEL 1
REMARK VINA RESULT:     -12.3      0.000      0.000
REMARK SMILES CCOc1ccc(-c2cc(Cl)cc3c2O[C@H](C(F)(F)F)C(C(=O)NCCCCNC(=O)c2ccc(-c4c5nc(c(-c6ccccc6)c6ccc([nH]6)c(-c6ccccc6)c6nc(c(-c7ccccc7)c7ccc4[nH]7)C=C6)C=C5)cc2)=C3)cc1
REMARK SMILES IDX 26 1 25 2 24 3 22 4 23 5 21 7 8 8 9 9 14 10 10 11 13 12
REMARK SMILES IDX 15 13 11 14 12 15 80 16 16 17 7 18 4 19 5 20 82 21 6 22
REMARK SMILES IDX 81 23 3 24 2 25 1 26 17 27 18 28 19 29 20 30 27 31 28 32
REMARK SMILES IDX 29 33 30 34 31 36 32 37 33 38 79 39 34 40 78 41 35 42 36 43
REMARK SMILES IDX 37 44 72 45 38 46 77 47 71 48 73 49 39 50 76 51 70 52 69 53
REMARK SMILES IDX 40 55 62 56 47 57 61 58 48 59 51 60 60 61 74 62 49 63 50 64
REMARK SMILES IDX 59 66 75 67 52 68 41 69 42 70 46 71 43 72 45 73 44 74 63 75
REMARK SMILES IDX 64 76 68 77 65 78 67 79 66 80 53 81 54 82 58 83 55 84 57 85
REMARK SMILES IDX 56 86
REMARK H PARENT 24 6 29 35 73 54 51 65
REMARK Flexibility Score: inf
ROOT
ATOM      1  C   UNL A   1      35.992  21.319  24.844  1.00  0.00     0.023 C 
ENDROOT
BRANCH   1   2
ATOM      2  C   UNL A   1      35.396  21.811  26.171  1.00  0.00     0.116 C 
BRANCH   2   3
ATOM      3  N   UNL A   1      35.214  23.245  26.117  1.00  0.00    -0.352 N 
ATOM      4  C   UNL A   1      34.445  23.996  25.299  1.00  0.00     0.251 C 
ATOM      5  O   UNL A   1      34.817  25.141  25.062  1.00  0.00    -0.270 OA
ATOM      6  H   UNL A   1      35.733  23.754  26.781  1.00  0.00     0.163 HD
BRANCH   4   7
ATOM      7  C   UNL A   1      33.135  23.452  24.826  1.00  0.00     0.067 C 
ATOM      8  C   UNL A   1      31.135  26.965  24.281  1.00  0.00     0.026 A 
ATOM      9  C   UNL A   1      31.439  27.768  25.410  1.00  0.00     0.033 A 
ATOM     10  C   UNL A   1      31.482  25.603  24.377  1.00  0.00     0.135 A 
ATOM     11  C   UNL A   1      31.853  27.225  26.625  1.00  0.00     0.042 A 
ATOM     12  C   UNL A   1      31.779  25.057  25.650  1.00  0.00     0.019 A 
ATOM     13  O   UNL A   1      31.616  24.765  23.277  1.00  0.00    -0.475 OA
ATOM     14  Cl  UNL A   1      32.223  28.265  27.943  1.00  0.00    -0.084 Cl
ATOM     15  C   UNL A   1      31.939  25.856  26.777  1.00  0.00     0.032 A 
ATOM     16  C   UNL A   1      32.142  23.624  25.720  1.00  0.00     0.025 C 
ATOM     17  C   UNL A   1      32.763  23.806  23.388  1.00  0.00     0.314 C 
BRANCH   8  18
ATOM     18  C   UNL A   1      30.257  27.625  23.274  1.00  0.00    -0.014 A 
ATOM     19  C   UNL A   1      28.552  29.611  22.154  1.00  0.00     0.119 A 
ATOM     20  C   UNL A   1      29.916  29.618  21.874  1.00  0.00     0.047 A 
ATOM     21  C   UNL A   1      28.019  28.558  22.891  1.00  0.00     0.047 A 
ATOM     22  C   UNL A   1      30.756  28.630  22.417  1.00  0.00     0.013 A 
ATOM     23  C   UNL A   1      28.861  27.574  23.440  1.00  0.00     0.013 A 
BRANCH  19  24
ATOM     24  O   UNL A   1      27.784  30.589  21.586  1.00  0.00    -0.494 OA
BRANCH  24  25
ATOM     25  C   UNL A   1      28.472  31.800  21.239  1.00  0.00     0.226 C 
ATOM     26  C   UNL A   1      28.460  32.804  22.381  1.00  0.00     0.049 C 
ENDBRANCH  24  25
ENDBRANCH  19  24
ENDBRANCH   8  18
BRANCH  17  27
ATOM     27  C   UNL A   1      32.486  22.488  22.627  1.00  0.00     0.429 C 
ATOM     28  F   UNL A   1      33.078  21.417  23.198  1.00  0.00    -0.167 F 
ATOM     29  F   UNL A   1      31.157  22.235  22.550  1.00  0.00    -0.167 F 
ATOM     30  F   UNL A   1      32.931  22.530  21.341  1.00  0.00    -0.167 F 
ENDBRANCH  17  27
ENDBRANCH   4   7
ENDBRANCH   2   3
ENDBRANCH   1   2
BRANCH   1  31
ATOM     31  C   UNL A   1      37.099  20.261  24.970  1.00  0.00     0.023 C 
BRANCH  31  32
ATOM     32  C   UNL A   1      38.437  20.785  25.478  1.00  0.00     0.116 C 
BRANCH  32  33
ATOM     33  N   UNL A   1      39.428  19.729  25.586  1.00  0.00    -0.352 N 
ATOM     34  C   UNL A   1      40.744  19.804  25.969  1.00  0.00     0.251 C 
ATOM     35  H   UNL A   1      39.111  18.828  25.349  1.00  0.00     0.163 HD
ATOM     36  O   UNL A   1      41.487  18.838  25.803  1.00  0.00    -0.269 OA
BRANCH  34  37
ATOM     37  C   UNL A   1      41.281  21.051  26.554  1.00  0.00     0.039 A 
ATOM     38  C   UNL A   1      41.899  21.979  25.711  1.00  0.00     0.014 A 
ATOM     39  C   UNL A   1      41.177  21.309  27.924  1.00  0.00     0.014 A 
ATOM     40  C   UNL A   1      42.340  23.198  26.229  1.00  0.00     0.010 A 
ATOM     41  C   UNL A   1      41.554  22.554  28.425  1.00  0.00     0.010 A 
ATOM     42  C   UNL A   1      42.129  23.516  27.582  1.00  0.00    -0.014 A 
BRANCH  42  43
ATOM     43  C   UNL A   1      42.463  24.865  28.112  1.00  0.00     0.031 A 
ATOM     44  C   UNL A   1      43.854  25.182  28.585  1.00  0.00     0.074 A 
ATOM     45  C   UNL A   1      41.486  25.787  28.229  1.00  0.00     0.049 A 
ATOM     46  N   UNL A   1      44.310  26.289  29.120  1.00  0.00    -0.248 NA
ATOM     47  C   UNL A   1      44.863  24.118  28.463  1.00  0.00     0.031 C 
ATOM     48  C   UNL A   1      40.083  25.590  27.851  1.00  0.00     0.029 A 
ATOM     49  N   UNL A   1      41.520  27.074  28.708  1.00  0.00    -0.354 N 
ATOM     50  C   UNL A   1      45.646  26.048  29.411  1.00  0.00     0.074 A 
ATOM     51  C   UNL A   1      45.921  24.679  29.031  1.00  0.00     0.031 C 
ATOM     52  C   UNL A   1      39.399  26.719  28.093  1.00  0.00     0.029 A 
ATOM     53  C   UNL A   1      40.298  27.704  28.684  1.00  0.00     0.049 A 
ATOM     54  H   UNL A   1      42.341  27.504  29.038  1.00  0.00     0.167 HD
ATOM     55  C   UNL A   1      46.564  26.893  29.935  1.00  0.00     0.031 A 
ATOM     56  C   UNL A   1      39.935  28.932  29.103  1.00  0.00     0.031 A 
ATOM     57  C   UNL A   1      46.295  28.259  30.303  1.00  0.00     0.049 A 
ATOM     58  C   UNL A   1      40.975  29.841  29.696  1.00  0.00     0.074 A 
ATOM     59  C   UNL A   1      47.182  29.213  30.772  1.00  0.00     0.029 A 
ATOM     60  N   UNL A   1      45.049  28.861  30.253  1.00  0.00    -0.354 N 
ATOM     61  N   UNL A   1      42.256  29.627  29.875  1.00  0.00    -0.248 NA
ATOM     62  C   UNL A   1      40.521  31.169  30.135  1.00  0.00     0.031 C 
ATOM     63  C   UNL A   1      46.460  30.373  31.068  1.00  0.00     0.029 A 
ATOM     64  C   UNL A   1      45.135  30.162  30.720  1.00  0.00     0.049 A 
ATOM     65  H   UNL A   1      44.224  28.429  29.934  1.00  0.00     0.167 HD
ATOM     66  C   UNL A   1      42.763  30.798  30.423  1.00  0.00     0.074 A 
ATOM     67  C   UNL A   1      41.658  31.728  30.522  1.00  0.00     0.031 C 
ATOM     68  C   UNL A   1      44.029  31.077  30.816  1.00  0.00     0.031 A 
BRANCH  55  69
ATOM     69  C   UNL A   1      47.957  26.371  30.157  1.00  0.00    -0.014 A 
ATOM     70  C   UNL A   1      48.343  25.822  31.390  1.00  0.00     0.009 A 
ATOM     71  C   UNL A   1      48.871  26.354  29.091  1.00  0.00     0.009 A 
ATOM     72  C   UNL A   1      49.623  25.288  31.556  1.00  0.00     0.001 A 
ATOM     73  C   UNL A   1      50.139  25.794  29.251  1.00  0.00     0.001 A 
ATOM     74  C   UNL A   1      50.517  25.266  30.485  1.00  0.00     0.000 A 
ENDBRANCH  55  69
BRANCH  56  75
ATOM     75  C   UNL A   1      38.518  29.373  29.000  1.00  0.00    -0.014 A 
ATOM     76  C   UNL A   1      37.660  29.298  30.108  1.00  0.00     0.009 A 
ATOM     77  C   UNL A   1      38.005  29.837  27.778  1.00  0.00     0.009 A 
ATOM     78  C   UNL A   1      36.310  29.638  29.984  1.00  0.00     0.001 A 
ATOM     79  C   UNL A   1      36.664  30.211  27.666  1.00  0.00     0.001 A 
ATOM     80  C   UNL A   1      35.815  30.097  28.765  1.00  0.00     0.000 A 
ENDBRANCH  56  75
BRANCH  68  81
ATOM     81  C   UNL A   1      44.295  32.454  31.359  1.00  0.00    -0.014 A 
ATOM     82  C   UNL A   1      44.286  32.708  32.739  1.00  0.00     0.009 A 
ATOM     83  C   UNL A   1      44.594  33.504  30.477  1.00  0.00     0.009 A 
ATOM     84  C   UNL A   1      44.535  33.994  33.222  1.00  0.00     0.001 A 
ATOM     85  C   UNL A   1      44.876  34.781  30.964  1.00  0.00     0.001 A 
ATOM     86  C   UNL A   1      44.836  35.027  32.335  1.00  0.00     0.000 A 
ENDBRANCH  68  81
ENDBRANCH  42  43
ENDBRANCH  34  37
ENDBRANCH  32  33
ENDBRANCH  31  32
ENDBRANCH   1  31
TORSDOF 15
ENDMDL
MODEL 2
REMARK VINA RESULT:     -12.2      0.335      5.682
REMARK SMILES CCOc1ccc(-c2cc(Cl)cc3c2O[C@H](C(F)(F)F)C(C(=O)NCCCCNC(=O)c2ccc(-c4c5nc(c(-c6ccccc6)c6ccc([nH]6)c(-c6ccccc6)c6nc(c(-c7ccccc7)c7ccc4[nH]7)C=C6)C=C5)cc2)=C3)cc1
REMARK SMILES IDX 26 1 25 2 24 3 22 4 23 5 21 7 8 8 9 9 14 10 10 11 13 12
REMARK SMILES IDX 15 13 11 14 12 15 80 16 16 17 7 18 4 19 5 20 82 21 6 22
REMARK SMILES IDX 81 23 3 24 2 25 1 26 17 27 18 28 19 29 20 30 27 31 28 32
REMARK SMILES IDX 29 33 30 34 31 36 32 37 33 38 79 39 34 40 78 41 35 42 36 43
REMARK SMILES IDX 37 44 72 45 38 46 77 47 71 48 73 49 39 50 76 51 70 52 69 53
REMARK SMILES IDX 40 55 62 56 47 57 61 58 48 59 51 60 60 61 74 62 49 63 50 64
REMARK SMILES IDX 59 66 75 67 52 68 41 69 42 70 46 71 43 72 45 73 44 74 63 75
REMARK SMILES IDX 64 76 68 77 65 78 67 79 66 80 53 81 54 82 58 83 55 84 57 85
REMARK SMILES IDX 56 86
REMARK H PARENT 24 6 29 35 73 54 51 65
REMARK Flexibility Score: inf
ROOT
ATOM      1  C   UNL A   1      36.176  21.419  24.792  1.00  0.00     0.023 C 
ENDROOT
BRANCH   1   2
ATOM      2  C   UNL A   1      35.501  21.834  26.108  1.00  0.00     0.116 C 
BRANCH   2   3
ATOM      3  N   UNL A   1      35.277  23.263  26.107  1.00  0.00    -0.352 N 
ATOM      4  C   UNL A   1      34.491  24.022  25.313  1.00  0.00     0.251 C 
ATOM      5  O   UNL A   1      34.831  25.186  25.122  1.00  0.00    -0.270 OA
ATOM      6  H   UNL A   1      35.778  23.761  26.793  1.00  0.00     0.163 HD
BRANCH   4   7
ATOM      7  C   UNL A   1      33.200  23.458  24.811  1.00  0.00     0.067 C 
ATOM      8  C   UNL A   1      31.132  26.936  24.301  1.00  0.00     0.026 A 
ATOM      9  C   UNL A   1      31.402  27.725  25.449  1.00  0.00     0.033 A 
ATOM     10  C   UNL A   1      31.507  25.581  24.377  1.00  0.00     0.135 A 
ATOM     11  C   UNL A   1      31.810  27.169  26.659  1.00  0.00     0.042 A 
ATOM     12  C   UNL A   1      31.798  25.018  25.644  1.00  0.00     0.019 A 
ATOM     13  O   UNL A   1      31.675  24.767  23.264  1.00  0.00    -0.475 OA
ATOM     14  Cl  UNL A   1      32.139  28.192  28.001  1.00  0.00    -0.084 Cl
ATOM     15  C   UNL A   1      31.924  25.800  26.788  1.00  0.00     0.032 A 
ATOM     16  C   UNL A   1      32.191  23.592  25.694  1.00  0.00     0.025 C 
ATOM     17  C   UNL A   1      32.841  23.830  23.374  1.00  0.00     0.314 C 
BRANCH   8  18
ATOM     18  C   UNL A   1      30.254  27.596  23.293  1.00  0.00    -0.014 A 
ATOM     19  C   UNL A   1      28.508  29.556  22.191  1.00  0.00     0.119 A 
ATOM     20  C   UNL A   1      29.876  29.615  21.942  1.00  0.00     0.047 A 
ATOM     21  C   UNL A   1      27.994  28.465  22.886  1.00  0.00     0.047 A 
ATOM     22  C   UNL A   1      30.737  28.641  22.476  1.00  0.00     0.013 A 
ATOM     23  C   UNL A   1      28.857  27.493  23.426  1.00  0.00     0.013 A 
BRANCH  19  24
ATOM     24  O   UNL A   1      27.719  30.523  21.633  1.00  0.00    -0.494 OA
BRANCH  24  25
ATOM     25  C   UNL A   1      28.406  31.693  21.162  1.00  0.00     0.226 C 
ATOM     26  C   UNL A   1      28.387  32.812  22.192  1.00  0.00     0.049 C 
ENDBRANCH  24  25
ENDBRANCH  19  24
ENDBRANCH   8  18
BRANCH  17  27
ATOM     27  C   UNL A   1      32.604  22.521  22.586  1.00  0.00     0.429 C 
ATOM     28  F   UNL A   1      32.983  22.610  21.292  1.00  0.00    -0.167 F 
ATOM     29  F   UNL A   1      33.272  21.483  23.143  1.00  0.00    -0.167 F 
ATOM     30  F   UNL A   1      31.292  22.155  22.574  1.00  0.00    -0.167 F 
ENDBRANCH  17  27
ENDBRANCH   4   7
ENDBRANCH   2   3
ENDBRANCH   1   2
BRANCH   1  31
ATOM     31  C   UNL A   1      37.254  20.331  24.918  1.00  0.00     0.023 C 
BRANCH  31  32
ATOM     32  C   UNL A   1      38.525  20.764  25.638  1.00  0.00     0.116 C 
BRANCH  32  33
ATOM     33  N   UNL A   1      39.531  19.715  25.642  1.00  0.00    -0.352 N 
ATOM     34  C   UNL A   1      40.865  19.787  25.955  1.00  0.00     0.251 C 
ATOM     35  H   UNL A   1      39.209  18.823  25.380  1.00  0.00     0.163 HD
ATOM     36  O   UNL A   1      41.606  18.839  25.704  1.00  0.00    -0.269 OA
BRANCH  34  37
ATOM     37  C   UNL A   1      41.422  21.012  26.570  1.00  0.00     0.039 A 
ATOM     38  C   UNL A   1      42.020  21.968  25.743  1.00  0.00     0.014 A 
ATOM     39  C   UNL A   1      41.356  21.222  27.950  1.00  0.00     0.014 A 
ATOM     40  C   UNL A   1      42.479  23.166  26.291  1.00  0.00     0.010 A 
ATOM     41  C   UNL A   1      41.750  22.448  28.484  1.00  0.00     0.010 A 
ATOM     42  C   UNL A   1      42.306  23.437  27.659  1.00  0.00    -0.014 A 
BRANCH  42  43
ATOM     43  C   UNL A   1      42.658  24.765  28.227  1.00  0.00     0.031 A 
ATOM     44  C   UNL A   1      41.605  25.820  28.426  1.00  0.00     0.074 A 
ATOM     45  C   UNL A   1      43.948  25.044  28.502  1.00  0.00     0.049 A 
ATOM     46  N   UNL A   1      41.741  27.048  28.864  1.00  0.00    -0.248 NA
ATOM     47  C   UNL A   1      40.222  25.461  28.071  1.00  0.00     0.031 C 
ATOM     48  C   UNL A   1      45.075  24.126  28.309  1.00  0.00     0.029 A 
ATOM     49  N   UNL A   1      44.535  26.185  28.995  1.00  0.00    -0.354 N 
ATOM     50  C   UNL A   1      40.471  27.610  28.820  1.00  0.00     0.074 A 
ATOM     51  C   UNL A   1      39.583  26.604  28.277  1.00  0.00     0.031 C 
ATOM     52  C   UNL A   1      46.208  24.731  28.698  1.00  0.00     0.029 A 
ATOM     53  C   UNL A   1      45.900  26.092  29.124  1.00  0.00     0.049 A 
ATOM     54  H   UNL A   1      44.025  26.993  29.232  1.00  0.00     0.167 HD
ATOM     55  C   UNL A   1      40.078  28.845  29.208  1.00  0.00     0.031 A 
ATOM     56  C   UNL A   1      46.808  27.003  29.525  1.00  0.00     0.031 A 
ATOM     57  C   UNL A   1      40.958  29.842  29.759  1.00  0.00     0.049 A 
ATOM     58  C   UNL A   1      46.342  28.372  29.935  1.00  0.00     0.074 A 
ATOM     59  C   UNL A   1      40.636  31.096  30.251  1.00  0.00     0.029 A 
ATOM     60  N   UNL A   1      42.331  29.705  29.883  1.00  0.00    -0.354 N 
ATOM     61  N   UNL A   1      45.122  28.852  29.976  1.00  0.00    -0.248 NA
ATOM     62  C   UNL A   1      47.377  29.323  30.365  1.00  0.00     0.031 C 
ATOM     63  C   UNL A   1      41.822  31.743  30.610  1.00  0.00     0.029 A 
ATOM     64  C   UNL A   1      42.875  30.866  30.406  1.00  0.00     0.049 A 
ATOM     65  H   UNL A   1      42.844  28.902  29.636  1.00  0.00     0.167 HD
ATOM     66  C   UNL A   1      45.243  30.149  30.458  1.00  0.00     0.074 A 
ATOM     67  C   UNL A   1      46.649  30.371  30.720  1.00  0.00     0.031 C 
ATOM     68  C   UNL A   1      44.276  31.076  30.661  1.00  0.00     0.031 A 
BRANCH  55  69
ATOM     69  C   UNL A   1      38.627  29.206  29.047  1.00  0.00    -0.014 A 
ATOM     70  C   UNL A   1      37.715  29.055  30.103  1.00  0.00     0.009 A 
ATOM     71  C   UNL A   1      38.184  29.784  27.846  1.00  0.00     0.009 A 
ATOM     72  C   UNL A   1      36.385  29.454  29.952  1.00  0.00     0.001 A 
ATOM     73  C   UNL A   1      36.861  30.207  27.707  1.00  0.00     0.001 A 
ATOM     74  C   UNL A   1      35.961  30.037  28.757  1.00  0.00     0.000 A 
ENDBRANCH  55  69
BRANCH  56  75
ATOM     75  C   UNL A   1      48.257  26.663  29.543  1.00  0.00    -0.014 A 
ATOM     76  C   UNL A   1      49.055  26.863  28.406  1.00  0.00     0.009 A 
ATOM     77  C   UNL A   1      48.842  26.099  30.688  1.00  0.00     0.009 A 
ATOM     78  C   UNL A   1      50.395  26.468  28.402  1.00  0.00     0.001 A 
ATOM     79  C   UNL A   1      50.190  25.739  30.693  1.00  0.00     0.001 A 
ATOM     80  C   UNL A   1      50.962  25.910  29.546  1.00  0.00     0.000 A 
ENDBRANCH  56  75
BRANCH  68  81
ATOM     81  C   UNL A   1      44.701  32.405  31.221  1.00  0.00    -0.014 A 
ATOM     82  C   UNL A   1      45.002  33.489  30.380  1.00  0.00     0.009 A 
ATOM     83  C   UNL A   1      44.768  32.585  32.610  1.00  0.00     0.009 A 
ATOM     84  C   UNL A   1      45.395  34.714  30.921  1.00  0.00     0.001 A 
ATOM     85  C   UNL A   1      45.129  33.820  33.150  1.00  0.00     0.001 A 
ATOM     86  C   UNL A   1      45.452  34.880  32.305  1.00  0.00     0.000 A 
ENDBRANCH  68  81
ENDBRANCH  42  43
ENDBRANCH  34  37
ENDBRANCH  32  33
ENDBRANCH  31  32
ENDBRANCH   1  31
TORSDOF 15
ENDMDL
MODEL 3
REMARK VINA RESULT:     -12.0      3.760      8.955
REMARK SMILES CCOc1ccc(-c2cc(Cl)cc3c2O[C@H](C(F)(F)F)C(C(=O)NCCCCNC(=O)c2ccc(-c4c5nc(c(-c6ccccc6)c6ccc([nH]6)c(-c6ccccc6)c6nc(c(-c7ccccc7)c7ccc4[nH]7)C=C6)C=C5)cc2)=C3)cc1
REMARK SMILES IDX 26 1 25 2 24 3 22 4 23 5 21 7 8 8 9 9 14 10 10 11 13 12
REMARK SMILES IDX 15 13 11 14 12 15 80 16 16 17 7 18 4 19 5 20 82 21 6 22
REMARK SMILES IDX 81 23 3 24 2 25 1 26 17 27 18 28 19 29 20 30 27 31 28 32
REMARK SMILES IDX 29 33 30 34 31 36 32 37 33 38 79 39 34 40 78 41 35 42 36 43
REMARK SMILES IDX 37 44 72 45 38 46 77 47 71 48 73 49 39 50 76 51 70 52 69 53
REMARK SMILES IDX 40 55 62 56 47 57 61 58 48 59 51 60 60 61 74 62 49 63 50 64
REMARK SMILES IDX 59 66 75 67 52 68 41 69 42 70 46 71 43 72 45 73 44 74 63 75
REMARK SMILES IDX 64 76 68 77 65 78 67 79 66 80 53 81 54 82 58 83 55 84 57 85
REMARK SMILES IDX 56 86
REMARK H PARENT 24 6 29 35 73 54 51 65
REMARK Flexibility Score: inf
ROOT
ATOM      1  C   UNL A   1      31.700  30.452  25.794  1.00  0.00     0.023 C 
ENDROOT
BRANCH   1   2
ATOM      2  C   UNL A   1      33.109  29.851  25.682  1.00  0.00     0.116 C 
BRANCH   2   3
ATOM      3  N   UNL A   1      33.138  28.563  26.341  1.00  0.00    -0.352 N 
ATOM      4  C   UNL A   1      32.436  27.437  26.086  1.00  0.00     0.251 C 
ATOM      5  O   UNL A   1      32.215  26.680  27.026  1.00  0.00    -0.270 OA
ATOM      6  H   UNL A   1      33.768  28.497  27.094  1.00  0.00     0.163 HD
BRANCH   4   7
ATOM      7  C   UNL A   1      32.074  27.107  24.673  1.00  0.00     0.067 C 
ATOM      8  C   UNL A   1      32.959  23.126  24.692  1.00  0.00     0.026 A 
ATOM      9  C   UNL A   1      34.198  23.002  25.373  1.00  0.00     0.033 A 
ATOM     10  C   UNL A   1      32.587  24.430  24.312  1.00  0.00     0.135 A 
ATOM     11  C   UNL A   1      35.103  24.057  25.477  1.00  0.00     0.042 A 
ATOM     12  C   UNL A   1      33.567  25.453  24.314  1.00  0.00     0.019 A 
ATOM     13  O   UNL A   1      31.285  24.795  23.994  1.00  0.00    -0.475 OA
ATOM     14  Cl  UNL A   1      36.575  23.838  26.335  1.00  0.00    -0.084 Cl
ATOM     15  C   UNL A   1      34.829  25.265  24.868  1.00  0.00     0.032 A 
ATOM     16  C   UNL A   1      33.147  26.814  23.912  1.00  0.00     0.025 C 
ATOM     17  C   UNL A   1      30.897  26.149  24.508  1.00  0.00     0.314 C 
BRANCH   8  18
ATOM     18  C   UNL A   1      32.368  21.831  24.248  1.00  0.00    -0.014 A 
ATOM     19  C   UNL A   1      32.288  19.193  23.180  1.00  0.00     0.119 A 
ATOM     20  C   UNL A   1      32.363  19.392  24.556  1.00  0.00     0.047 A 
ATOM     21  C   UNL A   1      32.138  20.297  22.346  1.00  0.00     0.047 A 
ATOM     22  C   UNL A   1      32.390  20.694  25.084  1.00  0.00     0.013 A 
ATOM     23  C   UNL A   1      32.173  21.600  22.874  1.00  0.00     0.013 A 
BRANCH  19  24
ATOM     24  O   UNL A   1      32.251  17.904  22.727  1.00  0.00    -0.494 OA
BRANCH  24  25
ATOM     25  C   UNL A   1      32.951  16.940  23.528  1.00  0.00     0.226 C 
ATOM     26  C   UNL A   1      34.399  16.787  23.091  1.00  0.00     0.049 C 
ENDBRANCH  24  25
ENDBRANCH  19  24
ENDBRANCH   8  18
BRANCH  17  27
ATOM     27  C   UNL A   1      29.849  26.831  23.598  1.00  0.00     0.429 C 
ATOM     28  F   UNL A   1      28.669  26.173  23.571  1.00  0.00    -0.167 F 
ATOM     29  F   UNL A   1      29.604  28.102  23.996  1.00  0.00    -0.167 F 
ATOM     30  F   UNL A   1      30.266  26.921  22.305  1.00  0.00    -0.167 F 
ENDBRANCH  17  27
ENDBRANCH   4   7
ENDBRANCH   2   3
ENDBRANCH   1   2
BRANCH   1  31
ATOM     31  C   UNL A   1      31.528  31.532  26.874  1.00  0.00     0.023 C 
BRANCH  31  32
ATOM     32  C   UNL A   1      32.794  32.308  27.218  1.00  0.00     0.116 C 
BRANCH  32  33
ATOM     33  N   UNL A   1      32.506  33.685  27.579  1.00  0.00    -0.352 N 
ATOM     34  C   UNL A   1      33.137  34.500  28.485  1.00  0.00     0.251 C 
ATOM     35  H   UNL A   1      31.746  34.094  27.105  1.00  0.00     0.163 HD
ATOM     36  O   UNL A   1      32.626  35.571  28.807  1.00  0.00    -0.269 OA
BRANCH  34  37
ATOM     37  C   UNL A   1      34.417  34.083  29.097  1.00  0.00     0.039 A 
ATOM     38  C   UNL A   1      34.387  33.369  30.299  1.00  0.00     0.014 A 
ATOM     39  C   UNL A   1      35.640  34.390  28.495  1.00  0.00     0.014 A 
ATOM     40  C   UNL A   1      35.578  32.896  30.852  1.00  0.00     0.010 A 
ATOM     41  C   UNL A   1      36.820  33.857  29.011  1.00  0.00     0.010 A 
ATOM     42  C   UNL A   1      36.801  33.096  30.189  1.00  0.00    -0.014 A 
BRANCH  42  43
ATOM     43  C   UNL A   1      38.055  32.474  30.692  1.00  0.00     0.031 A 
ATOM     44  C   UNL A   1      38.581  31.203  30.082  1.00  0.00     0.074 A 
ATOM     45  C   UNL A   1      38.686  33.023  31.749  1.00  0.00     0.049 A 
ATOM     46  N   UNL A   1      39.631  30.498  30.426  1.00  0.00    -0.248 NA
ATOM     47  C   UNL A   1      37.822  30.637  28.955  1.00  0.00     0.031 C 
ATOM     48  C   UNL A   1      38.253  34.228  32.462  1.00  0.00     0.029 A 
ATOM     49  N   UNL A   1      39.822  32.636  32.416  1.00  0.00    -0.354 N 
ATOM     50  C   UNL A   1      39.648  29.402  29.572  1.00  0.00     0.074 A 
ATOM     51  C   UNL A   1      38.484  29.513  28.720  1.00  0.00     0.031 C 
ATOM     52  C   UNL A   1      39.123  34.492  33.450  1.00  0.00     0.029 A 
ATOM     53  C   UNL A   1      40.148  33.453  33.473  1.00  0.00     0.049 A 
ATOM     54  H   UNL A   1      40.353  31.847  32.163  1.00  0.00     0.167 HD
ATOM     55  C   UNL A   1      40.557  28.402  29.497  1.00  0.00     0.031 A 
ATOM     56  C   UNL A   1      41.149  33.371  34.370  1.00  0.00     0.031 A 
ATOM     57  C   UNL A   1      41.722  28.298  30.337  1.00  0.00     0.049 A 
ATOM     58  C   UNL A   1      42.134  32.240  34.269  1.00  0.00     0.074 A 
ATOM     59  C   UNL A   1      42.739  27.360  30.282  1.00  0.00     0.029 A 
ATOM     60  N   UNL A   1      42.020  29.151  31.386  1.00  0.00    -0.354 N 
ATOM     61  N   UNL A   1      42.186  31.265  33.394  1.00  0.00    -0.248 NA
ATOM     62  C   UNL A   1      43.205  32.202  35.275  1.00  0.00     0.031 C 
ATOM     63  C   UNL A   1      43.618  27.606  31.340  1.00  0.00     0.029 A 
ATOM     64  C   UNL A   1      43.184  28.738  32.012  1.00  0.00     0.049 A 
ATOM     65  H   UNL A   1      41.485  29.934  31.649  1.00  0.00     0.167 HD
ATOM     66  C   UNL A   1      43.307  30.516  33.729  1.00  0.00     0.074 A 
ATOM     67  C   UNL A   1      43.920  31.163  34.869  1.00  0.00     0.031 C 
ATOM     68  C   UNL A   1      43.784  29.389  33.147  1.00  0.00     0.031 A 
BRANCH  55  69
ATOM     69  C   UNL A   1      40.334  27.323  28.474  1.00  0.00    -0.014 A 
ATOM     70  C   UNL A   1      40.871  27.420  27.181  1.00  0.00     0.009 A 
ATOM     71  C   UNL A   1      39.645  26.154  28.836  1.00  0.00     0.009 A 
ATOM     72  C   UNL A   1      40.704  26.379  26.265  1.00  0.00     0.001 A 
ATOM     73  C   UNL A   1      39.503  25.103  27.928  1.00  0.00     0.001 A 
ATOM     74  C   UNL A   1      40.028  25.218  26.642  1.00  0.00     0.000 A 
ENDBRANCH  55  69
BRANCH  56  75
ATOM     75  C   UNL A   1      41.266  34.377  35.460  1.00  0.00    -0.014 A 
ATOM     76  C   UNL A   1      40.585  34.202  36.675  1.00  0.00     0.009 A 
ATOM     77  C   UNL A   1      42.030  35.540  35.276  1.00  0.00     0.009 A 
ATOM     78  C   UNL A   1      40.634  35.188  37.664  1.00  0.00     0.001 A 
ATOM     79  C   UNL A   1      42.107  36.507  36.280  1.00  0.00     0.001 A 
ATOM     80  C   UNL A   1      41.397  36.337  37.467  1.00  0.00     0.000 A 
ENDBRANCH  56  75
BRANCH  68  81
ATOM     81  C   UNL A   1      45.045  28.801  33.715  1.00  0.00    -0.014 A 
ATOM     82  C   UNL A   1      45.007  27.817  34.716  1.00  0.00     0.009 A 
ATOM     83  C   UNL A   1      46.290  29.213  33.216  1.00  0.00     0.009 A 
ATOM     84  C   UNL A   1      46.191  27.285  35.229  1.00  0.00     0.001 A 
ATOM     85  C   UNL A   1      47.472  28.655  33.706  1.00  0.00     0.001 A 
ATOM     86  C   UNL A   1      47.421  27.699  34.720  1.00  0.00     0.000 A 
ENDBRANCH  68  81
ENDBRANCH  42  43
ENDBRANCH  34  37
ENDBRANCH  32  33
ENDBRANCH  31  32
ENDBRANCH   1  31
TORSDOF 15
ENDMDL
