MODEL 1
REMARK VINA RESULT:     -11.2      0.000      0.000
REMARK SMILES CNC(=O)[C@H](C)S(=O)(=O)c1cc(C(=O)NCCCCNC(=O)c2ccc(-c3c4nc(c(-c5ccccc5)c5ccc([nH]5)c(-c5ccccc5)c5nc(c(-c6ccccc6)c6ccc3[nH]6)C=C5)C=C4)cc2)c(C)cc1C
REMARK SMILES IDX 17 1 16 2 15 3 13 4 14 5 12 7 10 8 11 9 74 10 73 11 75 12
REMARK SMILES IDX 71 13 72 14 7 15 8 16 9 17 5 18 6 19 3 20 1 21 2 22 4 24
REMARK SMILES IDX 18 25 19 26 20 27 21 28 22 30 23 31 24 32 70 33 25 34 69 35
REMARK SMILES IDX 26 36 27 37 28 38 63 39 29 40 68 41 62 42 64 43 30 44 67 45
REMARK SMILES IDX 61 46 60 47 31 49 53 50 38 51 52 52 39 53 42 54 51 55 65 56
REMARK SMILES IDX 40 57 41 58 50 60 66 61 43 62 32 63 33 64 37 65 34 66 36 67
REMARK SMILES IDX 35 68 54 69 55 70 59 71 56 72 58 73 57 74 44 75 45 76 49 77
REMARK SMILES IDX 46 78 48 79 47 80
REMARK H PARENT 15 6 2 23 20 29 64 48 42 59
REMARK Flexibility Score: inf
ROOT
ATOM      1  C   UNL A   1      36.953  22.232  24.483  1.00  0.00     0.023 C 
ENDROOT
BRANCH   1   2
ATOM      2  C   UNL A   1      36.691  23.203  25.641  1.00  0.00     0.116 C 
BRANCH   2   3
ATOM      3  N   UNL A   1      35.797  22.581  26.587  1.00  0.00    -0.352 N 
ATOM      4  C   UNL A   1      34.450  22.659  26.802  1.00  0.00     0.251 C 
ATOM      5  O   UNL A   1      34.035  22.087  27.816  1.00  0.00    -0.269 OA
ATOM      6  H   UNL A   1      36.254  21.972  27.211  1.00  0.00     0.163 HD
BRANCH   4   7
ATOM      7  C   UNL A   1      33.436  23.298  25.900  1.00  0.00     0.044 A 
ATOM      8  C   UNL A   1      32.637  25.531  25.238  1.00  0.00     0.071 A 
ATOM      9  C   UNL A   1      33.315  24.685  26.124  1.00  0.00     0.034 A 
ATOM     10  C   UNL A   1      31.753  24.975  24.313  1.00  0.00    -0.032 A 
ATOM     11  C   UNL A   1      31.846  23.592  24.096  1.00  0.00     0.009 A 
ATOM     12  C   UNL A   1      30.775  25.726  23.456  1.00  0.00     0.046 C 
ATOM     13  C   UNL A   1      32.776  22.778  24.777  1.00  0.00    -0.038 A 
ATOM     14  C   UNL A   1      33.045  21.458  24.129  1.00  0.00     0.045 C 
BRANCH   8  15
ATOM     15  S   UNL A   1      33.052  27.274  25.303  1.00  0.00     0.190 S 
ATOM     16  O   UNL A   1      33.245  27.652  23.913  1.00  0.00    -0.223 OA
ATOM     17  O   UNL A   1      34.143  27.435  26.245  1.00  0.00    -0.223 OA
BRANCH  15  18
ATOM     18  C   UNL A   1      31.690  28.210  25.936  1.00  0.00     0.199 C 
ATOM     19  C   UNL A   1      31.342  28.096  27.407  1.00  0.00     0.036 C 
BRANCH  18  20
ATOM     20  C   UNL A   1      31.601  29.628  25.420  1.00  0.00     0.238 C 
ATOM     21  C   UNL A   1      30.076  29.304  23.397  1.00  0.00     0.142 C 
ATOM     22  N   UNL A   1      30.979  29.999  24.273  1.00  0.00    -0.358 N 
ATOM     23  H   UNL A   1      31.184  30.918  23.987  1.00  0.00     0.163 HD
ATOM     24  O   UNL A   1      32.231  30.526  25.995  1.00  0.00    -0.274 OA
ENDBRANCH  18  20
ENDBRANCH  15  18
ENDBRANCH   8  15
ENDBRANCH   4   7
ENDBRANCH   2   3
ENDBRANCH   1   2
BRANCH   1  25
ATOM     25  C   UNL A   1      37.586  20.904  24.880  1.00  0.00     0.023 C 
BRANCH  25  26
ATOM     26  C   UNL A   1      38.827  21.034  25.747  1.00  0.00     0.116 C 
BRANCH  26  27
ATOM     27  N   UNL A   1      39.725  19.890  25.657  1.00  0.00    -0.352 N 
ATOM     28  C   UNL A   1      41.058  19.817  25.997  1.00  0.00     0.251 C 
ATOM     29  H   UNL A   1      39.327  19.061  25.308  1.00  0.00     0.163 HD
ATOM     30  O   UNL A   1      41.701  18.799  25.796  1.00  0.00    -0.269 OA
BRANCH  28  31
ATOM     31  C   UNL A   1      41.708  21.020  26.554  1.00  0.00     0.039 A 
ATOM     32  C   UNL A   1      42.230  21.967  25.673  1.00  0.00     0.014 A 
ATOM     33  C   UNL A   1      41.698  21.253  27.932  1.00  0.00     0.014 A 
ATOM     34  C   UNL A   1      42.651  23.200  26.168  1.00  0.00     0.010 A 
ATOM     35  C   UNL A   1      42.044  22.508  28.413  1.00  0.00     0.010 A 
ATOM     36  C   UNL A   1      42.505  23.499  27.532  1.00  0.00    -0.014 A 
BRANCH  36  37
ATOM     37  C   UNL A   1      42.782  24.857  28.057  1.00  0.00     0.031 A 
ATOM     38  C   UNL A   1      44.165  25.222  28.511  1.00  0.00     0.074 A 
ATOM     39  C   UNL A   1      41.765  25.728  28.207  1.00  0.00     0.049 A 
ATOM     40  N   UNL A   1      44.581  26.330  29.069  1.00  0.00    -0.248 NA
ATOM     41  C   UNL A   1      45.209  24.199  28.346  1.00  0.00     0.031 C 
ATOM     42  C   UNL A   1      40.366  25.471  27.854  1.00  0.00     0.029 A 
ATOM     43  N   UNL A   1      41.751  27.005  28.708  1.00  0.00    -0.354 N 
ATOM     44  C   UNL A   1      45.928  26.130  29.336  1.00  0.00     0.074 A 
ATOM     45  C   UNL A   1      46.249  24.781  28.923  1.00  0.00     0.031 C 
ATOM     46  C   UNL A   1      39.636  26.565  28.126  1.00  0.00     0.029 A 
ATOM     47  C   UNL A   1      40.505  27.584  28.703  1.00  0.00     0.049 A 
ATOM     48  H   UNL A   1      42.557  27.462  29.039  1.00  0.00     0.167 HD
ATOM     49  C   UNL A   1      46.824  26.999  29.862  1.00  0.00     0.031 A 
ATOM     50  C   UNL A   1      40.106  28.799  29.124  1.00  0.00     0.031 A 
ATOM     51  C   UNL A   1      46.510  28.344  30.258  1.00  0.00     0.049 A 
ATOM     52  C   UNL A   1      41.120  29.743  29.704  1.00  0.00     0.074 A 
ATOM     53  C   UNL A   1      47.363  29.324  30.735  1.00  0.00     0.029 A 
ATOM     54  N   UNL A   1      45.240  28.897  30.227  1.00  0.00    -0.354 N 
ATOM     55  N   UNL A   1      42.406  29.565  29.881  1.00  0.00    -0.248 NA
ATOM     56  C   UNL A   1      40.625  31.057  30.137  1.00  0.00     0.031 C 
ATOM     57  C   UNL A   1      46.600  30.459  31.031  1.00  0.00     0.029 A 
ATOM     58  C   UNL A   1      45.280  30.198  30.699  1.00  0.00     0.049 A 
ATOM     59  H   UNL A   1      44.429  28.434  29.915  1.00  0.00     0.167 HD
ATOM     60  C   UNL A   1      42.879  30.749  30.430  1.00  0.00     0.074 A 
ATOM     61  C   UNL A   1      41.744  31.644  30.540  1.00  0.00     0.031 C 
ATOM     62  C   UNL A   1      44.140  31.068  30.810  1.00  0.00     0.031 A 
BRANCH  49  63
ATOM     63  C   UNL A   1      48.233  26.510  30.037  1.00  0.00    -0.014 A 
ATOM     64  C   UNL A   1      48.629  25.845  31.208  1.00  0.00     0.009 A 
ATOM     65  C   UNL A   1      49.171  26.697  29.010  1.00  0.00     0.009 A 
ATOM     66  C   UNL A   1      49.945  25.407  31.362  1.00  0.00     0.001 A 
ATOM     67  C   UNL A   1      50.481  26.236  29.156  1.00  0.00     0.001 A 
ATOM     68  C   UNL A   1      50.869  25.599  30.334  1.00  0.00     0.000 A 
ENDBRANCH  49  63
BRANCH  50  69
ATOM     69  C   UNL A   1      38.682  29.199  28.996  1.00  0.00    -0.014 A 
ATOM     70  C   UNL A   1      37.816  29.095  30.094  1.00  0.00     0.009 A 
ATOM     71  C   UNL A   1      38.183  29.686  27.779  1.00  0.00     0.009 A 
ATOM     72  C   UNL A   1      36.470  29.447  29.970  1.00  0.00     0.001 A 
ATOM     73  C   UNL A   1      36.842  30.061  27.664  1.00  0.00     0.001 A 
ATOM     74  C   UNL A   1      35.986  29.934  28.756  1.00  0.00     0.000 A 
ENDBRANCH  50  69
BRANCH  62  75
ATOM     75  C   UNL A   1      44.356  32.446  31.365  1.00  0.00    -0.014 A 
ATOM     76  C   UNL A   1      44.584  33.539  30.516  1.00  0.00     0.009 A 
ATOM     77  C   UNL A   1      44.295  32.656  32.750  1.00  0.00     0.009 A 
ATOM     78  C   UNL A   1      44.776  34.815  31.048  1.00  0.00     0.001 A 
ATOM     79  C   UNL A   1      44.463  33.937  33.278  1.00  0.00     0.001 A 
ATOM     80  C   UNL A   1      44.711  35.014  32.426  1.00  0.00     0.000 A 
ENDBRANCH  62  75
ENDBRANCH  36  37
ENDBRANCH  28  31
ENDBRANCH  26  27
ENDBRANCH  25  26
ENDBRANCH   1  25
TORSDOF 14
ENDMDL
MODEL 2
REMARK VINA RESULT:     -10.9      2.935      8.708
REMARK SMILES CNC(=O)[C@H](C)S(=O)(=O)c1cc(C(=O)NCCCCNC(=O)c2ccc(-c3c4nc(c(-c5ccccc5)c5ccc([nH]5)c(-c5ccccc5)c5nc(c(-c6ccccc6)c6ccc3[nH]6)C=C5)C=C4)cc2)c(C)cc1C
REMARK SMILES IDX 17 1 16 2 15 3 13 4 14 5 12 7 10 8 11 9 74 10 73 11 75 12
REMARK SMILES IDX 71 13 72 14 7 15 8 16 9 17 5 18 6 19 3 20 1 21 2 22 4 24
REMARK SMILES IDX 18 25 19 26 20 27 21 28 22 30 23 31 24 32 70 33 25 34 69 35
REMARK SMILES IDX 26 36 27 37 28 38 63 39 29 40 68 41 62 42 64 43 30 44 67 45
REMARK SMILES IDX 61 46 60 47 31 49 53 50 38 51 52 52 39 53 42 54 51 55 65 56
REMARK SMILES IDX 40 57 41 58 50 60 66 61 43 62 32 63 33 64 37 65 34 66 36 67
REMARK SMILES IDX 35 68 54 69 55 70 59 71 56 72 58 73 57 74 44 75 45 76 49 77
REMARK SMILES IDX 46 78 48 79 47 80
REMARK H PARENT 15 6 2 23 20 29 64 48 42 59
REMARK Flexibility Score: inf
ROOT
ATOM      1  C   UNL A   1      32.500  29.109  26.994  1.00  0.00     0.023 C 
ENDROOT
BRANCH   1   2
ATOM      2  C   UNL A   1      33.811  28.588  26.393  1.00  0.00     0.116 C 
BRANCH   2   3
ATOM      3  N   UNL A   1      33.859  28.930  24.992  1.00  0.00    -0.352 N 
ATOM      4  C   UNL A   1      33.654  28.222  23.842  1.00  0.00     0.251 C 
ATOM      5  O   UNL A   1      33.928  28.814  22.792  1.00  0.00    -0.269 OA
ATOM      6  H   UNL A   1      34.088  29.874  24.830  1.00  0.00     0.163 HD
BRANCH   4   7
ATOM      7  C   UNL A   1      33.067  26.847  23.732  1.00  0.00     0.044 A 
ATOM      8  C   UNL A   1      33.616  24.509  24.279  1.00  0.00     0.071 A 
ATOM      9  C   UNL A   1      33.998  25.837  24.056  1.00  0.00     0.034 A 
ATOM     10  C   UNL A   1      32.368  24.078  23.828  1.00  0.00    -0.032 A 
ATOM     11  C   UNL A   1      31.439  25.069  23.480  1.00  0.00     0.009 A 
ATOM     12  C   UNL A   1      31.889  22.656  23.766  1.00  0.00     0.046 C 
ATOM     13  C   UNL A   1      31.733  26.448  23.566  1.00  0.00    -0.038 A 
ATOM     14  C   UNL A   1      30.535  27.342  23.592  1.00  0.00     0.045 C 
BRANCH   8  15
ATOM     15  S   UNL A   1      34.740  23.493  25.236  1.00  0.00     0.190 S 
ATOM     16  O   UNL A   1      33.879  22.768  26.156  1.00  0.00    -0.223 OA
ATOM     17  O   UNL A   1      35.780  24.356  25.763  1.00  0.00    -0.223 OA
BRANCH  15  18
ATOM     18  C   UNL A   1      35.541  22.307  24.195  1.00  0.00     0.199 C 
ATOM     19  C   UNL A   1      36.525  22.795  23.150  1.00  0.00     0.036 C 
BRANCH  18  20
ATOM     20  C   UNL A   1      36.006  21.054  24.900  1.00  0.00     0.238 C 
ATOM     21  C   UNL A   1      33.923  19.590  24.694  1.00  0.00     0.142 C 
ATOM     22  N   UNL A   1      35.225  19.976  25.165  1.00  0.00    -0.358 N 
ATOM     23  H   UNL A   1      35.626  19.339  25.799  1.00  0.00     0.163 HD
ATOM     24  O   UNL A   1      37.141  21.019  25.394  1.00  0.00    -0.274 OA
ENDBRANCH  18  20
ENDBRANCH  15  18
ENDBRANCH   8  15
ENDBRANCH   4   7
ENDBRANCH   2   3
ENDBRANCH   1   2
BRANCH   1  25
ATOM     25  C   UNL A   1      32.205  30.582  26.732  1.00  0.00     0.023 C 
BRANCH  25  26
ATOM     26  C   UNL A   1      33.210  31.542  27.349  1.00  0.00     0.116 C 
BRANCH  26  27
ATOM     27  N   UNL A   1      32.682  32.882  27.563  1.00  0.00    -0.352 N 
ATOM     28  C   UNL A   1      33.219  33.907  28.311  1.00  0.00     0.251 C 
ATOM     29  H   UNL A   1      31.828  33.082  27.116  1.00  0.00     0.163 HD
ATOM     30  O   UNL A   1      32.617  34.959  28.455  1.00  0.00    -0.269 OA
BRANCH  28  31
ATOM     31  C   UNL A   1      34.513  33.681  28.985  1.00  0.00     0.039 A 
ATOM     32  C   UNL A   1      34.526  32.973  30.187  1.00  0.00     0.014 A 
ATOM     33  C   UNL A   1      35.706  34.072  28.371  1.00  0.00     0.014 A 
ATOM     34  C   UNL A   1      35.746  32.565  30.725  1.00  0.00     0.010 A 
ATOM     35  C   UNL A   1      36.913  33.598  28.866  1.00  0.00     0.010 A 
ATOM     36  C   UNL A   1      36.941  32.824  30.037  1.00  0.00    -0.014 A 
BRANCH  36  37
ATOM     37  C   UNL A   1      38.231  32.256  30.494  1.00  0.00     0.031 A 
ATOM     38  C   UNL A   1      38.733  30.965  29.918  1.00  0.00     0.074 A 
ATOM     39  C   UNL A   1      38.901  32.860  31.495  1.00  0.00     0.049 A 
ATOM     40  N   UNL A   1      39.796  30.276  30.247  1.00  0.00    -0.248 NA
ATOM     41  C   UNL A   1      37.921  30.352  28.855  1.00  0.00     0.031 C 
ATOM     42  C   UNL A   1      38.487  34.090  32.176  1.00  0.00     0.029 A 
ATOM     43  N   UNL A   1      40.070  32.513  32.123  1.00  0.00    -0.354 N 
ATOM     44  C   UNL A   1      39.769  29.143  29.446  1.00  0.00     0.074 A 
ATOM     45  C   UNL A   1      38.564  29.213  28.649  1.00  0.00     0.031 C 
ATOM     46  C   UNL A   1      39.401  34.407  33.107  1.00  0.00     0.029 A 
ATOM     47  C   UNL A   1      40.444  33.388  33.114  1.00  0.00     0.049 A 
ATOM     48  H   UNL A   1      40.592  31.713  31.884  1.00  0.00     0.167 HD
ATOM     49  C   UNL A   1      40.678  28.141  29.367  1.00  0.00     0.031 A 
ATOM     50  C   UNL A   1      41.504  33.366  33.942  1.00  0.00     0.031 A 
ATOM     51  C   UNL A   1      41.883  28.079  30.148  1.00  0.00     0.049 A 
ATOM     52  C   UNL A   1      42.496  32.243  33.835  1.00  0.00     0.074 A 
ATOM     53  C   UNL A   1      42.901  27.143  30.089  1.00  0.00     0.029 A 
ATOM     54  N   UNL A   1      42.230  28.990  31.132  1.00  0.00    -0.354 N 
ATOM     55  N   UNL A   1      42.495  31.218  33.019  1.00  0.00    -0.248 NA
ATOM     56  C   UNL A   1      43.638  32.280  34.760  1.00  0.00     0.031 C 
ATOM     57  C   UNL A   1      43.845  27.465  31.070  1.00  0.00     0.029 A 
ATOM     58  C   UNL A   1      43.436  28.624  31.708  1.00  0.00     0.049 A 
ATOM     59  H   UNL A   1      41.699  29.778  31.386  1.00  0.00     0.167 HD
ATOM     60  C   UNL A   1      43.642  30.496  33.320  1.00  0.00     0.074 A 
ATOM     61  C   UNL A   1      44.323  31.211  34.381  1.00  0.00     0.031 C 
ATOM     62  C   UNL A   1      44.091  29.343  32.768  1.00  0.00     0.031 A 
BRANCH  49  63
ATOM     63  C   UNL A   1      40.393  27.031  28.397  1.00  0.00    -0.014 A 
ATOM     64  C   UNL A   1      39.610  25.927  28.770  1.00  0.00     0.009 A 
ATOM     65  C   UNL A   1      40.894  27.100  27.088  1.00  0.00     0.009 A 
ATOM     66  C   UNL A   1      39.363  24.896  27.861  1.00  0.00     0.001 A 
ATOM     67  C   UNL A   1      40.625  26.079  26.174  1.00  0.00     0.001 A 
ATOM     68  C   UNL A   1      39.867  24.976  26.563  1.00  0.00     0.000 A 
ENDBRANCH  49  63
BRANCH  50  69
ATOM     69  C   UNL A   1      41.694  34.453  34.936  1.00  0.00    -0.014 A 
ATOM     70  C   UNL A   1      42.420  35.604  34.597  1.00  0.00     0.009 A 
ATOM     71  C   UNL A   1      41.153  34.345  36.226  1.00  0.00     0.009 A 
ATOM     72  C   UNL A   1      42.621  36.616  35.537  1.00  0.00     0.001 A 
ATOM     73  C   UNL A   1      41.335  35.370  37.157  1.00  0.00     0.001 A 
ATOM     74  C   UNL A   1      42.075  36.500  36.815  1.00  0.00     0.000 A 
ENDBRANCH  50  69
BRANCH  62  75
ATOM     75  C   UNL A   1      45.387  28.796  33.293  1.00  0.00    -0.014 A 
ATOM     76  C   UNL A   1      45.436  28.102  34.512  1.00  0.00     0.009 A 
ATOM     77  C   UNL A   1      46.561  28.944  32.542  1.00  0.00     0.009 A 
ATOM     78  C   UNL A   1      46.647  27.593  34.983  1.00  0.00     0.001 A 
ATOM     79  C   UNL A   1      47.767  28.412  33.003  1.00  0.00     0.001 A 
ATOM     80  C   UNL A   1      47.809  27.744  34.227  1.00  0.00     0.000 A 
ENDBRANCH  62  75
ENDBRANCH  36  37
ENDBRANCH  28  31
ENDBRANCH  26  27
ENDBRANCH  25  26
ENDBRANCH   1  25
TORSDOF 14
ENDMDL
MODEL 3
REMARK VINA RESULT:     -10.9      3.255      8.768
REMARK SMILES CNC(=O)[C@H](C)S(=O)(=O)c1cc(C(=O)NCCCCNC(=O)c2ccc(-c3c4nc(c(-c5ccccc5)c5ccc([nH]5)c(-c5ccccc5)c5nc(c(-c6ccccc6)c6ccc3[nH]6)C=C5)C=C4)cc2)c(C)cc1C
REMARK SMILES IDX 17 1 16 2 15 3 13 4 14 5 12 7 10 8 11 9 74 10 73 11 75 12
REMARK SMILES IDX 71 13 72 14 7 15 8 16 9 17 5 18 6 19 3 20 1 21 2 22 4 24
REMARK SMILES IDX 18 25 19 26 20 27 21 28 22 30 23 31 24 32 70 33 25 34 69 35
REMARK SMILES IDX 26 36 27 37 28 38 63 39 29 40 68 41 62 42 64 43 30 44 67 45
REMARK SMILES IDX 61 46 60 47 31 49 53 50 38 51 52 52 39 53 42 54 51 55 65 56
REMARK SMILES IDX 40 57 41 58 50 60 66 61 43 62 32 63 33 64 37 65 34 66 36 67
REMARK SMILES IDX 35 68 54 69 55 70 59 71 56 72 58 73 57 74 44 75 45 76 49 77
REMARK SMILES IDX 46 78 48 79 47 80
REMARK H PARENT 15 6 2 23 20 29 64 48 42 59
REMARK Flexibility Score: inf
ROOT
ATOM      1  C   UNL A   1      35.105  30.704  28.138  1.00  0.00     0.023 C 
ENDROOT
BRANCH   1   2
ATOM      2  C   UNL A   1      34.951  29.287  27.573  1.00  0.00     0.116 C 
BRANCH   2   3
ATOM      3  N   UNL A   1      34.545  29.369  26.191  1.00  0.00    -0.352 N 
ATOM      4  C   UNL A   1      33.881  28.520  25.352  1.00  0.00     0.251 C 
ATOM      5  O   UNL A   1      33.834  28.866  24.167  1.00  0.00    -0.269 OA
ATOM      6  H   UNL A   1      34.802  30.217  25.760  1.00  0.00     0.163 HD
BRANCH   4   7
ATOM      7  C   UNL A   1      33.152  27.269  25.741  1.00  0.00     0.044 A 
ATOM      8  C   UNL A   1      33.515  24.836  25.879  1.00  0.00     0.071 A 
ATOM      9  C   UNL A   1      33.862  26.101  25.390  1.00  0.00     0.034 A 
ATOM     10  C   UNL A   1      32.244  24.647  26.424  1.00  0.00    -0.032 A 
ATOM     11  C   UNL A   1      31.516  25.799  26.758  1.00  0.00     0.009 A 
ATOM     12  C   UNL A   1      31.616  23.329  26.777  1.00  0.00     0.046 C 
ATOM     13  C   UNL A   1      32.020  27.101  26.552  1.00  0.00    -0.038 A 
ATOM     14  C   UNL A   1      31.338  28.169  27.345  1.00  0.00     0.045 C 
BRANCH   8  15
ATOM     15  S   UNL A   1      34.792  23.579  25.858  1.00  0.00     0.190 S 
ATOM     16  O   UNL A   1      34.679  22.927  27.151  1.00  0.00    -0.223 OA
ATOM     17  O   UNL A   1      36.039  24.221  25.488  1.00  0.00    -0.223 OA
BRANCH  15  18
ATOM     18  C   UNL A   1      34.451  22.372  24.609  1.00  0.00     0.199 C 
ATOM     19  C   UNL A   1      34.491  22.792  23.153  1.00  0.00     0.036 C 
BRANCH  18  20
ATOM     20  C   UNL A   1      35.077  21.018  24.848  1.00  0.00     0.238 C 
ATOM     21  C   UNL A   1      33.001  19.610  25.326  1.00  0.00     0.142 C 
ATOM     22  N   UNL A   1      34.404  19.911  25.251  1.00  0.00    -0.358 N 
ATOM     23  H   UNL A   1      34.987  19.175  25.548  1.00  0.00     0.163 HD
ATOM     24  O   UNL A   1      36.309  20.900  24.800  1.00  0.00    -0.274 OA
ENDBRANCH  18  20
ENDBRANCH  15  18
ENDBRANCH   8  15
ENDBRANCH   4   7
ENDBRANCH   2   3
ENDBRANCH   1   2
BRANCH   1  25
ATOM     25  C   UNL A   1      33.934  31.642  27.868  1.00  0.00     0.023 C 
BRANCH  25  26
ATOM     26  C   UNL A   1      34.307  33.114  27.815  1.00  0.00     0.116 C 
BRANCH  26  27
ATOM     27  N   UNL A   1      33.538  33.945  28.731  1.00  0.00    -0.352 N 
ATOM     28  C   UNL A   1      33.796  34.229  30.054  1.00  0.00     0.251 C 
ATOM     29  H   UNL A   1      32.727  34.358  28.355  1.00  0.00     0.163 HD
ATOM     30  O   UNL A   1      33.012  34.891  30.716  1.00  0.00    -0.269 OA
BRANCH  28  31
ATOM     31  C   UNL A   1      35.012  33.664  30.670  1.00  0.00     0.039 A 
ATOM     32  C   UNL A   1      34.880  32.579  31.537  1.00  0.00     0.014 A 
ATOM     33  C   UNL A   1      36.274  34.137  30.303  1.00  0.00     0.014 A 
ATOM     34  C   UNL A   1      36.022  31.898  31.958  1.00  0.00     0.010 A 
ATOM     35  C   UNL A   1      37.404  33.412  30.658  1.00  0.00     0.010 A 
ATOM     36  C   UNL A   1      37.285  32.275  31.473  1.00  0.00    -0.014 A 
BRANCH  36  37
ATOM     37  C   UNL A   1      38.493  31.468  31.764  1.00  0.00     0.031 A 
ATOM     38  C   UNL A   1      39.366  31.813  32.934  1.00  0.00     0.074 A 
ATOM     39  C   UNL A   1      38.849  30.482  30.917  1.00  0.00     0.049 A 
ATOM     40  N   UNL A   1      40.501  31.274  33.301  1.00  0.00    -0.248 NA
ATOM     41  C   UNL A   1      38.923  32.927  33.787  1.00  0.00     0.031 C 
ATOM     42  C   UNL A   1      38.113  30.087  29.713  1.00  0.00     0.029 A 
ATOM     43  N   UNL A   1      39.930  29.638  30.935  1.00  0.00    -0.354 N 
ATOM     44  C   UNL A   1      40.914  31.994  34.413  1.00  0.00     0.074 A 
ATOM     45  C   UNL A   1      39.935  33.037  34.634  1.00  0.00     0.031 C 
ATOM     46  C   UNL A   1      38.750  29.063  29.124  1.00  0.00     0.029 A 
ATOM     47  C   UNL A   1      39.955  28.752  29.886  1.00  0.00     0.049 A 
ATOM     48  H   UNL A   1      40.623  29.665  31.635  1.00  0.00     0.167 HD
ATOM     49  C   UNL A   1      42.003  31.794  35.193  1.00  0.00     0.031 A 
ATOM     50  C   UNL A   1      40.852  27.801  29.568  1.00  0.00     0.031 A 
ATOM     51  C   UNL A   1      42.968  30.749  34.983  1.00  0.00     0.049 A 
ATOM     52  C   UNL A   1      42.052  27.600  30.450  1.00  0.00     0.074 A 
ATOM     53  C   UNL A   1      44.066  30.421  35.760  1.00  0.00     0.029 A 
ATOM     54  N   UNL A   1      42.951  29.866  33.916  1.00  0.00    -0.354 N 
ATOM     55  N   UNL A   1      42.389  28.242  31.541  1.00  0.00    -0.248 NA
ATOM     56  C   UNL A   1      42.990  26.540  30.056  1.00  0.00     0.031 C 
ATOM     57  C   UNL A   1      44.737  29.363  35.138  1.00  0.00     0.029 A 
ATOM     58  C   UNL A   1      44.034  29.007  33.998  1.00  0.00     0.049 A 
ATOM     59  H   UNL A   1      42.271  29.851  33.205  1.00  0.00     0.167 HD
ATOM     60  C   UNL A   1      43.569  27.653  31.975  1.00  0.00     0.074 A 
ATOM     61  C   UNL A   1      43.878  26.592  31.038  1.00  0.00     0.031 C 
ATOM     62  C   UNL A   1      44.329  27.964  33.052  1.00  0.00     0.031 A 
BRANCH  49  63
ATOM     63  C   UNL A   1      42.203  32.734  36.347  1.00  0.00    -0.014 A 
ATOM     64  C   UNL A   1      42.925  33.927  36.193  1.00  0.00     0.009 A 
ATOM     65  C   UNL A   1      41.643  32.433  37.599  1.00  0.00     0.009 A 
ATOM     66  C   UNL A   1      43.112  34.785  37.278  1.00  0.00     0.001 A 
ATOM     67  C   UNL A   1      41.811  33.305  38.676  1.00  0.00     0.001 A 
ATOM     68  C   UNL A   1      42.552  34.475  38.517  1.00  0.00     0.000 A 
ENDBRANCH  49  63
BRANCH  50  69
ATOM     69  C   UNL A   1      40.642  26.951  28.369  1.00  0.00    -0.014 A 
ATOM     70  C   UNL A   1      39.855  25.793  28.450  1.00  0.00     0.009 A 
ATOM     71  C   UNL A   1      41.227  27.291  27.140  1.00  0.00     0.009 A 
ATOM     72  C   UNL A   1      39.676  24.979  27.330  1.00  0.00     0.001 A 
ATOM     73  C   UNL A   1      41.026  26.488  26.015  1.00  0.00     0.001 A 
ATOM     74  C   UNL A   1      40.258  25.329  26.113  1.00  0.00     0.000 A 
ENDBRANCH  50  69
BRANCH  62  75
ATOM     75  C   UNL A   1      45.560  27.135  33.280  1.00  0.00    -0.014 A 
ATOM     76  C   UNL A   1      46.803  27.530  32.763  1.00  0.00     0.009 A 
ATOM     77  C   UNL A   1      45.479  25.966  34.050  1.00  0.00     0.009 A 
ATOM     78  C   UNL A   1      47.939  26.752  32.991  1.00  0.00     0.001 A 
ATOM     79  C   UNL A   1      46.621  25.203  34.297  1.00  0.00     0.001 A 
ATOM     80  C   UNL A   1      47.848  25.593  33.760  1.00  0.00     0.000 A 
ENDBRANCH  62  75
ENDBRANCH  36  37
ENDBRANCH  28  31
ENDBRANCH  26  27
ENDBRANCH  25  26
ENDBRANCH   1  25
TORSDOF 14
ENDMDL
