MODEL 1
REMARK VINA RESULT:     -10.7      0.000      0.000
REMARK SMILES O=C(NCCCCNC(=O)[C@H](CCO)NC(=O)c1cccc(C(F)(F)F)c1F)c1ccc(-c2c3nc(c(-c4ccccc4)c4ccc([nH]4)c(-c4ccccc4)c4nc(c(-c5ccccc5)c5ccc2[nH]5)C=C4)C=C3)cc1
REMARK SMILES IDX 6 1 5 2 4 3 3 4 1 5 2 6 29 8 30 9 76 10 31 11 75 12 32 13
REMARK SMILES IDX 33 14 34 15 69 16 35 17 74 18 68 19 70 20 36 21 73 22 67 23
REMARK SMILES IDX 66 24 37 26 59 27 44 28 58 29 45 30 48 31 57 32 71 33 46 34
REMARK SMILES IDX 47 35 56 37 72 38 49 39 38 40 39 41 43 42 40 43 42 44 41 45
REMARK SMILES IDX 60 46 61 47 65 48 62 49 64 50 63 51 50 52 51 53 55 54 52 55
REMARK SMILES IDX 54 56 53 57 7 58 8 59 9 60 10 62 11 63 15 64 16 65 17 67
REMARK SMILES IDX 18 68 19 69 27 70 20 71 22 72 28 73 21 74 23 75 24 76 25 77
REMARK SMILES IDX 26 78 12 79 13 80 14 81
REMARK H PARENT 3 7 70 25 48 36 8 61 15 66 14 82
REMARK Flexibility Score: inf
ROOT
ATOM      1  C   UNL A   1      31.779  29.166  27.287  1.00  0.00     0.023 C 
ENDROOT
BRANCH   1   2
ATOM      2  C   UNL A   1      31.802  30.550  26.662  1.00  0.00     0.023 C 
BRANCH   2   3
ATOM      3  C   UNL A   1      32.891  31.464  27.195  1.00  0.00     0.116 C 
BRANCH   3   4
ATOM      4  N   UNL A   1      32.451  32.821  27.490  1.00  0.00    -0.352 N 
ATOM      5  O   UNL A   1      32.610  34.880  28.427  1.00  0.00    -0.269 OA
ATOM      6  C   UNL A   1      33.120  33.791  28.206  1.00  0.00     0.251 C 
ATOM      7  H   UNL A   1      31.569  33.078  27.135  1.00  0.00     0.163 HD
BRANCH   6   8
ATOM      8  C   UNL A   1      34.454  33.462  28.752  1.00  0.00     0.039 A 
ATOM      9  C   UNL A   1      35.603  33.816  28.046  1.00  0.00     0.014 A 
ATOM     10  C   UNL A   1      34.543  32.706  29.923  1.00  0.00     0.014 A 
ATOM     11  C   UNL A   1      36.820  33.257  28.402  1.00  0.00     0.010 A 
ATOM     12  C   UNL A   1      35.788  32.231  30.341  1.00  0.00     0.010 A 
ATOM     13  C   UNL A   1      36.928  32.466  29.558  1.00  0.00    -0.014 A 
BRANCH  13  14
ATOM     14  C   UNL A   1      38.261  31.942  29.942  1.00  0.00     0.031 A 
ATOM     15  C   UNL A   1      39.130  32.662  30.935  1.00  0.00     0.074 A 
ATOM     16  C   UNL A   1      38.655  30.764  29.422  1.00  0.00     0.049 A 
ATOM     17  N   UNL A   1      40.307  32.315  31.395  1.00  0.00    -0.248 NA
ATOM     18  C   UNL A   1      38.626  33.932  31.478  1.00  0.00     0.031 C 
ATOM     19  C   UNL A   1      37.890  29.973  28.454  1.00  0.00     0.029 A 
ATOM     20  N   UNL A   1      39.773  30.009  29.659  1.00  0.00    -0.354 N 
ATOM     21  C   UNL A   1      40.697  33.336  32.253  1.00  0.00     0.074 A 
ATOM     22  C   UNL A   1      39.636  34.321  32.245  1.00  0.00     0.031 C 
ATOM     23  C   UNL A   1      38.526  28.814  28.235  1.00  0.00     0.029 A 
ATOM     24  C   UNL A   1      39.775  28.814  28.985  1.00  0.00     0.049 A 
ATOM     25  H   UNL A   1      40.504  30.296  30.254  1.00  0.00     0.167 HD
ATOM     26  C   UNL A   1      41.836  33.441  32.977  1.00  0.00     0.031 A 
ATOM     27  C   UNL A   1      40.687  27.827  28.956  1.00  0.00     0.031 A 
ATOM     28  C   UNL A   1      42.883  32.452  32.994  1.00  0.00     0.049 A 
ATOM     29  C   UNL A   1      41.942  27.977  29.758  1.00  0.00     0.074 A 
ATOM     30  C   UNL A   1      44.065  32.458  33.715  1.00  0.00     0.029 A 
ATOM     31  N   UNL A   1      42.870  31.278  32.257  1.00  0.00    -0.354 N 
ATOM     32  N   UNL A   1      42.293  28.949  30.564  1.00  0.00    -0.248 NA
ATOM     33  C   UNL A   1      42.932  26.899  29.638  1.00  0.00     0.031 C 
ATOM     34  C   UNL A   1      44.786  31.305  33.382  1.00  0.00     0.029 A 
ATOM     35  C   UNL A   1      44.033  30.561  32.489  1.00  0.00     0.049 A 
ATOM     36  H   UNL A   1      42.142  30.995  31.658  1.00  0.00     0.167 HD
ATOM     37  C   UNL A   1      43.546  28.604  31.046  1.00  0.00     0.074 A 
ATOM     38  C   UNL A   1      43.880  27.318  30.465  1.00  0.00     0.031 C 
ATOM     39  C   UNL A   1      44.352  29.293  31.889  1.00  0.00     0.031 A 
BRANCH  26  40
ATOM     40  C   UNL A   1      42.032  34.690  33.792  1.00  0.00    -0.014 A 
ATOM     41  C   UNL A   1      42.685  35.813  33.263  1.00  0.00     0.009 A 
ATOM     42  C   UNL A   1      41.505  34.759  35.092  1.00  0.00     0.009 A 
ATOM     43  C   UNL A   1      42.830  36.972  34.030  1.00  0.00     0.001 A 
ATOM     44  C   UNL A   1      41.633  35.925  35.848  1.00  0.00     0.001 A 
ATOM     45  C   UNL A   1      42.300  37.028  35.319  1.00  0.00     0.000 A 
ENDBRANCH  26  40
BRANCH  27  46
ATOM     46  C   UNL A   1      40.442  26.628  28.118  1.00  0.00    -0.014 A 
ATOM     47  C   UNL A   1      39.649  25.575  28.594  1.00  0.00     0.009 A 
ATOM     48  C   UNL A   1      40.967  26.555  26.818  1.00  0.00     0.009 A 
ATOM     49  C   UNL A   1      39.395  24.465  27.786  1.00  0.00     0.001 A 
ATOM     50  C   UNL A   1      40.688  25.457  26.003  1.00  0.00     0.001 A 
ATOM     51  C   UNL A   1      39.908  24.410  26.490  1.00  0.00     0.000 A 
ENDBRANCH  27  46
BRANCH  39  52
ATOM     52  C   UNL A   1      45.667  28.658  32.229  1.00  0.00    -0.014 A 
ATOM     53  C   UNL A   1      45.781  27.780  33.317  1.00  0.00     0.009 A 
ATOM     54  C   UNL A   1      46.797  28.932  31.447  1.00  0.00     0.009 A 
ATOM     55  C   UNL A   1      47.015  27.211  33.636  1.00  0.00     0.001 A 
ATOM     56  C   UNL A   1      48.025  28.344  31.755  1.00  0.00     0.001 A 
ATOM     57  C   UNL A   1      48.135  27.493  32.854  1.00  0.00     0.000 A 
ENDBRANCH  39  52
ENDBRANCH  13  14
ENDBRANCH   6   8
ENDBRANCH   3   4
ENDBRANCH   2   3
ENDBRANCH   1   2
BRANCH   1  58
ATOM     58  C   UNL A   1      32.307  28.029  26.411  1.00  0.00     0.116 C 
BRANCH  58  59
ATOM     59  N   UNL A   1      31.224  27.232  25.871  1.00  0.00    -0.354 N 
ATOM     60  C   UNL A   1      30.583  27.299  24.667  1.00  0.00     0.242 C 
ATOM     61  H   UNL A   1      30.895  26.525  26.472  1.00  0.00     0.163 HD
ATOM     62  O   UNL A   1      29.517  26.678  24.596  1.00  0.00    -0.273 OA
BRANCH  60  63
ATOM     63  C   UNL A   1      31.092  28.201  23.496  1.00  0.00     0.173 C 
BRANCH  63  64
ATOM     64  N   UNL A   1      31.101  27.453  22.232  1.00  0.00    -0.340 N 
ATOM     65  C   UNL A   1      31.602  26.240  21.830  1.00  0.00     0.254 C 
ATOM     66  H   UNL A   1      30.640  27.932  21.506  1.00  0.00     0.164 HD
ATOM     67  O   UNL A   1      31.621  26.049  20.611  1.00  0.00    -0.269 OA
BRANCH  65  68
ATOM     68  C   UNL A   1      32.097  25.138  22.706  1.00  0.00     0.076 A 
ATOM     69  C   UNL A   1      31.252  24.033  22.898  1.00  0.00     0.017 A 
ATOM     70  C   UNL A   1      33.231  25.213  23.511  1.00  0.00     0.148 A 
ATOM     71  C   UNL A   1      31.541  23.055  23.857  1.00  0.00     0.002 A 
ATOM     72  C   UNL A   1      33.536  24.257  24.488  1.00  0.00     0.092 A 
ATOM     73  F   UNL A   1      34.048  26.253  23.421  1.00  0.00    -0.205 F 
ATOM     74  C   UNL A   1      32.675  23.171  24.659  1.00  0.00     0.016 A 
BRANCH  72  75
ATOM     75  C   UNL A   1      34.714  24.485  25.395  1.00  0.00     0.419 C 
ATOM     76  F   UNL A   1      34.673  25.713  25.983  1.00  0.00    -0.166 F 
ATOM     77  F   UNL A   1      34.783  23.585  26.414  1.00  0.00    -0.166 F 
ATOM     78  F   UNL A   1      35.917  24.415  24.761  1.00  0.00    -0.166 F 
ENDBRANCH  72  75
ENDBRANCH  65  68
ENDBRANCH  63  64
BRANCH  63  79
ATOM     79  C   UNL A   1      30.201  29.467  23.419  1.00  0.00     0.063 C 
BRANCH  79  80
ATOM     80  C   UNL A   1      29.501  29.719  22.091  1.00  0.00     0.158 C 
BRANCH  80  81
ATOM     81  O   UNL A   1      30.429  30.193  21.124  1.00  0.00    -0.396 OA
ATOM     82  H   UNL A   1      29.963  30.728  20.464  1.00  0.00     0.210 HD
ENDBRANCH  80  81
ENDBRANCH  79  80
ENDBRANCH  63  79
ENDBRANCH  60  63
ENDBRANCH  58  59
ENDBRANCH   1  58
TORSDOF 17
ENDMDL
MODEL 2
REMARK VINA RESULT:     -10.7      3.535      8.441
REMARK SMILES O=C(NCCCCNC(=O)[C@H](CCO)NC(=O)c1cccc(C(F)(F)F)c1F)c1ccc(-c2c3nc(c(-c4ccccc4)c4ccc([nH]4)c(-c4ccccc4)c4nc(c(-c5ccccc5)c5ccc2[nH]5)C=C4)C=C3)cc1
REMARK SMILES IDX 6 1 5 2 4 3 3 4 1 5 2 6 29 8 30 9 76 10 31 11 75 12 32 13
REMARK SMILES IDX 33 14 34 15 69 16 35 17 74 18 68 19 70 20 36 21 73 22 67 23
REMARK SMILES IDX 66 24 37 26 59 27 44 28 58 29 45 30 48 31 57 32 71 33 46 34
REMARK SMILES IDX 47 35 56 37 72 38 49 39 38 40 39 41 43 42 40 43 42 44 41 45
REMARK SMILES IDX 60 46 61 47 65 48 62 49 64 50 63 51 50 52 51 53 55 54 52 55
REMARK SMILES IDX 54 56 53 57 7 58 8 59 9 60 10 62 11 63 15 64 16 65 17 67
REMARK SMILES IDX 18 68 19 69 27 70 20 71 22 72 28 73 21 74 23 75 24 76 25 77
REMARK SMILES IDX 26 78 12 79 13 80 14 81
REMARK H PARENT 3 7 70 25 48 36 8 61 15 66 14 82
REMARK Flexibility Score: inf
ROOT
ATOM      1  C   UNL A   1      36.624  21.976  24.142  1.00  0.00     0.023 C 
ENDROOT
BRANCH   1   2
ATOM      2  C   UNL A   1      37.160  20.791  24.926  1.00  0.00     0.023 C 
BRANCH   2   3
ATOM      3  C   UNL A   1      38.506  21.029  25.586  1.00  0.00     0.116 C 
BRANCH   3   4
ATOM      4  N   UNL A   1      39.413  19.889  25.536  1.00  0.00    -0.352 N 
ATOM      5  O   UNL A   1      41.394  18.820  25.813  1.00  0.00    -0.269 OA
ATOM      6  C   UNL A   1      40.723  19.832  25.963  1.00  0.00     0.251 C 
ATOM      7  H   UNL A   1      39.048  19.061  25.152  1.00  0.00     0.163 HD
BRANCH   6   8
ATOM      8  C   UNL A   1      41.319  21.046  26.560  1.00  0.00     0.039 A 
ATOM      9  C   UNL A   1      41.222  21.267  27.933  1.00  0.00     0.014 A 
ATOM     10  C   UNL A   1      41.883  22.010  25.722  1.00  0.00     0.014 A 
ATOM     11  C   UNL A   1      41.513  22.523  28.442  1.00  0.00     0.010 A 
ATOM     12  C   UNL A   1      42.275  23.240  26.256  1.00  0.00     0.010 A 
ATOM     13  C   UNL A   1      42.050  23.520  27.612  1.00  0.00    -0.014 A 
BRANCH  13  14
ATOM     14  C   UNL A   1      42.411  24.828  28.209  1.00  0.00     0.031 A 
ATOM     15  C   UNL A   1      43.835  25.171  28.546  1.00  0.00     0.074 A 
ATOM     16  C   UNL A   1      41.432  25.736  28.391  1.00  0.00     0.049 A 
ATOM     17  N   UNL A   1      44.313  26.285  29.044  1.00  0.00    -0.248 NA
ATOM     18  C   UNL A   1      44.854  24.139  28.301  1.00  0.00     0.031 C 
ATOM     19  C   UNL A   1      40.014  25.515  28.094  1.00  0.00     0.029 A 
ATOM     20  N   UNL A   1      41.482  27.031  28.831  1.00  0.00    -0.354 N 
ATOM     21  C   UNL A   1      45.677  26.077  29.204  1.00  0.00     0.074 A 
ATOM     22  C   UNL A   1      45.953  24.728  28.756  1.00  0.00     0.031 C 
ATOM     23  C   UNL A   1      39.341  26.657  28.292  1.00  0.00     0.029 A 
ATOM     24  C   UNL A   1      40.264  27.664  28.800  1.00  0.00     0.049 A 
ATOM     25  H   UNL A   1      42.310  27.467  29.140  1.00  0.00     0.167 HD
ATOM     26  C   UNL A   1      46.612  26.933  29.681  1.00  0.00     0.031 A 
ATOM     27  C   UNL A   1      39.918  28.912  29.157  1.00  0.00     0.031 A 
ATOM     28  C   UNL A   1      46.337  28.279  30.111  1.00  0.00     0.049 A 
ATOM     29  C   UNL A   1      40.971  29.832  29.692  1.00  0.00     0.074 A 
ATOM     30  C   UNL A   1      47.222  29.231  30.588  1.00  0.00     0.029 A 
ATOM     31  N   UNL A   1      45.080  28.865  30.113  1.00  0.00    -0.354 N 
ATOM     32  N   UNL A   1      42.256  29.617  29.835  1.00  0.00    -0.248 NA
ATOM     33  C   UNL A   1      40.523  31.161  30.128  1.00  0.00     0.031 C 
ATOM     34  C   UNL A   1      46.493  30.381  30.916  1.00  0.00     0.029 A 
ATOM     35  C   UNL A   1      45.163  30.159  30.603  1.00  0.00     0.049 A 
ATOM     36  H   UNL A   1      44.252  28.427  29.810  1.00  0.00     0.167 HD
ATOM     37  C   UNL A   1      42.773  30.783  30.378  1.00  0.00     0.074 A 
ATOM     38  C   UNL A   1      41.667  31.711  30.512  1.00  0.00     0.031 C 
ATOM     39  C   UNL A   1      44.049  31.058  30.742  1.00  0.00     0.031 A 
BRANCH  26  40
ATOM     40  C   UNL A   1      48.024  26.428  29.797  1.00  0.00    -0.014 A 
ATOM     41  C   UNL A   1      48.471  25.765  30.950  1.00  0.00     0.009 A 
ATOM     42  C   UNL A   1      48.904  26.575  28.713  1.00  0.00     0.009 A 
ATOM     43  C   UNL A   1      49.779  25.281  31.024  1.00  0.00     0.001 A 
ATOM     44  C   UNL A   1      50.204  26.072  28.782  1.00  0.00     0.001 A 
ATOM     45  C   UNL A   1      50.643  25.431  29.938  1.00  0.00     0.000 A 
ENDBRANCH  26  40
BRANCH  27  46
ATOM     46  C   UNL A   1      38.504  29.343  29.034  1.00  0.00    -0.014 A 
ATOM     47  C   UNL A   1      37.631  29.246  30.126  1.00  0.00     0.009 A 
ATOM     48  C   UNL A   1      38.035  29.896  27.831  1.00  0.00     0.009 A 
ATOM     49  C   UNL A   1      36.310  29.685  30.012  1.00  0.00     0.001 A 
ATOM     50  C   UNL A   1      36.722  30.359  27.730  1.00  0.00     0.001 A 
ATOM     51  C   UNL A   1      35.860  30.248  28.818  1.00  0.00     0.000 A 
ENDBRANCH  27  46
BRANCH  39  52
ATOM     52  C   UNL A   1      44.305  32.421  31.312  1.00  0.00    -0.014 A 
ATOM     53  C   UNL A   1      44.226  32.649  32.694  1.00  0.00     0.009 A 
ATOM     54  C   UNL A   1      44.640  33.482  30.459  1.00  0.00     0.009 A 
ATOM     55  C   UNL A   1      44.446  33.927  33.209  1.00  0.00     0.001 A 
ATOM     56  C   UNL A   1      44.882  34.754  30.980  1.00  0.00     0.001 A 
ATOM     57  C   UNL A   1      44.775  34.978  32.353  1.00  0.00     0.000 A 
ENDBRANCH  39  52
ENDBRANCH  13  14
ENDBRANCH   6   8
ENDBRANCH   3   4
ENDBRANCH   2   3
ENDBRANCH   1   2
BRANCH   1  58
ATOM     58  C   UNL A   1      35.345  22.615  24.688  1.00  0.00     0.116 C 
BRANCH  58  59
ATOM     59  N   UNL A   1      34.253  22.502  23.744  1.00  0.00    -0.354 N 
ATOM     60  C   UNL A   1      33.182  21.654  23.717  1.00  0.00     0.242 C 
ATOM     61  H   UNL A   1      34.289  23.141  22.995  1.00  0.00     0.163 HD
ATOM     62  O   UNL A   1      32.571  21.602  22.645  1.00  0.00    -0.273 OA
BRANCH  60  63
ATOM     63  C   UNL A   1      32.827  20.715  24.916  1.00  0.00     0.173 C 
BRANCH  63  64
ATOM     64  N   UNL A   1      31.537  21.096  25.506  1.00  0.00    -0.340 N 
ATOM     65  C   UNL A   1      30.882  22.284  25.713  1.00  0.00     0.254 C 
ATOM     66  H   UNL A   1      31.024  20.320  25.826  1.00  0.00     0.164 HD
ATOM     67  O   UNL A   1      29.904  22.229  26.464  1.00  0.00    -0.269 OA
BRANCH  65  68
ATOM     68  C   UNL A   1      31.215  23.609  25.115  1.00  0.00     0.076 A 
ATOM     69  C   UNL A   1      30.661  23.911  23.860  1.00  0.00     0.017 A 
ATOM     70  C   UNL A   1      32.192  24.476  25.599  1.00  0.00     0.148 A 
ATOM     71  C   UNL A   1      31.078  25.034  23.133  1.00  0.00     0.002 A 
ATOM     72  C   UNL A   1      32.637  25.597  24.887  1.00  0.00     0.092 A 
ATOM     73  F   UNL A   1      32.795  24.227  26.753  1.00  0.00    -0.205 F 
ATOM     74  C   UNL A   1      32.071  25.870  23.640  1.00  0.00     0.016 A 
BRANCH  72  75
ATOM     75  C   UNL A   1      33.784  26.404  25.430  1.00  0.00     0.419 C 
ATOM     76  F   UNL A   1      33.481  26.976  26.629  1.00  0.00    -0.166 F 
ATOM     77  F   UNL A   1      34.904  25.659  25.644  1.00  0.00    -0.166 F 
ATOM     78  F   UNL A   1      34.172  27.424  24.616  1.00  0.00    -0.166 F 
ENDBRANCH  72  75
ENDBRANCH  65  68
ENDBRANCH  63  64
BRANCH  63  79
ATOM     79  C   UNL A   1      32.831  19.248  24.417  1.00  0.00     0.063 C 
BRANCH  79  80
ATOM     80  C   UNL A   1      32.902  18.171  25.491  1.00  0.00     0.158 C 
BRANCH  80  81
ATOM     81  O   UNL A   1      32.862  18.759  26.785  1.00  0.00    -0.396 OA
ATOM     82  H   UNL A   1      33.076  18.088  27.452  1.00  0.00     0.210 HD
ENDBRANCH  80  81
ENDBRANCH  79  80
ENDBRANCH  63  79
ENDBRANCH  60  63
ENDBRANCH  58  59
ENDBRANCH   1  58
TORSDOF 17
ENDMDL
MODEL 3
REMARK VINA RESULT:     -10.6      3.574      8.345
REMARK SMILES O=C(NCCCCNC(=O)[C@H](CCO)NC(=O)c1cccc(C(F)(F)F)c1F)c1ccc(-c2c3nc(c(-c4ccccc4)c4ccc([nH]4)c(-c4ccccc4)c4nc(c(-c5ccccc5)c5ccc2[nH]5)C=C4)C=C3)cc1
REMARK SMILES IDX 6 1 5 2 4 3 3 4 1 5 2 6 29 8 30 9 76 10 31 11 75 12 32 13
REMARK SMILES IDX 33 14 34 15 69 16 35 17 74 18 68 19 70 20 36 21 73 22 67 23
REMARK SMILES IDX 66 24 37 26 59 27 44 28 58 29 45 30 48 31 57 32 71 33 46 34
REMARK SMILES IDX 47 35 56 37 72 38 49 39 38 40 39 41 43 42 40 43 42 44 41 45
REMARK SMILES IDX 60 46 61 47 65 48 62 49 64 50 63 51 50 52 51 53 55 54 52 55
REMARK SMILES IDX 54 56 53 57 7 58 8 59 9 60 10 62 11 63 15 64 16 65 17 67
REMARK SMILES IDX 18 68 19 69 27 70 20 71 22 72 28 73 21 74 23 75 24 76 25 77
REMARK SMILES IDX 26 78 12 79 13 80 14 81
REMARK H PARENT 3 7 70 25 48 36 8 61 15 66 14 82
REMARK Flexibility Score: inf
ROOT
ATOM      1  C   UNL A   1      36.680  21.969  24.151  1.00  0.00     0.023 C 
ENDROOT
BRANCH   1   2
ATOM      2  C   UNL A   1      37.227  20.780  24.923  1.00  0.00     0.023 C 
BRANCH   2   3
ATOM      3  C   UNL A   1      38.569  21.025  25.589  1.00  0.00     0.116 C 
BRANCH   3   4
ATOM      4  N   UNL A   1      39.468  19.878  25.579  1.00  0.00    -0.352 N 
ATOM      5  O   UNL A   1      41.440  18.804  25.893  1.00  0.00    -0.269 OA
ATOM      6  C   UNL A   1      40.776  19.825  26.009  1.00  0.00     0.251 C 
ATOM      7  H   UNL A   1      39.096  19.040  25.221  1.00  0.00     0.163 HD
BRANCH   6   8
ATOM      8  C   UNL A   1      41.380  21.054  26.566  1.00  0.00     0.039 A 
ATOM      9  C   UNL A   1      41.284  21.321  27.931  1.00  0.00     0.014 A 
ATOM     10  C   UNL A   1      41.953  21.986  25.697  1.00  0.00     0.014 A 
ATOM     11  C   UNL A   1      41.584  22.591  28.398  1.00  0.00     0.010 A 
ATOM     12  C   UNL A   1      42.354  23.229  26.191  1.00  0.00     0.010 A 
ATOM     13  C   UNL A   1      42.129  23.556  27.536  1.00  0.00    -0.014 A 
BRANCH  13  14
ATOM     14  C   UNL A   1      42.499  24.880  28.090  1.00  0.00     0.031 A 
ATOM     15  C   UNL A   1      41.466  25.945  28.335  1.00  0.00     0.074 A 
ATOM     16  C   UNL A   1      43.785  25.091  28.431  1.00  0.00     0.049 A 
ATOM     17  N   UNL A   1      41.628  27.142  28.843  1.00  0.00    -0.248 NA
ATOM     18  C   UNL A   1      40.078  25.638  27.959  1.00  0.00     0.031 C 
ATOM     19  C   UNL A   1      44.874  24.127  28.245  1.00  0.00     0.029 A 
ATOM     20  N   UNL A   1      44.388  26.162  29.034  1.00  0.00    -0.354 N 
ATOM     21  C   UNL A   1      40.375  27.740  28.817  1.00  0.00     0.074 A 
ATOM     22  C   UNL A   1      39.461  26.778  28.236  1.00  0.00     0.031 C 
ATOM     23  C   UNL A   1      45.994  24.621  28.789  1.00  0.00     0.029 A 
ATOM     24  C   UNL A   1      45.722  25.961  29.291  1.00  0.00     0.049 A 
ATOM     25  H   UNL A   1      43.913  26.994  29.262  1.00  0.00     0.167 HD
ATOM     26  C   UNL A   1      40.021  28.978  29.237  1.00  0.00     0.031 A 
ATOM     27  C   UNL A   1      46.636  26.771  29.853  1.00  0.00     0.031 A 
ATOM     28  C   UNL A   1      40.930  29.926  29.828  1.00  0.00     0.049 A 
ATOM     29  C   UNL A   1      46.218  28.138  30.297  1.00  0.00     0.074 A 
ATOM     30  C   UNL A   1      40.660  31.196  30.307  1.00  0.00     0.029 A 
ATOM     31  N   UNL A   1      42.284  29.704  30.023  1.00  0.00    -0.354 N 
ATOM     32  N   UNL A   1      45.028  28.685  30.265  1.00  0.00    -0.248 NA
ATOM     33  C   UNL A   1      47.271  29.002  30.844  1.00  0.00     0.031 C 
ATOM     34  C   UNL A   1      41.862  31.759  30.756  1.00  0.00     0.029 A 
ATOM     35  C   UNL A   1      42.869  30.822  30.596  1.00  0.00     0.049 A 
ATOM     36  H   UNL A   1      42.760  28.874  29.789  1.00  0.00     0.167 HD
ATOM     37  C   UNL A   1      45.187  29.961  30.785  1.00  0.00     0.074 A 
ATOM     38  C   UNL A   1      46.584  30.094  31.151  1.00  0.00     0.031 C 
ATOM     39  C   UNL A   1      44.262  30.938  30.937  1.00  0.00     0.031 A 
BRANCH  26  40
ATOM     40  C   UNL A   1      38.590  29.398  29.043  1.00  0.00    -0.014 A 
ATOM     41  C   UNL A   1      38.122  29.845  27.798  1.00  0.00     0.009 A 
ATOM     42  C   UNL A   1      37.685  29.293  30.112  1.00  0.00     0.009 A 
ATOM     43  C   UNL A   1      36.782  30.203  27.635  1.00  0.00     0.001 A 
ATOM     44  C   UNL A   1      36.343  29.631  29.940  1.00  0.00     0.001 A 
ATOM     45  C   UNL A   1      35.892  30.091  28.704  1.00  0.00     0.000 A 
ENDBRANCH  26  40
BRANCH  27  46
ATOM     46  C   UNL A   1      48.036  26.303  30.000  1.00  0.00    -0.014 A 
ATOM     47  C   UNL A   1      48.957  26.468  28.956  1.00  0.00     0.009 A 
ATOM     48  C   UNL A   1      48.467  25.730  31.208  1.00  0.00     0.009 A 
ATOM     49  C   UNL A   1      50.281  26.056  29.116  1.00  0.00     0.001 A 
ATOM     50  C   UNL A   1      49.798  25.345  31.373  1.00  0.00     0.001 A 
ATOM     51  C   UNL A   1      50.702  25.503  30.325  1.00  0.00     0.000 A 
ENDBRANCH  27  46
BRANCH  39  52
ATOM     52  C   UNL A   1      44.740  32.229  31.532  1.00  0.00    -0.014 A 
ATOM     53  C   UNL A   1      45.212  33.266  30.714  1.00  0.00     0.009 A 
ATOM     54  C   UNL A   1      44.707  32.411  32.922  1.00  0.00     0.009 A 
ATOM     55  C   UNL A   1      45.674  34.454  31.281  1.00  0.00     0.001 A 
ATOM     56  C   UNL A   1      45.149  33.610  33.484  1.00  0.00     0.001 A 
ATOM     57  C   UNL A   1      45.641  34.626  32.666  1.00  0.00     0.000 A 
ENDBRANCH  39  52
ENDBRANCH  13  14
ENDBRANCH   6   8
ENDBRANCH   3   4
ENDBRANCH   2   3
ENDBRANCH   1   2
BRANCH   1  58
ATOM     58  C   UNL A   1      35.394  22.588  24.702  1.00  0.00     0.116 C 
BRANCH  58  59
ATOM     59  N   UNL A   1      34.304  22.472  23.755  1.00  0.00    -0.354 N 
ATOM     60  C   UNL A   1      33.229  21.630  23.733  1.00  0.00     0.242 C 
ATOM     61  H   UNL A   1      34.346  23.104  23.000  1.00  0.00     0.163 HD
ATOM     62  O   UNL A   1      32.620  21.572  22.659  1.00  0.00    -0.273 OA
BRANCH  60  63
ATOM     63  C   UNL A   1      32.864  20.705  24.940  1.00  0.00     0.173 C 
BRANCH  63  64
ATOM     64  N   UNL A   1      31.557  21.075  25.498  1.00  0.00    -0.340 N 
ATOM     65  C   UNL A   1      30.888  22.258  25.691  1.00  0.00     0.254 C 
ATOM     66  H   UNL A   1      31.041  20.294  25.804  1.00  0.00     0.164 HD
ATOM     67  O   UNL A   1      29.892  22.194  26.417  1.00  0.00    -0.269 OA
BRANCH  65  68
ATOM     68  C   UNL A   1      31.225  23.587  25.104  1.00  0.00     0.076 A 
ATOM     69  C   UNL A   1      30.672  23.902  23.852  1.00  0.00     0.017 A 
ATOM     70  C   UNL A   1      32.206  24.446  25.594  1.00  0.00     0.148 A 
ATOM     71  C   UNL A   1      31.093  25.029  23.134  1.00  0.00     0.002 A 
ATOM     72  C   UNL A   1      32.655  25.570  24.891  1.00  0.00     0.092 A 
ATOM     73  F   UNL A   1      32.810  24.184  26.745  1.00  0.00    -0.205 F 
ATOM     74  C   UNL A   1      32.090  25.856  23.647  1.00  0.00     0.016 A 
BRANCH  72  75
ATOM     75  C   UNL A   1      33.806  26.368  25.441  1.00  0.00     0.419 C 
ATOM     76  F   UNL A   1      33.503  26.940  26.639  1.00  0.00    -0.166 F 
ATOM     77  F   UNL A   1      34.920  25.615  25.657  1.00  0.00    -0.166 F 
ATOM     78  F   UNL A   1      34.205  27.387  24.630  1.00  0.00    -0.166 F 
ENDBRANCH  72  75
ENDBRANCH  65  68
ENDBRANCH  63  64
BRANCH  63  79
ATOM     79  C   UNL A   1      32.900  19.230  24.465  1.00  0.00     0.063 C 
BRANCH  79  80
ATOM     80  C   UNL A   1      32.836  18.170  25.555  1.00  0.00     0.158 C 
BRANCH  80  81
ATOM     81  O   UNL A   1      32.879  18.777  26.840  1.00  0.00    -0.396 OA
ATOM     82  H   UNL A   1      33.429  19.574  26.803  1.00  0.00     0.210 HD
ENDBRANCH  80  81
ENDBRANCH  79  80
ENDBRANCH  63  79
ENDBRANCH  60  63
ENDBRANCH  58  59
ENDBRANCH   1  58
TORSDOF 17
ENDMDL
