MODEL 1
REMARK VINA RESULT:     -12.0      0.000      0.000
REMARK SMILES C[C@@H]1CN(C(=O)Nc2ccc(O)c(C(=O)NCCCCNC(=O)c3ccc(-c4c5nc(c(-c6ccccc6)c6ccc([nH]6)c(-c6ccccc6)c6nc(c(-c7ccccc7)c7ccc4[nH]7)C=C6)C=C5)cc3)c2)C[C@@H]1C
REMARK SMILES IDX 18 1 17 2 16 3 14 4 15 5 13 7 8 8 9 9 72 10 10 11 11 12 7 13
REMARK SMILES IDX 5 14 6 15 4 17 1 18 2 19 3 20 74 21 73 22 75 23 12 24 19 26
REMARK SMILES IDX 20 27 21 28 22 29 23 31 24 32 25 33 71 34 26 35 70 36 27 37
REMARK SMILES IDX 28 38 29 39 64 40 30 41 69 42 63 43 65 44 31 45 68 46 62 47
REMARK SMILES IDX 61 48 32 50 54 51 39 52 53 53 40 54 43 55 52 56 66 57 41 58
REMARK SMILES IDX 42 59 51 61 67 62 44 63 33 64 34 65 38 66 35 67 37 68 36 69
REMARK SMILES IDX 55 70 56 71 60 72 57 73 59 74 58 75 45 76 46 77 50 78 47 79
REMARK SMILES IDX 49 80 48 81
REMARK H PARENT 16 6 7 16 12 25 21 30 65 49 43 60
REMARK Flexibility Score: inf
ROOT
ATOM      1  C   UNL A   1      31.724  30.810  25.927  1.00  0.00     0.023 C 
ENDROOT
BRANCH   1   2
ATOM      2  C   UNL A   1      32.929  29.947  26.312  1.00  0.00     0.116 C 
BRANCH   2   3
ATOM      3  N   UNL A   1      33.592  29.440  25.134  1.00  0.00    -0.352 N 
ATOM      4  C   UNL A   1      33.232  28.491  24.215  1.00  0.00     0.255 C 
ATOM      5  O   UNL A   1      34.051  28.282  23.312  1.00  0.00    -0.269 OA
ATOM      6  H   UNL A   1      34.468  29.855  24.959  1.00  0.00     0.163 HD
BRANCH   4   7
ATOM      7  C   UNL A   1      31.930  27.754  24.163  1.00  0.00     0.083 A 
ATOM      8  C   UNL A   1      30.517  26.208  25.425  1.00  0.00     0.043 A 
ATOM      9  C   UNL A   1      29.503  26.343  24.485  1.00  0.00     0.030 A 
ATOM     10  C   UNL A   1      31.680  26.967  25.307  1.00  0.00     0.044 A 
ATOM     11  C   UNL A   1      29.720  27.111  23.350  1.00  0.00     0.049 A 
ATOM     12  C   UNL A   1      30.937  27.782  23.173  1.00  0.00     0.128 A 
BRANCH   8  13
ATOM     13  N   UNL A   1      30.405  25.322  26.499  1.00  0.00    -0.308 N 
ATOM     14  C   UNL A   1      30.642  23.981  26.559  1.00  0.00     0.321 C 
ATOM     15  O   UNL A   1      30.033  23.325  27.407  1.00  0.00    -0.248 OA
ATOM     16  H   UNL A   1      30.107  25.730  27.344  1.00  0.00     0.171 HD
BRANCH  14  17
ATOM     17  N   UNL A   1      31.645  23.428  25.793  1.00  0.00    -0.324 N 
ATOM     18  C   UNL A   1      33.625  23.254  22.653  1.00  0.00     0.010 C 
ATOM     19  C   UNL A   1      33.156  22.863  24.044  1.00  0.00     0.010 C 
ATOM     20  C   UNL A   1      31.735  23.341  24.336  1.00  0.00     0.125 C 
ATOM     21  C   UNL A   1      33.952  23.409  25.237  1.00  0.00     0.010 C 
ATOM     22  C   UNL A   1      32.956  23.195  26.386  1.00  0.00     0.125 C 
ATOM     23  C   UNL A   1      34.340  24.883  25.105  1.00  0.00     0.010 C 
ENDBRANCH  14  17
ENDBRANCH   8  13
BRANCH  12  24
ATOM     24  O   UNL A   1      31.063  28.466  22.007  1.00  0.00    -0.507 OA
ATOM     25  H   UNL A   1      30.528  29.218  21.844  1.00  0.00     0.293 HD
ENDBRANCH  12  24
ENDBRANCH   4   7
ENDBRANCH   2   3
ENDBRANCH   1   2
BRANCH   1  26
ATOM     26  C   UNL A   1      31.416  31.970  26.864  1.00  0.00     0.023 C 
BRANCH  26  27
ATOM     27  C   UNL A   1      32.623  32.797  27.271  1.00  0.00     0.116 C 
BRANCH  27  28
ATOM     28  N   UNL A   1      32.301  34.173  27.622  1.00  0.00    -0.352 N 
ATOM     29  C   UNL A   1      32.943  34.985  28.528  1.00  0.00     0.251 C 
ATOM     30  H   UNL A   1      31.531  34.571  27.154  1.00  0.00     0.163 HD
ATOM     31  O   UNL A   1      32.525  36.105  28.783  1.00  0.00    -0.269 OA
BRANCH  29  32
ATOM     32  C   UNL A   1      34.127  34.448  29.229  1.00  0.00     0.039 A 
ATOM     33  C   UNL A   1      33.944  33.758  30.429  1.00  0.00     0.014 A 
ATOM     34  C   UNL A   1      35.392  34.547  28.646  1.00  0.00     0.014 A 
ATOM     35  C   UNL A   1      35.027  33.100  31.011  1.00  0.00     0.010 A 
ATOM     36  C   UNL A   1      36.451  33.830  29.186  1.00  0.00     0.010 A 
ATOM     37  C   UNL A   1      36.278  33.098  30.372  1.00  0.00    -0.014 A 
BRANCH  37  38
ATOM     38  C   UNL A   1      37.435  32.360  30.930  1.00  0.00     0.031 A 
ATOM     39  C   UNL A   1      38.096  32.861  32.183  1.00  0.00     0.074 A 
ATOM     40  C   UNL A   1      37.934  31.292  30.277  1.00  0.00     0.049 A 
ATOM     41  N   UNL A   1      39.191  32.442  32.764  1.00  0.00    -0.248 NA
ATOM     42  C   UNL A   1      37.457  34.006  32.855  1.00  0.00     0.031 C 
ATOM     43  C   UNL A   1      37.400  30.724  29.036  1.00  0.00     0.029 A 
ATOM     44  N   UNL A   1      39.017  30.500  30.564  1.00  0.00    -0.354 N 
ATOM     45  C   UNL A   1      39.379  33.280  33.855  1.00  0.00     0.074 A 
ATOM     46  C   UNL A   1      38.318  34.261  33.829  1.00  0.00     0.031 C 
ATOM     47  C   UNL A   1      38.147  29.664  28.682  1.00  0.00     0.029 A 
ATOM     48  C   UNL A   1      39.231  29.504  29.644  1.00  0.00     0.049 A 
ATOM     49  H   UNL A   1      39.587  30.634  31.356  1.00  0.00     0.167 HD
ATOM     50  C   UNL A   1      40.337  33.223  34.810  1.00  0.00     0.031 A 
ATOM     51  C   UNL A   1      40.202  28.572  29.578  1.00  0.00     0.031 A 
ATOM     52  C   UNL A   1      41.380  32.237  34.850  1.00  0.00     0.049 A 
ATOM     53  C   UNL A   1      41.260  28.540  30.647  1.00  0.00     0.074 A 
ATOM     54  C   UNL A   1      42.386  32.082  35.787  1.00  0.00     0.029 A 
ATOM     55  N   UNL A   1      41.542  31.227  33.915  1.00  0.00    -0.354 N 
ATOM     56  N   UNL A   1      41.405  29.319  31.692  1.00  0.00    -0.248 NA
ATOM     57  C   UNL A   1      42.284  27.491  30.533  1.00  0.00     0.031 C 
ATOM     58  C   UNL A   1      43.173  30.991  35.406  1.00  0.00     0.029 A 
ATOM     59  C   UNL A   1      42.631  30.444  34.254  1.00  0.00     0.049 A 
ATOM     60  H   UNL A   1      40.968  31.088  33.127  1.00  0.00     0.167 HD
ATOM     61  C   UNL A   1      42.510  28.831  32.377  1.00  0.00     0.074 A 
ATOM     62  C   UNL A   1      42.992  27.685  31.636  1.00  0.00     0.031 C 
ATOM     63  C   UNL A   1      43.076  29.292  33.518  1.00  0.00     0.031 A 
BRANCH  50  64
ATOM     64  C   UNL A   1      40.286  34.254  35.898  1.00  0.00    -0.014 A 
ATOM     65  C   UNL A   1      41.007  35.454  35.788  1.00  0.00     0.009 A 
ATOM     66  C   UNL A   1      39.481  34.045  37.028  1.00  0.00     0.009 A 
ATOM     67  C   UNL A   1      40.946  36.412  36.800  1.00  0.00     0.001 A 
ATOM     68  C   UNL A   1      39.403  35.017  38.028  1.00  0.00     0.001 A 
ATOM     69  C   UNL A   1      40.140  36.195  37.917  1.00  0.00     0.000 A 
ENDBRANCH  50  64
BRANCH  51  70
ATOM     70  C   UNL A   1      40.226  27.581  28.471  1.00  0.00    -0.014 A 
ATOM     71  C   UNL A   1      39.587  26.340  28.616  1.00  0.00     0.009 A 
ATOM     72  C   UNL A   1      40.918  27.853  27.282  1.00  0.00     0.009 A 
ATOM     73  C   UNL A   1      39.677  25.375  27.611  1.00  0.00     0.001 A 
ATOM     74  C   UNL A   1      40.982  26.896  26.266  1.00  0.00     0.001 A 
ATOM     75  C   UNL A   1      40.372  25.654  26.436  1.00  0.00     0.000 A 
ENDBRANCH  51  70
BRANCH  63  76
ATOM     76  C   UNL A   1      44.240  28.521  34.068  1.00  0.00    -0.014 A 
ATOM     77  C   UNL A   1      45.560  28.850  33.731  1.00  0.00     0.009 A 
ATOM     78  C   UNL A   1      44.006  27.479  34.981  1.00  0.00     0.009 A 
ATOM     79  C   UNL A   1      46.625  28.132  34.276  1.00  0.00     0.001 A 
ATOM     80  C   UNL A   1      45.073  26.779  35.543  1.00  0.00     0.001 A 
ATOM     81  C   UNL A   1      46.382  27.102  35.185  1.00  0.00     0.000 A 
ENDBRANCH  63  76
ENDBRANCH  37  38
ENDBRANCH  29  32
ENDBRANCH  27  28
ENDBRANCH  26  27
ENDBRANCH   1  26
TORSDOF 14
ENDMDL
MODEL 2
REMARK VINA RESULT:     -12.0      3.303      4.845
REMARK SMILES C[C@@H]1CN(C(=O)Nc2ccc(O)c(C(=O)NCCCCNC(=O)c3ccc(-c4c5nc(c(-c6ccccc6)c6ccc([nH]6)c(-c6ccccc6)c6nc(c(-c7ccccc7)c7ccc4[nH]7)C=C6)C=C5)cc3)c2)C[C@@H]1C
REMARK SMILES IDX 18 1 17 2 16 3 14 4 15 5 13 7 8 8 9 9 72 10 10 11 11 12 7 13
REMARK SMILES IDX 5 14 6 15 4 17 1 18 2 19 3 20 74 21 73 22 75 23 12 24 19 26
REMARK SMILES IDX 20 27 21 28 22 29 23 31 24 32 25 33 71 34 26 35 70 36 27 37
REMARK SMILES IDX 28 38 29 39 64 40 30 41 69 42 63 43 65 44 31 45 68 46 62 47
REMARK SMILES IDX 61 48 32 50 54 51 39 52 53 53 40 54 43 55 52 56 66 57 41 58
REMARK SMILES IDX 42 59 51 61 67 62 44 63 33 64 34 65 38 66 35 67 37 68 36 69
REMARK SMILES IDX 55 70 56 71 60 72 57 73 59 74 58 75 45 76 46 77 50 78 47 79
REMARK SMILES IDX 49 80 48 81
REMARK H PARENT 16 6 7 16 12 25 21 30 65 49 43 60
REMARK Flexibility Score: inf
ROOT
ATOM      1  C   UNL A   1      31.730  29.083  25.819  1.00  0.00     0.023 C 
ENDROOT
BRANCH   1   2
ATOM      2  C   UNL A   1      32.380  29.172  24.435  1.00  0.00     0.116 C 
BRANCH   2   3
ATOM      3  N   UNL A   1      31.376  29.132  23.397  1.00  0.00    -0.352 N 
ATOM      4  C   UNL A   1      30.978  28.140  22.542  1.00  0.00     0.255 C 
ATOM      5  O   UNL A   1      30.079  28.445  21.749  1.00  0.00    -0.269 OA
ATOM      6  H   UNL A   1      30.886  29.979  23.283  1.00  0.00     0.163 HD
BRANCH   4   7
ATOM      7  C   UNL A   1      31.470  26.726  22.532  1.00  0.00     0.083 A 
ATOM      8  C   UNL A   1      31.107  24.531  23.548  1.00  0.00     0.043 A 
ATOM      9  C   UNL A   1      32.020  23.957  22.674  1.00  0.00     0.030 A 
ATOM     10  C   UNL A   1      30.776  25.880  23.423  1.00  0.00     0.044 A 
ATOM     11  C   UNL A   1      32.717  24.764  21.785  1.00  0.00     0.049 A 
ATOM     12  C   UNL A   1      32.470  26.143  21.740  1.00  0.00     0.128 A 
BRANCH   8  13
ATOM     13  N   UNL A   1      30.501  23.789  24.564  1.00  0.00    -0.308 N 
ATOM     14  C   UNL A   1      31.038  22.883  25.429  1.00  0.00     0.321 C 
ATOM     15  O   UNL A   1      30.297  22.008  25.883  1.00  0.00    -0.248 OA
ATOM     16  H   UNL A   1      29.534  23.942  24.670  1.00  0.00     0.171 HD
BRANCH  14  17
ATOM     17  N   UNL A   1      32.327  23.053  25.885  1.00  0.00    -0.324 N 
ATOM     18  C   UNL A   1      36.003  23.008  25.345  1.00  0.00     0.010 C 
ATOM     19  C   UNL A   1      34.695  23.141  26.105  1.00  0.00     0.010 C 
ATOM     20  C   UNL A   1      33.549  22.393  25.426  1.00  0.00     0.125 C 
ATOM     21  C   UNL A   1      34.122  24.553  26.283  1.00  0.00     0.010 C 
ATOM     22  C   UNL A   1      32.665  24.242  26.657  1.00  0.00     0.125 C 
ATOM     23  C   UNL A   1      34.200  25.421  25.025  1.00  0.00     0.010 C 
ENDBRANCH  14  17
ENDBRANCH   8  13
BRANCH  12  24
ATOM     24  O   UNL A   1      33.240  26.846  20.870  1.00  0.00    -0.507 OA
ATOM     25  H   UNL A   1      32.932  27.662  20.526  1.00  0.00     0.293 HD
ENDBRANCH  12  24
ENDBRANCH   4   7
ENDBRANCH   2   3
ENDBRANCH   1   2
BRANCH   1  26
ATOM     26  C   UNL A   1      32.423  28.162  26.815  1.00  0.00     0.023 C 
BRANCH  26  27
ATOM     27  C   UNL A   1      33.773  28.656  27.305  1.00  0.00     0.116 C 
BRANCH  27  28
ATOM     28  N   UNL A   1      33.760  30.035  27.771  1.00  0.00    -0.352 N 
ATOM     29  C   UNL A   1      34.796  30.746  28.333  1.00  0.00     0.251 C 
ATOM     30  H   UNL A   1      32.907  30.518  27.674  1.00  0.00     0.163 HD
ATOM     31  O   UNL A   1      34.632  31.882  28.750  1.00  0.00    -0.269 OA
BRANCH  29  32
ATOM     32  C   UNL A   1      36.106  30.079  28.467  1.00  0.00     0.039 A 
ATOM     33  C   UNL A   1      37.018  30.166  27.414  1.00  0.00     0.014 A 
ATOM     34  C   UNL A   1      36.458  29.456  29.667  1.00  0.00     0.014 A 
ATOM     35  C   UNL A   1      38.317  29.690  27.592  1.00  0.00     0.010 A 
ATOM     36  C   UNL A   1      37.770  29.052  29.868  1.00  0.00     0.010 A 
ATOM     37  C   UNL A   1      38.713  29.167  28.834  1.00  0.00    -0.014 A 
BRANCH  37  38
ATOM     38  C   UNL A   1      40.100  28.708  29.077  1.00  0.00     0.031 A 
ATOM     39  C   UNL A   1      41.092  29.652  29.695  1.00  0.00     0.074 A 
ATOM     40  C   UNL A   1      40.485  27.480  28.679  1.00  0.00     0.049 A 
ATOM     41  N   UNL A   1      42.378  29.496  29.876  1.00  0.00    -0.248 NA
ATOM     42  C   UNL A   1      40.574  30.957  30.141  1.00  0.00     0.031 C 
ATOM     43  C   UNL A   1      39.624  26.480  28.042  1.00  0.00     0.029 A 
ATOM     44  N   UNL A   1      41.711  26.868  28.742  1.00  0.00    -0.354 N 
ATOM     45  C   UNL A   1      42.823  30.686  30.439  1.00  0.00     0.074 A 
ATOM     46  C   UNL A   1      41.684  31.571  30.524  1.00  0.00     0.031 C 
ATOM     47  C   UNL A   1      40.347  25.375  27.791  1.00  0.00     0.029 A 
ATOM     48  C   UNL A   1      41.725  25.602  28.211  1.00  0.00     0.049 A 
ATOM     49  H   UNL A   1      42.507  27.297  29.132  1.00  0.00     0.167 HD
ATOM     50  C   UNL A   1      44.066  31.005  30.870  1.00  0.00     0.031 A 
ATOM     51  C   UNL A   1      42.739  24.727  28.070  1.00  0.00     0.031 A 
ATOM     52  C   UNL A   1      45.195  30.120  30.806  1.00  0.00     0.049 A 
ATOM     53  C   UNL A   1      44.112  25.112  28.548  1.00  0.00     0.074 A 
ATOM     54  C   UNL A   1      46.491  30.342  31.236  1.00  0.00     0.029 A 
ATOM     55  N   UNL A   1      45.157  28.835  30.290  1.00  0.00    -0.354 N 
ATOM     56  N   UNL A   1      44.509  26.230  29.109  1.00  0.00    -0.248 NA
ATOM     57  C   UNL A   1      45.176  24.111  28.383  1.00  0.00     0.031 C 
ATOM     58  C   UNL A   1      47.245  29.198  30.957  1.00  0.00     0.029 A 
ATOM     59  C   UNL A   1      46.407  28.251  30.391  1.00  0.00     0.049 A 
ATOM     60  H   UNL A   1      44.359  28.402  29.906  1.00  0.00     0.167 HD
ATOM     61  C   UNL A   1      45.855  26.049  29.397  1.00  0.00     0.074 A 
ATOM     62  C   UNL A   1      46.206  24.715  28.958  1.00  0.00     0.031 C 
ATOM     63  C   UNL A   1      46.726  26.913  29.973  1.00  0.00     0.031 A 
BRANCH  50  64
ATOM     64  C   UNL A   1      44.259  32.369  31.465  1.00  0.00    -0.014 A 
ATOM     65  C   UNL A   1      44.103  32.582  32.843  1.00  0.00     0.009 A 
ATOM     66  C   UNL A   1      44.637  33.445  30.648  1.00  0.00     0.009 A 
ATOM     67  C   UNL A   1      44.293  33.851  33.389  1.00  0.00     0.001 A 
ATOM     68  C   UNL A   1      44.852  34.709  31.201  1.00  0.00     0.001 A 
ATOM     69  C   UNL A   1      44.673  34.913  32.569  1.00  0.00     0.000 A 
ENDBRANCH  50  64
BRANCH  51  70
ATOM     70  C   UNL A   1      42.507  23.393  27.458  1.00  0.00    -0.014 A 
ATOM     71  C   UNL A   1      42.050  22.322  28.242  1.00  0.00     0.009 A 
ATOM     72  C   UNL A   1      42.778  23.171  26.099  1.00  0.00     0.009 A 
ATOM     73  C   UNL A   1      41.909  21.048  27.689  1.00  0.00     0.001 A 
ATOM     74  C   UNL A   1      42.609  21.901  25.542  1.00  0.00     0.001 A 
ATOM     75  C   UNL A   1      42.187  20.839  26.339  1.00  0.00     0.000 A 
ENDBRANCH  51  70
BRANCH  63  76
ATOM     76  C   UNL A   1      48.122  26.420  30.219  1.00  0.00    -0.014 A 
ATOM     77  C   UNL A   1      49.131  26.575  29.258  1.00  0.00     0.009 A 
ATOM     78  C   UNL A   1      48.439  25.838  31.457  1.00  0.00     0.009 A 
ATOM     79  C   UNL A   1      50.427  26.130  29.521  1.00  0.00     0.001 A 
ATOM     80  C   UNL A   1      49.741  25.417  31.727  1.00  0.00     0.001 A 
ATOM     81  C   UNL A   1      50.732  25.557  30.756  1.00  0.00     0.000 A 
ENDBRANCH  63  76
ENDBRANCH  37  38
ENDBRANCH  29  32
ENDBRANCH  27  28
ENDBRANCH  26  27
ENDBRANCH   1  26
TORSDOF 14
ENDMDL
MODEL 3
REMARK VINA RESULT:     -11.9      0.799      6.001
REMARK SMILES C[C@@H]1CN(C(=O)Nc2ccc(O)c(C(=O)NCCCCNC(=O)c3ccc(-c4c5nc(c(-c6ccccc6)c6ccc([nH]6)c(-c6ccccc6)c6nc(c(-c7ccccc7)c7ccc4[nH]7)C=C6)C=C5)cc3)c2)C[C@@H]1C
REMARK SMILES IDX 18 1 17 2 16 3 14 4 15 5 13 7 8 8 9 9 72 10 10 11 11 12 7 13
REMARK SMILES IDX 5 14 6 15 4 17 1 18 2 19 3 20 74 21 73 22 75 23 12 24 19 26
REMARK SMILES IDX 20 27 21 28 22 29 23 31 24 32 25 33 71 34 26 35 70 36 27 37
REMARK SMILES IDX 28 38 29 39 64 40 30 41 69 42 63 43 65 44 31 45 68 46 62 47
REMARK SMILES IDX 61 48 32 50 54 51 39 52 53 53 40 54 43 55 52 56 66 57 41 58
REMARK SMILES IDX 42 59 51 61 67 62 44 63 33 64 34 65 38 66 35 67 37 68 36 69
REMARK SMILES IDX 55 70 56 71 60 72 57 73 59 74 58 75 45 76 46 77 50 78 47 79
REMARK SMILES IDX 49 80 48 81
REMARK H PARENT 16 6 7 16 12 25 21 30 65 49 43 60
REMARK Flexibility Score: inf
ROOT
ATOM      1  C   UNL A   1      31.408  30.728  25.855  1.00  0.00     0.023 C 
ENDROOT
BRANCH   1   2
ATOM      2  C   UNL A   1      32.802  30.102  25.963  1.00  0.00     0.116 C 
BRANCH   2   3
ATOM      3  N   UNL A   1      33.283  29.700  24.662  1.00  0.00    -0.352 N 
ATOM      4  C   UNL A   1      32.860  28.739  23.783  1.00  0.00     0.255 C 
ATOM      5  O   UNL A   1      33.513  28.644  22.738  1.00  0.00    -0.269 OA
ATOM      6  H   UNL A   1      34.063  30.213  24.348  1.00  0.00     0.163 HD
BRANCH   4   7
ATOM      7  C   UNL A   1      31.655  27.863  23.938  1.00  0.00     0.083 A 
ATOM      8  C   UNL A   1      30.636  26.195  25.408  1.00  0.00     0.043 A 
ATOM      9  C   UNL A   1      29.479  26.202  24.640  1.00  0.00     0.030 A 
ATOM     10  C   UNL A   1      31.676  27.075  25.107  1.00  0.00     0.044 A 
ATOM     11  C   UNL A   1      29.429  26.968  23.484  1.00  0.00     0.049 A 
ATOM     12  C   UNL A   1      30.522  27.765  23.116  1.00  0.00     0.128 A 
BRANCH   8  13
ATOM     13  N   UNL A   1      30.793  25.323  26.487  1.00  0.00    -0.308 N 
ATOM     14  C   UNL A   1      31.162  24.011  26.508  1.00  0.00     0.321 C 
ATOM     15  O   UNL A   1      30.770  23.316  27.449  1.00  0.00    -0.248 OA
ATOM     16  H   UNL A   1      30.605  25.716  27.369  1.00  0.00     0.171 HD
BRANCH  14  17
ATOM     17  N   UNL A   1      32.068  23.539  25.583  1.00  0.00    -0.324 N 
ATOM     18  C   UNL A   1      35.404  22.159  24.703  1.00  0.00     0.010 C 
ATOM     19  C   UNL A   1      34.003  22.702  24.481  1.00  0.00     0.010 C 
ATOM     20  C   UNL A   1      33.528  23.582  25.635  1.00  0.00     0.125 C 
ATOM     21  C   UNL A   1      32.865  21.683  24.338  1.00  0.00     0.010 C 
ATOM     22  C   UNL A   1      31.635  22.568  24.585  1.00  0.00     0.125 C 
ATOM     23  C   UNL A   1      32.931  20.531  25.342  1.00  0.00     0.010 C 
ENDBRANCH  14  17
ENDBRANCH   8  13
BRANCH  12  24
ATOM     24  O   UNL A   1      30.388  28.437  21.944  1.00  0.00    -0.507 OA
ATOM     25  H   UNL A   1      30.114  29.334  21.947  1.00  0.00     0.293 HD
ENDBRANCH  12  24
ENDBRANCH   4   7
ENDBRANCH   2   3
ENDBRANCH   1   2
BRANCH   1  26
ATOM     26  C   UNL A   1      31.240  32.085  26.526  1.00  0.00     0.023 C 
BRANCH  26  27
ATOM     27  C   UNL A   1      32.528  32.704  27.040  1.00  0.00     0.116 C 
BRANCH  27  28
ATOM     28  N   UNL A   1      32.345  34.004  27.668  1.00  0.00    -0.352 N 
ATOM     29  C   UNL A   1      33.129  34.594  28.633  1.00  0.00     0.251 C 
ATOM     30  H   UNL A   1      31.566  34.526  27.366  1.00  0.00     0.163 HD
ATOM     31  O   UNL A   1      32.822  35.666  29.131  1.00  0.00    -0.269 OA
BRANCH  29  32
ATOM     32  C   UNL A   1      34.331  33.869  29.092  1.00  0.00     0.039 A 
ATOM     33  C   UNL A   1      35.589  34.367  28.750  1.00  0.00     0.014 A 
ATOM     34  C   UNL A   1      34.205  32.762  29.934  1.00  0.00     0.014 A 
ATOM     35  C   UNL A   1      36.729  33.795  29.316  1.00  0.00     0.010 A 
ATOM     36  C   UNL A   1      35.332  32.243  30.554  1.00  0.00     0.010 A 
ATOM     37  C   UNL A   1      36.605  32.755  30.253  1.00  0.00    -0.014 A 
BRANCH  37  38
ATOM     38  C   UNL A   1      37.788  32.164  30.920  1.00  0.00     0.031 A 
ATOM     39  C   UNL A   1      38.559  31.076  30.228  1.00  0.00     0.074 A 
ATOM     40  C   UNL A   1      38.124  32.550  32.167  1.00  0.00     0.049 A 
ATOM     41  N   UNL A   1      39.540  30.341  30.683  1.00  0.00    -0.248 NA
ATOM     42  C   UNL A   1      38.151  30.751  28.850  1.00  0.00     0.031 C 
ATOM     43  C   UNL A   1      37.439  33.576  32.957  1.00  0.00     0.029 A 
ATOM     44  N   UNL A   1      39.125  32.108  32.994  1.00  0.00    -0.354 N 
ATOM     45  C   UNL A   1      39.853  29.459  29.657  1.00  0.00     0.074 A 
ATOM     46  C   UNL A   1      38.928  29.714  28.576  1.00  0.00     0.031 C 
ATOM     47  C   UNL A   1      38.053  33.696  34.146  1.00  0.00     0.029 A 
ATOM     48  C   UNL A   1      39.145  32.732  34.217  1.00  0.00     0.049 A 
ATOM     49  H   UNL A   1      39.769  31.410  32.735  1.00  0.00     0.167 HD
ATOM     50  C   UNL A   1      40.840  28.533  29.609  1.00  0.00     0.031 A 
ATOM     51  C   UNL A   1      39.948  32.539  35.281  1.00  0.00     0.031 A 
ATOM     52  C   UNL A   1      41.774  28.292  30.673  1.00  0.00     0.049 A 
ATOM     53  C   UNL A   1      41.030  31.496  35.204  1.00  0.00     0.074 A 
ATOM     54  C   UNL A   1      42.823  27.391  30.712  1.00  0.00     0.029 A 
ATOM     55  N   UNL A   1      41.778  28.968  31.882  1.00  0.00    -0.354 N 
ATOM     56  N   UNL A   1      41.334  30.692  34.212  1.00  0.00    -0.248 NA
ATOM     57  C   UNL A   1      41.886  31.341  36.388  1.00  0.00     0.031 C 
ATOM     58  C   UNL A   1      43.449  27.505  31.958  1.00  0.00     0.029 A 
ATOM     59  C   UNL A   1      42.813  28.506  32.675  1.00  0.00     0.049 A 
ATOM     60  H   UNL A   1      41.139  29.673  32.139  1.00  0.00     0.167 HD
ATOM     61  C   UNL A   1      42.437  29.966  34.641  1.00  0.00     0.074 A 
ATOM     62  C   UNL A   1      42.755  30.430  35.975  1.00  0.00     0.031 C 
ATOM     63  C   UNL A   1      43.127  29.000  33.988  1.00  0.00     0.031 A 
BRANCH  50  64
ATOM     64  C   UNL A   1      40.965  27.724  28.351  1.00  0.00    -0.014 A 
ATOM     65  C   UNL A   1      40.291  26.500  28.214  1.00  0.00     0.009 A 
ATOM     66  C   UNL A   1      41.730  28.205  27.278  1.00  0.00     0.009 A 
ATOM     67  C   UNL A   1      40.405  25.759  27.038  1.00  0.00     0.001 A 
ATOM     68  C   UNL A   1      41.821  27.473  26.093  1.00  0.00     0.001 A 
ATOM     69  C   UNL A   1      41.165  26.248  25.976  1.00  0.00     0.000 A 
ENDBRANCH  50  64
BRANCH  51  70
ATOM     70  C   UNL A   1      39.778  33.350  36.515  1.00  0.00    -0.014 A 
ATOM     71  C   UNL A   1      38.956  32.892  37.557  1.00  0.00     0.009 A 
ATOM     72  C   UNL A   1      40.400  34.600  36.641  1.00  0.00     0.009 A 
ATOM     73  C   UNL A   1      38.729  33.688  38.682  1.00  0.00     0.001 A 
ATOM     74  C   UNL A   1      40.193  35.382  37.780  1.00  0.00     0.001 A 
ATOM     75  C   UNL A   1      39.349  34.931  38.793  1.00  0.00     0.000 A 
ENDBRANCH  51  70
BRANCH  63  76
ATOM     76  C   UNL A   1      44.328  28.425  34.680  1.00  0.00    -0.014 A 
ATOM     77  C   UNL A   1      44.228  27.284  35.490  1.00  0.00     0.009 A 
ATOM     78  C   UNL A   1      45.588  29.010  34.473  1.00  0.00     0.009 A 
ATOM     79  C   UNL A   1      45.365  26.756  36.102  1.00  0.00     0.001 A 
ATOM     80  C   UNL A   1      46.726  28.464  35.067  1.00  0.00     0.001 A 
ATOM     81  C   UNL A   1      46.612  27.342  35.886  1.00  0.00     0.000 A 
ENDBRANCH  63  76
ENDBRANCH  37  38
ENDBRANCH  29  32
ENDBRANCH  27  28
ENDBRANCH  26  27
ENDBRANCH   1  26
TORSDOF 14
ENDMDL
