MODEL 1
REMARK VINA RESULT:     -12.3      0.000      0.000
REMARK SMILES O=C(NCCCCNC(=O)c1cccn1CC(=O)N1CC[C@H]2CCCC[C@H]2C1)c1ccc(-c2c3nc(c(-c4ccccc4)c4ccc([nH]4)c(-c4ccccc4)c4nc(c(-c5ccccc5)c5ccc2[nH]5)C=C4)C=C3)cc1
REMARK SMILES IDX 6 1 5 2 4 3 3 4 1 5 2 6 29 8 30 9 76 10 31 11 75 12 32 13
REMARK SMILES IDX 33 14 34 15 69 16 35 17 74 18 68 19 70 20 36 21 73 22 67 23
REMARK SMILES IDX 66 24 37 26 59 27 44 28 58 29 45 30 48 31 57 32 71 33 46 34
REMARK SMILES IDX 47 35 56 37 72 38 49 39 38 40 39 41 43 42 40 43 42 44 41 45
REMARK SMILES IDX 60 46 61 47 65 48 62 49 64 50 63 51 50 52 51 53 55 54 52 55
REMARK SMILES IDX 54 56 53 57 7 58 8 59 9 60 10 62 11 63 12 64 15 65 13 66
REMARK SMILES IDX 14 67 16 68 17 69 18 70 19 71 20 72 28 73 21 74 27 75 22 76
REMARK SMILES IDX 26 77 23 78 25 79 24 80
REMARK H PARENT 3 7 70 25 48 36 8 61
REMARK Flexibility Score: inf
ROOT
ATOM      1  C   UNL A   1      34.163  28.154  25.838  1.00  0.00     0.023 C 
ENDROOT
BRANCH   1   2
ATOM      2  C   UNL A   1      34.346  28.685  27.246  1.00  0.00     0.023 C 
BRANCH   2   3
ATOM      3  C   UNL A   1      34.661  30.170  27.340  1.00  0.00     0.116 C 
BRANCH   3   4
ATOM      4  N   UNL A   1      35.045  30.660  28.651  1.00  0.00    -0.352 N 
ATOM      5  O   UNL A   1      36.258  31.427  30.346  1.00  0.00    -0.269 OA
ATOM      6  C   UNL A   1      36.225  30.704  29.347  1.00  0.00     0.251 C 
ATOM      7  H   UNL A   1      34.289  31.046  29.151  1.00  0.00     0.163 HD
BRANCH   6   8
ATOM      8  C   UNL A   1      37.410  29.861  29.039  1.00  0.00     0.039 A 
ATOM      9  C   UNL A   1      38.102  29.091  29.972  1.00  0.00     0.014 A 
ATOM     10  C   UNL A   1      37.873  29.882  27.709  1.00  0.00     0.014 A 
ATOM     11  C   UNL A   1      39.314  28.497  29.642  1.00  0.00     0.010 A 
ATOM     12  C   UNL A   1      39.052  29.231  27.347  1.00  0.00     0.010 A 
ATOM     13  C   UNL A   1      39.785  28.554  28.325  1.00  0.00    -0.014 A 
BRANCH  13  14
ATOM     14  C   UNL A   1      40.840  27.584  27.957  1.00  0.00     0.031 A 
ATOM     15  C   UNL A   1      42.197  28.331  27.800  1.00  0.00     0.074 A 
ATOM     16  C   UNL A   1      40.464  26.278  27.755  1.00  0.00     0.049 A 
ATOM     17  N   UNL A   1      43.268  27.985  27.158  1.00  0.00    -0.248 NA
ATOM     18  C   UNL A   1      42.376  29.688  28.408  1.00  0.00     0.031 C 
ATOM     19  C   UNL A   1      39.106  25.729  27.999  1.00  0.00     0.029 A 
ATOM     20  N   UNL A   1      41.120  25.147  27.304  1.00  0.00    -0.354 N 
ATOM     21  C   UNL A   1      44.274  28.944  27.435  1.00  0.00     0.074 A 
ATOM     22  C   UNL A   1      43.639  30.015  28.130  1.00  0.00     0.031 C 
ATOM     23  C   UNL A   1      39.023  24.431  27.613  1.00  0.00     0.029 A 
ATOM     24  C   UNL A   1      40.306  23.990  27.102  1.00  0.00     0.049 A 
ATOM     25  H   UNL A   1      42.089  25.139  27.132  1.00  0.00     0.167 HD
ATOM     26  C   UNL A   1      45.599  28.720  27.191  1.00  0.00     0.031 A 
ATOM     27  C   UNL A   1      40.645  22.785  26.532  1.00  0.00     0.031 A 
ATOM     28  C   UNL A   1      45.755  27.509  26.467  1.00  0.00     0.049 A 
ATOM     29  C   UNL A   1      42.101  22.844  26.376  1.00  0.00     0.074 A 
ATOM     30  C   UNL A   1      45.429  27.163  25.183  1.00  0.00     0.029 A 
ATOM     31  N   UNL A   1      45.915  26.376  27.224  1.00  0.00    -0.354 N 
ATOM     32  N   UNL A   1      42.949  22.737  27.351  1.00  0.00    -0.248 NA
ATOM     33  C   UNL A   1      42.665  23.073  25.040  1.00  0.00     0.031 C 
ATOM     34  C   UNL A   1      44.862  25.884  25.351  1.00  0.00     0.029 A 
ATOM     35  C   UNL A   1      45.141  25.411  26.638  1.00  0.00     0.049 A 
ATOM     36  H   UNL A   1      46.474  26.276  28.028  1.00  0.00     0.167 HD
ATOM     37  C   UNL A   1      44.068  23.307  26.807  1.00  0.00     0.074 A 
ATOM     38  C   UNL A   1      43.952  23.158  25.370  1.00  0.00     0.031 C 
ATOM     39  C   UNL A   1      44.671  24.331  27.463  1.00  0.00     0.031 A 
BRANCH  26  40
ATOM     40  C   UNL A   1      46.845  29.330  27.774  1.00  0.00    -0.014 A 
ATOM     41  C   UNL A   1      47.764  29.909  26.861  1.00  0.00     0.009 A 
ATOM     42  C   UNL A   1      47.317  29.039  29.057  1.00  0.00     0.009 A 
ATOM     43  C   UNL A   1      49.121  30.034  27.158  1.00  0.00     0.001 A 
ATOM     44  C   UNL A   1      48.674  29.208  29.370  1.00  0.00     0.001 A 
ATOM     45  C   UNL A   1      49.580  29.660  28.411  1.00  0.00     0.000 A 
ENDBRANCH  26  40
BRANCH  27  46
ATOM     46  C   UNL A   1      40.033  21.498  26.004  1.00  0.00    -0.014 A 
ATOM     47  C   UNL A   1      40.538  20.207  26.146  1.00  0.00     0.009 A 
ATOM     48  C   UNL A   1      38.745  21.575  25.382  1.00  0.00     0.009 A 
ATOM     49  C   UNL A   1      39.755  19.077  25.792  1.00  0.00     0.001 A 
ATOM     50  C   UNL A   1      37.945  20.467  25.088  1.00  0.00     0.001 A 
ATOM     51  C   UNL A   1      38.449  19.205  25.310  1.00  0.00     0.000 A 
ENDBRANCH  27  46
BRANCH  39  52
ATOM     52  C   UNL A   1      44.405  24.404  28.964  1.00  0.00    -0.014 A 
ATOM     53  C   UNL A   1      44.254  25.656  29.584  1.00  0.00     0.009 A 
ATOM     54  C   UNL A   1      44.406  23.278  29.807  1.00  0.00     0.009 A 
ATOM     55  C   UNL A   1      44.134  25.779  30.976  1.00  0.00     0.001 A 
ATOM     56  C   UNL A   1      44.287  23.395  31.203  1.00  0.00     0.001 A 
ATOM     57  C   UNL A   1      44.153  24.649  31.788  1.00  0.00     0.000 A 
ENDBRANCH  39  52
ENDBRANCH  13  14
ENDBRANCH   6   8
ENDBRANCH   3   4
ENDBRANCH   2   3
ENDBRANCH   1   2
BRANCH   1  58
ATOM     58  C   UNL A   1      33.290  26.913  25.680  1.00  0.00     0.116 C 
BRANCH  58  59
ATOM     59  N   UNL A   1      33.394  26.329  24.354  1.00  0.00    -0.351 N 
ATOM     60  C   UNL A   1      34.011  25.175  23.930  1.00  0.00     0.267 C 
ATOM     61  H   UNL A   1      32.951  26.844  23.641  1.00  0.00     0.163 HD
ATOM     62  O   UNL A   1      34.097  24.997  22.718  1.00  0.00    -0.268 OA
BRANCH  60  63
ATOM     63  C   UNL A   1      34.541  24.237  24.904  1.00  0.00     0.107 A 
ATOM     64  C   UNL A   1      35.840  24.147  25.388  1.00  0.00     0.033 A 
ATOM     65  N   UNL A   1      33.796  23.300  25.613  1.00  0.00    -0.334 N 
ATOM     66  C   UNL A   1      35.883  23.151  26.389  1.00  0.00     0.020 A 
ATOM     67  C   UNL A   1      34.604  22.668  26.533  1.00  0.00     0.087 A 
BRANCH  65  68
ATOM     68  C   UNL A   1      32.358  23.074  25.509  1.00  0.00     0.222 C 
BRANCH  68  69
ATOM     69  C   UNL A   1      31.815  21.646  25.461  1.00  0.00     0.242 C 
ATOM     70  O   UNL A   1      30.627  21.456  25.751  1.00  0.00    -0.273 OA
BRANCH  69  71
ATOM     71  N   UNL A   1      32.543  20.641  24.847  1.00  0.00    -0.341 N 
ATOM     72  C   UNL A   1      32.930  20.601  23.455  1.00  0.00     0.120 C 
ATOM     73  C   UNL A   1      32.909  19.435  25.588  1.00  0.00     0.123 C 
ATOM     74  C   UNL A   1      32.152  19.502  22.773  1.00  0.00     0.025 C 
ATOM     75  C   UNL A   1      32.183  18.217  24.965  1.00  0.00     0.012 C 
ATOM     76  C   UNL A   1      32.351  18.127  23.434  1.00  0.00    -0.005 C 
ATOM     77  C   UNL A   1      32.569  16.883  25.598  1.00  0.00     0.006 C 
ATOM     78  C   UNL A   1      33.654  17.488  22.934  1.00  0.00     0.004 C 
ATOM     79  C   UNL A   1      34.019  16.523  25.336  1.00  0.00     0.000 C 
ATOM     80  C   UNL A   1      34.419  16.555  23.867  1.00  0.00     0.000 C 
ENDBRANCH  69  71
ENDBRANCH  68  69
ENDBRANCH  65  68
ENDBRANCH  60  63
ENDBRANCH  58  59
ENDBRANCH   1  58
TORSDOF 14
ENDMDL
MODEL 2
REMARK VINA RESULT:     -12.2      1.507      2.971
REMARK SMILES O=C(NCCCCNC(=O)c1cccn1CC(=O)N1CC[C@H]2CCCC[C@H]2C1)c1ccc(-c2c3nc(c(-c4ccccc4)c4ccc([nH]4)c(-c4ccccc4)c4nc(c(-c5ccccc5)c5ccc2[nH]5)C=C4)C=C3)cc1
REMARK SMILES IDX 6 1 5 2 4 3 3 4 1 5 2 6 29 8 30 9 76 10 31 11 75 12 32 13
REMARK SMILES IDX 33 14 34 15 69 16 35 17 74 18 68 19 70 20 36 21 73 22 67 23
REMARK SMILES IDX 66 24 37 26 59 27 44 28 58 29 45 30 48 31 57 32 71 33 46 34
REMARK SMILES IDX 47 35 56 37 72 38 49 39 38 40 39 41 43 42 40 43 42 44 41 45
REMARK SMILES IDX 60 46 61 47 65 48 62 49 64 50 63 51 50 52 51 53 55 54 52 55
REMARK SMILES IDX 54 56 53 57 7 58 8 59 9 60 10 62 11 63 12 64 15 65 13 66
REMARK SMILES IDX 14 67 16 68 17 69 18 70 19 71 20 72 28 73 21 74 27 75 22 76
REMARK SMILES IDX 26 77 23 78 25 79 24 80
REMARK H PARENT 3 7 70 25 48 36 8 61
REMARK Flexibility Score: inf
ROOT
ATOM      1  C   UNL A   1      32.238  28.675  27.412  1.00  0.00     0.023 C 
ENDROOT
BRANCH   1   2
ATOM      2  C   UNL A   1      33.023  29.954  27.195  1.00  0.00     0.023 C 
BRANCH   2   3
ATOM      3  C   UNL A   1      34.512  29.853  27.489  1.00  0.00     0.116 C 
BRANCH   3   4
ATOM      4  N   UNL A   1      34.976  30.539  28.680  1.00  0.00    -0.352 N 
ATOM      5  O   UNL A   1      36.286  31.578  30.143  1.00  0.00    -0.269 OA
ATOM      6  C   UNL A   1      36.204  30.717  29.264  1.00  0.00     0.251 C 
ATOM      7  H   UNL A   1      34.247  30.974  29.179  1.00  0.00     0.163 HD
BRANCH   6   8
ATOM      8  C   UNL A   1      37.394  29.870  28.984  1.00  0.00     0.039 A 
ATOM      9  C   UNL A   1      38.020  29.047  29.918  1.00  0.00     0.014 A 
ATOM     10  C   UNL A   1      37.933  29.945  27.686  1.00  0.00     0.014 A 
ATOM     11  C   UNL A   1      39.242  28.450  29.629  1.00  0.00     0.010 A 
ATOM     12  C   UNL A   1      39.123  29.293  27.360  1.00  0.00     0.010 A 
ATOM     13  C   UNL A   1      39.789  28.561  28.346  1.00  0.00    -0.014 A 
BRANCH  13  14
ATOM     14  C   UNL A   1      40.851  27.592  27.993  1.00  0.00     0.031 A 
ATOM     15  C   UNL A   1      42.206  28.343  27.843  1.00  0.00     0.074 A 
ATOM     16  C   UNL A   1      40.481  26.284  27.796  1.00  0.00     0.049 A 
ATOM     17  N   UNL A   1      43.284  27.998  27.212  1.00  0.00    -0.248 NA
ATOM     18  C   UNL A   1      42.375  29.705  28.444  1.00  0.00     0.031 C 
ATOM     19  C   UNL A   1      39.123  25.731  28.031  1.00  0.00     0.029 A 
ATOM     20  N   UNL A   1      41.145  25.152  27.357  1.00  0.00    -0.354 N 
ATOM     21  C   UNL A   1      44.284  28.962  27.492  1.00  0.00     0.074 A 
ATOM     22  C   UNL A   1      43.639  30.035  28.174  1.00  0.00     0.031 C 
ATOM     23  C   UNL A   1      39.048  24.430  27.653  1.00  0.00     0.029 A 
ATOM     24  C   UNL A   1      40.338  23.991  27.156  1.00  0.00     0.049 A 
ATOM     25  H   UNL A   1      42.116  25.147  27.194  1.00  0.00     0.167 HD
ATOM     26  C   UNL A   1      45.612  28.742  27.261  1.00  0.00     0.031 A 
ATOM     27  C   UNL A   1      40.686  22.784  26.597  1.00  0.00     0.031 A 
ATOM     28  C   UNL A   1      45.778  27.527  26.545  1.00  0.00     0.049 A 
ATOM     29  C   UNL A   1      42.143  22.848  26.452  1.00  0.00     0.074 A 
ATOM     30  C   UNL A   1      45.465  27.172  25.260  1.00  0.00     0.029 A 
ATOM     31  N   UNL A   1      45.936  26.399  27.311  1.00  0.00    -0.354 N 
ATOM     32  N   UNL A   1      42.982  22.749  27.435  1.00  0.00    -0.248 NA
ATOM     33  C   UNL A   1      42.717  23.071  25.120  1.00  0.00     0.031 C 
ATOM     34  C   UNL A   1      44.901  25.892  25.432  1.00  0.00     0.029 A 
ATOM     35  C   UNL A   1      45.171  25.428  26.725  1.00  0.00     0.049 A 
ATOM     36  H   UNL A   1      46.489  26.307  28.120  1.00  0.00     0.167 HD
ATOM     37  C   UNL A   1      44.104  23.321  26.898  1.00  0.00     0.074 A 
ATOM     38  C   UNL A   1      44.001  23.163  25.461  1.00  0.00     0.031 C 
ATOM     39  C   UNL A   1      44.697  24.351  27.553  1.00  0.00     0.031 A 
BRANCH  26  40
ATOM     40  C   UNL A   1      46.850  29.360  27.850  1.00  0.00    -0.014 A 
ATOM     41  C   UNL A   1      46.946  29.380  29.266  1.00  0.00     0.009 A 
ATOM     42  C   UNL A   1      47.694  30.220  27.142  1.00  0.00     0.009 A 
ATOM     43  C   UNL A   1      47.720  30.325  29.941  1.00  0.00     0.001 A 
ATOM     44  C   UNL A   1      48.507  31.139  27.821  1.00  0.00     0.001 A 
ATOM     45  C   UNL A   1      48.485  31.222  29.213  1.00  0.00     0.000 A 
ENDBRANCH  26  40
BRANCH  27  46
ATOM     46  C   UNL A   1      40.083  21.492  26.071  1.00  0.00    -0.014 A 
ATOM     47  C   UNL A   1      40.610  20.207  26.194  1.00  0.00     0.009 A 
ATOM     48  C   UNL A   1      38.782  21.552  25.477  1.00  0.00     0.009 A 
ATOM     49  C   UNL A   1      39.838  19.068  25.847  1.00  0.00     0.001 A 
ATOM     50  C   UNL A   1      37.994  20.434  25.191  1.00  0.00     0.001 A 
ATOM     51  C   UNL A   1      38.521  19.178  25.393  1.00  0.00     0.000 A 
ENDBRANCH  27  46
BRANCH  39  52
ATOM     52  C   UNL A   1      44.419  24.433  29.050  1.00  0.00    -0.014 A 
ATOM     53  C   UNL A   1      44.373  25.686  29.683  1.00  0.00     0.009 A 
ATOM     54  C   UNL A   1      44.305  23.303  29.881  1.00  0.00     0.009 A 
ATOM     55  C   UNL A   1      44.245  25.806  31.074  1.00  0.00     0.001 A 
ATOM     56  C   UNL A   1      44.179  23.416  31.276  1.00  0.00     0.001 A 
ATOM     57  C   UNL A   1      44.150  24.671  31.873  1.00  0.00     0.000 A 
ENDBRANCH  39  52
ENDBRANCH  13  14
ENDBRANCH   6   8
ENDBRANCH   3   4
ENDBRANCH   2   3
ENDBRANCH   1   2
BRANCH   1  58
ATOM     58  C   UNL A   1      32.663  27.461  26.592  1.00  0.00     0.116 C 
BRANCH  58  59
ATOM     59  N   UNL A   1      31.567  26.532  26.371  1.00  0.00    -0.351 N 
ATOM     60  C   UNL A   1      30.622  26.486  25.373  1.00  0.00     0.267 C 
ATOM     61  H   UNL A   1      31.488  25.820  27.045  1.00  0.00     0.163 HD
ATOM     62  O   UNL A   1      29.695  25.693  25.514  1.00  0.00    -0.268 OA
BRANCH  60  63
ATOM     63  C   UNL A   1      30.737  27.367  24.224  1.00  0.00     0.107 A 
ATOM     64  C   UNL A   1      30.567  28.745  24.179  1.00  0.00     0.033 A 
ATOM     65  N   UNL A   1      31.144  26.984  22.949  1.00  0.00    -0.334 N 
ATOM     66  C   UNL A   1      30.868  29.196  22.875  1.00  0.00     0.020 A 
ATOM     67  C   UNL A   1      31.253  28.097  22.146  1.00  0.00     0.087 A 
BRANCH  65  68
ATOM     68  C   UNL A   1      31.519  25.639  22.525  1.00  0.00     0.222 C 
BRANCH  68  69
ATOM     69  C   UNL A   1      32.970  25.177  22.658  1.00  0.00     0.242 C 
ATOM     70  O   UNL A   1      33.792  25.562  21.817  1.00  0.00    -0.273 OA
BRANCH  69  71
ATOM     71  N   UNL A   1      33.410  24.583  23.828  1.00  0.00    -0.341 N 
ATOM     72  C   UNL A   1      34.456  25.079  24.693  1.00  0.00     0.120 C 
ATOM     73  C   UNL A   1      32.877  23.285  24.244  1.00  0.00     0.123 C 
ATOM     74  C   UNL A   1      35.641  24.149  24.593  1.00  0.00     0.025 C 
ATOM     75  C   UNL A   1      34.014  22.235  24.204  1.00  0.00     0.012 C 
ATOM     76  C   UNL A   1      35.290  22.691  24.942  1.00  0.00    -0.005 C 
ATOM     77  C   UNL A   1      33.596  20.859  24.715  1.00  0.00     0.006 C 
ATOM     78  C   UNL A   1      35.294  22.501  26.466  1.00  0.00     0.004 C 
ATOM     79  C   UNL A   1      33.265  20.875  26.196  1.00  0.00     0.000 C 
ATOM     80  C   UNL A   1      34.356  21.465  27.078  1.00  0.00     0.000 C 
ENDBRANCH  69  71
ENDBRANCH  68  69
ENDBRANCH  65  68
ENDBRANCH  60  63
ENDBRANCH  58  59
ENDBRANCH   1  58
TORSDOF 14
ENDMDL
MODEL 3
REMARK VINA RESULT:     -12.0      2.585      7.155
REMARK SMILES O=C(NCCCCNC(=O)c1cccn1CC(=O)N1CC[C@H]2CCCC[C@H]2C1)c1ccc(-c2c3nc(c(-c4ccccc4)c4ccc([nH]4)c(-c4ccccc4)c4nc(c(-c5ccccc5)c5ccc2[nH]5)C=C4)C=C3)cc1
REMARK SMILES IDX 6 1 5 2 4 3 3 4 1 5 2 6 29 8 30 9 76 10 31 11 75 12 32 13
REMARK SMILES IDX 33 14 34 15 69 16 35 17 74 18 68 19 70 20 36 21 73 22 67 23
REMARK SMILES IDX 66 24 37 26 59 27 44 28 58 29 45 30 48 31 57 32 71 33 46 34
REMARK SMILES IDX 47 35 56 37 72 38 49 39 38 40 39 41 43 42 40 43 42 44 41 45
REMARK SMILES IDX 60 46 61 47 65 48 62 49 64 50 63 51 50 52 51 53 55 54 52 55
REMARK SMILES IDX 54 56 53 57 7 58 8 59 9 60 10 62 11 63 12 64 15 65 13 66
REMARK SMILES IDX 14 67 16 68 17 69 18 70 19 71 20 72 28 73 21 74 27 75 22 76
REMARK SMILES IDX 26 77 23 78 25 79 24 80
REMARK H PARENT 3 7 70 25 48 36 8 61
REMARK Flexibility Score: inf
ROOT
ATOM      1  C   UNL A   1      32.813  29.556  25.384  1.00  0.00     0.023 C 
ENDROOT
BRANCH   1   2
ATOM      2  C   UNL A   1      33.190  28.726  26.595  1.00  0.00     0.023 C 
BRANCH   2   3
ATOM      3  C   UNL A   1      34.637  28.864  27.045  1.00  0.00     0.116 C 
BRANCH   3   4
ATOM      4  N   UNL A   1      34.911  29.925  27.997  1.00  0.00    -0.352 N 
ATOM      5  O   UNL A   1      35.958  31.511  29.147  1.00  0.00    -0.269 OA
ATOM      6  C   UNL A   1      36.052  30.427  28.566  1.00  0.00     0.251 C 
ATOM      7  H   UNL A   1      34.095  30.386  28.301  1.00  0.00     0.163 HD
BRANCH   6   8
ATOM      8  C   UNL A   1      37.349  29.701  28.621  1.00  0.00     0.039 A 
ATOM      9  C   UNL A   1      38.321  29.734  27.623  1.00  0.00     0.014 A 
ATOM     10  C   UNL A   1      37.578  28.900  29.757  1.00  0.00     0.014 A 
ATOM     11  C   UNL A   1      39.408  28.868  27.664  1.00  0.00     0.010 A 
ATOM     12  C   UNL A   1      38.702  28.078  29.843  1.00  0.00     0.010 A 
ATOM     13  C   UNL A   1      39.608  28.049  28.780  1.00  0.00    -0.014 A 
BRANCH  13  14
ATOM     14  C   UNL A   1      40.961  27.470  28.943  1.00  0.00     0.031 A 
ATOM     15  C   UNL A   1      40.927  25.962  28.560  1.00  0.00     0.074 A 
ATOM     16  C   UNL A   1      41.946  28.286  29.442  1.00  0.00     0.049 A 
ATOM     17  N   UNL A   1      41.736  25.003  28.882  1.00  0.00    -0.248 NA
ATOM     18  C   UNL A   1      39.798  25.427  27.732  1.00  0.00     0.031 C 
ATOM     19  C   UNL A   1      41.803  29.738  29.716  1.00  0.00     0.029 A 
ATOM     20  N   UNL A   1      43.259  28.081  29.831  1.00  0.00    -0.354 N 
ATOM     21  C   UNL A   1      41.347  23.842  28.169  1.00  0.00     0.074 A 
ATOM     22  C   UNL A   1      40.095  24.139  27.554  1.00  0.00     0.031 C 
ATOM     23  C   UNL A   1      42.921  30.243  30.296  1.00  0.00     0.029 A 
ATOM     24  C   UNL A   1      43.911  29.194  30.444  1.00  0.00     0.049 A 
ATOM     25  H   UNL A   1      43.716  27.220  29.693  1.00  0.00     0.167 HD
ATOM     26  C   UNL A   1      42.161  22.755  28.020  1.00  0.00     0.031 A 
ATOM     27  C   UNL A   1      45.143  29.245  31.053  1.00  0.00     0.031 A 
ATOM     28  C   UNL A   1      43.316  22.907  28.832  1.00  0.00     0.049 A 
ATOM     29  C   UNL A   1      45.766  27.955  30.740  1.00  0.00     0.074 A 
ATOM     30  C   UNL A   1      43.488  22.889  30.191  1.00  0.00     0.029 A 
ATOM     31  N   UNL A   1      44.385  23.530  28.240  1.00  0.00    -0.354 N 
ATOM     32  N   UNL A   1      46.240  27.633  29.578  1.00  0.00    -0.248 NA
ATOM     33  C   UNL A   1      45.839  26.928  31.786  1.00  0.00     0.031 C 
ATOM     34  C   UNL A   1      44.358  23.978  30.398  1.00  0.00     0.029 A 
ATOM     35  C   UNL A   1      44.891  24.395  29.172  1.00  0.00     0.049 A 
ATOM     36  H   UNL A   1      44.722  23.385  27.326  1.00  0.00     0.167 HD
ATOM     37  C   UNL A   1      46.258  26.266  29.657  1.00  0.00     0.074 A 
ATOM     38  C   UNL A   1      46.355  25.935  31.065  1.00  0.00     0.031 C 
ATOM     39  C   UNL A   1      45.621  25.542  28.703  1.00  0.00     0.031 A 
BRANCH  26  40
ATOM     40  C   UNL A   1      42.188  21.653  26.997  1.00  0.00    -0.014 A 
ATOM     41  C   UNL A   1      41.406  20.502  27.273  1.00  0.00     0.009 A 
ATOM     42  C   UNL A   1      43.184  21.530  26.025  1.00  0.00     0.009 A 
ATOM     43  C   UNL A   1      41.711  19.254  26.730  1.00  0.00     0.001 A 
ATOM     44  C   UNL A   1      43.461  20.283  25.444  1.00  0.00     0.001 A 
ATOM     45  C   UNL A   1      42.759  19.142  25.829  1.00  0.00     0.000 A 
ENDBRANCH  26  40
BRANCH  27  46
ATOM     46  C   UNL A   1      46.008  30.136  31.929  1.00  0.00    -0.014 A 
ATOM     47  C   UNL A   1      47.270  30.643  31.625  1.00  0.00     0.009 A 
ATOM     48  C   UNL A   1      45.449  30.611  33.159  1.00  0.00     0.009 A 
ATOM     49  C   UNL A   1      47.871  31.636  32.443  1.00  0.00     0.001 A 
ATOM     50  C   UNL A   1      46.006  31.632  33.934  1.00  0.00     0.001 A 
ATOM     51  C   UNL A   1      47.222  32.162  33.564  1.00  0.00     0.000 A 
ENDBRANCH  27  46
BRANCH  39  52
ATOM     52  C   UNL A   1      45.414  26.245  27.365  1.00  0.00    -0.014 A 
ATOM     53  C   UNL A   1      46.426  26.200  26.391  1.00  0.00     0.009 A 
ATOM     54  C   UNL A   1      44.293  27.044  27.073  1.00  0.00     0.009 A 
ATOM     55  C   UNL A   1      46.334  26.932  25.199  1.00  0.00     0.001 A 
ATOM     56  C   UNL A   1      44.196  27.782  25.881  1.00  0.00     0.001 A 
ATOM     57  C   UNL A   1      45.221  27.726  24.943  1.00  0.00     0.000 A 
ENDBRANCH  39  52
ENDBRANCH  13  14
ENDBRANCH   6   8
ENDBRANCH   3   4
ENDBRANCH   2   3
ENDBRANCH   1   2
BRANCH   1  58
ATOM     58  C   UNL A   1      32.967  28.890  24.020  1.00  0.00     0.116 C 
BRANCH  58  59
ATOM     59  N   UNL A   1      32.020  29.403  23.044  1.00  0.00    -0.351 N 
ATOM     60  C   UNL A   1      30.869  28.845  22.535  1.00  0.00     0.267 C 
ATOM     61  H   UNL A   1      32.236  30.295  22.690  1.00  0.00     0.163 HD
ATOM     62  O   UNL A   1      30.339  29.420  21.588  1.00  0.00    -0.268 OA
BRANCH  60  63
ATOM     63  C   UNL A   1      30.344  27.618  23.107  1.00  0.00     0.107 A 
ATOM     64  C   UNL A   1      29.296  27.471  24.007  1.00  0.00     0.033 A 
ATOM     65  N   UNL A   1      30.748  26.330  22.767  1.00  0.00    -0.334 N 
ATOM     66  C   UNL A   1      29.068  26.094  24.217  1.00  0.00     0.020 A 
ATOM     67  C   UNL A   1      29.953  25.411  23.416  1.00  0.00     0.087 A 
BRANCH  65  68
ATOM     68  C   UNL A   1      31.772  25.970  21.792  1.00  0.00     0.222 C 
BRANCH  68  69
ATOM     69  C   UNL A   1      33.206  25.715  22.257  1.00  0.00     0.242 C 
ATOM     70  O   UNL A   1      34.108  26.435  21.808  1.00  0.00    -0.273 OA
BRANCH  69  71
ATOM     71  N   UNL A   1      33.454  24.900  23.347  1.00  0.00    -0.341 N 
ATOM     72  C   UNL A   1      33.135  25.200  24.723  1.00  0.00     0.120 C 
ATOM     73  C   UNL A   1      34.186  23.644  23.179  1.00  0.00     0.123 C 
ATOM     74  C   UNL A   1      34.424  25.425  25.476  1.00  0.00     0.025 C 
ATOM     75  C   UNL A   1      35.536  23.740  23.932  1.00  0.00     0.012 C 
ATOM     76  C   UNL A   1      35.386  24.227  25.388  1.00  0.00    -0.005 C 
ATOM     77  C   UNL A   1      36.345  22.446  23.910  1.00  0.00     0.006 C 
ATOM     78  C   UNL A   1      34.993  23.161  26.421  1.00  0.00     0.004 C 
ATOM     79  C   UNL A   1      35.660  21.330  24.678  1.00  0.00     0.000 C 
ATOM     80  C   UNL A   1      35.272  21.695  26.104  1.00  0.00     0.000 C 
ENDBRANCH  69  71
ENDBRANCH  68  69
ENDBRANCH  65  68
ENDBRANCH  60  63
ENDBRANCH  58  59
ENDBRANCH   1  58
TORSDOF 14
ENDMDL
