MODEL 1
REMARK VINA RESULT:     -11.0      0.000      0.000
REMARK SMILES CC[NH2+][C@@]1(C(=O)NCCCCNC(=O)c2ccc(-c3c4nc(c(-c5ccccc5)c5ccc([nH]5)c(-c5ccccc5)c5nc(c(-c6ccccc6)c6ccc3[nH]6)C=C5)C=C4)cc2)CCC[C@@H]([N@@H+](C)C2CCCC2)C1
REMARK SMILES IDX 9 1 8 2 7 3 5 4 6 5 4 7 63 8 74 9 64 10 66 11 65 12 3 13
REMARK SMILES IDX 2 16 1 17 67 18 68 19 69 21 70 22 73 23 71 24 72 25 10 26
REMARK SMILES IDX 11 27 12 28 13 29 14 31 15 32 16 33 62 34 17 35 61 36 18 37
REMARK SMILES IDX 19 38 20 39 55 40 21 41 60 42 54 43 56 44 22 45 59 46 53 47
REMARK SMILES IDX 52 48 23 50 45 51 30 52 44 53 31 54 34 55 43 56 57 57 32 58
REMARK SMILES IDX 33 59 42 61 58 62 35 63 24 64 25 65 29 66 26 67 28 68 27 69
REMARK SMILES IDX 46 70 47 71 51 72 48 73 50 74 49 75 36 76 37 77 41 78 38 79
REMARK SMILES IDX 40 80 39 81
REMARK H PARENT 7 6 3 14 3 15 67 20 12 30 56 49 34 60
REMARK Flexibility Score: inf
ROOT
ATOM      1  C   UNL A   1      31.741  29.099  26.874  1.00  0.00     0.023 C 
ENDROOT
BRANCH   1   2
ATOM      2  C   UNL A   1      32.248  27.653  26.813  1.00  0.00     0.116 C 
BRANCH   2   3
ATOM      3  N   UNL A   1      31.153  26.714  26.903  1.00  0.00    -0.351 N 
ATOM      4  C   UNL A   1      30.455  25.937  26.048  1.00  0.00     0.281 C 
ATOM      5  O   UNL A   1      29.433  25.452  26.573  1.00  0.00    -0.268 OA
ATOM      6  H   UNL A   1      30.833  26.614  27.829  1.00  0.00     0.163 HD
BRANCH   4   7
ATOM      7  C   UNL A   1      30.747  25.613  24.507  1.00  0.00     0.181 C 
ATOM      8  C   UNL A   1      32.191  25.835  24.036  1.00  0.00     0.079 C 
ATOM      9  C   UNL A   1      29.730  26.338  23.611  1.00  0.00     0.144 C 
ATOM     10  C   UNL A   1      32.556  27.179  23.403  1.00  0.00     0.013 C 
ATOM     11  C   UNL A   1      30.007  27.829  23.443  1.00  0.00     0.190 C 
ATOM     12  C   UNL A   1      31.443  28.136  22.975  1.00  0.00     0.065 C 
BRANCH   7  13
ATOM     13  N   UNL A   1      30.513  24.118  24.485  1.00  0.00    -0.334 N 
ATOM     14  H   UNL A   1      30.095  23.872  25.381  1.00  0.00     0.347 HD
ATOM     15  H   UNL A   1      29.946  23.984  23.648  1.00  0.00     0.347 HD
BRANCH  13  16
ATOM     16  C   UNL A   1      31.631  23.208  24.279  1.00  0.00     0.257 C 
ATOM     17  C   UNL A   1      31.570  22.096  25.322  1.00  0.00     0.071 C 
ENDBRANCH  13  16
ENDBRANCH   7  13
BRANCH  11  18
ATOM     18  N   UNL A   1      28.937  28.567  22.725  1.00  0.00    -0.332 N 
ATOM     19  C   UNL A   1      27.609  28.303  23.283  1.00  0.00     0.333 C 
ATOM     20  H   UNL A   1      29.040  28.149  21.800  1.00  0.00     0.348 HD
BRANCH  18  21
ATOM     21  C   UNL A   1      29.107  29.991  22.404  1.00  0.00     0.184 C 
ATOM     22  C   UNL A   1      28.208  30.660  21.360  1.00  0.00     0.065 C 
ATOM     23  C   UNL A   1      29.067  30.937  23.624  1.00  0.00     0.065 C 
ATOM     24  C   UNL A   1      28.447  32.141  21.609  1.00  0.00     0.006 C 
ATOM     25  C   UNL A   1      28.419  32.231  23.128  1.00  0.00     0.006 C 
ENDBRANCH  18  21
ENDBRANCH  11  18
ENDBRANCH   4   7
ENDBRANCH   2   3
ENDBRANCH   1   2
BRANCH   1  26
ATOM     26  C   UNL A   1      32.672  30.135  26.259  1.00  0.00     0.023 C 
BRANCH  26  27
ATOM     27  C   UNL A   1      33.318  31.077  27.264  1.00  0.00     0.116 C 
BRANCH  27  28
ATOM     28  N   UNL A   1      32.639  32.358  27.418  1.00  0.00    -0.352 N 
ATOM     29  C   UNL A   1      33.105  33.472  28.085  1.00  0.00     0.251 C 
ATOM     30  H   UNL A   1      31.751  32.437  27.001  1.00  0.00     0.163 HD
ATOM     31  O   UNL A   1      32.427  34.488  28.185  1.00  0.00    -0.269 OA
BRANCH  29  32
ATOM     32  C   UNL A   1      34.427  33.381  28.735  1.00  0.00     0.039 A 
ATOM     33  C   UNL A   1      34.535  32.710  29.954  1.00  0.00     0.014 A 
ATOM     34  C   UNL A   1      35.567  33.802  28.044  1.00  0.00     0.014 A 
ATOM     35  C   UNL A   1      35.799  32.360  30.431  1.00  0.00     0.010 A 
ATOM     36  C   UNL A   1      36.816  33.378  28.477  1.00  0.00     0.010 A 
ATOM     37  C   UNL A   1      36.944  32.637  29.663  1.00  0.00    -0.014 A 
BRANCH  37  38
ATOM     38  C   UNL A   1      38.284  32.141  30.060  1.00  0.00     0.031 A 
ATOM     39  C   UNL A   1      38.786  30.831  29.524  1.00  0.00     0.074 A 
ATOM     40  C   UNL A   1      39.006  32.813  30.981  1.00  0.00     0.049 A 
ATOM     41  N   UNL A   1      39.870  30.169  29.840  1.00  0.00    -0.248 NA
ATOM     42  C   UNL A   1      37.936  30.156  28.530  1.00  0.00     0.031 C 
ATOM     43  C   UNL A   1      38.609  34.066  31.629  1.00  0.00     0.029 A 
ATOM     44  N   UNL A   1      40.227  32.526  31.539  1.00  0.00    -0.354 N 
ATOM     45  C   UNL A   1      39.811  28.987  29.115  1.00  0.00     0.074 A 
ATOM     46  C   UNL A   1      38.567  29.002  28.377  1.00  0.00     0.031 C 
ATOM     47  C   UNL A   1      39.581  34.454  32.471  1.00  0.00     0.029 A 
ATOM     48  C   UNL A   1      40.651  33.462  32.450  1.00  0.00     0.049 A 
ATOM     49  H   UNL A   1      40.748  31.724  31.308  1.00  0.00     0.167 HD
ATOM     50  C   UNL A   1      40.718  27.984  29.052  1.00  0.00     0.031 A 
ATOM     51  C   UNL A   1      41.776  33.515  33.187  1.00  0.00     0.031 A 
ATOM     52  C   UNL A   1      41.975  27.986  29.747  1.00  0.00     0.049 A 
ATOM     53  C   UNL A   1      42.791  32.414  33.064  1.00  0.00     0.074 A 
ATOM     54  C   UNL A   1      42.995  27.053  29.687  1.00  0.00     0.029 A 
ATOM     55  N   UNL A   1      42.386  28.977  30.624  1.00  0.00    -0.354 N 
ATOM     56  N   UNL A   1      42.747  31.331  32.327  1.00  0.00    -0.248 NA
ATOM     57  C   UNL A   1      44.013  32.547  33.871  1.00  0.00     0.031 C 
ATOM     58  C   UNL A   1      44.016  27.469  30.549  1.00  0.00     0.029 A 
ATOM     59  C   UNL A   1      43.643  28.675  31.117  1.00  0.00     0.049 A 
ATOM     60  H   UNL A   1      41.863  29.776  30.860  1.00  0.00     0.167 HD
ATOM     61  C   UNL A   1      43.942  30.667  32.562  1.00  0.00     0.074 A 
ATOM     62  C   UNL A   1      44.695  31.472  33.501  1.00  0.00     0.031 C 
ATOM     63  C   UNL A   1      44.378  29.493  32.046  1.00  0.00     0.031 A 
BRANCH  50  64
ATOM     64  C   UNL A   1      40.373  26.805  28.190  1.00  0.00    -0.014 A 
ATOM     65  C   UNL A   1      40.835  26.715  26.867  1.00  0.00     0.009 A 
ATOM     66  C   UNL A   1      39.584  25.768  28.709  1.00  0.00     0.009 A 
ATOM     67  C   UNL A   1      40.476  25.629  26.067  1.00  0.00     0.001 A 
ATOM     68  C   UNL A   1      39.249  24.671  27.915  1.00  0.00     0.001 A 
ATOM     69  C   UNL A   1      39.686  24.607  26.592  1.00  0.00     0.000 A 
ENDBRANCH  50  64
BRANCH  51  70
ATOM     70  C   UNL A   1      42.024  34.671  34.087  1.00  0.00    -0.014 A 
ATOM     71  C   UNL A   1      42.659  35.822  33.597  1.00  0.00     0.009 A 
ATOM     72  C   UNL A   1      41.638  34.627  35.435  1.00  0.00     0.009 A 
ATOM     73  C   UNL A   1      42.925  36.899  34.446  1.00  0.00     0.001 A 
ATOM     74  C   UNL A   1      41.886  35.714  36.276  1.00  0.00     0.001 A 
ATOM     75  C   UNL A   1      42.536  36.845  35.783  1.00  0.00     0.000 A 
ENDBRANCH  51  70
BRANCH  63  76
ATOM     76  C   UNL A   1      45.742  29.026  32.460  1.00  0.00    -0.014 A 
ATOM     77  C   UNL A   1      46.887  29.416  31.750  1.00  0.00     0.009 A 
ATOM     78  C   UNL A   1      45.885  28.225  33.603  1.00  0.00     0.009 A 
ATOM     79  C   UNL A   1      48.150  28.993  32.165  1.00  0.00     0.001 A 
ATOM     80  C   UNL A   1      47.151  27.820  34.028  1.00  0.00     0.001 A 
ATOM     81  C   UNL A   1      48.282  28.199  33.305  1.00  0.00     0.000 A 
ENDBRANCH  63  76
ENDBRANCH  37  38
ENDBRANCH  29  32
ENDBRANCH  27  28
ENDBRANCH  26  27
ENDBRANCH   1  26
TORSDOF 15
ENDMDL
MODEL 2
REMARK VINA RESULT:     -11.0      3.823      9.019
REMARK SMILES CC[NH2+][C@@]1(C(=O)NCCCCNC(=O)c2ccc(-c3c4nc(c(-c5ccccc5)c5ccc([nH]5)c(-c5ccccc5)c5nc(c(-c6ccccc6)c6ccc3[nH]6)C=C5)C=C4)cc2)CCC[C@@H]([N@@H+](C)C2CCCC2)C1
REMARK SMILES IDX 9 1 8 2 7 3 5 4 6 5 4 7 63 8 74 9 64 10 66 11 65 12 3 13
REMARK SMILES IDX 2 16 1 17 67 18 68 19 69 21 70 22 73 23 71 24 72 25 10 26
REMARK SMILES IDX 11 27 12 28 13 29 14 31 15 32 16 33 62 34 17 35 61 36 18 37
REMARK SMILES IDX 19 38 20 39 55 40 21 41 60 42 54 43 56 44 22 45 59 46 53 47
REMARK SMILES IDX 52 48 23 50 45 51 30 52 44 53 31 54 34 55 43 56 57 57 32 58
REMARK SMILES IDX 33 59 42 61 58 62 35 63 24 64 25 65 29 66 26 67 28 68 27 69
REMARK SMILES IDX 46 70 47 71 51 72 48 73 50 74 49 75 36 76 37 77 41 78 38 79
REMARK SMILES IDX 40 80 39 81
REMARK H PARENT 7 6 3 14 3 15 67 20 12 30 56 49 34 60
REMARK Flexibility Score: inf
ROOT
ATOM      1  C   UNL A   1      37.031  22.406  24.527  1.00  0.00     0.023 C 
ENDROOT
BRANCH   1   2
ATOM      2  C   UNL A   1      36.834  23.439  25.643  1.00  0.00     0.116 C 
BRANCH   2   3
ATOM      3  N   UNL A   1      35.878  22.972  26.622  1.00  0.00    -0.351 N 
ATOM      4  C   UNL A   1      34.564  23.147  26.870  1.00  0.00     0.281 C 
ATOM      5  O   UNL A   1      34.226  22.700  27.985  1.00  0.00    -0.268 OA
ATOM      6  H   UNL A   1      36.295  22.368  27.278  1.00  0.00     0.163 HD
BRANCH   4   7
ATOM      7  C   UNL A   1      33.449  23.860  25.967  1.00  0.00     0.181 C 
ATOM      8  C   UNL A   1      32.152  24.252  26.686  1.00  0.00     0.079 C 
ATOM      9  C   UNL A   1      33.179  23.027  24.703  1.00  0.00     0.144 C 
ATOM     10  C   UNL A   1      30.974  23.277  26.655  1.00  0.00     0.013 C 
ATOM     11  C   UNL A   1      32.318  21.792  24.950  1.00  0.00     0.190 C 
ATOM     12  C   UNL A   1      30.994  22.103  25.676  1.00  0.00     0.065 C 
BRANCH   7  13
ATOM     13  N   UNL A   1      34.155  25.153  25.618  1.00  0.00    -0.334 N 
ATOM     14  H   UNL A   1      34.727  25.403  26.423  1.00  0.00     0.347 HD
ATOM     15  H   UNL A   1      34.638  24.927  24.749  1.00  0.00     0.347 HD
BRANCH  13  16
ATOM     16  C   UNL A   1      33.380  26.335  25.269  1.00  0.00     0.257 C 
ATOM     17  C   UNL A   1      33.842  27.508  26.129  1.00  0.00     0.071 C 
ENDBRANCH  13  16
ENDBRANCH   7  13
BRANCH  11  18
ATOM     18  N   UNL A   1      32.198  20.893  23.775  1.00  0.00    -0.332 N 
ATOM     19  C   UNL A   1      32.111  21.634  22.514  1.00  0.00     0.333 C 
ATOM     20  H   UNL A   1      31.311  20.443  24.001  1.00  0.00     0.348 HD
BRANCH  18  21
ATOM     21  C   UNL A   1      33.076  19.722  23.645  1.00  0.00     0.184 C 
ATOM     22  C   UNL A   1      34.163  19.452  24.689  1.00  0.00     0.065 C 
ATOM     23  C   UNL A   1      32.337  18.376  23.487  1.00  0.00     0.065 C 
ATOM     24  C   UNL A   1      34.556  18.011  24.400  1.00  0.00     0.006 C 
ATOM     25  C   UNL A   1      33.209  17.335  24.191  1.00  0.00     0.006 C 
ENDBRANCH  18  21
ENDBRANCH  11  18
ENDBRANCH   4   7
ENDBRANCH   2   3
ENDBRANCH   1   2
BRANCH   1  26
ATOM     26  C   UNL A   1      37.565  21.056  24.984  1.00  0.00     0.023 C 
BRANCH  26  27
ATOM     27  C   UNL A   1      38.886  21.122  25.734  1.00  0.00     0.116 C 
BRANCH  27  28
ATOM     28  N   UNL A   1      39.691  19.909  25.653  1.00  0.00    -0.352 N 
ATOM     29  C   UNL A   1      41.008  19.757  26.032  1.00  0.00     0.251 C 
ATOM     30  H   UNL A   1      39.246  19.111  25.288  1.00  0.00     0.163 HD
ATOM     31  O   UNL A   1      41.600  18.695  25.881  1.00  0.00    -0.269 OA
BRANCH  29  32
ATOM     32  C   UNL A   1      41.709  20.940  26.570  1.00  0.00     0.039 A 
ATOM     33  C   UNL A   1      42.250  21.868  25.678  1.00  0.00     0.014 A 
ATOM     34  C   UNL A   1      41.666  21.205  27.942  1.00  0.00     0.014 A 
ATOM     35  C   UNL A   1      42.648  23.118  26.151  1.00  0.00     0.010 A 
ATOM     36  C   UNL A   1      41.981  22.479  28.395  1.00  0.00     0.010 A 
ATOM     37  C   UNL A   1      42.458  23.454  27.503  1.00  0.00    -0.014 A 
BRANCH  37  38
ATOM     38  C   UNL A   1      42.720  24.824  28.008  1.00  0.00     0.031 A 
ATOM     39  C   UNL A   1      44.108  25.210  28.435  1.00  0.00     0.074 A 
ATOM     40  C   UNL A   1      41.697  25.686  28.181  1.00  0.00     0.049 A 
ATOM     41  N   UNL A   1      44.518  26.311  29.012  1.00  0.00    -0.248 NA
ATOM     42  C   UNL A   1      45.166  24.210  28.221  1.00  0.00     0.031 C 
ATOM     43  C   UNL A   1      40.291  25.417  27.866  1.00  0.00     0.029 A 
ATOM     44  N   UNL A   1      41.685  26.965  28.677  1.00  0.00    -0.354 N 
ATOM     45  C   UNL A   1      45.869  26.119  29.264  1.00  0.00     0.074 A 
ATOM     46  C   UNL A   1      46.201  24.784  28.817  1.00  0.00     0.031 C 
ATOM     47  C   UNL A   1      39.560  26.508  28.147  1.00  0.00     0.029 A 
ATOM     48  C   UNL A   1      40.436  27.538  28.694  1.00  0.00     0.049 A 
ATOM     49  H   UNL A   1      42.495  27.428  28.991  1.00  0.00     0.167 HD
ATOM     50  C   UNL A   1      46.763  26.982  29.802  1.00  0.00     0.031 A 
ATOM     51  C   UNL A   1      40.042  28.758  29.106  1.00  0.00     0.031 A 
ATOM     52  C   UNL A   1      46.448  28.324  30.205  1.00  0.00     0.049 A 
ATOM     53  C   UNL A   1      41.060  29.716  29.655  1.00  0.00     0.074 A 
ATOM     54  C   UNL A   1      47.301  29.301  30.688  1.00  0.00     0.029 A 
ATOM     55  N   UNL A   1      45.181  28.882  30.161  1.00  0.00    -0.354 N 
ATOM     56  N   UNL A   1      42.347  29.540  29.830  1.00  0.00    -0.248 NA
ATOM     57  C   UNL A   1      40.571  31.043  30.057  1.00  0.00     0.031 C 
ATOM     58  C   UNL A   1      46.542  30.445  30.961  1.00  0.00     0.029 A 
ATOM     59  C   UNL A   1      45.226  30.188  30.616  1.00  0.00     0.049 A 
ATOM     60  H   UNL A   1      44.370  28.417  29.853  1.00  0.00     0.167 HD
ATOM     61  C   UNL A   1      42.825  30.740  30.340  1.00  0.00     0.074 A 
ATOM     62  C   UNL A   1      41.694  31.639  30.435  1.00  0.00     0.031 C 
ATOM     63  C   UNL A   1      44.090  31.067  30.697  1.00  0.00     0.031 A 
BRANCH  50  64
ATOM     64  C   UNL A   1      48.169  26.489  29.975  1.00  0.00    -0.014 A 
ATOM     65  C   UNL A   1      48.569  25.842  31.156  1.00  0.00     0.009 A 
ATOM     66  C   UNL A   1      49.103  26.665  28.944  1.00  0.00     0.009 A 
ATOM     67  C   UNL A   1      49.890  25.421  31.316  1.00  0.00     0.001 A 
ATOM     68  C   UNL A   1      50.417  26.218  29.097  1.00  0.00     0.001 A 
ATOM     69  C   UNL A   1      50.811  25.606  30.287  1.00  0.00     0.000 A 
ENDBRANCH  50  64
BRANCH  51  70
ATOM     70  C   UNL A   1      38.617  29.161  28.985  1.00  0.00    -0.014 A 
ATOM     71  C   UNL A   1      38.127  29.660  27.769  1.00  0.00     0.009 A 
ATOM     72  C   UNL A   1      37.746  29.057  30.080  1.00  0.00     0.009 A 
ATOM     73  C   UNL A   1      36.796  30.071  27.657  1.00  0.00     0.001 A 
ATOM     74  C   UNL A   1      36.411  29.449  29.959  1.00  0.00     0.001 A 
ATOM     75  C   UNL A   1      35.940  29.963  28.752  1.00  0.00     0.000 A 
ENDBRANCH  51  70
BRANCH  63  76
ATOM     76  C   UNL A   1      44.322  32.464  31.193  1.00  0.00    -0.014 A 
ATOM     77  C   UNL A   1      44.266  32.764  32.562  1.00  0.00     0.009 A 
ATOM     78  C   UNL A   1      44.649  33.479  30.281  1.00  0.00     0.009 A 
ATOM     79  C   UNL A   1      44.510  34.064  33.007  1.00  0.00     0.001 A 
ATOM     80  C   UNL A   1      44.913  34.773  30.731  1.00  0.00     0.001 A 
ATOM     81  C   UNL A   1      44.838  35.066  32.092  1.00  0.00     0.000 A 
ENDBRANCH  63  76
ENDBRANCH  37  38
ENDBRANCH  29  32
ENDBRANCH  27  28
ENDBRANCH  26  27
ENDBRANCH   1  26
TORSDOF 15
ENDMDL
MODEL 3
REMARK VINA RESULT:     -11.0      3.473      8.269
REMARK SMILES CC[NH2+][C@@]1(C(=O)NCCCCNC(=O)c2ccc(-c3c4nc(c(-c5ccccc5)c5ccc([nH]5)c(-c5ccccc5)c5nc(c(-c6ccccc6)c6ccc3[nH]6)C=C5)C=C4)cc2)CCC[C@@H]([N@@H+](C)C2CCCC2)C1
REMARK SMILES IDX 9 1 8 2 7 3 5 4 6 5 4 7 63 8 74 9 64 10 66 11 65 12 3 13
REMARK SMILES IDX 2 16 1 17 67 18 68 19 69 21 70 22 73 23 71 24 72 25 10 26
REMARK SMILES IDX 11 27 12 28 13 29 14 31 15 32 16 33 62 34 17 35 61 36 18 37
REMARK SMILES IDX 19 38 20 39 55 40 21 41 60 42 54 43 56 44 22 45 59 46 53 47
REMARK SMILES IDX 52 48 23 50 45 51 30 52 44 53 31 54 34 55 43 56 57 57 32 58
REMARK SMILES IDX 33 59 42 61 58 62 35 63 24 64 25 65 29 66 26 67 28 68 27 69
REMARK SMILES IDX 46 70 47 71 51 72 48 73 50 74 49 75 36 76 37 77 41 78 38 79
REMARK SMILES IDX 40 80 39 81
REMARK H PARENT 7 6 3 14 3 15 67 20 12 30 56 49 34 60
REMARK Flexibility Score: inf
ROOT
ATOM      1  C   UNL A   1      36.994  22.134  24.366  1.00  0.00     0.023 C 
ENDROOT
BRANCH   1   2
ATOM      2  C   UNL A   1      36.504  23.353  25.156  1.00  0.00     0.116 C 
BRANCH   2   3
ATOM      3  N   UNL A   1      35.707  22.951  26.292  1.00  0.00    -0.351 N 
ATOM      4  C   UNL A   1      34.395  22.916  26.606  1.00  0.00     0.281 C 
ATOM      5  O   UNL A   1      34.201  22.688  27.817  1.00  0.00    -0.268 OA
ATOM      6  H   UNL A   1      36.266  22.615  27.030  1.00  0.00     0.163 HD
BRANCH   4   7
ATOM      7  C   UNL A   1      33.122  23.158  25.663  1.00  0.00     0.181 C 
ATOM      8  C   UNL A   1      33.135  22.422  24.317  1.00  0.00     0.079 C 
ATOM      9  C   UNL A   1      32.866  24.664  25.495  1.00  0.00     0.144 C 
ATOM     10  C   UNL A   1      33.676  23.154  23.087  1.00  0.00     0.013 C 
ATOM     11  C   UNL A   1      33.826  25.350  24.527  1.00  0.00     0.190 C 
ATOM     12  C   UNL A   1      33.899  24.665  23.149  1.00  0.00     0.065 C 
BRANCH   7  13
ATOM     13  N   UNL A   1      32.032  22.517  26.493  1.00  0.00    -0.334 N 
ATOM     14  H   UNL A   1      32.301  21.544  26.634  1.00  0.00     0.347 HD
ATOM     15  H   UNL A   1      31.983  23.116  27.317  1.00  0.00     0.347 HD
BRANCH  13  16
ATOM     16  C   UNL A   1      30.658  22.506  26.010  1.00  0.00     0.257 C 
ATOM     17  C   UNL A   1      29.712  22.748  27.183  1.00  0.00     0.071 C 
ENDBRANCH  13  16
ENDBRANCH   7  13
BRANCH  11  18
ATOM     18  N   UNL A   1      33.698  26.828  24.492  1.00  0.00    -0.332 N 
ATOM     19  C   UNL A   1      33.439  27.332  23.141  1.00  0.00     0.333 C 
ATOM     20  H   UNL A   1      34.632  27.084  24.810  1.00  0.00     0.348 HD
BRANCH  18  21
ATOM     21  C   UNL A   1      32.869  27.523  25.487  1.00  0.00     0.184 C 
ATOM     22  C   UNL A   1      33.517  28.180  26.709  1.00  0.00     0.065 C 
ATOM     23  C   UNL A   1      31.934  28.606  24.906  1.00  0.00     0.065 C 
ATOM     24  C   UNL A   1      32.405  29.072  27.241  1.00  0.00     0.006 C 
ATOM     25  C   UNL A   1      31.847  29.700  25.972  1.00  0.00     0.006 C 
ENDBRANCH  18  21
ENDBRANCH  11  18
ENDBRANCH   4   7
ENDBRANCH   2   3
ENDBRANCH   1   2
BRANCH   1  26
ATOM     26  C   UNL A   1      37.480  20.967  25.214  1.00  0.00     0.023 C 
BRANCH  26  27
ATOM     27  C   UNL A   1      38.901  21.116  25.735  1.00  0.00     0.116 C 
BRANCH  27  28
ATOM     28  N   UNL A   1      39.714  19.910  25.633  1.00  0.00    -0.352 N 
ATOM     29  C   UNL A   1      41.033  19.761  26.007  1.00  0.00     0.251 C 
ATOM     30  H   UNL A   1      39.273  19.115  25.257  1.00  0.00     0.163 HD
ATOM     31  O   UNL A   1      41.632  18.705  25.837  1.00  0.00    -0.269 OA
BRANCH  29  32
ATOM     32  C   UNL A   1      41.728  20.940  26.561  1.00  0.00     0.039 A 
ATOM     33  C   UNL A   1      42.288  21.868  25.682  1.00  0.00     0.014 A 
ATOM     34  C   UNL A   1      41.658  21.202  27.932  1.00  0.00     0.014 A 
ATOM     35  C   UNL A   1      42.682  23.116  26.166  1.00  0.00     0.010 A 
ATOM     36  C   UNL A   1      41.969  22.473  28.394  1.00  0.00     0.010 A 
ATOM     37  C   UNL A   1      42.466  23.449  27.515  1.00  0.00    -0.014 A 
BRANCH  37  38
ATOM     38  C   UNL A   1      42.723  24.817  28.029  1.00  0.00     0.031 A 
ATOM     39  C   UNL A   1      44.106  25.201  28.471  1.00  0.00     0.074 A 
ATOM     40  C   UNL A   1      41.699  25.678  28.194  1.00  0.00     0.049 A 
ATOM     41  N   UNL A   1      44.511  26.299  29.057  1.00  0.00    -0.248 NA
ATOM     42  C   UNL A   1      45.167  24.202  28.264  1.00  0.00     0.031 C 
ATOM     43  C   UNL A   1      40.296  25.411  27.863  1.00  0.00     0.029 A 
ATOM     44  N   UNL A   1      41.681  26.955  28.696  1.00  0.00    -0.354 N 
ATOM     45  C   UNL A   1      45.859  26.106  29.323  1.00  0.00     0.074 A 
ATOM     46  C   UNL A   1      46.195  24.773  28.874  1.00  0.00     0.031 C 
ATOM     47  C   UNL A   1      39.563  26.501  28.141  1.00  0.00     0.029 A 
ATOM     48  C   UNL A   1      40.432  27.529  28.702  1.00  0.00     0.049 A 
ATOM     49  H   UNL A   1      42.488  27.417  29.021  1.00  0.00     0.167 HD
ATOM     50  C   UNL A   1      46.747  26.967  29.874  1.00  0.00     0.031 A 
ATOM     51  C   UNL A   1      40.034  28.746  29.115  1.00  0.00     0.031 A 
ATOM     52  C   UNL A   1      46.429  28.307  30.280  1.00  0.00     0.049 A 
ATOM     53  C   UNL A   1      41.046  29.702  29.679  1.00  0.00     0.074 A 
ATOM     54  C   UNL A   1      47.276  29.282  30.776  1.00  0.00     0.029 A 
ATOM     55  N   UNL A   1      45.161  28.865  30.225  1.00  0.00    -0.354 N 
ATOM     56  N   UNL A   1      42.331  29.525  29.867  1.00  0.00    -0.248 NA
ATOM     57  C   UNL A   1      40.553  31.027  30.081  1.00  0.00     0.031 C 
ATOM     58  C   UNL A   1      46.514  30.425  31.046  1.00  0.00     0.029 A 
ATOM     59  C   UNL A   1      45.202  30.169  30.686  1.00  0.00     0.049 A 
ATOM     60  H   UNL A   1      44.354  28.402  29.906  1.00  0.00     0.167 HD
ATOM     61  C   UNL A   1      42.804  30.722  30.386  1.00  0.00     0.074 A 
ATOM     62  C   UNL A   1      41.672  31.621  30.474  1.00  0.00     0.031 C 
ATOM     63  C   UNL A   1      44.065  31.048  30.759  1.00  0.00     0.031 A 
BRANCH  50  64
ATOM     64  C   UNL A   1      48.151  26.472  30.061  1.00  0.00    -0.014 A 
ATOM     65  C   UNL A   1      49.120  26.646  29.059  1.00  0.00     0.009 A 
ATOM     66  C   UNL A   1      48.513  25.831  31.255  1.00  0.00     0.009 A 
ATOM     67  C   UNL A   1      50.412  26.149  29.233  1.00  0.00     0.001 A 
ATOM     68  C   UNL A   1      49.813  25.358  31.436  1.00  0.00     0.001 A 
ATOM     69  C   UNL A   1      50.758  25.508  30.422  1.00  0.00     0.000 A 
ENDBRANCH  50  64
BRANCH  51  70
ATOM     70  C   UNL A   1      38.610  29.150  28.981  1.00  0.00    -0.014 A 
ATOM     71  C   UNL A   1      38.135  29.660  27.764  1.00  0.00     0.009 A 
ATOM     72  C   UNL A   1      37.727  29.037  30.064  1.00  0.00     0.009 A 
ATOM     73  C   UNL A   1      36.806  30.072  27.639  1.00  0.00     0.001 A 
ATOM     74  C   UNL A   1      36.393  29.429  29.931  1.00  0.00     0.001 A 
ATOM     75  C   UNL A   1      35.936  29.954  28.722  1.00  0.00     0.000 A 
ENDBRANCH  51  70
BRANCH  63  76
ATOM     76  C   UNL A   1      44.292  32.443  31.263  1.00  0.00    -0.014 A 
ATOM     77  C   UNL A   1      44.211  32.739  32.631  1.00  0.00     0.009 A 
ATOM     78  C   UNL A   1      44.639  33.460  30.360  1.00  0.00     0.009 A 
ATOM     79  C   UNL A   1      44.452  34.037  33.084  1.00  0.00     0.001 A 
ATOM     80  C   UNL A   1      44.899  34.752  30.819  1.00  0.00     0.001 A 
ATOM     81  C   UNL A   1      44.799  35.041  32.179  1.00  0.00     0.000 A 
ENDBRANCH  63  76
ENDBRANCH  37  38
ENDBRANCH  29  32
ENDBRANCH  27  28
ENDBRANCH  26  27
ENDBRANCH   1  26
TORSDOF 15
ENDMDL
