MODEL 1
REMARK VINA RESULT:     -11.5      0.000      0.000
REMARK SMILES Nc1c(N2CCCC2)ncnc1N1CCC(C(=O)NCCCCNC(=O)c2ccc(-c3c4nc(c(-c5ccccc5)c5ccc([nH]5)c(-c5ccccc5)c5nc(c(-c6ccccc6)c6ccc3[nH]6)C=C5)C=C4)cc2)CC1
REMARK SMILES IDX 21 1 20 2 19 3 17 4 18 5 16 7 13 8 14 9 76 10 15 11 75 12
REMARK SMILES IDX 12 13 2 14 3 15 9 16 11 17 10 18 1 19 4 22 5 23 8 24 6 25
REMARK SMILES IDX 7 26 22 27 23 28 24 29 25 30 26 32 27 33 28 34 74 35 29 36
REMARK SMILES IDX 73 37 30 38 31 39 32 40 67 41 33 42 72 43 66 44 68 45 34 46
REMARK SMILES IDX 71 47 65 48 64 49 35 51 57 52 42 53 56 54 43 55 46 56 55 57
REMARK SMILES IDX 69 58 44 59 45 60 54 62 70 63 47 64 36 65 37 66 41 67 38 68
REMARK SMILES IDX 40 69 39 70 58 71 59 72 63 73 60 74 62 75 61 76 48 77 49 78
REMARK SMILES IDX 53 79 50 80 52 81 51 82
REMARK H PARENT 19 6 1 20 1 21 24 31 68 50 46 61
REMARK Flexibility Score: inf
ROOT
ATOM      1  C   UNL A   1      37.195  21.806  24.005  1.00  0.00     0.023 C 
ENDROOT
BRANCH   1   2
ATOM      2  C   UNL A   1      36.750  22.999  24.845  1.00  0.00     0.116 C 
BRANCH   2   3
ATOM      3  N   UNL A   1      35.486  22.747  25.524  1.00  0.00    -0.356 N 
ATOM      4  C   UNL A   1      34.351  23.500  25.590  1.00  0.00     0.223 C 
ATOM      5  O   UNL A   1      33.401  23.058  26.241  1.00  0.00    -0.275 OA
ATOM      6  H   UNL A   1      35.445  21.894  26.015  1.00  0.00     0.163 HD
BRANCH   4   7
ATOM      7  C   UNL A   1      34.239  24.833  24.864  1.00  0.00     0.082 C 
ATOM      8  N   UNL A   1      32.325  26.655  23.879  1.00  0.00    -0.355 N 
ATOM      9  C   UNL A   1      33.038  25.913  22.864  1.00  0.00     0.119 C 
ATOM     10  C   UNL A   1      33.054  27.090  25.053  1.00  0.00     0.119 C 
ATOM     11  C   UNL A   1      33.622  24.646  23.467  1.00  0.00     0.035 C 
ATOM     12  C   UNL A   1      33.584  25.872  25.789  1.00  0.00     0.035 C 
BRANCH   8  13
ATOM     13  C   UNL A   1      31.037  27.087  23.624  1.00  0.00     0.157 A 
ATOM     14  C   UNL A   1      30.779  28.397  23.190  1.00  0.00     0.118 A 
ATOM     15  C   UNL A   1      29.428  28.770  23.078  1.00  0.00     0.157 A 
ATOM     16  N   UNL A   1      28.427  27.919  23.357  1.00  0.00    -0.217 NA
ATOM     17  N   UNL A   1      30.042  26.205  23.833  1.00  0.00    -0.217 NA
ATOM     18  C   UNL A   1      28.793  26.676  23.702  1.00  0.00     0.226 A 
BRANCH  14  19
ATOM     19  N   UNL A   1      31.807  29.337  22.988  1.00  0.00    -0.393 N 
ATOM     20  H   UNL A   1      31.680  30.273  23.266  1.00  0.00     0.156 HD
ATOM     21  H   UNL A   1      32.654  29.060  22.570  1.00  0.00     0.156 HD
ENDBRANCH  14  19
BRANCH  15  22
ATOM     22  N   UNL A   1      29.124  30.052  22.662  1.00  0.00    -0.355 N 
ATOM     23  C   UNL A   1      28.322  30.267  21.472  1.00  0.00     0.118 C 
ATOM     24  C   UNL A   1      28.920  31.127  23.616  1.00  0.00     0.118 C 
ATOM     25  C   UNL A   1      28.466  31.773  21.308  1.00  0.00     0.023 C 
ATOM     26  C   UNL A   1      28.415  32.290  22.746  1.00  0.00     0.023 C 
ENDBRANCH  15  22
ENDBRANCH   8  13
ENDBRANCH   4   7
ENDBRANCH   2   3
ENDBRANCH   1   2
BRANCH   1  27
ATOM     27  C   UNL A   1      37.504  20.542  24.804  1.00  0.00     0.023 C 
BRANCH  27  28
ATOM     28  C   UNL A   1      38.599  20.693  25.852  1.00  0.00     0.116 C 
BRANCH  28  29
ATOM     29  N   UNL A   1      39.636  19.678  25.742  1.00  0.00    -0.352 N 
ATOM     30  C   UNL A   1      40.979  19.786  26.009  1.00  0.00     0.251 C 
ATOM     31  H   UNL A   1      39.334  18.794  25.434  1.00  0.00     0.163 HD
ATOM     32  O   UNL A   1      41.747  18.866  25.747  1.00  0.00    -0.269 OA
BRANCH  30  33
ATOM     33  C   UNL A   1      41.499  21.041  26.583  1.00  0.00     0.039 A 
ATOM     34  C   UNL A   1      42.040  22.001  25.726  1.00  0.00     0.014 A 
ATOM     35  C   UNL A   1      41.409  21.284  27.958  1.00  0.00     0.014 A 
ATOM     36  C   UNL A   1      42.423  23.241  26.238  1.00  0.00     0.010 A 
ATOM     37  C   UNL A   1      41.729  22.544  28.454  1.00  0.00     0.010 A 
ATOM     38  C   UNL A   1      42.235  23.534  27.598  1.00  0.00    -0.014 A 
BRANCH  38  39
ATOM     39  C   UNL A   1      42.558  24.874  28.143  1.00  0.00     0.031 A 
ATOM     40  C   UNL A   1      43.967  25.204  28.541  1.00  0.00     0.074 A 
ATOM     41  C   UNL A   1      41.572  25.774  28.329  1.00  0.00     0.049 A 
ATOM     42  N   UNL A   1      44.435  26.304  29.073  1.00  0.00    -0.248 NA
ATOM     43  C   UNL A   1      44.981  24.157  28.333  1.00  0.00     0.031 C 
ATOM     44  C   UNL A   1      40.157  25.560  28.019  1.00  0.00     0.029 A 
ATOM     45  N   UNL A   1      41.613  27.052  28.825  1.00  0.00    -0.354 N 
ATOM     46  C   UNL A   1      45.790  26.076  29.275  1.00  0.00     0.074 A 
ATOM     47  C   UNL A   1      46.062  24.721  28.852  1.00  0.00     0.031 C 
ATOM     48  C   UNL A   1      39.470  26.678  28.303  1.00  0.00     0.029 A 
ATOM     49  C   UNL A   1      40.388  27.675  28.845  1.00  0.00     0.049 A 
ATOM     50  H   UNL A   1      42.441  27.482  29.138  1.00  0.00     0.167 HD
ATOM     51  C   UNL A   1      46.728  26.927  29.750  1.00  0.00     0.031 A 
ATOM     52  C   UNL A   1      40.044  28.910  29.255  1.00  0.00     0.031 A 
ATOM     53  C   UNL A   1      46.465  28.282  30.151  1.00  0.00     0.049 A 
ATOM     54  C   UNL A   1      41.104  29.833  29.787  1.00  0.00     0.074 A 
ATOM     55  C   UNL A   1      47.363  29.239  30.589  1.00  0.00     0.029 A 
ATOM     56  N   UNL A   1      45.212  28.871  30.157  1.00  0.00    -0.354 N 
ATOM     57  N   UNL A   1      42.391  29.621  29.916  1.00  0.00    -0.248 NA
ATOM     58  C   UNL A   1      40.665  31.165  30.226  1.00  0.00     0.031 C 
ATOM     59  C   UNL A   1      46.646  30.397  30.899  1.00  0.00     0.029 A 
ATOM     60  C   UNL A   1      45.310  30.175  30.612  1.00  0.00     0.049 A 
ATOM     61  H   UNL A   1      44.377  28.430  29.880  1.00  0.00     0.167 HD
ATOM     62  C   UNL A   1      42.918  30.797  30.431  1.00  0.00     0.074 A 
ATOM     63  C   UNL A   1      41.815  31.725  30.578  1.00  0.00     0.031 C 
ATOM     64  C   UNL A   1      44.202  31.082  30.753  1.00  0.00     0.031 A 
BRANCH  51  65
ATOM     65  C   UNL A   1      48.137  26.419  29.853  1.00  0.00    -0.014 A 
ATOM     66  C   UNL A   1      49.043  26.592  28.795  1.00  0.00     0.009 A 
ATOM     67  C   UNL A   1      48.579  25.814  31.039  1.00  0.00     0.009 A 
ATOM     68  C   UNL A   1      50.361  26.147  28.917  1.00  0.00     0.001 A 
ATOM     69  C   UNL A   1      49.903  25.391  31.166  1.00  0.00     0.001 A 
ATOM     70  C   UNL A   1      50.791  25.553  30.102  1.00  0.00     0.000 A 
ENDBRANCH  51  65
BRANCH  52  71
ATOM     71  C   UNL A   1      38.631  29.357  29.156  1.00  0.00    -0.014 A 
ATOM     72  C   UNL A   1      38.155  29.945  27.974  1.00  0.00     0.009 A 
ATOM     73  C   UNL A   1      37.750  29.193  30.236  1.00  0.00     0.009 A 
ATOM     74  C   UNL A   1      36.831  30.378  27.882  1.00  0.00     0.001 A 
ATOM     75  C   UNL A   1      36.420  29.606  30.133  1.00  0.00     0.001 A 
ATOM     76  C   UNL A   1      35.964  30.204  28.959  1.00  0.00     0.000 A 
ENDBRANCH  52  71
BRANCH  64  77
ATOM     77  C   UNL A   1      44.496  32.454  31.285  1.00  0.00    -0.014 A 
ATOM     78  C   UNL A   1      44.733  33.528  30.415  1.00  0.00     0.009 A 
ATOM     79  C   UNL A   1      44.453  32.689  32.669  1.00  0.00     0.009 A 
ATOM     80  C   UNL A   1      44.937  34.812  30.923  1.00  0.00     0.001 A 
ATOM     81  C   UNL A   1      44.636  33.978  33.171  1.00  0.00     0.001 A 
ATOM     82  C   UNL A   1      44.881  35.037  32.297  1.00  0.00     0.000 A 
ENDBRANCH  64  77
ENDBRANCH  38  39
ENDBRANCH  30  33
ENDBRANCH  28  29
ENDBRANCH  27  28
ENDBRANCH   1  27
TORSDOF 14
ENDMDL
MODEL 2
REMARK VINA RESULT:     -11.4      0.632      5.893
REMARK SMILES Nc1c(N2CCCC2)ncnc1N1CCC(C(=O)NCCCCNC(=O)c2ccc(-c3c4nc(c(-c5ccccc5)c5ccc([nH]5)c(-c5ccccc5)c5nc(c(-c6ccccc6)c6ccc3[nH]6)C=C5)C=C4)cc2)CC1
REMARK SMILES IDX 21 1 20 2 19 3 17 4 18 5 16 7 13 8 14 9 76 10 15 11 75 12
REMARK SMILES IDX 12 13 2 14 3 15 9 16 11 17 10 18 1 19 4 22 5 23 8 24 6 25
REMARK SMILES IDX 7 26 22 27 23 28 24 29 25 30 26 32 27 33 28 34 74 35 29 36
REMARK SMILES IDX 73 37 30 38 31 39 32 40 67 41 33 42 72 43 66 44 68 45 34 46
REMARK SMILES IDX 71 47 65 48 64 49 35 51 57 52 42 53 56 54 43 55 46 56 55 57
REMARK SMILES IDX 69 58 44 59 45 60 54 62 70 63 47 64 36 65 37 66 41 67 38 68
REMARK SMILES IDX 40 69 39 70 58 71 59 72 63 73 60 74 62 75 61 76 48 77 49 78
REMARK SMILES IDX 53 79 50 80 52 81 51 82
REMARK H PARENT 19 6 1 20 1 21 24 31 68 50 46 61
REMARK Flexibility Score: inf
ROOT
ATOM      1  C   UNL A   1      37.030  22.544  24.210  1.00  0.00     0.023 C 
ENDROOT
BRANCH   1   2
ATOM      2  C   UNL A   1      35.702  22.654  23.466  1.00  0.00     0.116 C 
BRANCH   2   3
ATOM      3  N   UNL A   1      34.563  22.612  24.373  1.00  0.00    -0.356 N 
ATOM      4  C   UNL A   1      33.563  23.515  24.581  1.00  0.00     0.223 C 
ATOM      5  O   UNL A   1      32.701  23.242  25.419  1.00  0.00    -0.275 OA
ATOM      6  H   UNL A   1      34.506  21.799  24.925  1.00  0.00     0.163 HD
BRANCH   4   7
ATOM      7  C   UNL A   1      33.488  24.814  23.789  1.00  0.00     0.082 C 
ATOM      8  N   UNL A   1      31.677  26.843  23.045  1.00  0.00    -0.355 N 
ATOM      9  C   UNL A   1      32.071  25.956  21.974  1.00  0.00     0.119 C 
ATOM     10  C   UNL A   1      32.674  27.225  24.024  1.00  0.00     0.119 C 
ATOM     11  C   UNL A   1      32.589  24.649  22.552  1.00  0.00     0.035 C 
ATOM     12  C   UNL A   1      33.172  25.981  24.738  1.00  0.00     0.035 C 
BRANCH   8  13
ATOM     13  C   UNL A   1      30.433  27.444  23.005  1.00  0.00     0.157 A 
ATOM     14  C   UNL A   1      30.268  28.747  22.511  1.00  0.00     0.118 A 
ATOM     15  C   UNL A   1      28.984  29.308  22.627  1.00  0.00     0.157 A 
ATOM     16  N   UNL A   1      27.957  28.635  23.171  1.00  0.00    -0.217 NA
ATOM     17  N   UNL A   1      29.393  26.734  23.482  1.00  0.00    -0.217 NA
ATOM     18  C   UNL A   1      28.217  27.376  23.551  1.00  0.00     0.226 A 
BRANCH  14  19
ATOM     19  N   UNL A   1      31.349  29.510  22.029  1.00  0.00    -0.393 N 
ATOM     20  H   UNL A   1      31.782  30.174  22.614  1.00  0.00     0.156 HD
ATOM     21  H   UNL A   1      31.672  29.381  21.109  1.00  0.00     0.156 HD
ENDBRANCH  14  19
BRANCH  15  22
ATOM     22  N   UNL A   1      28.774  30.593  22.162  1.00  0.00    -0.355 N 
ATOM     23  C   UNL A   1      27.944  30.824  20.995  1.00  0.00     0.118 C 
ATOM     24  C   UNL A   1      28.703  31.723  23.071  1.00  0.00     0.118 C 
ATOM     25  C   UNL A   1      28.211  32.303  20.753  1.00  0.00     0.023 C 
ATOM     26  C   UNL A   1      28.265  32.885  22.166  1.00  0.00     0.023 C 
ENDBRANCH  15  22
ENDBRANCH   8  13
ENDBRANCH   4   7
ENDBRANCH   2   3
ENDBRANCH   1   2
BRANCH   1  27
ATOM     27  C   UNL A   1      37.424  21.122  24.605  1.00  0.00     0.023 C 
BRANCH  27  28
ATOM     28  C   UNL A   1      38.340  21.020  25.816  1.00  0.00     0.116 C 
BRANCH  28  29
ATOM     29  N   UNL A   1      39.294  19.925  25.718  1.00  0.00    -0.352 N 
ATOM     30  C   UNL A   1      40.637  19.923  26.008  1.00  0.00     0.251 C 
ATOM     31  H   UNL A   1      38.927  19.069  25.400  1.00  0.00     0.163 HD
ATOM     32  O   UNL A   1      41.332  18.944  25.754  1.00  0.00    -0.269 OA
BRANCH  30  33
ATOM     33  C   UNL A   1      41.247  21.129  26.598  1.00  0.00     0.039 A 
ATOM     34  C   UNL A   1      41.825  22.075  25.749  1.00  0.00     0.014 A 
ATOM     35  C   UNL A   1      41.204  21.343  27.979  1.00  0.00     0.014 A 
ATOM     36  C   UNL A   1      42.296  23.276  26.280  1.00  0.00     0.010 A 
ATOM     37  C   UNL A   1      41.613  22.568  28.496  1.00  0.00     0.010 A 
ATOM     38  C   UNL A   1      42.159  23.546  27.650  1.00  0.00    -0.014 A 
BRANCH  38  39
ATOM     39  C   UNL A   1      42.577  24.850  28.217  1.00  0.00     0.031 A 
ATOM     40  C   UNL A   1      41.559  25.929  28.452  1.00  0.00     0.074 A 
ATOM     41  C   UNL A   1      43.880  25.081  28.468  1.00  0.00     0.049 A 
ATOM     42  N   UNL A   1      41.739  27.146  28.899  1.00  0.00    -0.248 NA
ATOM     43  C   UNL A   1      40.160  25.608  28.125  1.00  0.00     0.031 C 
ATOM     44  C   UNL A   1      44.970  24.129  28.245  1.00  0.00     0.029 A 
ATOM     45  N   UNL A   1      44.509  26.194  28.967  1.00  0.00    -0.354 N 
ATOM     46  C   UNL A   1      40.483  27.736  28.894  1.00  0.00     0.074 A 
ATOM     47  C   UNL A   1      39.557  26.765  28.358  1.00  0.00     0.031 C 
ATOM     48  C   UNL A   1      46.128  24.686  28.634  1.00  0.00     0.029 A 
ATOM     49  C   UNL A   1      45.869  26.044  29.103  1.00  0.00     0.049 A 
ATOM     50  H   UNL A   1      44.032  27.021  29.206  1.00  0.00     0.167 HD
ATOM     51  C   UNL A   1      40.128  28.971  29.318  1.00  0.00     0.031 A 
ATOM     52  C   UNL A   1      46.801  26.904  29.554  1.00  0.00     0.031 A 
ATOM     53  C   UNL A   1      41.042  29.932  29.872  1.00  0.00     0.049 A 
ATOM     54  C   UNL A   1      46.382  28.273  30.010  1.00  0.00     0.074 A 
ATOM     55  C   UNL A   1      40.765  31.187  30.385  1.00  0.00     0.029 A 
ATOM     56  N   UNL A   1      42.409  29.741  29.989  1.00  0.00    -0.354 N 
ATOM     57  N   UNL A   1      45.180  28.794  30.054  1.00  0.00    -0.248 NA
ATOM     58  C   UNL A   1      47.446  29.169  30.484  1.00  0.00     0.031 C 
ATOM     59  C   UNL A   1      41.972  31.772  30.776  1.00  0.00     0.029 A 
ATOM     60  C   UNL A   1      42.993  30.864  30.547  1.00  0.00     0.049 A 
ATOM     61  H   UNL A   1      42.892  28.928  29.717  1.00  0.00     0.167 HD
ATOM     62  C   UNL A   1      45.340  30.070  30.577  1.00  0.00     0.074 A 
ATOM     63  C   UNL A   1      46.753  30.240  30.849  1.00  0.00     0.031 C 
ATOM     64  C   UNL A   1      44.400  31.016  30.810  1.00  0.00     0.031 A 
BRANCH  51  65
ATOM     65  C   UNL A   1      38.680  29.353  29.211  1.00  0.00    -0.014 A 
ATOM     66  C   UNL A   1      37.811  29.197  30.302  1.00  0.00     0.009 A 
ATOM     67  C   UNL A   1      38.193  29.926  28.026  1.00  0.00     0.009 A 
ATOM     68  C   UNL A   1      36.475  29.589  30.200  1.00  0.00     0.001 A 
ATOM     69  C   UNL A   1      36.862  30.337  27.936  1.00  0.00     0.001 A 
ATOM     70  C   UNL A   1      36.003  30.163  29.021  1.00  0.00     0.000 A 
ENDBRANCH  51  65
BRANCH  52  71
ATOM     71  C   UNL A   1      48.225  26.487  29.617  1.00  0.00    -0.014 A 
ATOM     72  C   UNL A   1      49.103  26.804  28.569  1.00  0.00     0.009 A 
ATOM     73  C   UNL A   1      48.716  25.779  30.724  1.00  0.00     0.009 A 
ATOM     74  C   UNL A   1      50.439  26.402  28.619  1.00  0.00     0.001 A 
ATOM     75  C   UNL A   1      50.058  25.399  30.782  1.00  0.00     0.001 A 
ATOM     76  C   UNL A   1      50.917  25.704  29.728  1.00  0.00     0.000 A 
ENDBRANCH  52  71
BRANCH  64  77
ATOM     77  C   UNL A   1      44.856  32.318  31.400  1.00  0.00    -0.014 A 
ATOM     78  C   UNL A   1      45.319  33.358  30.581  1.00  0.00     0.009 A 
ATOM     79  C   UNL A   1      44.745  32.533  32.783  1.00  0.00     0.009 A 
ATOM     80  C   UNL A   1      45.675  34.587  31.138  1.00  0.00     0.001 A 
ATOM     81  C   UNL A   1      45.081  33.769  33.334  1.00  0.00     0.001 A 
ATOM     82  C   UNL A   1      45.550  34.794  32.511  1.00  0.00     0.000 A 
ENDBRANCH  64  77
ENDBRANCH  38  39
ENDBRANCH  30  33
ENDBRANCH  28  29
ENDBRANCH  27  28
ENDBRANCH   1  27
TORSDOF 14
ENDMDL
MODEL 3
REMARK VINA RESULT:     -11.2      3.752      9.116
REMARK SMILES Nc1c(N2CCCC2)ncnc1N1CCC(C(=O)NCCCCNC(=O)c2ccc(-c3c4nc(c(-c5ccccc5)c5ccc([nH]5)c(-c5ccccc5)c5nc(c(-c6ccccc6)c6ccc3[nH]6)C=C5)C=C4)cc2)CC1
REMARK SMILES IDX 21 1 20 2 19 3 17 4 18 5 16 7 13 8 14 9 76 10 15 11 75 12
REMARK SMILES IDX 12 13 2 14 3 15 9 16 11 17 10 18 1 19 4 22 5 23 8 24 6 25
REMARK SMILES IDX 7 26 22 27 23 28 24 29 25 30 26 32 27 33 28 34 74 35 29 36
REMARK SMILES IDX 73 37 30 38 31 39 32 40 67 41 33 42 72 43 66 44 68 45 34 46
REMARK SMILES IDX 71 47 65 48 64 49 35 51 57 52 42 53 56 54 43 55 46 56 55 57
REMARK SMILES IDX 69 58 44 59 45 60 54 62 70 63 47 64 36 65 37 66 41 67 38 68
REMARK SMILES IDX 40 69 39 70 58 71 59 72 63 73 60 74 62 75 61 76 48 77 49 78
REMARK SMILES IDX 53 79 50 80 52 81 51 82
REMARK H PARENT 19 6 1 20 1 21 24 31 68 50 46 61
REMARK Flexibility Score: inf
ROOT
ATOM      1  C   UNL A   1      34.492  29.890  27.302  1.00  0.00     0.023 C 
ENDROOT
BRANCH   1   2
ATOM      2  C   UNL A   1      34.493  28.498  26.676  1.00  0.00     0.116 C 
BRANCH   2   3
ATOM      3  N   UNL A   1      33.335  28.284  25.819  1.00  0.00    -0.356 N 
ATOM      4  C   UNL A   1      32.635  27.147  25.544  1.00  0.00     0.223 C 
ATOM      5  O   UNL A   1      31.677  27.229  24.772  1.00  0.00    -0.275 OA
ATOM      6  H   UNL A   1      33.004  29.093  25.364  1.00  0.00     0.163 HD
BRANCH   4   7
ATOM      7  C   UNL A   1      32.999  25.815  26.186  1.00  0.00     0.082 C 
ATOM      8  N   UNL A   1      33.019  23.045  25.661  1.00  0.00    -0.355 N 
ATOM      9  C   UNL A   1      32.016  23.478  26.608  1.00  0.00     0.119 C 
ATOM     10  C   UNL A   1      34.319  23.683  25.696  1.00  0.00     0.119 C 
ATOM     11  C   UNL A   1      31.742  24.961  26.425  1.00  0.00     0.035 C 
ATOM     12  C   UNL A   1      34.154  25.165  25.409  1.00  0.00     0.035 C 
BRANCH   8  13
ATOM     13  C   UNL A   1      32.781  21.926  24.885  1.00  0.00     0.157 A 
ATOM     14  C   UNL A   1      33.130  20.641  25.331  1.00  0.00     0.118 A 
ATOM     15  C   UNL A   1      32.957  19.588  24.417  1.00  0.00     0.157 A 
ATOM     16  N   UNL A   1      32.472  19.787  23.181  1.00  0.00    -0.217 NA
ATOM     17  N   UNL A   1      32.224  22.125  23.676  1.00  0.00    -0.217 NA
ATOM     18  C   UNL A   1      32.115  21.046  22.887  1.00  0.00     0.226 A 
BRANCH  14  19
ATOM     19  N   UNL A   1      33.733  20.419  26.584  1.00  0.00    -0.393 N 
ATOM     20  H   UNL A   1      33.875  21.172  27.203  1.00  0.00     0.156 HD
ATOM     21  H   UNL A   1      34.013  19.512  26.842  1.00  0.00     0.156 HD
ENDBRANCH  14  19
BRANCH  15  22
ATOM     22  N   UNL A   1      33.294  18.305  24.807  1.00  0.00    -0.355 N 
ATOM     23  C   UNL A   1      32.259  17.338  25.120  1.00  0.00     0.118 C 
ATOM     24  C   UNL A   1      34.473  17.641  24.281  1.00  0.00     0.118 C 
ATOM     25  C   UNL A   1      33.099  16.210  25.703  1.00  0.00     0.023 C 
ATOM     26  C   UNL A   1      34.344  16.204  24.814  1.00  0.00     0.023 C 
ENDBRANCH  15  22
ENDBRANCH   8  13
ENDBRANCH   4   7
ENDBRANCH   2   3
ENDBRANCH   1   2
BRANCH   1  27
ATOM     27  C   UNL A   1      33.542  30.886  26.640  1.00  0.00     0.023 C 
BRANCH  27  28
ATOM     28  C   UNL A   1      32.383  31.349  27.512  1.00  0.00     0.116 C 
BRANCH  28  29
ATOM     29  N   UNL A   1      32.179  32.790  27.469  1.00  0.00    -0.352 N 
ATOM     30  C   UNL A   1      32.967  33.788  27.988  1.00  0.00     0.251 C 
ATOM     31  H   UNL A   1      31.364  33.090  27.005  1.00  0.00     0.163 HD
ATOM     32  O   UNL A   1      32.591  34.956  27.974  1.00  0.00    -0.269 OA
BRANCH  30  33
ATOM     33  C   UNL A   1      34.262  33.437  28.600  1.00  0.00     0.039 A 
ATOM     34  C   UNL A   1      34.269  32.762  29.821  1.00  0.00     0.014 A 
ATOM     35  C   UNL A   1      35.461  33.733  27.943  1.00  0.00     0.014 A 
ATOM     36  C   UNL A   1      35.480  32.315  30.352  1.00  0.00     0.010 A 
ATOM     37  C   UNL A   1      36.658  33.229  28.440  1.00  0.00     0.010 A 
ATOM     38  C   UNL A   1      36.677  32.512  29.646  1.00  0.00    -0.014 A 
BRANCH  38  39
ATOM     39  C   UNL A   1      37.961  31.971  30.154  1.00  0.00     0.031 A 
ATOM     40  C   UNL A   1      38.497  30.677  29.615  1.00  0.00     0.074 A 
ATOM     41  C   UNL A   1      38.615  32.619  31.138  1.00  0.00     0.049 A 
ATOM     42  N   UNL A   1      39.577  30.025  29.963  1.00  0.00    -0.248 NA
ATOM     43  C   UNL A   1      37.708  30.016  28.561  1.00  0.00     0.031 C 
ATOM     44  C   UNL A   1      38.177  33.864  31.773  1.00  0.00     0.029 A 
ATOM     45  N   UNL A   1      39.790  32.315  31.777  1.00  0.00    -0.354 N 
ATOM     46  C   UNL A   1      39.589  28.877  29.183  1.00  0.00     0.074 A 
ATOM     47  C   UNL A   1      38.390  28.895  28.377  1.00  0.00     0.031 C 
ATOM     48  C   UNL A   1      39.087  34.234  32.689  1.00  0.00     0.029 A 
ATOM     49  C   UNL A   1      40.153  33.238  32.729  1.00  0.00     0.049 A 
ATOM     50  H   UNL A   1      40.323  31.513  31.575  1.00  0.00     0.167 HD
ATOM     51  C   UNL A   1      40.528  27.903  29.127  1.00  0.00     0.031 A 
ATOM     52  C   UNL A   1      41.225  33.277  33.544  1.00  0.00     0.031 A 
ATOM     53  C   UNL A   1      41.733  27.894  29.911  1.00  0.00     0.049 A 
ATOM     54  C   UNL A   1      42.248  32.179  33.468  1.00  0.00     0.074 A 
ATOM     55  C   UNL A   1      42.772  26.981  29.879  1.00  0.00     0.029 A 
ATOM     56  N   UNL A   1      42.060  28.845  30.863  1.00  0.00    -0.354 N 
ATOM     57  N   UNL A   1      42.274  31.130  32.682  1.00  0.00    -0.248 NA
ATOM     58  C   UNL A   1      43.391  32.273  34.387  1.00  0.00     0.031 C 
ATOM     59  C   UNL A   1      43.711  27.358  30.843  1.00  0.00     0.029 A 
ATOM     60  C   UNL A   1      43.277  28.529  31.442  1.00  0.00     0.049 A 
ATOM     61  H   UNL A   1      41.510  29.628  31.094  1.00  0.00     0.167 HD
ATOM     62  C   UNL A   1      43.442  30.450  32.998  1.00  0.00     0.074 A 
ATOM     63  C   UNL A   1      44.106  31.211  34.037  1.00  0.00     0.031 C 
ATOM     64  C   UNL A   1      43.921  29.297  32.474  1.00  0.00     0.031 A 
BRANCH  51  65
ATOM     65  C   UNL A   1      40.295  26.768  28.174  1.00  0.00    -0.014 A 
ATOM     66  C   UNL A   1      40.821  26.800  26.873  1.00  0.00     0.009 A 
ATOM     67  C   UNL A   1      39.591  25.631  28.598  1.00  0.00     0.009 A 
ATOM     68  C   UNL A   1      40.627  25.722  26.008  1.00  0.00     0.001 A 
ATOM     69  C   UNL A   1      39.418  24.545  27.738  1.00  0.00     0.001 A 
ATOM     70  C   UNL A   1      39.931  24.594  26.442  1.00  0.00     0.000 A 
ENDBRANCH  51  65
BRANCH  52  71
ATOM     71  C   UNL A   1      41.397  34.410  34.488  1.00  0.00    -0.014 A 
ATOM     72  C   UNL A   1      42.088  35.564  34.089  1.00  0.00     0.009 A 
ATOM     73  C   UNL A   1      40.870  34.348  35.787  1.00  0.00     0.009 A 
ATOM     74  C   UNL A   1      42.264  36.626  34.978  1.00  0.00     0.001 A 
ATOM     75  C   UNL A   1      41.027  35.421  36.666  1.00  0.00     0.001 A 
ATOM     76  C   UNL A   1      41.730  36.556  36.264  1.00  0.00     0.000 A 
ENDBRANCH  52  71
BRANCH  64  77
ATOM     77  C   UNL A   1      45.231  28.788  32.999  1.00  0.00    -0.014 A 
ATOM     78  C   UNL A   1      45.275  27.881  34.068  1.00  0.00     0.009 A 
ATOM     79  C   UNL A   1      46.427  29.157  32.364  1.00  0.00     0.009 A 
ATOM     80  C   UNL A   1      46.497  27.363  34.500  1.00  0.00     0.001 A 
ATOM     81  C   UNL A   1      47.644  28.621  32.785  1.00  0.00     0.001 A 
ATOM     82  C   UNL A   1      47.678  27.727  33.855  1.00  0.00     0.000 A 
ENDBRANCH  64  77
ENDBRANCH  38  39
ENDBRANCH  30  33
ENDBRANCH  28  29
ENDBRANCH  27  28
ENDBRANCH   1  27
TORSDOF 14
ENDMDL
