MODEL 1
REMARK VINA RESULT:     -11.5      0.000      0.000
REMARK SMILES O=C(NCCCCNC(=O)c1cccc(S(=O)(=O)NC[C@@H]2COc3ccccc3O2)c1)c1ccc(-c2c3nc(c(-c4ccccc4)c4ccc([nH]4)c(-c4ccccc4)c4nc(c(-c5ccccc5)c5ccc2[nH]5)C=C4)C=C3)cc1
REMARK SMILES IDX 6 1 5 2 4 3 3 4 1 5 2 6 32 8 33 9 79 10 34 11 78 12 35 13
REMARK SMILES IDX 36 14 37 15 72 16 38 17 77 18 71 19 73 20 39 21 76 22 70 23
REMARK SMILES IDX 69 24 40 26 62 27 47 28 61 29 48 30 51 31 60 32 74 33 49 34
REMARK SMILES IDX 50 35 59 37 75 38 52 39 41 40 42 41 46 42 43 43 45 44 44 45
REMARK SMILES IDX 63 46 64 47 68 48 65 49 67 50 66 51 53 52 54 53 58 54 55 55
REMARK SMILES IDX 57 56 56 57 7 58 8 59 9 60 10 62 11 63 12 64 31 65 13 66
REMARK SMILES IDX 15 67 14 68 16 69 17 70 18 71 19 72 20 74 21 75 22 76 30 77
REMARK SMILES IDX 23 78 29 79 24 80 28 81 25 82 27 83 26 84
REMARK H PARENT 3 7 73 25 51 36 8 61 19 73
REMARK Flexibility Score: inf
ROOT
ATOM      1  C   UNL A   1      32.904  30.833  27.210  1.00  0.00     0.023 C 
ENDROOT
BRANCH   1   2
ATOM      2  C   UNL A   1      31.861  31.946  27.171  1.00  0.00     0.023 C 
BRANCH   2   3
ATOM      3  C   UNL A   1      32.386  33.315  26.759  1.00  0.00     0.116 C 
BRANCH   3   4
ATOM      4  N   UNL A   1      32.261  34.319  27.807  1.00  0.00    -0.352 N 
ATOM      5  O   UNL A   1      32.723  35.387  29.740  1.00  0.00    -0.269 OA
ATOM      6  C   UNL A   1      33.069  34.571  28.892  1.00  0.00     0.251 C 
ATOM      7  H   UNL A   1      31.475  34.907  27.728  1.00  0.00     0.163 HD
BRANCH   6   8
ATOM      8  C   UNL A   1      34.336  33.827  29.057  1.00  0.00     0.039 A 
ATOM      9  C   UNL A   1      34.455  32.832  30.025  1.00  0.00     0.014 A 
ATOM     10  C   UNL A   1      35.429  34.156  28.250  1.00  0.00     0.014 A 
ATOM     11  C   UNL A   1      35.709  32.313  30.325  1.00  0.00     0.010 A 
ATOM     12  C   UNL A   1      36.670  33.554  28.485  1.00  0.00     0.010 A 
ATOM     13  C   UNL A   1      36.834  32.672  29.563  1.00  0.00    -0.014 A 
BRANCH  13  14
ATOM     14  C   UNL A   1      38.159  32.099  29.918  1.00  0.00     0.031 A 
ATOM     15  C   UNL A   1      39.059  32.779  30.917  1.00  0.00     0.074 A 
ATOM     16  C   UNL A   1      38.525  30.919  29.380  1.00  0.00     0.049 A 
ATOM     17  N   UNL A   1      40.211  32.375  31.393  1.00  0.00    -0.248 NA
ATOM     18  C   UNL A   1      38.620  34.080  31.444  1.00  0.00     0.031 C 
ATOM     19  C   UNL A   1      37.743  30.161  28.399  1.00  0.00     0.029 A 
ATOM     20  N   UNL A   1      39.624  30.133  29.609  1.00  0.00    -0.354 N 
ATOM     21  C   UNL A   1      40.645  33.381  32.248  1.00  0.00     0.074 A 
ATOM     22  C   UNL A   1      39.644  34.425  32.211  1.00  0.00     0.031 C 
ATOM     23  C   UNL A   1      38.351  28.990  28.165  1.00  0.00     0.029 A 
ATOM     24  C   UNL A   1      39.593  28.940  28.927  1.00  0.00     0.049 A 
ATOM     25  H   UNL A   1      40.363  30.397  30.202  1.00  0.00     0.167 HD
ATOM     26  C   UNL A   1      41.771  33.430  33.001  1.00  0.00     0.031 A 
ATOM     27  C   UNL A   1      40.468  27.918  28.912  1.00  0.00     0.031 A 
ATOM     28  C   UNL A   1      42.761  32.385  33.054  1.00  0.00     0.049 A 
ATOM     29  C   UNL A   1      41.708  28.002  29.750  1.00  0.00     0.074 A 
ATOM     30  C   UNL A   1      43.917  32.329  33.815  1.00  0.00     0.029 A 
ATOM     31  N   UNL A   1      42.711  31.212  32.318  1.00  0.00    -0.354 N 
ATOM     32  N   UNL A   1      42.084  28.948  30.576  1.00  0.00    -0.248 NA
ATOM     33  C   UNL A   1      42.642  26.873  29.656  1.00  0.00     0.031 C 
ATOM     34  C   UNL A   1      44.590  31.143  33.505  1.00  0.00     0.029 A 
ATOM     35  C   UNL A   1      43.826  30.435  32.590  1.00  0.00     0.049 A 
ATOM     36  H   UNL A   1      41.991  30.967  31.694  1.00  0.00     0.167 HD
ATOM     37  C   UNL A   1      43.289  28.520  31.114  1.00  0.00     0.074 A 
ATOM     38  C   UNL A   1      43.569  27.220  30.537  1.00  0.00     0.031 C 
ATOM     39  C   UNL A   1      44.092  29.147  32.007  1.00  0.00     0.031 A 
BRANCH  26  40
ATOM     40  C   UNL A   1      42.014  34.674  33.811  1.00  0.00    -0.014 A 
ATOM     41  C   UNL A   1      42.686  35.781  33.270  1.00  0.00     0.009 A 
ATOM     42  C   UNL A   1      41.523  34.753  35.124  1.00  0.00     0.009 A 
ATOM     43  C   UNL A   1      42.887  36.931  34.039  1.00  0.00     0.001 A 
ATOM     44  C   UNL A   1      41.703  35.912  35.882  1.00  0.00     0.001 A 
ATOM     45  C   UNL A   1      42.392  36.997  35.342  1.00  0.00     0.000 A 
ENDBRANCH  26  40
BRANCH  27  46
ATOM     46  C   UNL A   1      40.191  26.724  28.075  1.00  0.00    -0.014 A 
ATOM     47  C   UNL A   1      39.367  25.694  28.553  1.00  0.00     0.009 A 
ATOM     48  C   UNL A   1      40.741  26.615  26.788  1.00  0.00     0.009 A 
ATOM     49  C   UNL A   1      39.118  24.568  27.765  1.00  0.00     0.001 A 
ATOM     50  C   UNL A   1      40.465  25.501  25.992  1.00  0.00     0.001 A 
ATOM     51  C   UNL A   1      39.661  24.476  26.485  1.00  0.00     0.000 A 
ENDBRANCH  27  46
BRANCH  39  52
ATOM     52  C   UNL A   1      45.330  28.415  32.439  1.00  0.00    -0.014 A 
ATOM     53  C   UNL A   1      46.551  28.591  31.770  1.00  0.00     0.009 A 
ATOM     54  C   UNL A   1      45.274  27.547  33.540  1.00  0.00     0.009 A 
ATOM     55  C   UNL A   1      47.684  27.881  32.172  1.00  0.00     0.001 A 
ATOM     56  C   UNL A   1      46.415  26.859  33.957  1.00  0.00     0.001 A 
ATOM     57  C   UNL A   1      47.615  27.018  33.266  1.00  0.00     0.000 A 
ENDBRANCH  39  52
ENDBRANCH  13  14
ENDBRANCH   6   8
ENDBRANCH   3   4
ENDBRANCH   2   3
ENDBRANCH   1   2
BRANCH   1  58
ATOM     58  C   UNL A   1      32.343  29.416  27.204  1.00  0.00     0.116 C 
BRANCH  58  59
ATOM     59  N   UNL A   1      31.573  29.131  26.005  1.00  0.00    -0.352 N 
ATOM     60  C   UNL A   1      31.634  28.045  25.168  1.00  0.00     0.251 C 
ATOM     61  H   UNL A   1      30.912  29.816  25.757  1.00  0.00     0.163 HD
ATOM     62  O   UNL A   1      31.026  28.059  24.102  1.00  0.00    -0.269 OA
BRANCH  60  63
ATOM     63  C   UNL A   1      32.379  26.831  25.564  1.00  0.00     0.041 A 
ATOM     64  C   UNL A   1      33.731  26.703  25.247  1.00  0.00     0.014 A 
ATOM     65  C   UNL A   1      31.703  25.761  26.148  1.00  0.00     0.035 A 
ATOM     66  C   UNL A   1      34.407  25.516  25.551  1.00  0.00     0.002 A 
ATOM     67  C   UNL A   1      32.362  24.563  26.404  1.00  0.00     0.083 A 
ATOM     68  C   UNL A   1      33.723  24.438  26.125  1.00  0.00     0.022 A 
BRANCH  67  69
ATOM     69  S   UNL A   1      31.456  23.183  27.055  1.00  0.00     0.240 S 
ATOM     70  O   UNL A   1      32.275  22.528  28.044  1.00  0.00    -0.207 OA
ATOM     71  O   UNL A   1      30.121  23.667  27.336  1.00  0.00    -0.207 OA
BRANCH  69  72
ATOM     72  N   UNL A   1      31.284  22.152  25.719  1.00  0.00    -0.207 NA
ATOM     73  H   UNL A   1      30.325  21.806  25.741  1.00  0.00     0.141 HD
BRANCH  72  74
ATOM     74  C   UNL A   1      31.526  22.651  24.335  1.00  0.00     0.147 C 
BRANCH  74  75
ATOM     75  C   UNL A   1      32.320  21.716  23.398  1.00  0.00     0.226 C 
ATOM     76  C   UNL A   1      32.735  20.382  24.027  1.00  0.00     0.276 C 
ATOM     77  O   UNL A   1      33.481  22.421  22.911  1.00  0.00    -0.482 OA
ATOM     78  O   UNL A   1      33.617  20.572  25.135  1.00  0.00    -0.486 OA
ATOM     79  C   UNL A   1      34.606  22.234  23.669  1.00  0.00     0.161 A 
ATOM     80  C   UNL A   1      34.675  21.351  24.749  1.00  0.00     0.161 A 
ATOM     81  C   UNL A   1      35.730  22.968  23.303  1.00  0.00     0.050 A 
ATOM     82  C   UNL A   1      35.850  21.227  25.485  1.00  0.00     0.050 A 
ATOM     83  C   UNL A   1      36.918  22.826  24.022  1.00  0.00     0.004 A 
ATOM     84  C   UNL A   1      36.977  21.961  25.115  1.00  0.00     0.004 A 
ENDBRANCH  74  75
ENDBRANCH  72  74
ENDBRANCH  69  72
ENDBRANCH  67  69
ENDBRANCH  60  63
ENDBRANCH  58  59
ENDBRANCH   1  58
TORSDOF 15
ENDMDL
MODEL 2
REMARK VINA RESULT:     -11.5      2.005      2.794
REMARK SMILES O=C(NCCCCNC(=O)c1cccc(S(=O)(=O)NC[C@@H]2COc3ccccc3O2)c1)c1ccc(-c2c3nc(c(-c4ccccc4)c4ccc([nH]4)c(-c4ccccc4)c4nc(c(-c5ccccc5)c5ccc2[nH]5)C=C4)C=C3)cc1
REMARK SMILES IDX 6 1 5 2 4 3 3 4 1 5 2 6 32 8 33 9 79 10 34 11 78 12 35 13
REMARK SMILES IDX 36 14 37 15 72 16 38 17 77 18 71 19 73 20 39 21 76 22 70 23
REMARK SMILES IDX 69 24 40 26 62 27 47 28 61 29 48 30 51 31 60 32 74 33 49 34
REMARK SMILES IDX 50 35 59 37 75 38 52 39 41 40 42 41 46 42 43 43 45 44 44 45
REMARK SMILES IDX 63 46 64 47 68 48 65 49 67 50 66 51 53 52 54 53 58 54 55 55
REMARK SMILES IDX 57 56 56 57 7 58 8 59 9 60 10 62 11 63 12 64 31 65 13 66
REMARK SMILES IDX 15 67 14 68 16 69 17 70 18 71 19 72 20 74 21 75 22 76 30 77
REMARK SMILES IDX 23 78 29 79 24 80 28 81 25 82 27 83 26 84
REMARK H PARENT 3 7 73 25 51 36 8 61 19 73
REMARK Flexibility Score: inf
ROOT
ATOM      1  C   UNL A   1      31.750  30.137  26.607  1.00  0.00     0.023 C 
ENDROOT
BRANCH   1   2
ATOM      2  C   UNL A   1      31.604  31.655  26.603  1.00  0.00     0.023 C 
BRANCH   2   3
ATOM      3  C   UNL A   1      32.783  32.424  27.187  1.00  0.00     0.116 C 
BRANCH   3   4
ATOM      4  N   UNL A   1      32.449  33.792  27.560  1.00  0.00    -0.352 N 
ATOM      5  O   UNL A   1      32.546  35.720  28.729  1.00  0.00    -0.269 OA
ATOM      6  C   UNL A   1      33.057  34.637  28.460  1.00  0.00     0.251 C 
ATOM      7  H   UNL A   1      31.667  34.170  27.098  1.00  0.00     0.163 HD
BRANCH   6   8
ATOM      8  C   UNL A   1      34.305  34.223  29.135  1.00  0.00     0.039 A 
ATOM      9  C   UNL A   1      35.548  34.563  28.603  1.00  0.00     0.014 A 
ATOM     10  C   UNL A   1      34.228  33.454  30.299  1.00  0.00     0.014 A 
ATOM     11  C   UNL A   1      36.697  33.970  29.111  1.00  0.00     0.010 A 
ATOM     12  C   UNL A   1      35.398  32.943  30.873  1.00  0.00     0.010 A 
ATOM     13  C   UNL A   1      36.637  33.148  30.249  1.00  0.00    -0.014 A 
BRANCH  13  14
ATOM     14  C   UNL A   1      37.888  32.528  30.759  1.00  0.00     0.031 A 
ATOM     15  C   UNL A   1      38.534  33.011  32.031  1.00  0.00     0.074 A 
ATOM     16  C   UNL A   1      38.411  31.476  30.099  1.00  0.00     0.049 A 
ATOM     17  N   UNL A   1      39.584  32.533  32.653  1.00  0.00    -0.248 NA
ATOM     18  C   UNL A   1      37.936  34.184  32.688  1.00  0.00     0.031 C 
ATOM     19  C   UNL A   1      37.881  30.914  28.853  1.00  0.00     0.029 A 
ATOM     20  N   UNL A   1      39.478  30.670  30.400  1.00  0.00    -0.354 N 
ATOM     21  C   UNL A   1      39.787  33.359  33.751  1.00  0.00     0.074 A 
ATOM     22  C   UNL A   1      38.767  34.383  33.702  1.00  0.00     0.031 C 
ATOM     23  C   UNL A   1      38.579  29.815  28.537  1.00  0.00     0.029 A 
ATOM     24  C   UNL A   1      39.642  29.630  29.517  1.00  0.00     0.049 A 
ATOM     25  H   UNL A   1      40.067  30.821  31.173  1.00  0.00     0.167 HD
ATOM     26  C   UNL A   1      40.735  33.272  34.717  1.00  0.00     0.031 A 
ATOM     27  C   UNL A   1      40.549  28.637  29.494  1.00  0.00     0.031 A 
ATOM     28  C   UNL A   1      41.741  32.245  34.779  1.00  0.00     0.049 A 
ATOM     29  C   UNL A   1      41.588  28.568  30.572  1.00  0.00     0.074 A 
ATOM     30  C   UNL A   1      42.721  32.054  35.740  1.00  0.00     0.029 A 
ATOM     31  N   UNL A   1      41.898  31.234  33.844  1.00  0.00    -0.354 N 
ATOM     32  N   UNL A   1      41.745  29.341  31.619  1.00  0.00    -0.248 NA
ATOM     33  C   UNL A   1      42.576  27.486  30.466  1.00  0.00     0.031 C 
ATOM     34  C   UNL A   1      43.498  30.954  35.360  1.00  0.00     0.029 A 
ATOM     35  C   UNL A   1      42.970  30.429  34.192  1.00  0.00     0.049 A 
ATOM     36  H   UNL A   1      41.331  31.108  33.049  1.00  0.00     0.167 HD
ATOM     37  C   UNL A   1      42.835  28.828  32.307  1.00  0.00     0.074 A 
ATOM     38  C   UNL A   1      43.287  27.665  31.569  1.00  0.00     0.031 C 
ATOM     39  C   UNL A   1      43.410  29.278  33.448  1.00  0.00     0.031 A 
BRANCH  26  40
ATOM     40  C   UNL A   1      40.749  34.340  35.776  1.00  0.00    -0.014 A 
ATOM     41  C   UNL A   1      41.495  35.518  35.620  1.00  0.00     0.009 A 
ATOM     42  C   UNL A   1      39.967  34.180  36.932  1.00  0.00     0.009 A 
ATOM     43  C   UNL A   1      41.482  36.502  36.613  1.00  0.00     0.001 A 
ATOM     44  C   UNL A   1      39.935  35.176  37.911  1.00  0.00     0.001 A 
ATOM     45  C   UNL A   1      40.699  36.331  37.755  1.00  0.00     0.000 A 
ENDBRANCH  26  40
BRANCH  27  46
ATOM     46  C   UNL A   1      40.505  27.622  28.411  1.00  0.00    -0.014 A 
ATOM     47  C   UNL A   1      41.180  27.841  27.201  1.00  0.00     0.009 A 
ATOM     48  C   UNL A   1      39.796  26.424  28.588  1.00  0.00     0.009 A 
ATOM     49  C   UNL A   1      41.128  26.888  26.182  1.00  0.00     0.001 A 
ATOM     50  C   UNL A   1      39.771  25.460  27.578  1.00  0.00     0.001 A 
ATOM     51  C   UNL A   1      40.430  25.697  26.374  1.00  0.00     0.000 A 
ENDBRANCH  27  46
BRANCH  39  52
ATOM     52  C   UNL A   1      44.568  28.487  33.983  1.00  0.00    -0.014 A 
ATOM     53  C   UNL A   1      45.876  28.710  33.526  1.00  0.00     0.009 A 
ATOM     54  C   UNL A   1      44.347  27.514  34.969  1.00  0.00     0.009 A 
ATOM     55  C   UNL A   1      46.935  27.946  34.019  1.00  0.00     0.001 A 
ATOM     56  C   UNL A   1      45.411  26.770  35.480  1.00  0.00     0.001 A 
ATOM     57  C   UNL A   1      46.702  26.979  34.997  1.00  0.00     0.000 A 
ENDBRANCH  39  52
ENDBRANCH  13  14
ENDBRANCH   6   8
ENDBRANCH   3   4
ENDBRANCH   2   3
ENDBRANCH   1   2
BRANCH   1  58
ATOM     58  C   UNL A   1      31.980  29.503  25.240  1.00  0.00     0.116 C 
BRANCH  58  59
ATOM     59  N   UNL A   1      31.063  30.009  24.234  1.00  0.00    -0.352 N 
ATOM     60  C   UNL A   1      30.449  29.346  23.201  1.00  0.00     0.251 C 
ATOM     61  H   UNL A   1      30.850  30.968  24.303  1.00  0.00     0.163 HD
ATOM     62  O   UNL A   1      29.840  29.977  22.343  1.00  0.00    -0.269 OA
BRANCH  60  63
ATOM     63  C   UNL A   1      30.464  27.868  23.142  1.00  0.00     0.041 A 
ATOM     64  C   UNL A   1      29.490  27.129  23.812  1.00  0.00     0.014 A 
ATOM     65  C   UNL A   1      31.521  27.209  22.516  1.00  0.00     0.035 A 
ATOM     66  C   UNL A   1      29.560  25.731  23.820  1.00  0.00     0.002 A 
ATOM     67  C   UNL A   1      31.620  25.823  22.567  1.00  0.00     0.083 A 
ATOM     68  C   UNL A   1      30.630  25.073  23.203  1.00  0.00     0.022 A 
BRANCH  67  69
ATOM     69  S   UNL A   1      33.027  25.014  21.850  1.00  0.00     0.240 S 
ATOM     70  O   UNL A   1      32.995  25.227  20.424  1.00  0.00    -0.207 OA
ATOM     71  O   UNL A   1      34.164  25.369  22.672  1.00  0.00    -0.207 OA
BRANCH  69  72
ATOM     72  N   UNL A   1      32.746  23.371  22.163  1.00  0.00    -0.207 NA
ATOM     73  H   UNL A   1      32.991  22.867  21.311  1.00  0.00     0.141 HD
BRANCH  72  74
ATOM     74  C   UNL A   1      33.444  22.678  23.283  1.00  0.00     0.147 C 
BRANCH  74  75
ATOM     75  C   UNL A   1      32.555  21.862  24.245  1.00  0.00     0.226 C 
ATOM     76  C   UNL A   1      33.253  21.410  25.532  1.00  0.00     0.276 C 
ATOM     77  O   UNL A   1      32.026  20.721  23.537  1.00  0.00    -0.482 OA
ATOM     78  O   UNL A   1      34.344  20.530  25.260  1.00  0.00    -0.486 OA
ATOM     79  C   UNL A   1      32.788  19.590  23.653  1.00  0.00     0.161 A 
ATOM     80  C   UNL A   1      33.914  19.494  24.475  1.00  0.00     0.161 A 
ATOM     81  C   UNL A   1      32.378  18.487  22.911  1.00  0.00     0.050 A 
ATOM     82  C   UNL A   1      34.650  18.314  24.528  1.00  0.00     0.050 A 
ATOM     83  C   UNL A   1      33.099  17.293  22.982  1.00  0.00     0.004 A 
ATOM     84  C   UNL A   1      34.236  17.208  23.786  1.00  0.00     0.004 A 
ENDBRANCH  74  75
ENDBRANCH  72  74
ENDBRANCH  69  72
ENDBRANCH  67  69
ENDBRANCH  60  63
ENDBRANCH  58  59
ENDBRANCH   1  58
TORSDOF 15
ENDMDL
MODEL 3
REMARK VINA RESULT:     -11.5      3.895      9.227
REMARK SMILES O=C(NCCCCNC(=O)c1cccc(S(=O)(=O)NC[C@@H]2COc3ccccc3O2)c1)c1ccc(-c2c3nc(c(-c4ccccc4)c4ccc([nH]4)c(-c4ccccc4)c4nc(c(-c5ccccc5)c5ccc2[nH]5)C=C4)C=C3)cc1
REMARK SMILES IDX 6 1 5 2 4 3 3 4 1 5 2 6 32 8 33 9 79 10 34 11 78 12 35 13
REMARK SMILES IDX 36 14 37 15 72 16 38 17 77 18 71 19 73 20 39 21 76 22 70 23
REMARK SMILES IDX 69 24 40 26 62 27 47 28 61 29 48 30 51 31 60 32 74 33 49 34
REMARK SMILES IDX 50 35 59 37 75 38 52 39 41 40 42 41 46 42 43 43 45 44 44 45
REMARK SMILES IDX 63 46 64 47 68 48 65 49 67 50 66 51 53 52 54 53 58 54 55 55
REMARK SMILES IDX 57 56 56 57 7 58 8 59 9 60 10 62 11 63 12 64 31 65 13 66
REMARK SMILES IDX 15 67 14 68 16 69 17 70 18 71 19 72 20 74 21 75 22 76 30 77
REMARK SMILES IDX 23 78 29 79 24 80 28 81 25 82 27 83 26 84
REMARK H PARENT 3 7 73 25 51 36 8 61 19 73
REMARK Flexibility Score: inf
ROOT
ATOM      1  C   UNL A   1      36.434  20.489  24.995  1.00  0.00     0.023 C 
ENDROOT
BRANCH   1   2
ATOM      2  C   UNL A   1      37.850  20.069  24.612  1.00  0.00     0.023 C 
BRANCH   2   3
ATOM      3  C   UNL A   1      38.898  20.246  25.703  1.00  0.00     0.116 C 
BRANCH   3   4
ATOM      4  N   UNL A   1      39.870  19.162  25.747  1.00  0.00    -0.352 N 
ATOM      5  O   UNL A   1      41.898  18.179  25.876  1.00  0.00    -0.269 OA
ATOM      6  C   UNL A   1      41.220  19.193  26.012  1.00  0.00     0.251 C 
ATOM      7  H   UNL A   1      39.505  18.268  25.556  1.00  0.00     0.163 HD
BRANCH   6   8
ATOM      8  C   UNL A   1      41.862  20.461  26.421  1.00  0.00     0.039 A 
ATOM      9  C   UNL A   1      41.904  20.837  27.762  1.00  0.00     0.014 A 
ATOM     10  C   UNL A   1      42.400  21.299  25.441  1.00  0.00     0.014 A 
ATOM     11  C   UNL A   1      42.293  22.127  28.102  1.00  0.00     0.010 A 
ATOM     12  C   UNL A   1      42.890  22.560  25.799  1.00  0.00     0.010 A 
ATOM     13  C   UNL A   1      42.786  23.007  27.124  1.00  0.00    -0.014 A 
BRANCH  13  14
ATOM     14  C   UNL A   1      43.187  24.381  27.526  1.00  0.00     0.031 A 
ATOM     15  C   UNL A   1      44.617  24.841  27.408  1.00  0.00     0.074 A 
ATOM     16  C   UNL A   1      42.238  25.241  27.944  1.00  0.00     0.049 A 
ATOM     17  N   UNL A   1      45.121  26.028  27.644  1.00  0.00    -0.248 NA
ATOM     18  C   UNL A   1      45.612  23.846  26.977  1.00  0.00     0.031 C 
ATOM     19  C   UNL A   1      40.818  24.918  28.105  1.00  0.00     0.029 A 
ATOM     20  N   UNL A   1      42.316  26.570  28.272  1.00  0.00    -0.354 N 
ATOM     21  C   UNL A   1      46.487  25.914  27.421  1.00  0.00     0.074 A 
ATOM     22  C   UNL A   1      46.740  24.538  27.050  1.00  0.00     0.031 C 
ATOM     23  C   UNL A   1      40.149  26.032  28.431  1.00  0.00     0.029 A 
ATOM     24  C   UNL A   1      41.096  27.132  28.564  1.00  0.00     0.049 A 
ATOM     25  H   UNL A   1      43.161  27.072  28.296  1.00  0.00     0.167 HD
ATOM     26  C   UNL A   1      47.446  26.868  27.511  1.00  0.00     0.031 A 
ATOM     27  C   UNL A   1      40.773  28.393  28.905  1.00  0.00     0.031 A 
ATOM     28  C   UNL A   1      47.196  28.242  27.862  1.00  0.00     0.049 A 
ATOM     29  C   UNL A   1      41.854  29.426  29.001  1.00  0.00     0.074 A 
ATOM     30  C   UNL A   1      48.099  29.289  27.944  1.00  0.00     0.029 A 
ATOM     31  N   UNL A   1      45.953  28.760  28.189  1.00  0.00    -0.354 N 
ATOM     32  N   UNL A   1      43.136  29.306  28.756  1.00  0.00    -0.248 NA
ATOM     33  C   UNL A   1      41.441  30.772  29.420  1.00  0.00     0.031 C 
ATOM     34  C   UNL A   1      47.408  30.431  28.365  1.00  0.00     0.029 A 
ATOM     35  C   UNL A   1      46.068  30.107  28.494  1.00  0.00     0.049 A 
ATOM     36  H   UNL A   1      45.113  28.247  28.204  1.00  0.00     0.167 HD
ATOM     37  C   UNL A   1      43.680  30.564  28.971  1.00  0.00     0.074 A 
ATOM     38  C   UNL A   1      42.586  31.436  29.346  1.00  0.00     0.031 C 
ATOM     39  C   UNL A   1      44.972  30.962  28.867  1.00  0.00     0.031 A 
BRANCH  26  40
ATOM     40  C   UNL A   1      48.869  26.452  27.254  1.00  0.00    -0.014 A 
ATOM     41  C   UNL A   1      49.694  25.986  28.289  1.00  0.00     0.009 A 
ATOM     42  C   UNL A   1      49.376  26.488  25.945  1.00  0.00     0.009 A 
ATOM     43  C   UNL A   1      51.009  25.593  28.022  1.00  0.00     0.001 A 
ATOM     44  C   UNL A   1      50.681  26.071  25.677  1.00  0.00     0.001 A 
ATOM     45  C   UNL A   1      51.499  25.632  26.717  1.00  0.00     0.000 A 
ENDBRANCH  26  40
BRANCH  27  46
ATOM     46  C   UNL A   1      39.355  28.744  29.171  1.00  0.00    -0.014 A 
ATOM     47  C   UNL A   1      38.824  28.632  30.465  1.00  0.00     0.009 A 
ATOM     48  C   UNL A   1      38.530  29.206  28.134  1.00  0.00     0.009 A 
ATOM     49  C   UNL A   1      37.488  28.955  30.709  1.00  0.00     0.001 A 
ATOM     50  C   UNL A   1      37.203  29.556  28.388  1.00  0.00     0.001 A 
ATOM     51  C   UNL A   1      36.681  29.422  29.673  1.00  0.00     0.000 A 
ENDBRANCH  27  46
BRANCH  39  52
ATOM     52  C   UNL A   1      45.259  32.412  29.129  1.00  0.00    -0.014 A 
ATOM     53  C   UNL A   1      45.620  32.864  30.408  1.00  0.00     0.009 A 
ATOM     54  C   UNL A   1      45.180  33.335  28.075  1.00  0.00     0.009 A 
ATOM     55  C   UNL A   1      45.858  34.220  30.634  1.00  0.00     0.001 A 
ATOM     56  C   UNL A   1      45.446  34.687  28.299  1.00  0.00     0.001 A 
ATOM     57  C   UNL A   1      45.773  35.129  29.579  1.00  0.00     0.000 A 
ENDBRANCH  39  52
ENDBRANCH  13  14
ENDBRANCH   6   8
ENDBRANCH   3   4
ENDBRANCH   2   3
ENDBRANCH   1   2
BRANCH   1  58
ATOM     58  C   UNL A   1      36.337  21.760  25.830  1.00  0.00     0.116 C 
BRANCH  58  59
ATOM     59  N   UNL A   1      35.304  21.675  26.849  1.00  0.00    -0.352 N 
ATOM     60  C   UNL A   1      33.944  21.806  26.725  1.00  0.00     0.251 C 
ATOM     61  H   UNL A   1      35.627  21.498  27.762  1.00  0.00     0.163 HD
ATOM     62  O   UNL A   1      33.240  21.876  27.728  1.00  0.00    -0.269 OA
BRANCH  60  63
ATOM     63  C   UNL A   1      33.307  21.803  25.390  1.00  0.00     0.041 A 
ATOM     64  C   UNL A   1      32.772  20.624  24.870  1.00  0.00     0.014 A 
ATOM     65  C   UNL A   1      33.348  22.950  24.599  1.00  0.00     0.035 A 
ATOM     66  C   UNL A   1      32.247  20.612  23.573  1.00  0.00     0.002 A 
ATOM     67  C   UNL A   1      32.873  22.924  23.292  1.00  0.00     0.083 A 
ATOM     68  C   UNL A   1      32.302  21.760  22.775  1.00  0.00     0.022 A 
BRANCH  67  69
ATOM     69  S   UNL A   1      33.028  24.368  22.271  1.00  0.00     0.240 S 
ATOM     70  O   UNL A   1      33.886  25.310  22.946  1.00  0.00    -0.207 OA
ATOM     71  O   UNL A   1      33.285  23.893  20.929  1.00  0.00    -0.207 OA
BRANCH  69  72
ATOM     72  N   UNL A   1      31.454  24.998  22.229  1.00  0.00    -0.207 NA
ATOM     73  H   UNL A   1      30.939  24.445  21.543  1.00  0.00     0.141 HD
BRANCH  72  74
ATOM     74  C   UNL A   1      30.615  25.037  23.460  1.00  0.00     0.147 C 
BRANCH  74  75
ATOM     75  C   UNL A   1      30.025  26.410  23.845  1.00  0.00     0.226 C 
ATOM     76  C   UNL A   1      30.493  27.576  22.966  1.00  0.00     0.276 C 
ATOM     77  O   UNL A   1      30.330  26.677  25.230  1.00  0.00    -0.482 OA
ATOM     78  O   UNL A   1      31.903  27.779  23.065  1.00  0.00    -0.486 OA
ATOM     79  C   UNL A   1      31.488  27.380  25.422  1.00  0.00     0.161 A 
ATOM     80  C   UNL A   1      32.258  27.906  24.381  1.00  0.00     0.161 A 
ATOM     81  C   UNL A   1      31.882  27.580  26.742  1.00  0.00     0.050 A 
ATOM     82  C   UNL A   1      33.435  28.596  24.653  1.00  0.00     0.050 A 
ATOM     83  C   UNL A   1      33.049  28.295  27.019  1.00  0.00     0.004 A 
ATOM     84  C   UNL A   1      33.827  28.799  25.976  1.00  0.00     0.004 A 
ENDBRANCH  74  75
ENDBRANCH  72  74
ENDBRANCH  69  72
ENDBRANCH  67  69
ENDBRANCH  60  63
ENDBRANCH  58  59
ENDBRANCH   1  58
TORSDOF 15
ENDMDL
