MODEL 1
REMARK VINA RESULT:     -11.5      0.000      0.000
REMARK SMILES O=C(NCCCCNC(=O)c1ccccc1-c1ccc(/C=C2\C(=O)N(c3cccc(Br)c3)C(=O)N=C2O)o1)c1ccc(-c2c3nc(c(-c4ccccc4)c4ccc([nH]4)c(-c4ccccc4)c4nc(c(-c5ccccc5)c5ccc2[nH]5)C=C4)C=C3)cc1
REMARK SMILES IDX 6 1 5 2 4 3 3 4 1 5 2 6 39 8 40 9 86 10 41 11 85 12 42 13
REMARK SMILES IDX 43 14 44 15 79 16 45 17 84 18 78 19 80 20 46 21 83 22 77 23
REMARK SMILES IDX 76 24 47 26 69 27 54 28 68 29 55 30 58 31 67 32 81 33 56 34
REMARK SMILES IDX 57 35 66 37 82 38 59 39 48 40 49 41 53 42 50 43 52 44 51 45
REMARK SMILES IDX 70 46 71 47 75 48 72 49 74 50 73 51 60 52 61 53 65 54 62 55
REMARK SMILES IDX 64 56 63 57 7 58 8 59 9 60 10 62 11 63 12 64 16 65 13 66
REMARK SMILES IDX 15 67 14 68 17 69 18 70 38 71 19 72 20 73 21 74 22 75 23 76
REMARK SMILES IDX 36 77 24 78 25 79 35 80 33 81 34 82 37 83 26 85 27 86 32 87
REMARK SMILES IDX 28 88 30 89 29 90 31 91
REMARK H PARENT 3 7 80 25 58 36 8 61 37 84
REMARK Flexibility Score: inf
ROOT
ATOM      1  C   UNL A   1      48.105  27.160  24.285  1.00  0.00     0.023 C 
ENDROOT
BRANCH   1   2
ATOM      2  C   UNL A   1      46.817  27.957  24.117  1.00  0.00     0.023 C 
BRANCH   2   3
ATOM      3  C   UNL A   1      45.769  27.759  25.206  1.00  0.00     0.116 C 
BRANCH   3   4
ATOM      4  N   UNL A   1      44.477  27.313  24.700  1.00  0.00    -0.352 N 
ATOM      5  O   UNL A   1      42.262  26.868  24.714  1.00  0.00    -0.269 OA
ATOM      6  C   UNL A   1      43.239  27.316  25.304  1.00  0.00     0.251 C 
ATOM      7  H   UNL A   1      44.491  26.954  23.783  1.00  0.00     0.163 HD
BRANCH   6   8
ATOM      8  C   UNL A   1      43.108  27.821  26.691  1.00  0.00     0.039 A 
ATOM      9  C   UNL A   1      42.480  27.046  27.663  1.00  0.00     0.014 A 
ATOM     10  C   UNL A   1      43.543  29.112  27.001  1.00  0.00     0.014 A 
ATOM     11  C   UNL A   1      42.079  27.637  28.856  1.00  0.00     0.010 A 
ATOM     12  C   UNL A   1      43.243  29.665  28.253  1.00  0.00     0.010 A 
ATOM     13  C   UNL A   1      42.450  28.955  29.169  1.00  0.00    -0.014 A 
BRANCH  13  14
ATOM     14  C   UNL A   1      42.002  29.545  30.461  1.00  0.00     0.031 A 
ATOM     15  C   UNL A   1      42.873  29.502  31.693  1.00  0.00     0.074 A 
ATOM     16  C   UNL A   1      40.818  30.186  30.507  1.00  0.00     0.049 A 
ATOM     17  N   UNL A   1      42.657  30.033  32.872  1.00  0.00    -0.248 NA
ATOM     18  C   UNL A   1      44.141  28.764  31.596  1.00  0.00     0.031 C 
ATOM     19  C   UNL A   1      39.879  30.305  29.386  1.00  0.00     0.029 A 
ATOM     20  N   UNL A   1      40.212  30.887  31.519  1.00  0.00    -0.354 N 
ATOM     21  C   UNL A   1      43.744  29.674  33.662  1.00  0.00     0.074 A 
ATOM     22  C   UNL A   1      44.607  28.855  32.835  1.00  0.00     0.031 C 
ATOM     23  C   UNL A   1      38.856  31.090  29.751  1.00  0.00     0.029 A 
ATOM     24  C   UNL A   1      39.023  31.466  31.149  1.00  0.00     0.049 A 
ATOM     25  H   UNL A   1      40.594  30.967  32.424  1.00  0.00     0.167 HD
ATOM     26  C   UNL A   1      44.006  29.997  34.953  1.00  0.00     0.031 A 
ATOM     27  C   UNL A   1      38.150  32.209  31.853  1.00  0.00     0.031 A 
ATOM     28  C   UNL A   1      43.150  30.813  35.776  1.00  0.00     0.049 A 
ATOM     29  C   UNL A   1      38.447  32.519  33.291  1.00  0.00     0.074 A 
ATOM     30  C   UNL A   1      43.349  31.226  37.083  1.00  0.00     0.029 A 
ATOM     31  N   UNL A   1      41.929  31.334  35.377  1.00  0.00    -0.354 N 
ATOM     32  N   UNL A   1      39.500  32.203  34.005  1.00  0.00    -0.248 NA
ATOM     33  C   UNL A   1      37.434  33.294  34.018  1.00  0.00     0.031 C 
ATOM     34  C   UNL A   1      42.219  31.939  37.495  1.00  0.00     0.029 A 
ATOM     35  C   UNL A   1      41.350  32.037  36.422  1.00  0.00     0.049 A 
ATOM     36  H   UNL A   1      41.531  31.221  34.484  1.00  0.00     0.167 HD
ATOM     37  C   UNL A   1      39.292  32.770  35.255  1.00  0.00     0.074 A 
ATOM     38  C   UNL A   1      38.021  33.464  35.193  1.00  0.00     0.031 C 
ATOM     39  C   UNL A   1      40.084  32.723  36.353  1.00  0.00     0.031 A 
BRANCH  26  40
ATOM     40  C   UNL A   1      45.257  29.434  35.576  1.00  0.00    -0.014 A 
ATOM     41  C   UNL A   1      45.275  28.167  36.183  1.00  0.00     0.009 A 
ATOM     42  C   UNL A   1      46.454  30.166  35.511  1.00  0.00     0.009 A 
ATOM     43  C   UNL A   1      46.453  27.665  36.744  1.00  0.00     0.001 A 
ATOM     44  C   UNL A   1      47.637  29.650  36.044  1.00  0.00     0.001 A 
ATOM     45  C   UNL A   1      47.633  28.404  36.670  1.00  0.00     0.000 A 
ENDBRANCH  26  40
BRANCH  27  46
ATOM     46  C   UNL A   1      36.907  32.706  31.208  1.00  0.00    -0.014 A 
ATOM     47  C   UNL A   1      36.940  33.809  30.342  1.00  0.00     0.009 A 
ATOM     48  C   UNL A   1      35.675  32.080  31.461  1.00  0.00     0.009 A 
ATOM     49  C   UNL A   1      35.762  34.292  29.766  1.00  0.00     0.001 A 
ATOM     50  C   UNL A   1      34.506  32.542  30.856  1.00  0.00     0.001 A 
ATOM     51  C   UNL A   1      34.548  33.655  30.020  1.00  0.00     0.000 A 
ENDBRANCH  27  46
BRANCH  39  52
ATOM     52  C   UNL A   1      39.623  33.490  37.563  1.00  0.00    -0.014 A 
ATOM     53  C   UNL A   1      38.847  32.889  38.567  1.00  0.00     0.009 A 
ATOM     54  C   UNL A   1      39.985  34.839  37.703  1.00  0.00     0.009 A 
ATOM     55  C   UNL A   1      38.403  33.638  39.659  1.00  0.00     0.001 A 
ATOM     56  C   UNL A   1      39.571  35.575  38.813  1.00  0.00     0.001 A 
ATOM     57  C   UNL A   1      38.768  34.977  39.783  1.00  0.00     0.000 A 
ENDBRANCH  39  52
ENDBRANCH  13  14
ENDBRANCH   6   8
ENDBRANCH   3   4
ENDBRANCH   2   3
ENDBRANCH   1   2
BRANCH   1  58
ATOM     58  C   UNL A   1      48.867  27.431  25.575  1.00  0.00     0.116 C 
BRANCH  58  59
ATOM     59  N   UNL A   1      49.666  26.323  26.058  1.00  0.00    -0.352 N 
ATOM     60  C   UNL A   1      49.273  25.381  26.983  1.00  0.00     0.252 C 
ATOM     61  H   UNL A   1      50.575  26.235  25.691  1.00  0.00     0.163 HD
ATOM     62  O   UNL A   1      49.983  24.416  27.242  1.00  0.00    -0.269 OA
BRANCH  60  63
ATOM     63  C   UNL A   1      48.008  25.585  27.721  1.00  0.00     0.050 A 
ATOM     64  C   UNL A   1      48.067  26.490  28.793  1.00  0.00     0.014 A 
ATOM     65  C   UNL A   1      46.788  25.001  27.329  1.00  0.00     0.030 A 
ATOM     66  C   UNL A   1      46.901  26.858  29.457  1.00  0.00     0.001 A 
ATOM     67  C   UNL A   1      45.623  25.395  28.006  1.00  0.00     0.013 A 
ATOM     68  C   UNL A   1      45.679  26.320  29.057  1.00  0.00     0.001 A 
BRANCH  65  69
ATOM     69  C   UNL A   1      46.697  24.078  26.206  1.00  0.00     0.135 A 
ATOM     70  C   UNL A   1      46.831  24.193  24.842  1.00  0.00     0.051 A 
ATOM     71  O   UNL A   1      46.257  22.825  26.515  1.00  0.00    -0.457 OA
ATOM     72  C   UNL A   1      46.357  22.971  24.299  1.00  0.00     0.051 A 
ATOM     73  C   UNL A   1      45.926  22.167  25.351  1.00  0.00     0.128 A 
BRANCH  73  74
ATOM     74  C   UNL A   1      45.262  20.907  25.283  1.00  0.00     0.066 C 
ATOM     75  C   UNL A   1      43.933  20.700  25.393  1.00  0.00     0.106 C 
ATOM     76  C   UNL A   1      42.871  21.723  25.551  1.00  0.00     0.272 C 
ATOM     77  C   UNL A   1      43.399  19.347  25.322  1.00  0.00     0.228 C 
ATOM     78  O   UNL A   1      43.042  22.858  25.121  1.00  0.00    -0.268 OA
ATOM     79  N   UNL A   1      41.685  21.266  26.123  1.00  0.00    -0.226 N 
ATOM     80  N   UNL A   1      42.241  18.967  25.690  1.00  0.00    -0.156 NA
ATOM     81  C   UNL A   1      41.372  19.895  26.221  1.00  0.00     0.358 C 
ATOM     82  O   UNL A   1      40.326  19.492  26.719  1.00  0.00    -0.245 OA
BRANCH  77  83
ATOM     83  O   UNL A   1      44.209  18.433  24.771  1.00  0.00    -0.493 OA
ATOM     84  H   UNL A   1      43.889  17.872  24.092  1.00  0.00     0.295 HD
ENDBRANCH  77  83
BRANCH  79  85
ATOM     85  C   UNL A   1      40.724  22.248  26.578  1.00  0.00     0.055 A 
ATOM     86  C   UNL A   1      41.052  23.155  27.597  1.00  0.00     0.027 A 
ATOM     87  C   UNL A   1      39.464  22.378  25.969  1.00  0.00     0.042 A 
ATOM     88  C   UNL A   1      40.172  24.180  27.962  1.00  0.00     0.003 A 
ATOM     89  C   UNL A   1      38.588  23.400  26.335  1.00  0.00     0.020 A 
ATOM     90  C   UNL A   1      38.939  24.310  27.325  1.00  0.00     0.016 A 
ATOM     91  Br  UNL A   1      36.915  23.553  25.464  1.00  0.00    -0.051 Br
ENDBRANCH  79  85
ENDBRANCH  73  74
ENDBRANCH  65  69
ENDBRANCH  60  63
ENDBRANCH  58  59
ENDBRANCH   1  58
TORSDOF 15
ENDMDL
MODEL 2
REMARK VINA RESULT:     -11.4      0.727      5.585
REMARK SMILES O=C(NCCCCNC(=O)c1ccccc1-c1ccc(/C=C2\C(=O)N(c3cccc(Br)c3)C(=O)N=C2O)o1)c1ccc(-c2c3nc(c(-c4ccccc4)c4ccc([nH]4)c(-c4ccccc4)c4nc(c(-c5ccccc5)c5ccc2[nH]5)C=C4)C=C3)cc1
REMARK SMILES IDX 6 1 5 2 4 3 3 4 1 5 2 6 39 8 40 9 86 10 41 11 85 12 42 13
REMARK SMILES IDX 43 14 44 15 79 16 45 17 84 18 78 19 80 20 46 21 83 22 77 23
REMARK SMILES IDX 76 24 47 26 69 27 54 28 68 29 55 30 58 31 67 32 81 33 56 34
REMARK SMILES IDX 57 35 66 37 82 38 59 39 48 40 49 41 53 42 50 43 52 44 51 45
REMARK SMILES IDX 70 46 71 47 75 48 72 49 74 50 73 51 60 52 61 53 65 54 62 55
REMARK SMILES IDX 64 56 63 57 7 58 8 59 9 60 10 62 11 63 12 64 16 65 13 66
REMARK SMILES IDX 15 67 14 68 17 69 18 70 38 71 19 72 20 73 21 74 22 75 23 76
REMARK SMILES IDX 36 77 24 78 25 79 35 80 33 81 34 82 37 83 26 85 27 86 32 87
REMARK SMILES IDX 28 88 30 89 29 90 31 91
REMARK H PARENT 3 7 80 25 58 36 8 61 37 84
REMARK Flexibility Score: inf
ROOT
ATOM      1  C   UNL A   1      47.871  27.474  24.651  1.00  0.00     0.023 C 
ENDROOT
BRANCH   1   2
ATOM      2  C   UNL A   1      46.517  28.172  24.595  1.00  0.00     0.023 C 
BRANCH   2   3
ATOM      3  C   UNL A   1      45.463  27.649  25.564  1.00  0.00     0.116 C 
BRANCH   3   4
ATOM      4  N   UNL A   1      44.535  26.700  24.962  1.00  0.00    -0.352 N 
ATOM      5  O   UNL A   1      42.598  25.582  24.636  1.00  0.00    -0.269 OA
ATOM      6  C   UNL A   1      43.210  26.453  25.246  1.00  0.00     0.251 C 
ATOM      7  H   UNL A   1      44.914  26.149  24.240  1.00  0.00     0.163 HD
BRANCH   6   8
ATOM      8  C   UNL A   1      42.544  27.216  26.328  1.00  0.00     0.039 A 
ATOM      9  C   UNL A   1      42.621  28.607  26.355  1.00  0.00     0.014 A 
ATOM     10  C   UNL A   1      41.907  26.532  27.367  1.00  0.00     0.014 A 
ATOM     11  C   UNL A   1      42.279  29.289  27.517  1.00  0.00     0.010 A 
ATOM     12  C   UNL A   1      41.451  27.239  28.487  1.00  0.00     0.010 A 
ATOM     13  C   UNL A   1      41.693  28.617  28.602  1.00  0.00    -0.014 A 
BRANCH  13  14
ATOM     14  C   UNL A   1      41.338  29.390  29.825  1.00  0.00     0.031 A 
ATOM     15  C   UNL A   1      40.072  30.208  29.902  1.00  0.00     0.074 A 
ATOM     16  C   UNL A   1      42.138  29.301  30.905  1.00  0.00     0.049 A 
ATOM     17  N   UNL A   1      39.586  30.878  30.919  1.00  0.00    -0.248 NA
ATOM     18  C   UNL A   1      39.250  30.295  28.685  1.00  0.00     0.031 C 
ATOM     19  C   UNL A   1      43.391  28.541  30.966  1.00  0.00     0.029 A 
ATOM     20  N   UNL A   1      42.007  29.821  32.168  1.00  0.00    -0.354 N 
ATOM     21  C   UNL A   1      38.421  31.484  30.460  1.00  0.00     0.074 A 
ATOM     22  C   UNL A   1      38.287  31.125  29.064  1.00  0.00     0.031 C 
ATOM     23  C   UNL A   1      43.873  28.588  32.215  1.00  0.00     0.029 A 
ATOM     24  C   UNL A   1      43.011  29.440  33.025  1.00  0.00     0.049 A 
ATOM     25  H   UNL A   1      41.264  30.411  32.434  1.00  0.00     0.167 HD
ATOM     26  C   UNL A   1      37.540  32.263  31.137  1.00  0.00     0.031 A 
ATOM     27  C   UNL A   1      43.230  29.749  34.316  1.00  0.00     0.031 A 
ATOM     28  C   UNL A   1      37.671  32.619  32.527  1.00  0.00     0.049 A 
ATOM     29  C   UNL A   1      42.259  30.644  35.028  1.00  0.00     0.074 A 
ATOM     30  C   UNL A   1      36.811  33.373  33.308  1.00  0.00     0.029 A 
ATOM     31  N   UNL A   1      38.732  32.256  33.341  1.00  0.00    -0.354 N 
ATOM     32  N   UNL A   1      41.144  31.173  34.586  1.00  0.00    -0.248 NA
ATOM     33  C   UNL A   1      42.577  30.980  36.421  1.00  0.00     0.031 C 
ATOM     34  C   UNL A   1      37.384  33.521  34.575  1.00  0.00     0.029 A 
ATOM     35  C   UNL A   1      38.564  32.795  34.607  1.00  0.00     0.049 A 
ATOM     36  H   UNL A   1      39.493  31.698  33.063  1.00  0.00     0.167 HD
ATOM     37  C   UNL A   1      40.609  31.876  35.658  1.00  0.00     0.074 A 
ATOM     38  C   UNL A   1      41.515  31.690  36.773  1.00  0.00     0.031 C 
ATOM     39  C   UNL A   1      39.470  32.607  35.712  1.00  0.00     0.031 A 
BRANCH  26  40
ATOM     40  C   UNL A   1      36.369  32.822  30.372  1.00  0.00    -0.014 A 
ATOM     41  C   UNL A   1      35.103  32.216  30.413  1.00  0.00     0.009 A 
ATOM     42  C   UNL A   1      36.524  34.008  29.634  1.00  0.00     0.009 A 
ATOM     43  C   UNL A   1      34.030  32.762  29.700  1.00  0.00     0.001 A 
ATOM     44  C   UNL A   1      35.445  34.570  28.949  1.00  0.00     0.001 A 
ATOM     45  C   UNL A   1      34.201  33.940  28.974  1.00  0.00     0.000 A 
ENDBRANCH  26  40
BRANCH  27  46
ATOM     46  C   UNL A   1      44.424  29.209  35.017  1.00  0.00    -0.014 A 
ATOM     47  C   UNL A   1      44.362  27.985  35.699  1.00  0.00     0.009 A 
ATOM     48  C   UNL A   1      45.634  29.922  35.011  1.00  0.00     0.009 A 
ATOM     49  C   UNL A   1      45.478  27.500  36.385  1.00  0.00     0.001 A 
ATOM     50  C   UNL A   1      46.758  29.418  35.667  1.00  0.00     0.001 A 
ATOM     51  C   UNL A   1      46.676  28.215  36.364  1.00  0.00     0.000 A 
ENDBRANCH  27  46
BRANCH  39  52
ATOM     52  C   UNL A   1      39.110  33.215  37.040  1.00  0.00    -0.014 A 
ATOM     53  C   UNL A   1      38.299  32.539  37.966  1.00  0.00     0.009 A 
ATOM     54  C   UNL A   1      39.604  34.486  37.373  1.00  0.00     0.009 A 
ATOM     55  C   UNL A   1      37.952  33.146  39.176  1.00  0.00     0.001 A 
ATOM     56  C   UNL A   1      39.287  35.075  38.598  1.00  0.00     0.001 A 
ATOM     57  C   UNL A   1      38.449  34.409  39.492  1.00  0.00     0.000 A 
ENDBRANCH  39  52
ENDBRANCH  13  14
ENDBRANCH   6   8
ENDBRANCH   3   4
ENDBRANCH   2   3
ENDBRANCH   1   2
BRANCH   1  58
ATOM     58  C   UNL A   1      48.623  27.629  25.965  1.00  0.00     0.116 C 
BRANCH  58  59
ATOM     59  N   UNL A   1      49.407  26.477  26.361  1.00  0.00    -0.352 N 
ATOM     60  C   UNL A   1      48.976  25.434  27.151  1.00  0.00     0.252 C 
ATOM     61  H   UNL A   1      50.335  26.435  26.035  1.00  0.00     0.163 HD
ATOM     62  O   UNL A   1      49.681  24.449  27.336  1.00  0.00    -0.269 OA
BRANCH  60  63
ATOM     63  C   UNL A   1      47.672  25.547  27.839  1.00  0.00     0.050 A 
ATOM     64  C   UNL A   1      47.618  26.470  28.894  1.00  0.00     0.014 A 
ATOM     65  C   UNL A   1      46.517  24.861  27.412  1.00  0.00     0.030 A 
ATOM     66  C   UNL A   1      46.402  26.753  29.509  1.00  0.00     0.001 A 
ATOM     67  C   UNL A   1      45.300  25.171  28.039  1.00  0.00     0.013 A 
ATOM     68  C   UNL A   1      45.242  26.113  29.074  1.00  0.00     0.001 A 
BRANCH  65  69
ATOM     69  C   UNL A   1      46.543  23.916  26.304  1.00  0.00     0.135 A 
ATOM     70  C   UNL A   1      46.802  24.009  24.957  1.00  0.00     0.051 A 
ATOM     71  O   UNL A   1      46.091  22.663  26.595  1.00  0.00    -0.457 OA
ATOM     72  C   UNL A   1      46.396  22.771  24.396  1.00  0.00     0.051 A 
ATOM     73  C   UNL A   1      45.878  21.980  25.418  1.00  0.00     0.128 A 
BRANCH  73  74
ATOM     74  C   UNL A   1      45.239  20.709  25.314  1.00  0.00     0.066 C 
ATOM     75  C   UNL A   1      43.911  20.478  25.384  1.00  0.00     0.106 C 
ATOM     76  C   UNL A   1      42.827  21.480  25.530  1.00  0.00     0.272 C 
ATOM     77  C   UNL A   1      43.403  19.118  25.279  1.00  0.00     0.228 C 
ATOM     78  O   UNL A   1      42.989  22.625  25.123  1.00  0.00    -0.268 OA
ATOM     79  N   UNL A   1      41.635  20.993  26.064  1.00  0.00    -0.226 N 
ATOM     80  N   UNL A   1      42.243  18.711  25.610  1.00  0.00    -0.156 NA
ATOM     81  C   UNL A   1      41.343  19.615  26.132  1.00  0.00     0.358 C 
ATOM     82  O   UNL A   1      40.293  19.187  26.596  1.00  0.00    -0.245 OA
BRANCH  77  83
ATOM     83  O   UNL A   1      44.243  18.226  24.735  1.00  0.00    -0.493 OA
ATOM     84  H   UNL A   1      44.063  17.310  24.805  1.00  0.00     0.295 HD
ENDBRANCH  77  83
BRANCH  79  85
ATOM     85  C   UNL A   1      40.646  21.951  26.508  1.00  0.00     0.055 A 
ATOM     86  C   UNL A   1      40.897  22.785  27.608  1.00  0.00     0.027 A 
ATOM     87  C   UNL A   1      39.436  22.132  25.814  1.00  0.00     0.042 A 
ATOM     88  C   UNL A   1      39.994  23.791  27.972  1.00  0.00     0.003 A 
ATOM     89  C   UNL A   1      38.538  23.136  26.179  1.00  0.00     0.020 A 
ATOM     90  C   UNL A   1      38.815  23.974  27.252  1.00  0.00     0.016 A 
ATOM     91  Br  UNL A   1      36.939  23.361  25.194  1.00  0.00    -0.051 Br
ENDBRANCH  79  85
ENDBRANCH  73  74
ENDBRANCH  65  69
ENDBRANCH  60  63
ENDBRANCH  58  59
ENDBRANCH   1  58
TORSDOF 15
ENDMDL
MODEL 3
REMARK VINA RESULT:     -10.9      3.402      8.017
REMARK SMILES O=C(NCCCCNC(=O)c1ccccc1-c1ccc(/C=C2\C(=O)N(c3cccc(Br)c3)C(=O)N=C2O)o1)c1ccc(-c2c3nc(c(-c4ccccc4)c4ccc([nH]4)c(-c4ccccc4)c4nc(c(-c5ccccc5)c5ccc2[nH]5)C=C4)C=C3)cc1
REMARK SMILES IDX 6 1 5 2 4 3 3 4 1 5 2 6 39 8 40 9 86 10 41 11 85 12 42 13
REMARK SMILES IDX 43 14 44 15 79 16 45 17 84 18 78 19 80 20 46 21 83 22 77 23
REMARK SMILES IDX 76 24 47 26 69 27 54 28 68 29 55 30 58 31 67 32 81 33 56 34
REMARK SMILES IDX 57 35 66 37 82 38 59 39 48 40 49 41 53 42 50 43 52 44 51 45
REMARK SMILES IDX 70 46 71 47 75 48 72 49 74 50 73 51 60 52 61 53 65 54 62 55
REMARK SMILES IDX 64 56 63 57 7 58 8 59 9 60 10 62 11 63 12 64 16 65 13 66
REMARK SMILES IDX 15 67 14 68 17 69 18 70 38 71 19 72 20 73 21 74 22 75 23 76
REMARK SMILES IDX 36 77 24 78 25 79 35 80 33 81 34 82 37 83 26 85 27 86 32 87
REMARK SMILES IDX 28 88 30 89 29 90 31 91
REMARK H PARENT 3 7 80 25 58 36 8 61 37 84
REMARK Flexibility Score: inf
ROOT
ATOM      1  C   UNL A   1      43.392  22.932  24.730  1.00  0.00     0.023 C 
ENDROOT
BRANCH   1   2
ATOM      2  C   UNL A   1      44.873  23.025  24.380  1.00  0.00     0.023 C 
BRANCH   2   3
ATOM      3  C   UNL A   1      45.712  23.919  25.286  1.00  0.00     0.116 C 
BRANCH   3   4
ATOM      4  N   UNL A   1      46.371  25.012  24.582  1.00  0.00    -0.352 N 
ATOM      5  O   UNL A   1      47.075  27.120  24.175  1.00  0.00    -0.269 OA
ATOM      6  C   UNL A   1      46.496  26.340  24.924  1.00  0.00     0.251 C 
ATOM      7  H   UNL A   1      46.793  24.761  23.728  1.00  0.00     0.163 HD
BRANCH   6   8
ATOM      8  C   UNL A   1      45.883  26.828  26.182  1.00  0.00     0.039 A 
ATOM      9  C   UNL A   1      44.532  27.164  26.220  1.00  0.00     0.014 A 
ATOM     10  C   UNL A   1      46.684  27.028  27.309  1.00  0.00     0.014 A 
ATOM     11  C   UNL A   1      44.041  27.908  27.286  1.00  0.00     0.010 A 
ATOM     12  C   UNL A   1      46.152  27.672  28.434  1.00  0.00     0.010 A 
ATOM     13  C   UNL A   1      44.843  28.178  28.407  1.00  0.00    -0.014 A 
BRANCH  13  14
ATOM     14  C   UNL A   1      44.273  28.976  29.529  1.00  0.00     0.031 A 
ATOM     15  C   UNL A   1      43.894  30.425  29.354  1.00  0.00     0.074 A 
ATOM     16  C   UNL A   1      44.037  28.365  30.707  1.00  0.00     0.049 A 
ATOM     17  N   UNL A   1      43.320  31.236  30.211  1.00  0.00    -0.248 NA
ATOM     18  C   UNL A   1      44.201  31.051  28.059  1.00  0.00     0.031 C 
ATOM     19  C   UNL A   1      44.354  26.965  31.009  1.00  0.00     0.029 A 
ATOM     20  N   UNL A   1      43.446  28.824  31.856  1.00  0.00    -0.354 N 
ATOM     21  C   UNL A   1      43.222  32.467  29.572  1.00  0.00     0.074 A 
ATOM     22  C   UNL A   1      43.821  32.306  28.263  1.00  0.00     0.031 C 
ATOM     23  C   UNL A   1      43.893  26.664  32.230  1.00  0.00     0.029 A 
ATOM     24  C   UNL A   1      43.319  27.862  32.829  1.00  0.00     0.049 A 
ATOM     25  H   UNL A   1      43.143  29.754  31.973  1.00  0.00     0.167 HD
ATOM     26  C   UNL A   1      42.681  33.625  30.027  1.00  0.00     0.031 A 
ATOM     27  C   UNL A   1      42.810  27.931  34.072  1.00  0.00     0.031 A 
ATOM     28  C   UNL A   1      42.084  33.786  31.328  1.00  0.00     0.049 A 
ATOM     29  C   UNL A   1      42.253  29.236  34.563  1.00  0.00     0.074 A 
ATOM     30  C   UNL A   1      41.476  34.909  31.865  1.00  0.00     0.029 A 
ATOM     31  N   UNL A   1      42.025  32.801  32.301  1.00  0.00    -0.354 N 
ATOM     32  N   UNL A   1      42.134  30.376  33.928  1.00  0.00    -0.248 NA
ATOM     33  C   UNL A   1      41.754  29.258  35.944  1.00  0.00     0.031 C 
ATOM     34  C   UNL A   1      41.111  34.624  33.184  1.00  0.00     0.029 A 
ATOM     35  C   UNL A   1      41.420  33.299  33.444  1.00  0.00     0.049 A 
ATOM     36  H   UNL A   1      42.363  31.882  32.196  1.00  0.00     0.167 HD
ATOM     37  C   UNL A   1      41.516  31.242  34.820  1.00  0.00     0.074 A 
ATOM     38  C   UNL A   1      41.270  30.488  36.032  1.00  0.00     0.031 C 
ATOM     39  C   UNL A   1      41.180  32.543  34.648  1.00  0.00     0.031 A 
BRANCH  26  40
ATOM     40  C   UNL A   1      42.744  34.829  29.124  1.00  0.00    -0.014 A 
ATOM     41  C   UNL A   1      43.951  35.499  28.868  1.00  0.00     0.009 A 
ATOM     42  C   UNL A   1      41.578  35.273  28.478  1.00  0.00     0.009 A 
ATOM     43  C   UNL A   1      43.982  36.609  28.018  1.00  0.00     0.001 A 
ATOM     44  C   UNL A   1      41.616  36.362  27.604  1.00  0.00     0.001 A 
ATOM     45  C   UNL A   1      42.816  37.035  27.383  1.00  0.00     0.000 A 
ENDBRANCH  26  40
BRANCH  27  46
ATOM     46  C   UNL A   1      42.810  26.727  34.943  1.00  0.00    -0.014 A 
ATOM     47  C   UNL A   1      43.966  26.349  35.644  1.00  0.00     0.009 A 
ATOM     48  C   UNL A   1      41.651  25.945  35.075  1.00  0.00     0.009 A 
ATOM     49  C   UNL A   1      43.968  25.196  36.433  1.00  0.00     0.001 A 
ATOM     50  C   UNL A   1      41.646  24.814  35.893  1.00  0.00     0.001 A 
ATOM     51  C   UNL A   1      42.808  24.434  36.561  1.00  0.00     0.000 A 
ENDBRANCH  27  46
BRANCH  39  52
ATOM     52  C   UNL A   1      40.458  33.219  35.782  1.00  0.00    -0.014 A 
ATOM     53  C   UNL A   1      41.147  33.938  36.772  1.00  0.00     0.009 A 
ATOM     54  C   UNL A   1      39.058  33.142  35.851  1.00  0.00     0.009 A 
ATOM     55  C   UNL A   1      40.452  34.523  37.832  1.00  0.00     0.001 A 
ATOM     56  C   UNL A   1      38.363  33.758  36.891  1.00  0.00     0.001 A 
ATOM     57  C   UNL A   1      39.061  34.436  37.889  1.00  0.00     0.000 A 
ENDBRANCH  39  52
ENDBRANCH  13  14
ENDBRANCH   6   8
ENDBRANCH   3   4
ENDBRANCH   2   3
ENDBRANCH   1   2
BRANCH   1  58
ATOM     58  C   UNL A   1      42.854  24.085  25.565  1.00  0.00     0.116 C 
BRANCH  58  59
ATOM     59  N   UNL A   1      42.760  23.820  26.987  1.00  0.00    -0.352 N 
ATOM     60  C   UNL A   1      41.651  23.345  27.652  1.00  0.00     0.252 C 
ATOM     61  H   UNL A   1      43.563  23.996  27.527  1.00  0.00     0.163 HD
ATOM     62  O   UNL A   1      41.708  23.046  28.840  1.00  0.00    -0.269 OA
BRANCH  60  63
ATOM     63  C   UNL A   1      40.362  23.267  26.933  1.00  0.00     0.050 A 
ATOM     64  C   UNL A   1      40.047  22.016  26.380  1.00  0.00     0.014 A 
ATOM     65  C   UNL A   1      39.445  24.336  26.882  1.00  0.00     0.030 A 
ATOM     66  C   UNL A   1      38.796  21.803  25.810  1.00  0.00     0.001 A 
ATOM     67  C   UNL A   1      38.185  24.095  26.312  1.00  0.00     0.013 A 
ATOM     68  C   UNL A   1      37.862  22.838  25.786  1.00  0.00     0.001 A 
BRANCH  65  69
ATOM     69  C   UNL A   1      39.740  25.637  27.469  1.00  0.00     0.135 A 
ATOM     70  C   UNL A   1      40.502  26.719  27.095  1.00  0.00     0.051 A 
ATOM     71  O   UNL A   1      39.280  25.822  28.739  1.00  0.00    -0.457 OA
ATOM     72  C   UNL A   1      40.576  27.556  28.238  1.00  0.00     0.051 A 
ATOM     73  C   UNL A   1      39.881  26.939  29.275  1.00  0.00     0.128 A 
BRANCH  73  74
ATOM     74  C   UNL A   1      39.787  27.345  30.638  1.00  0.00     0.066 C 
ATOM     75  C   UNL A   1      39.102  28.410  31.106  1.00  0.00     0.106 C 
ATOM     76  C   UNL A   1      38.261  29.354  30.331  1.00  0.00     0.272 C 
ATOM     77  C   UNL A   1      39.114  28.713  32.531  1.00  0.00     0.228 C 
ATOM     78  O   UNL A   1      37.724  28.987  29.292  1.00  0.00    -0.268 OA
ATOM     79  N   UNL A   1      38.076  30.604  30.917  1.00  0.00    -0.226 N 
ATOM     80  N   UNL A   1      38.774  29.812  33.077  1.00  0.00    -0.156 NA
ATOM     81  C   UNL A   1      38.352  30.852  32.277  1.00  0.00     0.358 C 
ATOM     82  O   UNL A   1      38.184  31.950  32.795  1.00  0.00    -0.245 OA
BRANCH  77  83
ATOM     83  O   UNL A   1      39.481  27.705  33.334  1.00  0.00    -0.493 OA
ATOM     84  H   UNL A   1      39.472  26.825  33.016  1.00  0.00     0.295 HD
ENDBRANCH  77  83
BRANCH  79  85
ATOM     85  C   UNL A   1      37.525  31.665  30.101  1.00  0.00     0.055 A 
ATOM     86  C   UNL A   1      38.328  32.736  29.679  1.00  0.00     0.027 A 
ATOM     87  C   UNL A   1      36.197  31.624  29.642  1.00  0.00     0.042 A 
ATOM     88  C   UNL A   1      37.834  33.704  28.796  1.00  0.00     0.003 A 
ATOM     89  C   UNL A   1      35.707  32.590  28.762  1.00  0.00     0.020 A 
ATOM     90  C   UNL A   1      36.524  33.628  28.328  1.00  0.00     0.016 A 
ATOM     91  Br  UNL A   1      33.922  32.474  28.147  1.00  0.00    -0.051 Br
ENDBRANCH  79  85
ENDBRANCH  73  74
ENDBRANCH  65  69
ENDBRANCH  60  63
ENDBRANCH  58  59
ENDBRANCH   1  58
TORSDOF 15
ENDMDL
