MODEL 1
REMARK VINA RESULT:     -10.8      0.000      0.000
REMARK SMILES CC[C@@](C)(NC(=O)[C@H]1Cc2[nH]cnc2C[NH2+]1)C(=O)NCCCCNC(=O)c1ccc(-c2c3nc(c(-c4ccccc4)c4ccc([nH]4)c(-c4ccccc4)c4nc(c(-c5ccccc5)c5ccc2[nH]5)C=C4)C=C3)cc1
REMARK SMILES IDX 21 1 20 2 19 3 17 4 18 5 3 7 4 8 2 9 1 10 5 11 6 12 7 14
REMARK SMILES IDX 8 15 9 16 16 17 10 18 15 19 11 22 14 23 12 24 13 26 22 27
REMARK SMILES IDX 23 28 24 29 25 30 26 32 27 33 28 34 74 35 29 36 73 37 30 38
REMARK SMILES IDX 31 39 32 40 67 41 33 42 72 43 66 44 68 45 34 46 71 47 65 48
REMARK SMILES IDX 64 49 35 51 57 52 42 53 56 54 43 55 46 56 55 57 69 58 44 59
REMARK SMILES IDX 45 60 54 62 70 63 47 64 36 65 37 66 41 67 38 68 40 69 39 70
REMARK SMILES IDX 58 71 59 72 63 73 60 74 62 75 61 76 48 77 49 78 53 79 50 80
REMARK SMILES IDX 52 81 51 82
REMARK H PARENT 19 6 5 13 16 20 16 21 11 25 24 31 68 50 46 61
REMARK Flexibility Score: inf
ROOT
ATOM      1  C   UNL A   1      41.644  26.718  35.851  1.00  0.00     0.023 C 
ENDROOT
BRANCH   1   2
ATOM      2  C   UNL A   1      41.421  27.281  34.435  1.00  0.00     0.116 C 
BRANCH   2   3
ATOM      3  N   UNL A   1      41.798  28.649  34.085  1.00  0.00    -0.354 N 
ATOM      4  C   UNL A   1      41.475  29.522  33.074  1.00  0.00     0.245 C 
ATOM      5  O   UNL A   1      41.802  30.699  33.273  1.00  0.00    -0.272 OA
ATOM      6  H   UNL A   1      42.436  29.037  34.727  1.00  0.00     0.163 HD
BRANCH   4   7
ATOM      7  C   UNL A   1      40.706  29.101  31.778  1.00  0.00     0.116 C 
ATOM      8  C   UNL A   1      40.679  30.403  30.934  1.00  0.00     0.045 C 
BRANCH   7   9
ATOM      9  C   UNL A   1      41.373  28.002  30.892  1.00  0.00     0.035 C 
ATOM     10  C   UNL A   1      42.735  28.281  30.271  1.00  0.00     0.007 C 
ENDBRANCH   7   9
BRANCH   7  11
ATOM     11  N   UNL A   1      39.304  28.638  32.020  1.00  0.00    -0.337 N 
ATOM     12  C   UNL A   1      38.172  29.173  32.579  1.00  0.00     0.279 C 
ATOM     13  H   UNL A   1      39.158  27.719  31.698  1.00  0.00     0.164 HD
ATOM     14  O   UNL A   1      37.365  28.321  32.990  1.00  0.00    -0.268 OA
BRANCH  12  15
ATOM     15  C   UNL A   1      37.779  30.699  32.705  1.00  0.00     0.278 C 
ATOM     16  C   UNL A   1      36.488  31.055  31.969  1.00  0.00     0.131 C 
ATOM     17  N   UNL A   1      37.683  31.000  34.181  1.00  0.00    -0.331 N 
ATOM     18  C   UNL A   1      35.723  32.155  32.568  1.00  0.00     0.050 A 
ATOM     19  C   UNL A   1      37.250  32.374  34.535  1.00  0.00     0.320 C 
ATOM     20  H   UNL A   1      38.604  30.845  34.593  1.00  0.00     0.347 HD
ATOM     21  H   UNL A   1      36.959  30.380  34.543  1.00  0.00     0.347 HD
ATOM     22  N   UNL A   1      34.478  32.579  32.222  1.00  0.00    -0.348 N 
ATOM     23  C   UNL A   1      36.015  32.721  33.776  1.00  0.00     0.116 A 
ATOM     24  C   UNL A   1      34.054  33.388  33.242  1.00  0.00     0.197 A 
ATOM     25  H   UNL A   1      33.980  32.348  31.404  1.00  0.00     0.167 HD
ATOM     26  N   UNL A   1      34.966  33.503  34.190  1.00  0.00    -0.236 NA
ENDBRANCH  12  15
ENDBRANCH   7  11
ENDBRANCH   4   7
ENDBRANCH   2   3
ENDBRANCH   1   2
BRANCH   1  27
ATOM     27  C   UNL A   1      41.073  25.358  36.277  1.00  0.00     0.023 C 
BRANCH  27  28
ATOM     28  C   UNL A   1      41.736  24.128  35.700  1.00  0.00     0.116 C 
BRANCH  28  29
ATOM     29  N   UNL A   1      43.073  23.875  36.254  1.00  0.00    -0.352 N 
ATOM     30  C   UNL A   1      44.280  23.703  35.579  1.00  0.00     0.251 C 
ATOM     31  H   UNL A   1      43.124  23.820  37.236  1.00  0.00     0.163 HD
ATOM     32  O   UNL A   1      45.218  23.115  36.088  1.00  0.00    -0.269 OA
BRANCH  30  33
ATOM     33  C   UNL A   1      44.421  24.295  34.238  1.00  0.00     0.039 A 
ATOM     34  C   UNL A   1      44.608  25.660  33.978  1.00  0.00     0.014 A 
ATOM     35  C   UNL A   1      44.404  23.398  33.197  1.00  0.00     0.014 A 
ATOM     36  C   UNL A   1      44.716  26.069  32.645  1.00  0.00     0.010 A 
ATOM     37  C   UNL A   1      45.058  23.775  32.078  1.00  0.00     0.010 A 
ATOM     38  C   UNL A   1      44.875  25.078  31.683  1.00  0.00    -0.014 A 
BRANCH  38  39
ATOM     39  C   UNL A   1      44.858  25.257  30.242  1.00  0.00     0.031 A 
ATOM     40  C   UNL A   1      46.019  26.003  29.708  1.00  0.00     0.074 A 
ATOM     41  C   UNL A   1      44.077  24.459  29.470  1.00  0.00     0.049 A 
ATOM     42  N   UNL A   1      46.034  27.183  29.187  1.00  0.00    -0.248 NA
ATOM     43  C   UNL A   1      47.361  25.438  29.942  1.00  0.00     0.031 C 
ATOM     44  C   UNL A   1      43.184  23.359  29.879  1.00  0.00     0.029 A 
ATOM     45  N   UNL A   1      44.022  24.372  28.117  1.00  0.00    -0.354 N 
ATOM     46  C   UNL A   1      47.364  27.428  28.860  1.00  0.00     0.074 A 
ATOM     47  C   UNL A   1      48.139  26.456  29.580  1.00  0.00     0.031 C 
ATOM     48  C   UNL A   1      42.875  22.592  28.805  1.00  0.00     0.029 A 
ATOM     49  C   UNL A   1      43.415  23.225  27.616  1.00  0.00     0.049 A 
ATOM     50  H   UNL A   1      44.389  25.072  27.530  1.00  0.00     0.167 HD
ATOM     51  C   UNL A   1      47.713  28.213  27.803  1.00  0.00     0.031 A 
ATOM     52  C   UNL A   1      43.411  22.818  26.320  1.00  0.00     0.031 A 
ATOM     53  C   UNL A   1      46.566  28.909  27.278  1.00  0.00     0.049 A 
ATOM     54  C   UNL A   1      43.814  23.990  25.500  1.00  0.00     0.074 A 
ATOM     55  C   UNL A   1      45.685  29.844  27.782  1.00  0.00     0.029 A 
ATOM     56  N   UNL A   1      45.939  28.331  26.197  1.00  0.00    -0.354 N 
ATOM     57  N   UNL A   1      43.096  25.074  25.399  1.00  0.00    -0.248 NA
ATOM     58  C   UNL A   1      45.231  24.152  25.206  1.00  0.00     0.031 C 
ATOM     59  C   UNL A   1      44.410  29.442  27.286  1.00  0.00     0.029 A 
ATOM     60  C   UNL A   1      44.590  28.344  26.440  1.00  0.00     0.049 A 
ATOM     61  H   UNL A   1      46.381  27.972  25.395  1.00  0.00     0.167 HD
ATOM     62  C   UNL A   1      44.012  26.117  25.455  1.00  0.00     0.074 A 
ATOM     63  C   UNL A   1      45.317  25.486  25.245  1.00  0.00     0.031 C 
ATOM     64  C   UNL A   1      43.664  27.336  25.967  1.00  0.00     0.031 A 
BRANCH  51  65
ATOM     65  C   UNL A   1      48.971  28.034  26.985  1.00  0.00    -0.014 A 
ATOM     66  C   UNL A   1      49.811  29.148  26.810  1.00  0.00     0.009 A 
ATOM     67  C   UNL A   1      49.247  26.911  26.182  1.00  0.00     0.009 A 
ATOM     68  C   UNL A   1      50.810  29.165  25.828  1.00  0.00     0.001 A 
ATOM     69  C   UNL A   1      50.269  26.908  25.229  1.00  0.00     0.001 A 
ATOM     70  C   UNL A   1      51.031  28.047  25.032  1.00  0.00     0.000 A 
ENDBRANCH  51  65
BRANCH  52  71
ATOM     71  C   UNL A   1      43.400  21.441  25.769  1.00  0.00    -0.014 A 
ATOM     72  C   UNL A   1      44.550  20.881  25.187  1.00  0.00     0.009 A 
ATOM     73  C   UNL A   1      42.331  20.573  26.061  1.00  0.00     0.009 A 
ATOM     74  C   UNL A   1      44.637  19.500  24.941  1.00  0.00     0.001 A 
ATOM     75  C   UNL A   1      42.419  19.196  25.818  1.00  0.00     0.001 A 
ATOM     76  C   UNL A   1      43.578  18.658  25.270  1.00  0.00     0.000 A 
ENDBRANCH  52  71
BRANCH  64  77
ATOM     77  C   UNL A   1      42.208  27.574  26.301  1.00  0.00    -0.014 A 
ATOM     78  C   UNL A   1      41.464  26.728  27.144  1.00  0.00     0.009 A 
ATOM     79  C   UNL A   1      41.640  28.796  25.920  1.00  0.00     0.009 A 
ATOM     80  C   UNL A   1      40.185  27.096  27.583  1.00  0.00     0.001 A 
ATOM     81  C   UNL A   1      40.373  29.171  26.373  1.00  0.00     0.001 A 
ATOM     82  C   UNL A   1      39.646  28.321  27.204  1.00  0.00     0.000 A 
ENDBRANCH  64  77
ENDBRANCH  38  39
ENDBRANCH  30  33
ENDBRANCH  28  29
ENDBRANCH  27  28
ENDBRANCH   1  27
TORSDOF 14
ENDMDL
MODEL 2
REMARK VINA RESULT:     -10.6      5.065      9.258
REMARK SMILES CC[C@@](C)(NC(=O)[C@H]1Cc2[nH]cnc2C[NH2+]1)C(=O)NCCCCNC(=O)c1ccc(-c2c3nc(c(-c4ccccc4)c4ccc([nH]4)c(-c4ccccc4)c4nc(c(-c5ccccc5)c5ccc2[nH]5)C=C4)C=C3)cc1
REMARK SMILES IDX 21 1 20 2 19 3 17 4 18 5 3 7 4 8 2 9 1 10 5 11 6 12 7 14
REMARK SMILES IDX 8 15 9 16 16 17 10 18 15 19 11 22 14 23 12 24 13 26 22 27
REMARK SMILES IDX 23 28 24 29 25 30 26 32 27 33 28 34 74 35 29 36 73 37 30 38
REMARK SMILES IDX 31 39 32 40 67 41 33 42 72 43 66 44 68 45 34 46 71 47 65 48
REMARK SMILES IDX 64 49 35 51 57 52 42 53 56 54 43 55 46 56 55 57 69 58 44 59
REMARK SMILES IDX 45 60 54 62 70 63 47 64 36 65 37 66 41 67 38 68 40 69 39 70
REMARK SMILES IDX 58 71 59 72 63 73 60 74 62 75 61 76 48 77 49 78 53 79 50 80
REMARK SMILES IDX 52 81 51 82
REMARK H PARENT 19 6 5 13 16 20 16 21 11 25 24 31 68 50 46 61
REMARK Flexibility Score: inf
ROOT
ATOM      1  C   UNL A   1      36.401  21.116  25.396  1.00  0.00     0.023 C 
ENDROOT
BRANCH   1   2
ATOM      2  C   UNL A   1      35.226  21.343  24.427  1.00  0.00     0.116 C 
BRANCH   2   3
ATOM      3  N   UNL A   1      33.882  20.852  24.721  1.00  0.00    -0.354 N 
ATOM      4  C   UNL A   1      32.687  21.431  25.078  1.00  0.00     0.245 C 
ATOM      5  O   UNL A   1      31.697  20.695  24.979  1.00  0.00    -0.272 OA
ATOM      6  H   UNL A   1      33.816  19.873  24.644  1.00  0.00     0.163 HD
BRANCH   4   7
ATOM      7  C   UNL A   1      32.548  22.922  25.533  1.00  0.00     0.116 C 
ATOM      8  C   UNL A   1      31.013  23.129  25.628  1.00  0.00     0.045 C 
BRANCH   7   9
ATOM      9  C   UNL A   1      33.140  23.287  26.930  1.00  0.00     0.035 C 
ATOM     10  C   UNL A   1      33.617  22.167  27.846  1.00  0.00     0.007 C 
ENDBRANCH   7   9
BRANCH   7  11
ATOM     11  N   UNL A   1      33.124  23.912  24.571  1.00  0.00    -0.337 N 
ATOM     12  C   UNL A   1      32.886  25.222  24.244  1.00  0.00     0.279 C 
ATOM     13  H   UNL A   1      33.859  23.527  24.040  1.00  0.00     0.164 HD
ATOM     14  O   UNL A   1      33.269  25.530  23.102  1.00  0.00    -0.268 OA
BRANCH  12  15
ATOM     15  C   UNL A   1      32.245  26.348  25.150  1.00  0.00     0.278 C 
ATOM     16  C   UNL A   1      33.172  26.831  26.263  1.00  0.00     0.131 C 
ATOM     17  N   UNL A   1      31.850  27.474  24.223  1.00  0.00    -0.331 N 
ATOM     18  C   UNL A   1      32.984  28.232  26.656  1.00  0.00     0.050 A 
ATOM     19  C   UNL A   1      31.287  28.681  24.876  1.00  0.00     0.320 C 
ATOM     20  H   UNL A   1      31.151  27.113  23.574  1.00  0.00     0.347 HD
ATOM     21  H   UNL A   1      32.714  27.779  23.775  1.00  0.00     0.347 HD
ATOM     22  N   UNL A   1      33.759  28.965  27.500  1.00  0.00    -0.348 N 
ATOM     23  C   UNL A   1      32.181  29.112  25.989  1.00  0.00     0.116 A 
ATOM     24  C   UNL A   1      33.400  30.272  27.310  1.00  0.00     0.197 A 
ATOM     25  H   UNL A   1      34.442  28.623  28.123  1.00  0.00     0.167 HD
ATOM     26  N   UNL A   1      32.440  30.392  26.410  1.00  0.00    -0.236 NA
ENDBRANCH  12  15
ENDBRANCH   7  11
ENDBRANCH   4   7
ENDBRANCH   2   3
ENDBRANCH   1   2
BRANCH   1  27
ATOM     27  C   UNL A   1      37.356  19.924  25.241  1.00  0.00     0.023 C 
BRANCH  27  28
ATOM     28  C   UNL A   1      38.822  20.244  25.061  1.00  0.00     0.116 C 
BRANCH  28  29
ATOM     29  N   UNL A   1      39.713  19.233  25.647  1.00  0.00    -0.352 N 
ATOM     30  C   UNL A   1      41.038  19.369  26.057  1.00  0.00     0.251 C 
ATOM     31  H   UNL A   1      39.321  18.337  25.766  1.00  0.00     0.163 HD
ATOM     32  O   UNL A   1      41.782  18.408  26.144  1.00  0.00    -0.269 OA
BRANCH  30  33
ATOM     33  C   UNL A   1      41.518  20.708  26.437  1.00  0.00     0.039 A 
ATOM     34  C   UNL A   1      42.334  21.526  25.644  1.00  0.00     0.014 A 
ATOM     35  C   UNL A   1      41.073  21.166  27.655  1.00  0.00     0.014 A 
ATOM     36  C   UNL A   1      42.715  22.772  26.151  1.00  0.00     0.010 A 
ATOM     37  C   UNL A   1      41.004  22.506  27.797  1.00  0.00     0.010 A 
ATOM     38  C   UNL A   1      42.067  23.220  27.298  1.00  0.00    -0.014 A 
BRANCH  38  39
ATOM     39  C   UNL A   1      42.399  24.399  28.077  1.00  0.00     0.031 A 
ATOM     40  C   UNL A   1      41.418  25.502  27.959  1.00  0.00     0.074 A 
ATOM     41  C   UNL A   1      43.282  24.306  29.103  1.00  0.00     0.049 A 
ATOM     42  N   UNL A   1      41.578  26.649  27.389  1.00  0.00    -0.248 NA
ATOM     43  C   UNL A   1      40.030  25.229  28.371  1.00  0.00     0.031 C 
ATOM     44  C   UNL A   1      44.007  23.121  29.599  1.00  0.00     0.029 A 
ATOM     45  N   UNL A   1      43.617  25.243  30.027  1.00  0.00    -0.354 N 
ATOM     46  C   UNL A   1      40.362  27.309  27.538  1.00  0.00     0.074 A 
ATOM     47  C   UNL A   1      39.402  26.304  27.898  1.00  0.00     0.031 C 
ATOM     48  C   UNL A   1      44.495  23.365  30.839  1.00  0.00     0.029 A 
ATOM     49  C   UNL A   1      44.255  24.758  31.165  1.00  0.00     0.049 A 
ATOM     50  H   UNL A   1      43.421  26.199  29.901  1.00  0.00     0.167 HD
ATOM     51  C   UNL A   1      40.288  28.665  27.645  1.00  0.00     0.031 A 
ATOM     52  C   UNL A   1      44.511  25.457  32.301  1.00  0.00     0.031 A 
ATOM     53  C   UNL A   1      41.556  29.276  27.336  1.00  0.00     0.049 A 
ATOM     54  C   UNL A   1      44.355  26.896  31.965  1.00  0.00     0.074 A 
ATOM     55  C   UNL A   1      42.359  29.330  26.215  1.00  0.00     0.029 A 
ATOM     56  N   UNL A   1      42.366  29.583  28.406  1.00  0.00    -0.354 N 
ATOM     57  N   UNL A   1      45.134  27.526  31.131  1.00  0.00    -0.248 NA
ATOM     58  C   UNL A   1      43.043  27.496  32.165  1.00  0.00     0.031 C 
ATOM     59  C   UNL A   1      43.687  29.189  26.716  1.00  0.00     0.029 A 
ATOM     60  C   UNL A   1      43.631  29.147  28.112  1.00  0.00     0.049 A 
ATOM     61  H   UNL A   1      42.085  30.034  29.235  1.00  0.00     0.167 HD
ATOM     62  C   UNL A   1      44.284  28.334  30.386  1.00  0.00     0.074 A 
ATOM     63  C   UNL A   1      43.022  28.340  31.128  1.00  0.00     0.031 C 
ATOM     64  C   UNL A   1      44.581  28.668  29.095  1.00  0.00     0.031 A 
BRANCH  51  65
ATOM     65  C   UNL A   1      39.224  29.403  28.424  1.00  0.00    -0.014 A 
ATOM     66  C   UNL A   1      38.040  29.759  27.754  1.00  0.00     0.009 A 
ATOM     67  C   UNL A   1      39.421  29.979  29.693  1.00  0.00     0.009 A 
ATOM     68  C   UNL A   1      37.152  30.701  28.288  1.00  0.00     0.001 A 
ATOM     69  C   UNL A   1      38.517  30.888  30.249  1.00  0.00     0.001 A 
ATOM     70  C   UNL A   1      37.397  31.272  29.531  1.00  0.00     0.000 A 
ENDBRANCH  51  65
BRANCH  52  71
ATOM     71  C   UNL A   1      44.565  24.979  33.704  1.00  0.00    -0.014 A 
ATOM     72  C   UNL A   1      43.407  24.544  34.370  1.00  0.00     0.009 A 
ATOM     73  C   UNL A   1      45.805  24.692  34.305  1.00  0.00     0.009 A 
ATOM     74  C   UNL A   1      43.491  23.820  35.571  1.00  0.00     0.001 A 
ATOM     75  C   UNL A   1      45.890  23.968  35.501  1.00  0.00     0.001 A 
ATOM     76  C   UNL A   1      44.732  23.520  36.127  1.00  0.00     0.000 A 
ENDBRANCH  52  71
BRANCH  64  77
ATOM     77  C   UNL A   1      45.944  28.287  28.560  1.00  0.00    -0.014 A 
ATOM     78  C   UNL A   1      47.083  29.102  28.703  1.00  0.00     0.009 A 
ATOM     79  C   UNL A   1      46.118  26.982  28.083  1.00  0.00     0.009 A 
ATOM     80  C   UNL A   1      48.356  28.621  28.370  1.00  0.00     0.001 A 
ATOM     81  C   UNL A   1      47.391  26.497  27.770  1.00  0.00     0.001 A 
ATOM     82  C   UNL A   1      48.508  27.315  27.913  1.00  0.00     0.000 A 
ENDBRANCH  64  77
ENDBRANCH  38  39
ENDBRANCH  30  33
ENDBRANCH  28  29
ENDBRANCH  27  28
ENDBRANCH   1  27
TORSDOF 14
ENDMDL
MODEL 3
REMARK VINA RESULT:     -10.5      6.309     12.405
REMARK SMILES CC[C@@](C)(NC(=O)[C@H]1Cc2[nH]cnc2C[NH2+]1)C(=O)NCCCCNC(=O)c1ccc(-c2c3nc(c(-c4ccccc4)c4ccc([nH]4)c(-c4ccccc4)c4nc(c(-c5ccccc5)c5ccc2[nH]5)C=C4)C=C3)cc1
REMARK SMILES IDX 21 1 20 2 19 3 17 4 18 5 3 7 4 8 2 9 1 10 5 11 6 12 7 14
REMARK SMILES IDX 8 15 9 16 16 17 10 18 15 19 11 22 14 23 12 24 13 26 22 27
REMARK SMILES IDX 23 28 24 29 25 30 26 32 27 33 28 34 74 35 29 36 73 37 30 38
REMARK SMILES IDX 31 39 32 40 67 41 33 42 72 43 66 44 68 45 34 46 71 47 65 48
REMARK SMILES IDX 64 49 35 51 57 52 42 53 56 54 43 55 46 56 55 57 69 58 44 59
REMARK SMILES IDX 45 60 54 62 70 63 47 64 36 65 37 66 41 67 38 68 40 69 39 70
REMARK SMILES IDX 58 71 59 72 63 73 60 74 62 75 61 76 48 77 49 78 53 79 50 80
REMARK SMILES IDX 52 81 51 82
REMARK H PARENT 19 6 5 13 16 20 16 21 11 25 24 31 68 50 46 61
REMARK Flexibility Score: inf
ROOT
ATOM      1  C   UNL A   1      31.420  30.101  25.810  1.00  0.00     0.023 C 
ENDROOT
BRANCH   1   2
ATOM      2  C   UNL A   1      31.318  29.565  24.370  1.00  0.00     0.116 C 
BRANCH   2   3
ATOM      3  N   UNL A   1      32.507  29.318  23.556  1.00  0.00    -0.354 N 
ATOM      4  C   UNL A   1      33.095  28.208  23.000  1.00  0.00     0.245 C 
ATOM      5  O   UNL A   1      33.960  28.444  22.147  1.00  0.00    -0.272 OA
ATOM      6  H   UNL A   1      33.004  30.145  23.360  1.00  0.00     0.163 HD
BRANCH   4   7
ATOM      7  C   UNL A   1      32.689  26.740  23.359  1.00  0.00     0.116 C 
ATOM      8  C   UNL A   1      32.752  26.717  24.910  1.00  0.00     0.045 C 
BRANCH   7   9
ATOM      9  C   UNL A   1      31.248  26.292  22.960  1.00  0.00     0.035 C 
ATOM     10  C   UNL A   1      30.206  26.097  24.052  1.00  0.00     0.007 C 
ENDBRANCH   7   9
BRANCH   7  11
ATOM     11  N   UNL A   1      33.610  25.698  22.810  1.00  0.00    -0.337 N 
ATOM     12  C   UNL A   1      33.834  24.363  23.033  1.00  0.00     0.279 C 
ATOM     13  H   UNL A   1      34.205  26.060  22.114  1.00  0.00     0.164 HD
ATOM     14  O   UNL A   1      34.971  23.984  22.702  1.00  0.00    -0.268 OA
BRANCH  12  15
ATOM     15  C   UNL A   1      32.821  23.289  23.597  1.00  0.00     0.278 C 
ATOM     16  C   UNL A   1      32.549  22.143  22.625  1.00  0.00     0.131 C 
ATOM     17  N   UNL A   1      33.400  22.793  24.901  1.00  0.00    -0.331 N 
ATOM     18  C   UNL A   1      32.238  20.858  23.262  1.00  0.00     0.050 A 
ATOM     19  C   UNL A   1      32.640  21.713  25.577  1.00  0.00     0.320 C 
ATOM     20  H   UNL A   1      33.456  23.585  25.541  1.00  0.00     0.347 HD
ATOM     21  H   UNL A   1      34.306  22.387  24.664  1.00  0.00     0.347 HD
ATOM     22  N   UNL A   1      32.106  19.647  22.657  1.00  0.00    -0.348 N 
ATOM     23  C   UNL A   1      32.345  20.623  24.603  1.00  0.00     0.116 A 
ATOM     24  C   UNL A   1      32.142  18.714  23.659  1.00  0.00     0.197 A 
ATOM     25  H   UNL A   1      32.005  19.476  21.692  1.00  0.00     0.167 HD
ATOM     26  N   UNL A   1      32.274  19.275  24.847  1.00  0.00    -0.236 NA
ENDBRANCH  12  15
ENDBRANCH   7  11
ENDBRANCH   4   7
ENDBRANCH   2   3
ENDBRANCH   1   2
BRANCH   1  27
ATOM     27  C   UNL A   1      31.325  31.602  26.120  1.00  0.00     0.023 C 
BRANCH  27  28
ATOM     28  C   UNL A   1      32.143  32.111  27.284  1.00  0.00     0.116 C 
BRANCH  28  29
ATOM     29  N   UNL A   1      32.203  33.578  27.356  1.00  0.00    -0.352 N 
ATOM     30  C   UNL A   1      32.932  34.379  28.231  1.00  0.00     0.251 C 
ATOM     31  H   UNL A   1      31.653  34.059  26.696  1.00  0.00     0.163 HD
ATOM     32  O   UNL A   1      32.608  35.531  28.463  1.00  0.00    -0.269 OA
BRANCH  30  33
ATOM     33  C   UNL A   1      34.149  33.820  28.843  1.00  0.00     0.039 A 
ATOM     34  C   UNL A   1      34.297  33.510  30.201  1.00  0.00     0.014 A 
ATOM     35  C   UNL A   1      35.178  33.561  27.968  1.00  0.00     0.014 A 
ATOM     36  C   UNL A   1      35.523  32.993  30.632  1.00  0.00     0.010 A 
ATOM     37  C   UNL A   1      36.039  32.589  28.335  1.00  0.00     0.010 A 
ATOM     38  C   UNL A   1      36.427  32.593  29.654  1.00  0.00    -0.014 A 
BRANCH  38  39
ATOM     39  C   UNL A   1      37.801  32.172  29.861  1.00  0.00     0.031 A 
ATOM     40  C   UNL A   1      38.069  30.766  29.486  1.00  0.00     0.074 A 
ATOM     41  C   UNL A   1      38.782  33.101  29.985  1.00  0.00     0.049 A 
ATOM     42  N   UNL A   1      38.347  29.775  30.264  1.00  0.00    -0.248 NA
ATOM     43  C   UNL A   1      37.825  30.374  28.086  1.00  0.00     0.031 C 
ATOM     44  C   UNL A   1      38.680  34.572  29.934  1.00  0.00     0.029 A 
ATOM     45  N   UNL A   1      40.126  32.918  30.045  1.00  0.00    -0.354 N 
ATOM     46  C   UNL A   1      38.494  28.674  29.426  1.00  0.00     0.074 A 
ATOM     47  C   UNL A   1      37.908  29.047  28.169  1.00  0.00     0.031 C 
ATOM     48  C   UNL A   1      39.907  35.113  29.735  1.00  0.00     0.029 A 
ATOM     49  C   UNL A   1      40.895  34.051  29.797  1.00  0.00     0.049 A 
ATOM     50  H   UNL A   1      40.529  32.044  30.250  1.00  0.00     0.167 HD
ATOM     51  C   UNL A   1      39.342  27.651  29.724  1.00  0.00     0.031 A 
ATOM     52  C   UNL A   1      42.240  34.085  29.609  1.00  0.00     0.031 A 
ATOM     53  C   UNL A   1      39.826  27.760  31.077  1.00  0.00     0.049 A 
ATOM     54  C   UNL A   1      42.775  32.790  30.103  1.00  0.00     0.074 A 
ATOM     55  C   UNL A   1      39.235  27.738  32.323  1.00  0.00     0.029 A 
ATOM     56  N   UNL A   1      41.052  28.364  31.242  1.00  0.00    -0.354 N 
ATOM     57  N   UNL A   1      42.730  32.426  31.354  1.00  0.00    -0.248 NA
ATOM     58  C   UNL A   1      42.898  31.701  29.143  1.00  0.00     0.031 C 
ATOM     59  C   UNL A   1      39.917  28.749  33.064  1.00  0.00     0.029 A 
ATOM     60  C   UNL A   1      40.939  29.268  32.265  1.00  0.00     0.049 A 
ATOM     61  H   UNL A   1      41.865  28.180  30.717  1.00  0.00     0.167 HD
ATOM     62  C   UNL A   1      42.387  31.080  31.325  1.00  0.00     0.074 A 
ATOM     63  C   UNL A   1      42.593  30.668  29.935  1.00  0.00     0.031 C 
ATOM     64  C   UNL A   1      41.684  30.508  32.347  1.00  0.00     0.031 A 
BRANCH  51  65
ATOM     65  C   UNL A   1      40.057  26.807  28.695  1.00  0.00    -0.014 A 
ATOM     66  C   UNL A   1      40.874  27.460  27.755  1.00  0.00     0.009 A 
ATOM     67  C   UNL A   1      39.782  25.449  28.446  1.00  0.00     0.009 A 
ATOM     68  C   UNL A   1      41.315  26.814  26.593  1.00  0.00     0.001 A 
ATOM     69  C   UNL A   1      40.254  24.788  27.309  1.00  0.00     0.001 A 
ATOM     70  C   UNL A   1      40.995  25.481  26.367  1.00  0.00     0.000 A 
ENDBRANCH  51  65
BRANCH  52  71
ATOM     71  C   UNL A   1      43.046  34.995  28.760  1.00  0.00    -0.014 A 
ATOM     72  C   UNL A   1      42.612  35.371  27.478  1.00  0.00     0.009 A 
ATOM     73  C   UNL A   1      44.118  35.717  29.320  1.00  0.00     0.009 A 
ATOM     74  C   UNL A   1      43.205  36.448  26.799  1.00  0.00     0.001 A 
ATOM     75  C   UNL A   1      44.708  36.793  28.644  1.00  0.00     0.001 A 
ATOM     76  C   UNL A   1      44.242  37.167  27.389  1.00  0.00     0.000 A 
ENDBRANCH  52  71
BRANCH  64  77
ATOM     77  C   UNL A   1      41.447  31.334  33.593  1.00  0.00    -0.014 A 
ATOM     78  C   UNL A   1      42.345  31.370  34.675  1.00  0.00     0.009 A 
ATOM     79  C   UNL A   1      40.391  32.255  33.577  1.00  0.00     0.009 A 
ATOM     80  C   UNL A   1      42.183  32.297  35.713  1.00  0.00     0.001 A 
ATOM     81  C   UNL A   1      40.242  33.193  34.602  1.00  0.00     0.001 A 
ATOM     82  C   UNL A   1      41.136  33.214  35.669  1.00  0.00     0.000 A 
ENDBRANCH  64  77
ENDBRANCH  38  39
ENDBRANCH  30  33
ENDBRANCH  28  29
ENDBRANCH  27  28
ENDBRANCH   1  27
TORSDOF 14
ENDMDL
