MODEL 1
REMARK VINA RESULT:     -11.6      0.000      0.000
REMARK SMILES Cc1ccc(Cl)c(Nc2ccccc2C(=O)N[C@@H](C)C(=O)NCCCCNC(=O)c2ccc(-c3c4nc(c(-c5ccccc5)c5ccc([nH]5)c(-c5ccccc5)c5nc(c(-c6ccccc6)c6ccc3[nH]6)C=C5)C=C4)cc2)c1Cl
REMARK SMILES IDX 23 1 22 2 20 3 21 4 18 6 19 7 17 8 15 9 16 10 14 12 9 13
REMARK SMILES IDX 10 14 11 15 13 16 12 17 8 18 7 20 1 21 2 22 3 23 78 24 4 25
REMARK SMILES IDX 79 26 5 27 6 28 24 29 25 30 26 31 27 32 28 33 29 35 30 36
REMARK SMILES IDX 31 37 77 38 32 39 76 40 33 41 34 42 35 43 70 44 36 45 75 46
REMARK SMILES IDX 69 47 71 48 37 49 74 50 68 51 67 52 38 54 60 55 45 56 59 57
REMARK SMILES IDX 46 58 49 59 58 60 72 61 47 62 48 63 57 65 73 66 50 67 39 68
REMARK SMILES IDX 40 69 44 70 41 71 43 72 42 73 61 74 62 75 66 76 63 77 65 78
REMARK SMILES IDX 64 79 51 80 52 81 56 82 53 83 55 84 54 85
REMARK H PARENT 22 5 17 11 8 19 27 34 71 53 49 64
REMARK Flexibility Score: inf
ROOT
ATOM      1  C   UNL A   1      32.998  29.769  26.336  1.00  0.00     0.116 C 
ENDROOT
BRANCH   1   2
ATOM      2  N   UNL A   1      33.089  28.859  27.460  1.00  0.00    -0.354 N 
ATOM      3  C   UNL A   1      32.107  27.918  27.570  1.00  0.00     0.242 C 
ATOM      4  O   UNL A   1      31.082  28.257  28.158  1.00  0.00    -0.273 OA
ATOM      5  H   UNL A   1      33.824  28.918  28.113  1.00  0.00     0.163 HD
BRANCH   3   6
ATOM      6  C   UNL A   1      32.296  26.528  26.919  1.00  0.00     0.168 C 
ATOM      7  C   UNL A   1      33.253  26.466  25.738  1.00  0.00     0.041 C 
BRANCH   6   8
ATOM      8  N   UNL A   1      30.947  26.119  26.572  1.00  0.00    -0.340 N 
ATOM      9  C   UNL A   1      30.494  24.829  26.397  1.00  0.00     0.254 C 
ATOM     10  O   UNL A   1      29.377  24.584  26.862  1.00  0.00    -0.269 OA
ATOM     11  H   UNL A   1      30.286  26.839  26.451  1.00  0.00     0.164 HD
BRANCH   9  12
ATOM     12  C   UNL A   1      31.112  23.848  25.446  1.00  0.00     0.063 A 
ATOM     13  C   UNL A   1      31.087  23.776  24.037  1.00  0.00     0.051 A 
ATOM     14  C   UNL A   1      31.670  22.640  23.419  1.00  0.00     0.027 A 
ATOM     15  C   UNL A   1      32.327  21.646  24.143  1.00  0.00     0.002 A 
ATOM     16  C   UNL A   1      31.808  22.834  26.156  1.00  0.00     0.016 A 
ATOM     17  C   UNL A   1      32.419  21.757  25.518  1.00  0.00     0.001 A 
BRANCH  13  18
ATOM     18  N   UNL A   1      30.650  24.751  23.118  1.00  0.00    -0.352 N 
ATOM     19  H   UNL A   1      29.960  24.414  22.503  1.00  0.00     0.167 HD
BRANCH  18  20
ATOM     20  C   UNL A   1      30.982  26.113  22.885  1.00  0.00     0.077 A 
ATOM     21  C   UNL A   1      33.950  28.453  22.237  1.00  0.00     0.046 C 
ATOM     22  C   UNL A   1      32.545  27.966  22.480  1.00  0.00    -0.030 A 
ATOM     23  C   UNL A   1      31.570  28.891  22.884  1.00  0.00     0.006 A 
ATOM     24  C   UNL A   1      32.228  26.585  22.422  1.00  0.00     0.069 A 
ATOM     25  C   UNL A   1      30.303  28.457  23.249  1.00  0.00     0.023 A 
ATOM     26  Cl  UNL A   1      33.389  25.515  21.699  1.00  0.00    -0.082 Cl
ATOM     27  C   UNL A   1      30.023  27.090  23.265  1.00  0.00     0.066 A 
ATOM     28  Cl  UNL A   1      28.453  26.613  23.839  1.00  0.00    -0.082 Cl
ENDBRANCH  18  20
ENDBRANCH  13  18
ENDBRANCH   9  12
ENDBRANCH   6   8
ENDBRANCH   3   6
ENDBRANCH   1   2
BRANCH   1  29
ATOM     29  C   UNL A   1      31.598  30.380  26.167  1.00  0.00     0.023 C 
BRANCH  29  30
ATOM     30  C   UNL A   1      31.479  31.861  26.535  1.00  0.00     0.023 C 
BRANCH  30  31
ATOM     31  C   UNL A   1      32.740  32.471  27.135  1.00  0.00     0.116 C 
BRANCH  31  32
ATOM     32  N   UNL A   1      32.507  33.794  27.694  1.00  0.00    -0.352 N 
ATOM     33  C   UNL A   1      33.214  34.490  28.637  1.00  0.00     0.251 C 
ATOM     34  H   UNL A   1      31.716  34.262  27.338  1.00  0.00     0.163 HD
ATOM     35  O   UNL A   1      32.787  35.543  29.080  1.00  0.00    -0.269 OA
BRANCH  33  36
ATOM     36  C   UNL A   1      34.486  33.935  29.130  1.00  0.00     0.039 A 
ATOM     37  C   UNL A   1      34.458  33.093  30.243  1.00  0.00     0.014 A 
ATOM     38  C   UNL A   1      35.688  34.232  28.483  1.00  0.00     0.014 A 
ATOM     39  C   UNL A   1      35.639  32.501  30.680  1.00  0.00     0.010 A 
ATOM     40  C   UNL A   1      36.851  33.582  28.873  1.00  0.00     0.010 A 
ATOM     41  C   UNL A   1      36.836  32.718  29.979  1.00  0.00    -0.014 A 
BRANCH  41  42
ATOM     42  C   UNL A   1      38.096  32.060  30.393  1.00  0.00     0.031 A 
ATOM     43  C   UNL A   1      39.010  32.748  31.364  1.00  0.00     0.074 A 
ATOM     44  C   UNL A   1      38.442  30.882  29.839  1.00  0.00     0.049 A 
ATOM     45  N   UNL A   1      40.196  32.385  31.779  1.00  0.00    -0.248 NA
ATOM     46  C   UNL A   1      38.543  34.030  31.919  1.00  0.00     0.031 C 
ATOM     47  C   UNL A   1      37.645  30.135  28.863  1.00  0.00     0.029 A 
ATOM     48  N   UNL A   1      39.563  30.113  30.012  1.00  0.00    -0.354 N 
ATOM     49  C   UNL A   1      40.622  33.400  32.627  1.00  0.00     0.074 A 
ATOM     50  C   UNL A   1      39.594  34.417  32.625  1.00  0.00     0.031 C 
ATOM     51  C   UNL A   1      38.293  29.003  28.545  1.00  0.00     0.029 A 
ATOM     52  C   UNL A   1      39.568  28.969  29.253  1.00  0.00     0.049 A 
ATOM     53  H   UNL A   1      40.295  30.356  30.624  1.00  0.00     0.167 HD
ATOM     54  C   UNL A   1      41.762  33.469  33.354  1.00  0.00     0.031 A 
ATOM     55  C   UNL A   1      40.501  28.008  29.134  1.00  0.00     0.031 A 
ATOM     56  C   UNL A   1      42.774  32.450  33.355  1.00  0.00     0.049 A 
ATOM     57  C   UNL A   1      41.769  28.120  29.933  1.00  0.00     0.074 A 
ATOM     58  C   UNL A   1      43.944  32.398  34.093  1.00  0.00     0.029 A 
ATOM     59  N   UNL A   1      42.738  31.302  32.578  1.00  0.00    -0.354 N 
ATOM     60  N   UNL A   1      42.135  29.057  30.774  1.00  0.00    -0.248 NA
ATOM     61  C   UNL A   1      42.748  27.037  29.775  1.00  0.00     0.031 C 
ATOM     62  C   UNL A   1      44.643  31.246  33.720  1.00  0.00     0.029 A 
ATOM     63  C   UNL A   1      43.877  30.547  32.800  1.00  0.00     0.049 A 
ATOM     64  H   UNL A   1      42.011  31.060  31.960  1.00  0.00     0.167 HD
ATOM     65  C   UNL A   1      43.368  28.659  31.273  1.00  0.00     0.074 A 
ATOM     66  C   UNL A   1      43.683  27.391  30.646  1.00  0.00     0.031 C 
ATOM     67  C   UNL A   1      44.167  29.284  32.171  1.00  0.00     0.031 A 
BRANCH  54  68
ATOM     68  C   UNL A   1      41.971  34.696  34.197  1.00  0.00    -0.014 A 
ATOM     69  C   UNL A   1      42.604  35.839  33.681  1.00  0.00     0.009 A 
ATOM     70  C   UNL A   1      41.502  34.720  35.520  1.00  0.00     0.009 A 
ATOM     71  C   UNL A   1      42.797  36.965  34.484  1.00  0.00     0.001 A 
ATOM     72  C   UNL A   1      41.669  35.859  36.310  1.00  0.00     0.001 A 
ATOM     73  C   UNL A   1      42.325  36.976  35.795  1.00  0.00     0.000 A 
ENDBRANCH  54  68
BRANCH  55  74
ATOM     74  C   UNL A   1      40.269  26.850  28.230  1.00  0.00    -0.014 A 
ATOM     75  C   UNL A   1      40.779  26.852  26.923  1.00  0.00     0.009 A 
ATOM     76  C   UNL A   1      39.532  25.738  28.667  1.00  0.00     0.009 A 
ATOM     77  C   UNL A   1      40.531  25.780  26.063  1.00  0.00     0.001 A 
ATOM     78  C   UNL A   1      39.313  24.652  27.816  1.00  0.00     0.001 A 
ATOM     79  C   UNL A   1      39.803  24.679  26.512  1.00  0.00     0.000 A 
ENDBRANCH  55  74
BRANCH  67  80
ATOM     80  C   UNL A   1      45.434  28.582  32.571  1.00  0.00    -0.014 A 
ATOM     81  C   UNL A   1      46.645  28.813  31.900  1.00  0.00     0.009 A 
ATOM     82  C   UNL A   1      45.422  27.715  33.675  1.00  0.00     0.009 A 
ATOM     83  C   UNL A   1      47.811  28.164  32.309  1.00  0.00     0.001 A 
ATOM     84  C   UNL A   1      46.595  27.093  34.102  1.00  0.00     0.001 A 
ATOM     85  C   UNL A   1      47.788  27.310  33.413  1.00  0.00     0.000 A 
ENDBRANCH  67  80
ENDBRANCH  41  42
ENDBRANCH  33  36
ENDBRANCH  31  32
ENDBRANCH  30  31
ENDBRANCH  29  30
ENDBRANCH   1  29
TORSDOF 15
ENDMDL
MODEL 2
REMARK VINA RESULT:     -11.3      0.691      5.797
REMARK SMILES Cc1ccc(Cl)c(Nc2ccccc2C(=O)N[C@@H](C)C(=O)NCCCCNC(=O)c2ccc(-c3c4nc(c(-c5ccccc5)c5ccc([nH]5)c(-c5ccccc5)c5nc(c(-c6ccccc6)c6ccc3[nH]6)C=C5)C=C4)cc2)c1Cl
REMARK SMILES IDX 23 1 22 2 20 3 21 4 18 6 19 7 17 8 15 9 16 10 14 12 9 13
REMARK SMILES IDX 10 14 11 15 13 16 12 17 8 18 7 20 1 21 2 22 3 23 78 24 4 25
REMARK SMILES IDX 79 26 5 27 6 28 24 29 25 30 26 31 27 32 28 33 29 35 30 36
REMARK SMILES IDX 31 37 77 38 32 39 76 40 33 41 34 42 35 43 70 44 36 45 75 46
REMARK SMILES IDX 69 47 71 48 37 49 74 50 68 51 67 52 38 54 60 55 45 56 59 57
REMARK SMILES IDX 46 58 49 59 58 60 72 61 47 62 48 63 57 65 73 66 50 67 39 68
REMARK SMILES IDX 40 69 44 70 41 71 43 72 42 73 61 74 62 75 66 76 63 77 65 78
REMARK SMILES IDX 64 79 51 80 52 81 56 82 53 83 55 84 54 85
REMARK H PARENT 22 5 17 11 8 19 27 34 71 53 49 64
REMARK Flexibility Score: inf
ROOT
ATOM      1  C   UNL A   1      34.360  29.155  27.272  1.00  0.00     0.116 C 
ENDROOT
BRANCH   1   2
ATOM      2  N   UNL A   1      33.200  28.549  27.894  1.00  0.00    -0.354 N 
ATOM      3  C   UNL A   1      32.301  27.947  27.063  1.00  0.00     0.242 C 
ATOM      4  O   UNL A   1      31.437  28.669  26.571  1.00  0.00    -0.273 OA
ATOM      5  H   UNL A   1      33.067  28.571  28.870  1.00  0.00     0.163 HD
BRANCH   3   6
ATOM      6  C   UNL A   1      32.440  26.440  26.740  1.00  0.00     0.168 C 
ATOM      7  C   UNL A   1      33.386  26.083  25.605  1.00  0.00     0.041 C 
BRANCH   6   8
ATOM      8  N   UNL A   1      31.075  26.011  26.493  1.00  0.00    -0.340 N 
ATOM      9  C   UNL A   1      30.634  24.714  26.333  1.00  0.00     0.254 C 
ATOM     10  O   UNL A   1      29.560  24.442  26.879  1.00  0.00    -0.269 OA
ATOM     11  H   UNL A   1      30.394  26.719  26.433  1.00  0.00     0.164 HD
BRANCH   9  12
ATOM     12  C   UNL A   1      31.195  23.759  25.323  1.00  0.00     0.063 A 
ATOM     13  C   UNL A   1      31.105  23.733  23.915  1.00  0.00     0.051 A 
ATOM     14  C   UNL A   1      31.643  22.612  23.234  1.00  0.00     0.027 A 
ATOM     15  C   UNL A   1      32.319  21.586  23.895  1.00  0.00     0.002 A 
ATOM     16  C   UNL A   1      31.908  22.713  25.967  1.00  0.00     0.016 A 
ATOM     17  C   UNL A   1      32.475  21.651  25.267  1.00  0.00     0.001 A 
BRANCH  13  18
ATOM     18  N   UNL A   1      30.639  24.745  23.050  1.00  0.00    -0.352 N 
ATOM     19  H   UNL A   1      29.965  24.420  22.412  1.00  0.00     0.167 HD
BRANCH  18  20
ATOM     20  C   UNL A   1      30.926  26.127  22.896  1.00  0.00     0.077 A 
ATOM     21  C   UNL A   1      33.816  28.597  22.392  1.00  0.00     0.046 C 
ATOM     22  C   UNL A   1      32.427  28.051  22.603  1.00  0.00    -0.030 A 
ATOM     23  C   UNL A   1      31.422  28.919  23.057  1.00  0.00     0.006 A 
ATOM     24  C   UNL A   1      32.156  26.666  22.465  1.00  0.00     0.069 A 
ATOM     25  C   UNL A   1      30.170  28.423  23.393  1.00  0.00     0.023 A 
ATOM     26  Cl  UNL A   1      33.352  25.678  21.684  1.00  0.00    -0.082 Cl
ATOM     27  C   UNL A   1      29.935  27.048  23.329  1.00  0.00     0.066 A 
ATOM     28  Cl  UNL A   1      28.381  26.488  23.871  1.00  0.00    -0.082 Cl
ENDBRANCH  18  20
ENDBRANCH  13  18
ENDBRANCH   9  12
ENDBRANCH   6   8
ENDBRANCH   3   6
ENDBRANCH   1   2
BRANCH   1  29
ATOM     29  C   UNL A   1      34.562  30.624  27.675  1.00  0.00     0.023 C 
BRANCH  29  30
ATOM     30  C   UNL A   1      33.279  31.445  27.830  1.00  0.00     0.023 C 
BRANCH  30  31
ATOM     31  C   UNL A   1      33.265  32.756  27.056  1.00  0.00     0.116 C 
BRANCH  31  32
ATOM     32  N   UNL A   1      32.790  33.872  27.859  1.00  0.00    -0.352 N 
ATOM     33  C   UNL A   1      33.316  34.428  28.994  1.00  0.00     0.251 C 
ATOM     34  H   UNL A   1      31.960  34.293  27.536  1.00  0.00     0.163 HD
ATOM     35  O   UNL A   1      32.700  35.284  29.608  1.00  0.00    -0.269 OA
BRANCH  33  36
ATOM     36  C   UNL A   1      34.625  33.961  29.479  1.00  0.00     0.039 A 
ATOM     37  C   UNL A   1      34.663  33.146  30.612  1.00  0.00     0.014 A 
ATOM     38  C   UNL A   1      35.798  34.311  28.806  1.00  0.00     0.014 A 
ATOM     39  C   UNL A   1      35.883  32.635  31.044  1.00  0.00     0.010 A 
ATOM     40  C   UNL A   1      37.002  33.739  29.192  1.00  0.00     0.010 A 
ATOM     41  C   UNL A   1      37.054  32.903  30.318  1.00  0.00    -0.014 A 
BRANCH  41  42
ATOM     42  C   UNL A   1      38.356  32.329  30.727  1.00  0.00     0.031 A 
ATOM     43  C   UNL A   1      38.834  31.050  30.102  1.00  0.00     0.074 A 
ATOM     44  C   UNL A   1      39.066  32.923  31.704  1.00  0.00     0.049 A 
ATOM     45  N   UNL A   1      39.894  30.340  30.387  1.00  0.00    -0.248 NA
ATOM     46  C   UNL A   1      37.992  30.478  29.038  1.00  0.00     0.031 C 
ATOM     47  C   UNL A   1      38.686  34.154  32.402  1.00  0.00     0.029 A 
ATOM     48  N   UNL A   1      40.253  32.562  32.288  1.00  0.00    -0.354 N 
ATOM     49  C   UNL A   1      39.836  29.230  29.552  1.00  0.00     0.074 A 
ATOM     50  C   UNL A   1      38.612  29.334  28.790  1.00  0.00     0.031 C 
ATOM     51  C   UNL A   1      39.636  34.458  33.301  1.00  0.00     0.029 A 
ATOM     52  C   UNL A   1      40.662  33.422  33.278  1.00  0.00     0.049 A 
ATOM     53  H   UNL A   1      40.764  31.765  32.021  1.00  0.00     0.167 HD
ATOM     54  C   UNL A   1      40.733  28.225  29.421  1.00  0.00     0.031 A 
ATOM     55  C   UNL A   1      41.738  33.371  34.083  1.00  0.00     0.031 A 
ATOM     56  C   UNL A   1      41.951  28.134  30.178  1.00  0.00     0.049 A 
ATOM     57  C   UNL A   1      42.706  32.231  33.935  1.00  0.00     0.074 A 
ATOM     58  C   UNL A   1      42.952  27.182  30.089  1.00  0.00     0.029 A 
ATOM     59  N   UNL A   1      42.333  29.028  31.167  1.00  0.00    -0.354 N 
ATOM     60  N   UNL A   1      42.668  31.218  33.103  1.00  0.00    -0.248 NA
ATOM     61  C   UNL A   1      43.870  32.231  34.831  1.00  0.00     0.031 C 
ATOM     62  C   UNL A   1      43.913  27.471  31.062  1.00  0.00     0.029 A 
ATOM     63  C   UNL A   1      43.544  28.638  31.712  1.00  0.00     0.049 A 
ATOM     64  H   UNL A   1      41.820  29.823  31.440  1.00  0.00     0.167 HD
ATOM     65  C   UNL A   1      43.820  30.482  33.349  1.00  0.00     0.074 A 
ATOM     66  C   UNL A   1      44.539  31.170  34.402  1.00  0.00     0.031 C 
ATOM     67  C   UNL A   1      44.246  29.341  32.755  1.00  0.00     0.031 A 
BRANCH  54  68
ATOM     68  C   UNL A   1      40.416  27.139  28.430  1.00  0.00    -0.014 A 
ATOM     69  C   UNL A   1      40.916  27.179  27.118  1.00  0.00     0.009 A 
ATOM     70  C   UNL A   1      39.630  26.045  28.824  1.00  0.00     0.009 A 
ATOM     71  C   UNL A   1      40.602  26.165  26.211  1.00  0.00     0.001 A 
ATOM     72  C   UNL A   1      39.344  25.018  27.923  1.00  0.00     0.001 A 
ATOM     73  C   UNL A   1      39.821  25.084  26.615  1.00  0.00     0.000 A 
ENDBRANCH  54  68
BRANCH  55  74
ATOM     74  C   UNL A   1      41.964  34.437  35.094  1.00  0.00    -0.014 A 
ATOM     75  C   UNL A   1      42.702  35.584  34.768  1.00  0.00     0.009 A 
ATOM     76  C   UNL A   1      41.446  34.313  36.394  1.00  0.00     0.009 A 
ATOM     77  C   UNL A   1      42.944  36.570  35.728  1.00  0.00     0.001 A 
ATOM     78  C   UNL A   1      41.661  35.315  37.343  1.00  0.00     0.001 A 
ATOM     79  C   UNL A   1      42.418  36.437  37.012  1.00  0.00     0.000 A 
ENDBRANCH  55  74
BRANCH  67  80
ATOM     80  C   UNL A   1      45.576  28.793  33.191  1.00  0.00    -0.014 A 
ATOM     81  C   UNL A   1      45.673  27.804  34.183  1.00  0.00     0.009 A 
ATOM     82  C   UNL A   1      46.746  29.238  32.557  1.00  0.00     0.009 A 
ATOM     83  C   UNL A   1      46.921  27.298  34.551  1.00  0.00     0.001 A 
ATOM     84  C   UNL A   1      47.988  28.707  32.903  1.00  0.00     0.001 A 
ATOM     85  C   UNL A   1      48.075  27.743  33.907  1.00  0.00     0.000 A 
ENDBRANCH  67  80
ENDBRANCH  41  42
ENDBRANCH  33  36
ENDBRANCH  31  32
ENDBRANCH  30  31
ENDBRANCH  29  30
ENDBRANCH   1  29
TORSDOF 15
ENDMDL
MODEL 3
REMARK VINA RESULT:     -11.3      3.502      8.384
REMARK SMILES Cc1ccc(Cl)c(Nc2ccccc2C(=O)N[C@@H](C)C(=O)NCCCCNC(=O)c2ccc(-c3c4nc(c(-c5ccccc5)c5ccc([nH]5)c(-c5ccccc5)c5nc(c(-c6ccccc6)c6ccc3[nH]6)C=C5)C=C4)cc2)c1Cl
REMARK SMILES IDX 23 1 22 2 20 3 21 4 18 6 19 7 17 8 15 9 16 10 14 12 9 13
REMARK SMILES IDX 10 14 11 15 13 16 12 17 8 18 7 20 1 21 2 22 3 23 78 24 4 25
REMARK SMILES IDX 79 26 5 27 6 28 24 29 25 30 26 31 27 32 28 33 29 35 30 36
REMARK SMILES IDX 31 37 77 38 32 39 76 40 33 41 34 42 35 43 70 44 36 45 75 46
REMARK SMILES IDX 69 47 71 48 37 49 74 50 68 51 67 52 38 54 60 55 45 56 59 57
REMARK SMILES IDX 46 58 49 59 58 60 72 61 47 62 48 63 57 65 73 66 50 67 39 68
REMARK SMILES IDX 40 69 44 70 41 71 43 72 42 73 61 74 62 75 66 76 63 77 65 78
REMARK SMILES IDX 64 79 51 80 52 81 56 82 53 83 55 84 54 85
REMARK H PARENT 22 5 17 11 8 19 27 34 71 53 49 64
REMARK Flexibility Score: inf
ROOT
ATOM      1  C   UNL A   1      36.591  23.010  24.711  1.00  0.00     0.116 C 
ENDROOT
BRANCH   1   2
ATOM      2  N   UNL A   1      35.150  23.155  24.687  1.00  0.00    -0.354 N 
ATOM      3  C   UNL A   1      34.614  24.101  25.510  1.00  0.00     0.242 C 
ATOM      4  O   UNL A   1      34.381  23.758  26.667  1.00  0.00    -0.273 OA
ATOM      5  H   UNL A   1      34.585  22.596  24.105  1.00  0.00     0.163 HD
BRANCH   3   6
ATOM      6  C   UNL A   1      34.385  25.539  24.984  1.00  0.00     0.168 C 
ATOM      7  C   UNL A   1      33.332  26.359  25.713  1.00  0.00     0.041 C 
BRANCH   6   8
ATOM      8  N   UNL A   1      34.078  25.350  23.578  1.00  0.00    -0.340 N 
ATOM      9  C   UNL A   1      33.443  26.246  22.744  1.00  0.00     0.254 C 
ATOM     10  O   UNL A   1      33.905  26.336  21.602  1.00  0.00    -0.269 OA
ATOM     11  H   UNL A   1      34.352  24.492  23.178  1.00  0.00     0.164 HD
BRANCH   9  12
ATOM     12  C   UNL A   1      32.101  26.848  23.030  1.00  0.00     0.063 A 
ATOM     13  C   UNL A   1      30.830  26.256  23.191  1.00  0.00     0.051 A 
ATOM     14  C   UNL A   1      29.709  27.114  23.330  1.00  0.00     0.027 A 
ATOM     15  C   UNL A   1      29.830  28.501  23.393  1.00  0.00     0.002 A 
ATOM     16  C   UNL A   1      32.197  28.262  23.122  1.00  0.00     0.016 A 
ATOM     17  C   UNL A   1      31.084  29.077  23.315  1.00  0.00     0.001 A 
BRANCH  13  18
ATOM     18  N   UNL A   1      30.514  24.890  23.346  1.00  0.00    -0.352 N 
ATOM     19  H   UNL A   1      29.756  24.608  22.786  1.00  0.00     0.167 HD
BRANCH  18  20
ATOM     20  C   UNL A   1      31.047  23.833  24.130  1.00  0.00     0.077 A 
ATOM     21  C   UNL A   1      32.557  20.317  23.877  1.00  0.00     0.046 C 
ATOM     22  C   UNL A   1      32.021  21.600  24.457  1.00  0.00    -0.030 A 
ATOM     23  C   UNL A   1      31.659  21.628  25.813  1.00  0.00     0.006 A 
ATOM     24  C   UNL A   1      31.770  22.727  23.635  1.00  0.00     0.069 A 
ATOM     25  C   UNL A   1      31.035  22.748  26.347  1.00  0.00     0.023 A 
ATOM     26  Cl  UNL A   1      32.442  22.731  22.033  1.00  0.00    -0.082 Cl
ATOM     27  C   UNL A   1      30.721  23.822  25.513  1.00  0.00     0.066 A 
ATOM     28  Cl  UNL A   1      29.840  25.141  26.225  1.00  0.00    -0.082 Cl
ENDBRANCH  18  20
ENDBRANCH  13  18
ENDBRANCH   9  12
ENDBRANCH   6   8
ENDBRANCH   3   6
ENDBRANCH   1   2
BRANCH   1  29
ATOM     29  C   UNL A   1      37.091  21.820  23.875  1.00  0.00     0.023 C 
BRANCH  29  30
ATOM     30  C   UNL A   1      37.461  20.567  24.673  1.00  0.00     0.023 C 
BRANCH  30  31
ATOM     31  C   UNL A   1      38.526  20.783  25.741  1.00  0.00     0.116 C 
BRANCH  31  32
ATOM     32  N   UNL A   1      39.556  19.757  25.715  1.00  0.00    -0.352 N 
ATOM     33  C   UNL A   1      40.887  19.835  26.030  1.00  0.00     0.251 C 
ATOM     34  H   UNL A   1      39.249  18.867  25.426  1.00  0.00     0.163 HD
ATOM     35  O   UNL A   1      41.630  18.891  25.819  1.00  0.00    -0.269 OA
BRANCH  33  36
ATOM     36  C   UNL A   1      41.413  21.085  26.602  1.00  0.00     0.039 A 
ATOM     37  C   UNL A   1      41.942  22.043  25.735  1.00  0.00     0.014 A 
ATOM     38  C   UNL A   1      41.366  21.311  27.980  1.00  0.00     0.014 A 
ATOM     39  C   UNL A   1      42.378  23.261  26.249  1.00  0.00     0.010 A 
ATOM     40  C   UNL A   1      41.730  22.553  28.480  1.00  0.00     0.010 A 
ATOM     41  C   UNL A   1      42.246  23.534  27.619  1.00  0.00    -0.014 A 
BRANCH  41  42
ATOM     42  C   UNL A   1      42.655  24.840  28.183  1.00  0.00     0.031 A 
ATOM     43  C   UNL A   1      41.625  25.909  28.406  1.00  0.00     0.074 A 
ATOM     44  C   UNL A   1      43.958  25.080  28.423  1.00  0.00     0.049 A 
ATOM     45  N   UNL A   1      41.791  27.144  28.801  1.00  0.00    -0.248 NA
ATOM     46  C   UNL A   1      40.226  25.551  28.119  1.00  0.00     0.031 C 
ATOM     47  C   UNL A   1      45.050  24.127  28.218  1.00  0.00     0.029 A 
ATOM     48  N   UNL A   1      44.584  26.209  28.885  1.00  0.00    -0.354 N 
ATOM     49  C   UNL A   1      40.524  27.714  28.791  1.00  0.00     0.074 A 
ATOM     50  C   UNL A   1      39.608  26.708  28.301  1.00  0.00     0.031 C 
ATOM     51  C   UNL A   1      46.208  24.703  28.576  1.00  0.00     0.029 A 
ATOM     52  C   UNL A   1      45.947  26.078  28.987  1.00  0.00     0.049 A 
ATOM     53  H   UNL A   1      44.103  27.035  29.122  1.00  0.00     0.167 HD
ATOM     54  C   UNL A   1      40.155  28.959  29.173  1.00  0.00     0.031 A 
ATOM     55  C   UNL A   1      46.881  26.971  29.361  1.00  0.00     0.031 A 
ATOM     56  C   UNL A   1      41.072  29.951  29.665  1.00  0.00     0.049 A 
ATOM     57  C   UNL A   1      46.449  28.355  29.756  1.00  0.00     0.074 A 
ATOM     58  C   UNL A   1      40.796  31.227  30.124  1.00  0.00     0.029 A 
ATOM     59  N   UNL A   1      42.444  29.777  29.761  1.00  0.00    -0.354 N 
ATOM     60  N   UNL A   1      45.241  28.864  29.796  1.00  0.00    -0.248 NA
ATOM     61  C   UNL A   1      47.508  29.287  30.167  1.00  0.00     0.031 C 
ATOM     62  C   UNL A   1      42.008  31.844  30.446  1.00  0.00     0.029 A 
ATOM     63  C   UNL A   1      43.031  30.930  30.250  1.00  0.00     0.049 A 
ATOM     64  H   UNL A   1      42.928  28.954  29.518  1.00  0.00     0.167 HD
ATOM     65  C   UNL A   1      45.390  30.160  30.271  1.00  0.00     0.074 A 
ATOM     66  C   UNL A   1      46.805  30.356  30.514  1.00  0.00     0.031 C 
ATOM     67  C   UNL A   1      44.441  31.102  30.491  1.00  0.00     0.031 A 
BRANCH  54  68
ATOM     68  C   UNL A   1      38.699  29.316  29.057  1.00  0.00    -0.014 A 
ATOM     69  C   UNL A   1      38.163  29.822  27.862  1.00  0.00     0.009 A 
ATOM     70  C   UNL A   1      37.845  29.116  30.152  1.00  0.00     0.009 A 
ATOM     71  C   UNL A   1      36.809  30.155  27.778  1.00  0.00     0.001 A 
ATOM     72  C   UNL A   1      36.486  29.421  30.055  1.00  0.00     0.001 A 
ATOM     73  C   UNL A   1      35.972  29.950  28.873  1.00  0.00     0.000 A 
ENDBRANCH  54  68
BRANCH  55  74
ATOM     74  C   UNL A   1      48.316  26.583  29.390  1.00  0.00    -0.014 A 
ATOM     75  C   UNL A   1      49.143  26.826  28.283  1.00  0.00     0.009 A 
ATOM     76  C   UNL A   1      48.867  25.962  30.522  1.00  0.00     0.009 A 
ATOM     77  C   UNL A   1      50.482  26.430  28.296  1.00  0.00     0.001 A 
ATOM     78  C   UNL A   1      50.215  25.595  30.546  1.00  0.00     0.001 A 
ATOM     79  C   UNL A   1      51.018  25.820  29.429  1.00  0.00     0.000 A 
ENDBRANCH  55  74
BRANCH  67  80
ATOM     80  C   UNL A   1      44.894  32.413  31.070  1.00  0.00    -0.014 A 
ATOM     81  C   UNL A   1      44.988  32.610  32.456  1.00  0.00     0.009 A 
ATOM     82  C   UNL A   1      45.283  33.450  30.207  1.00  0.00     0.009 A 
ATOM     83  C   UNL A   1      45.434  33.832  32.964  1.00  0.00     0.001 A 
ATOM     84  C   UNL A   1      45.758  34.657  30.717  1.00  0.00     0.001 A 
ATOM     85  C   UNL A   1      45.825  34.851  32.095  1.00  0.00     0.000 A 
ENDBRANCH  67  80
ENDBRANCH  41  42
ENDBRANCH  33  36
ENDBRANCH  31  32
ENDBRANCH  30  31
ENDBRANCH  29  30
ENDBRANCH   1  29
TORSDOF 15
ENDMDL
