MODEL 1
REMARK VINA RESULT:     -10.9      0.000      0.000
REMARK SMILES C[C@@H](C(=O)NCCCCNC(=O)c1ccc(-c2c3nc(c(-c4ccccc4)c4ccc([nH]4)c(-c4ccccc4)c4nc(c(-c5ccccc5)c5ccc2[nH]5)C=C4)C=C3)cc1)[C@@H](C)C(=O)c1cccc(Cl)c1
REMARK SMILES IDX 7 1 6 2 5 3 3 4 4 5 2 7 1 8 61 9 62 10 63 11 64 12 65 13
REMARK SMILES IDX 66 14 71 15 67 16 69 17 68 18 70 19 8 20 9 21 10 22 11 23
REMARK SMILES IDX 12 25 13 26 14 27 60 28 15 29 59 30 16 31 17 32 18 33 53 34
REMARK SMILES IDX 19 35 58 36 52 37 54 38 20 39 57 40 51 41 50 42 21 44 43 45
REMARK SMILES IDX 28 46 42 47 29 48 32 49 41 50 55 51 30 52 31 53 40 55 56 56
REMARK SMILES IDX 33 57 22 58 23 59 27 60 24 61 26 62 25 63 44 64 45 65 49 66
REMARK SMILES IDX 46 67 48 68 47 69 34 70 35 71 39 72 36 73 38 74 37 75
REMARK H PARENT 5 6 10 24 54 43 32 54
REMARK Flexibility Score: inf
ROOT
ATOM      1  C   UNL A   1      37.111  20.180  24.777  1.00  0.00     0.023 C 
ENDROOT
BRANCH   1   2
ATOM      2  C   UNL A   1      37.324  21.595  25.319  1.00  0.00     0.116 C 
BRANCH   2   3
ATOM      3  N   UNL A   1      36.202  22.028  26.130  1.00  0.00    -0.356 N 
ATOM      4  C   UNL A   1      34.974  22.488  25.765  1.00  0.00     0.223 C 
ATOM      5  O   UNL A   1      34.244  22.919  26.655  1.00  0.00    -0.275 OA
ATOM      6  H   UNL A   1      36.354  21.982  27.102  1.00  0.00     0.163 HD
BRANCH   4   7
ATOM      7  C   UNL A   1      34.546  22.454  24.298  1.00  0.00     0.086 C 
ATOM      8  C   UNL A   1      35.035  23.734  23.609  1.00  0.00     0.019 C 
BRANCH   7   9
ATOM      9  C   UNL A   1      33.013  22.296  24.156  1.00  0.00     0.070 C 
ATOM     10  C   UNL A   1      32.531  22.502  22.715  1.00  0.00     0.017 C 
BRANCH   9  11
ATOM     11  C   UNL A   1      32.398  20.994  24.693  1.00  0.00     0.166 C 
ATOM     12  O   UNL A   1      31.422  21.009  25.442  1.00  0.00    -0.294 OA
BRANCH  11  13
ATOM     13  C   UNL A   1      32.816  19.672  24.154  1.00  0.00     0.019 A 
ATOM     14  C   UNL A   1      32.191  19.233  22.977  1.00  0.00     0.012 A 
ATOM     15  C   UNL A   1      33.757  18.859  24.782  1.00  0.00     0.032 A 
ATOM     16  C   UNL A   1      32.535  18.006  22.410  1.00  0.00     0.002 A 
ATOM     17  C   UNL A   1      34.100  17.634  24.206  1.00  0.00     0.041 A 
ATOM     18  C   UNL A   1      33.499  17.207  23.021  1.00  0.00     0.020 A 
ATOM     19  Cl  UNL A   1      35.275  16.638  24.973  1.00  0.00    -0.084 Cl
ENDBRANCH  11  13
ENDBRANCH   9  11
ENDBRANCH   7   9
ENDBRANCH   4   7
ENDBRANCH   2   3
ENDBRANCH   1   2
BRANCH   1  20
ATOM     20  C   UNL A   1      38.270  19.207  25.018  1.00  0.00     0.023 C 
BRANCH  20  21
ATOM     21  C   UNL A   1      39.318  19.665  26.027  1.00  0.00     0.116 C 
BRANCH  21  22
ATOM     22  N   UNL A   1      40.618  19.056  25.811  1.00  0.00    -0.352 N 
ATOM     23  C   UNL A   1      41.874  19.591  25.939  1.00  0.00     0.251 C 
ATOM     24  H   UNL A   1      40.595  18.112  25.529  1.00  0.00     0.163 HD
ATOM     25  O   UNL A   1      42.850  18.928  25.588  1.00  0.00    -0.269 OA
BRANCH  23  26
ATOM     26  C   UNL A   1      42.071  20.963  26.459  1.00  0.00     0.039 A 
ATOM     27  C   UNL A   1      41.912  21.178  27.831  1.00  0.00     0.014 A 
ATOM     28  C   UNL A   1      42.379  22.037  25.618  1.00  0.00     0.014 A 
ATOM     29  C   UNL A   1      42.114  22.452  28.365  1.00  0.00     0.010 A 
ATOM     30  C   UNL A   1      42.646  23.294  26.161  1.00  0.00     0.010 A 
ATOM     31  C   UNL A   1      42.513  23.515  27.538  1.00  0.00    -0.014 A 
BRANCH  31  32
ATOM     32  C   UNL A   1      42.806  24.848  28.122  1.00  0.00     0.031 A 
ATOM     33  C   UNL A   1      44.208  25.231  28.510  1.00  0.00     0.074 A 
ATOM     34  C   UNL A   1      41.795  25.716  28.323  1.00  0.00     0.049 A 
ATOM     35  N   UNL A   1      44.649  26.367  28.990  1.00  0.00    -0.248 NA
ATOM     36  C   UNL A   1      45.247  24.200  28.357  1.00  0.00     0.031 C 
ATOM     37  C   UNL A   1      40.382  25.447  28.045  1.00  0.00     0.029 A 
ATOM     38  N   UNL A   1      41.802  27.002  28.800  1.00  0.00    -0.354 N 
ATOM     39  C   UNL A   1      46.010  26.188  29.196  1.00  0.00     0.074 A 
ATOM     40  C   UNL A   1      46.315  24.818  28.842  1.00  0.00     0.031 C 
ATOM     41  C   UNL A   1      39.663  26.547  28.325  1.00  0.00     0.029 A 
ATOM     42  C   UNL A   1      40.559  27.586  28.822  1.00  0.00     0.049 A 
ATOM     43  H   UNL A   1      42.619  27.462  29.099  1.00  0.00     0.167 HD
ATOM     44  C   UNL A   1      46.931  27.088  29.619  1.00  0.00     0.031 A 
ATOM     45  C   UNL A   1      40.182  28.825  29.189  1.00  0.00     0.031 A 
ATOM     46  C   UNL A   1      46.634  28.451  29.974  1.00  0.00     0.049 A 
ATOM     47  C   UNL A   1      41.224  29.809  29.636  1.00  0.00     0.074 A 
ATOM     48  C   UNL A   1      47.506  29.447  30.377  1.00  0.00     0.029 A 
ATOM     49  N   UNL A   1      45.365  29.008  29.966  1.00  0.00    -0.354 N 
ATOM     50  N   UNL A   1      42.519  29.643  29.756  1.00  0.00    -0.248 NA
ATOM     51  C   UNL A   1      40.753  31.159  29.979  1.00  0.00     0.031 C 
ATOM     52  C   UNL A   1      46.758  30.599  30.651  1.00  0.00     0.029 A 
ATOM     53  C   UNL A   1      45.428  30.331  30.371  1.00  0.00     0.049 A 
ATOM     54  H   UNL A   1      44.542  28.534  29.711  1.00  0.00     0.167 HD
ATOM     55  C   UNL A   1      43.019  30.871  30.172  1.00  0.00     0.074 A 
ATOM     56  C   UNL A   1      41.892  31.777  30.255  1.00  0.00     0.031 C 
ATOM     57  C   UNL A   1      44.297  31.216  30.462  1.00  0.00     0.031 A 
BRANCH  44  58
ATOM     58  C   UNL A   1      48.356  26.621  29.712  1.00  0.00    -0.014 A 
ATOM     59  C   UNL A   1      49.239  26.777  28.631  1.00  0.00     0.009 A 
ATOM     60  C   UNL A   1      48.835  26.052  30.903  1.00  0.00     0.009 A 
ATOM     61  C   UNL A   1      50.563  26.343  28.730  1.00  0.00     0.001 A 
ATOM     62  C   UNL A   1      50.166  25.644  31.007  1.00  0.00     0.001 A 
ATOM     63  C   UNL A   1      51.026  25.782  29.917  1.00  0.00     0.000 A 
ENDBRANCH  44  58
BRANCH  45  64
ATOM     64  C   UNL A   1      38.751  29.216  29.120  1.00  0.00    -0.014 A 
ATOM     65  C   UNL A   1      37.917  29.073  30.239  1.00  0.00     0.009 A 
ATOM     66  C   UNL A   1      38.211  29.729  27.931  1.00  0.00     0.009 A 
ATOM     67  C   UNL A   1      36.563  29.407  30.160  1.00  0.00     0.001 A 
ATOM     68  C   UNL A   1      36.863  30.088  27.863  1.00  0.00     0.001 A 
ATOM     69  C   UNL A   1      36.039  29.918  28.974  1.00  0.00     0.000 A 
ENDBRANCH  45  64
BRANCH  57  70
ATOM     70  C   UNL A   1      44.537  32.639  30.880  1.00  0.00    -0.014 A 
ATOM     71  C   UNL A   1      44.498  33.015  32.231  1.00  0.00     0.009 A 
ATOM     72  C   UNL A   1      44.816  33.613  29.910  1.00  0.00     0.009 A 
ATOM     73  C   UNL A   1      44.690  34.347  32.600  1.00  0.00     0.001 A 
ATOM     74  C   UNL A   1      45.035  34.940  30.283  1.00  0.00     0.001 A 
ATOM     75  C   UNL A   1      44.960  35.308  31.626  1.00  0.00     0.000 A 
ENDBRANCH  57  70
ENDBRANCH  31  32
ENDBRANCH  23  26
ENDBRANCH  21  22
ENDBRANCH  20  21
ENDBRANCH   1  20
TORSDOF 14
ENDMDL
MODEL 2
REMARK VINA RESULT:     -10.8      5.285      9.954
REMARK SMILES C[C@@H](C(=O)NCCCCNC(=O)c1ccc(-c2c3nc(c(-c4ccccc4)c4ccc([nH]4)c(-c4ccccc4)c4nc(c(-c5ccccc5)c5ccc2[nH]5)C=C4)C=C3)cc1)[C@@H](C)C(=O)c1cccc(Cl)c1
REMARK SMILES IDX 7 1 6 2 5 3 3 4 4 5 2 7 1 8 61 9 62 10 63 11 64 12 65 13
REMARK SMILES IDX 66 14 71 15 67 16 69 17 68 18 70 19 8 20 9 21 10 22 11 23
REMARK SMILES IDX 12 25 13 26 14 27 60 28 15 29 59 30 16 31 17 32 18 33 53 34
REMARK SMILES IDX 19 35 58 36 52 37 54 38 20 39 57 40 51 41 50 42 21 44 43 45
REMARK SMILES IDX 28 46 42 47 29 48 32 49 41 50 55 51 30 52 31 53 40 55 56 56
REMARK SMILES IDX 33 57 22 58 23 59 27 60 24 61 26 62 25 63 44 64 45 65 49 66
REMARK SMILES IDX 46 67 48 68 47 69 34 70 35 71 39 72 36 73 38 74 37 75
REMARK H PARENT 5 6 10 24 54 43 32 54
REMARK Flexibility Score: inf
ROOT
ATOM      1  C   UNL A   1      31.379  30.661  25.529  1.00  0.00     0.023 C 
ENDROOT
BRANCH   1   2
ATOM      2  C   UNL A   1      32.661  29.834  25.639  1.00  0.00     0.116 C 
BRANCH   2   3
ATOM      3  N   UNL A   1      33.304  29.676  24.349  1.00  0.00    -0.356 N 
ATOM      4  C   UNL A   1      33.453  28.573  23.564  1.00  0.00     0.223 C 
ATOM      5  O   UNL A   1      34.163  28.680  22.566  1.00  0.00    -0.275 OA
ATOM      6  H   UNL A   1      33.698  30.501  23.980  1.00  0.00     0.163 HD
BRANCH   4   7
ATOM      7  C   UNL A   1      32.749  27.268  23.935  1.00  0.00     0.086 C 
ATOM      8  C   UNL A   1      33.808  26.189  24.192  1.00  0.00     0.019 C 
BRANCH   7   9
ATOM      9  C   UNL A   1      31.759  26.823  22.831  1.00  0.00     0.070 C 
ATOM     10  C   UNL A   1      32.217  25.552  22.107  1.00  0.00     0.017 C 
BRANCH   9  11
ATOM     11  C   UNL A   1      30.291  26.642  23.250  1.00  0.00     0.166 C 
ATOM     12  O   UNL A   1      29.920  25.642  23.863  1.00  0.00    -0.294 OA
BRANCH  11  13
ATOM     13  C   UNL A   1      29.318  27.761  23.130  1.00  0.00     0.019 A 
ATOM     14  C   UNL A   1      27.983  27.488  23.464  1.00  0.00     0.012 A 
ATOM     15  C   UNL A   1      29.672  29.029  22.672  1.00  0.00     0.032 A 
ATOM     16  C   UNL A   1      27.015  28.489  23.380  1.00  0.00     0.002 A 
ATOM     17  C   UNL A   1      28.698  30.027  22.596  1.00  0.00     0.041 A 
ATOM     18  C   UNL A   1      27.376  29.766  22.953  1.00  0.00     0.020 A 
ATOM     19  Cl  UNL A   1      29.140  31.598  22.049  1.00  0.00    -0.084 Cl
ENDBRANCH  11  13
ENDBRANCH   9  11
ENDBRANCH   7   9
ENDBRANCH   4   7
ENDBRANCH   2   3
ENDBRANCH   1   2
BRANCH   1  20
ATOM     20  C   UNL A   1      31.224  31.769  26.575  1.00  0.00     0.023 C 
BRANCH  20  21
ATOM     21  C   UNL A   1      32.517  32.451  27.012  1.00  0.00     0.116 C 
BRANCH  21  22
ATOM     22  N   UNL A   1      32.308  33.801  27.505  1.00  0.00    -0.352 N 
ATOM     23  C   UNL A   1      33.043  34.535  28.400  1.00  0.00     0.251 C 
ATOM     24  H   UNL A   1      31.516  34.260  27.141  1.00  0.00     0.163 HD
ATOM     25  O   UNL A   1      32.619  35.629  28.774  1.00  0.00    -0.269 OA
BRANCH  23  26
ATOM     26  C   UNL A   1      34.317  34.019  28.948  1.00  0.00     0.039 A 
ATOM     27  C   UNL A   1      34.264  33.178  30.063  1.00  0.00     0.014 A 
ATOM     28  C   UNL A   1      35.555  34.374  28.403  1.00  0.00     0.014 A 
ATOM     29  C   UNL A   1      35.442  32.650  30.595  1.00  0.00     0.010 A 
ATOM     30  C   UNL A   1      36.726  33.793  28.893  1.00  0.00     0.010 A 
ATOM     31  C   UNL A   1      36.681  32.928  29.994  1.00  0.00    -0.014 A 
BRANCH  31  32
ATOM     32  C   UNL A   1      37.922  32.300  30.513  1.00  0.00     0.031 A 
ATOM     33  C   UNL A   1      38.620  32.855  31.725  1.00  0.00     0.074 A 
ATOM     34  C   UNL A   1      38.436  31.230  29.876  1.00  0.00     0.049 A 
ATOM     35  N   UNL A   1      39.686  32.406  32.339  1.00  0.00    -0.248 NA
ATOM     36  C   UNL A   1      38.063  34.084  32.311  1.00  0.00     0.031 C 
ATOM     37  C   UNL A   1      37.889  30.629  28.656  1.00  0.00     0.029 A 
ATOM     38  N   UNL A   1      39.528  30.454  30.169  1.00  0.00    -0.354 N 
ATOM     39  C   UNL A   1      39.926  33.293  33.379  1.00  0.00     0.074 A 
ATOM     40  C   UNL A   1      38.929  34.337  33.282  1.00  0.00     0.031 C 
ATOM     41  C   UNL A   1      38.629  29.558  28.327  1.00  0.00     0.029 A 
ATOM     42  C   UNL A   1      39.711  29.411  29.294  1.00  0.00     0.049 A 
ATOM     43  H   UNL A   1      40.124  30.627  30.934  1.00  0.00     0.167 HD
ATOM     44  C   UNL A   1      40.875  33.233  34.346  1.00  0.00     0.031 A 
ATOM     45  C   UNL A   1      40.640  28.437  29.277  1.00  0.00     0.031 A 
ATOM     46  C   UNL A   1      41.870  32.199  34.447  1.00  0.00     0.049 A 
ATOM     47  C   UNL A   1      41.669  28.382  30.370  1.00  0.00     0.074 A 
ATOM     48  C   UNL A   1      42.848  32.034  35.411  1.00  0.00     0.029 A 
ATOM     49  N   UNL A   1      42.011  31.152  33.550  1.00  0.00    -0.354 N 
ATOM     50  N   UNL A   1      41.836  29.191  31.388  1.00  0.00    -0.248 NA
ATOM     51  C   UNL A   1      42.626  27.268  30.319  1.00  0.00     0.031 C 
ATOM     52  C   UNL A   1      43.608  30.906  35.077  1.00  0.00     0.029 A 
ATOM     53  C   UNL A   1      43.069  30.343  33.931  1.00  0.00     0.049 A 
ATOM     54  H   UNL A   1      41.444  31.004  32.760  1.00  0.00     0.167 HD
ATOM     55  C   UNL A   1      42.904  28.673  32.109  1.00  0.00     0.074 A 
ATOM     56  C   UNL A   1      43.326  27.468  31.426  1.00  0.00     0.031 C 
ATOM     57  C   UNL A   1      43.486  29.155  33.234  1.00  0.00     0.031 A 
BRANCH  44  58
ATOM     58  C   UNL A   1      40.872  34.324  35.379  1.00  0.00    -0.014 A 
ATOM     59  C   UNL A   1      40.122  34.198  36.560  1.00  0.00     0.009 A 
ATOM     60  C   UNL A   1      41.654  35.474  35.193  1.00  0.00     0.009 A 
ATOM     61  C   UNL A   1      40.129  35.215  37.516  1.00  0.00     0.001 A 
ATOM     62  C   UNL A   1      41.681  36.478  36.163  1.00  0.00     0.001 A 
ATOM     63  C   UNL A   1      40.912  36.351  37.320  1.00  0.00     0.000 A 
ENDBRANCH  44  58
BRANCH  45  64
ATOM     64  C   UNL A   1      40.622  27.412  28.203  1.00  0.00    -0.014 A 
ATOM     65  C   UNL A   1      41.315  27.624  27.001  1.00  0.00     0.009 A 
ATOM     66  C   UNL A   1      39.904  26.218  28.371  1.00  0.00     0.009 A 
ATOM     67  C   UNL A   1      41.265  26.674  25.978  1.00  0.00     0.001 A 
ATOM     68  C   UNL A   1      39.878  25.258  27.358  1.00  0.00     0.001 A 
ATOM     69  C   UNL A   1      40.550  25.491  26.160  1.00  0.00     0.000 A 
ENDBRANCH  45  64
BRANCH  57  70
ATOM     70  C   UNL A   1      44.631  28.363  33.798  1.00  0.00    -0.014 A 
ATOM     71  C   UNL A   1      45.956  28.632  33.421  1.00  0.00     0.009 A 
ATOM     72  C   UNL A   1      44.381  27.341  34.726  1.00  0.00     0.009 A 
ATOM     73  C   UNL A   1      47.005  27.864  33.929  1.00  0.00     0.001 A 
ATOM     74  C   UNL A   1      45.434  26.593  35.255  1.00  0.00     0.001 A 
ATOM     75  C   UNL A   1      46.743  26.847  34.847  1.00  0.00     0.000 A 
ENDBRANCH  57  70
ENDBRANCH  31  32
ENDBRANCH  23  26
ENDBRANCH  21  22
ENDBRANCH  20  21
ENDBRANCH   1  20
TORSDOF 14
ENDMDL
MODEL 3
REMARK VINA RESULT:     -10.8      1.573      6.285
REMARK SMILES C[C@@H](C(=O)NCCCCNC(=O)c1ccc(-c2c3nc(c(-c4ccccc4)c4ccc([nH]4)c(-c4ccccc4)c4nc(c(-c5ccccc5)c5ccc2[nH]5)C=C4)C=C3)cc1)[C@@H](C)C(=O)c1cccc(Cl)c1
REMARK SMILES IDX 7 1 6 2 5 3 3 4 4 5 2 7 1 8 61 9 62 10 63 11 64 12 65 13
REMARK SMILES IDX 66 14 71 15 67 16 69 17 68 18 70 19 8 20 9 21 10 22 11 23
REMARK SMILES IDX 12 25 13 26 14 27 60 28 15 29 59 30 16 31 17 32 18 33 53 34
REMARK SMILES IDX 19 35 58 36 52 37 54 38 20 39 57 40 51 41 50 42 21 44 43 45
REMARK SMILES IDX 28 46 42 47 29 48 32 49 41 50 55 51 30 52 31 53 40 55 56 56
REMARK SMILES IDX 33 57 22 58 23 59 27 60 24 61 26 62 25 63 44 64 45 65 49 66
REMARK SMILES IDX 46 67 48 68 47 69 34 70 35 71 39 72 36 73 38 74 37 75
REMARK H PARENT 5 6 10 24 54 43 32 54
REMARK Flexibility Score: inf
ROOT
ATOM      1  C   UNL A   1      36.909  20.150  24.996  1.00  0.00     0.023 C 
ENDROOT
BRANCH   1   2
ATOM      2  C   UNL A   1      37.155  21.615  25.362  1.00  0.00     0.116 C 
BRANCH   2   3
ATOM      3  N   UNL A   1      36.050  22.165  26.124  1.00  0.00    -0.356 N 
ATOM      4  C   UNL A   1      34.854  22.669  25.710  1.00  0.00     0.223 C 
ATOM      5  O   UNL A   1      34.140  23.199  26.558  1.00  0.00    -0.275 OA
ATOM      6  H   UNL A   1      36.186  22.176  27.100  1.00  0.00     0.163 HD
BRANCH   4   7
ATOM      7  C   UNL A   1      34.444  22.560  24.242  1.00  0.00     0.086 C 
ATOM      8  C   UNL A   1      34.902  23.824  23.504  1.00  0.00     0.019 C 
BRANCH   7   9
ATOM      9  C   UNL A   1      32.917  22.351  24.092  1.00  0.00     0.070 C 
ATOM     10  C   UNL A   1      32.443  22.496  22.641  1.00  0.00     0.017 C 
BRANCH   9  11
ATOM     11  C   UNL A   1      32.337  21.048  24.665  1.00  0.00     0.166 C 
ATOM     12  O   UNL A   1      31.386  21.061  25.445  1.00  0.00    -0.294 OA
BRANCH  11  13
ATOM     13  C   UNL A   1      32.755  19.725  24.130  1.00  0.00     0.019 A 
ATOM     14  C   UNL A   1      32.160  19.301  22.932  1.00  0.00     0.012 A 
ATOM     15  C   UNL A   1      33.667  18.896  24.781  1.00  0.00     0.032 A 
ATOM     16  C   UNL A   1      32.506  18.074  22.367  1.00  0.00     0.002 A 
ATOM     17  C   UNL A   1      34.012  17.671  24.206  1.00  0.00     0.041 A 
ATOM     18  C   UNL A   1      33.442  17.259  23.002  1.00  0.00     0.020 A 
ATOM     19  Cl  UNL A   1      35.152  16.656  25.001  1.00  0.00    -0.084 Cl
ENDBRANCH  11  13
ENDBRANCH   9  11
ENDBRANCH   7   9
ENDBRANCH   4   7
ENDBRANCH   2   3
ENDBRANCH   1   2
BRANCH   1  20
ATOM     20  C   UNL A   1      38.155  19.258  25.002  1.00  0.00     0.023 C 
BRANCH  20  21
ATOM     21  C   UNL A   1      39.355  19.805  25.768  1.00  0.00     0.116 C 
BRANCH  21  22
ATOM     22  N   UNL A   1      40.442  18.847  25.877  1.00  0.00    -0.352 N 
ATOM     23  C   UNL A   1      41.777  19.054  26.113  1.00  0.00     0.251 C 
ATOM     24  H   UNL A   1      40.181  17.905  25.764  1.00  0.00     0.163 HD
ATOM     25  O   UNL A   1      42.555  18.101  26.048  1.00  0.00    -0.269 OA
BRANCH  23  26
ATOM     26  C   UNL A   1      42.301  20.405  26.411  1.00  0.00     0.039 A 
ATOM     27  C   UNL A   1      42.858  21.143  25.363  1.00  0.00     0.014 A 
ATOM     28  C   UNL A   1      42.279  20.940  27.703  1.00  0.00     0.014 A 
ATOM     29  C   UNL A   1      43.340  22.433  25.597  1.00  0.00     0.010 A 
ATOM     30  C   UNL A   1      42.700  22.252  27.923  1.00  0.00     0.010 A 
ATOM     31  C   UNL A   1      43.236  23.010  26.874  1.00  0.00    -0.014 A 
BRANCH  31  32
ATOM     32  C   UNL A   1      43.676  24.410  27.100  1.00  0.00     0.031 A 
ATOM     33  C   UNL A   1      42.691  25.473  27.503  1.00  0.00     0.074 A 
ATOM     34  C   UNL A   1      44.972  24.730  26.922  1.00  0.00     0.049 A 
ATOM     35  N   UNL A   1      42.910  26.733  27.784  1.00  0.00    -0.248 NA
ATOM     36  C   UNL A   1      41.277  25.077  27.580  1.00  0.00     0.031 C 
ATOM     37  C   UNL A   1      46.019  23.807  26.476  1.00  0.00     0.029 A 
ATOM     38  N   UNL A   1      45.633  25.919  27.102  1.00  0.00    -0.354 N 
ATOM     39  C   UNL A   1      41.665  27.278  28.071  1.00  0.00     0.074 A 
ATOM     40  C   UNL A   1      40.689  26.228  27.877  1.00  0.00     0.031 C 
ATOM     41  C   UNL A   1      47.195  24.456  26.451  1.00  0.00     0.029 A 
ATOM     42  C   UNL A   1      46.982  25.841  26.855  1.00  0.00     0.049 A 
ATOM     43  H   UNL A   1      45.183  26.749  27.382  1.00  0.00     0.167 HD
ATOM     44  C   UNL A   1      41.361  28.533  28.484  1.00  0.00     0.031 A 
ATOM     45  C   UNL A   1      47.944  26.778  26.953  1.00  0.00     0.031 A 
ATOM     46  C   UNL A   1      42.327  29.582  28.678  1.00  0.00     0.049 A 
ATOM     47  C   UNL A   1      47.584  28.155  27.431  1.00  0.00     0.074 A 
ATOM     48  C   UNL A   1      42.119  30.874  29.129  1.00  0.00     0.029 A 
ATOM     49  N   UNL A   1      43.685  29.458  28.432  1.00  0.00    -0.354 N 
ATOM     50  N   UNL A   1      46.410  28.633  27.767  1.00  0.00    -0.248 NA
ATOM     51  C   UNL A   1      48.687  29.117  27.560  1.00  0.00     0.031 C 
ATOM     52  C   UNL A   1      43.348  31.545  29.120  1.00  0.00     0.029 A 
ATOM     53  C   UNL A   1      44.327  30.654  28.709  1.00  0.00     0.049 A 
ATOM     54  H   UNL A   1      44.128  28.641  28.108  1.00  0.00     0.167 HD
ATOM     55  C   UNL A   1      46.636  29.944  28.164  1.00  0.00     0.074 A 
ATOM     56  C   UNL A   1      48.061  30.176  28.053  1.00  0.00     0.031 C 
ATOM     57  C   UNL A   1      45.743  30.874  28.581  1.00  0.00     0.031 A 
BRANCH  44  58
ATOM     58  C   UNL A   1      39.915  28.834  28.761  1.00  0.00    -0.014 A 
ATOM     59  C   UNL A   1      39.074  29.327  27.750  1.00  0.00     0.009 A 
ATOM     60  C   UNL A   1      39.375  28.590  30.033  1.00  0.00     0.009 A 
ATOM     61  C   UNL A   1      37.731  29.600  28.016  1.00  0.00     0.001 A 
ATOM     62  C   UNL A   1      38.025  28.838  30.289  1.00  0.00     0.001 A 
ATOM     63  C   UNL A   1      37.207  29.351  29.283  1.00  0.00     0.000 A 
ENDBRANCH  44  58
BRANCH  45  64
ATOM     64  C   UNL A   1      49.349  26.435  26.620  1.00  0.00    -0.014 A 
ATOM     65  C   UNL A   1      49.843  26.625  25.321  1.00  0.00     0.009 A 
ATOM     66  C   UNL A   1      50.204  25.909  27.601  1.00  0.00     0.009 A 
ATOM     67  C   UNL A   1      51.155  26.266  25.002  1.00  0.00     0.001 A 
ATOM     68  C   UNL A   1      51.524  25.578  27.287  1.00  0.00     0.001 A 
ATOM     69  C   UNL A   1      51.995  25.748  25.986  1.00  0.00     0.000 A 
ENDBRANCH  45  64
BRANCH  57  70
ATOM     70  C   UNL A   1      46.292  32.220  28.960  1.00  0.00    -0.014 A 
ATOM     71  C   UNL A   1      46.530  33.206  27.990  1.00  0.00     0.009 A 
ATOM     72  C   UNL A   1      46.565  32.507  30.305  1.00  0.00     0.009 A 
ATOM     73  C   UNL A   1      47.072  34.440  28.355  1.00  0.00     0.001 A 
ATOM     74  C   UNL A   1      47.081  33.752  30.672  1.00  0.00     0.001 A 
ATOM     75  C   UNL A   1      47.345  34.712  29.696  1.00  0.00     0.000 A 
ENDBRANCH  57  70
ENDBRANCH  31  32
ENDBRANCH  23  26
ENDBRANCH  21  22
ENDBRANCH  20  21
ENDBRANCH   1  20
TORSDOF 14
ENDMDL
