MODEL 1
REMARK VINA RESULT:     -10.3      0.000      0.000
REMARK SMILES C#CCN(CC(=O)NCCCCNC(=O)c1ccc(-c2c3nc(c(-c4ccccc4)c4ccc([nH]4)c(-c4ccccc4)c4nc(c(-c5ccccc5)c5ccc2[nH]5)C=C4)C=C3)cc1)C(=O)[C@H](c1ccc(Cl)cc1)C(C)C
REMARK SMILES IDX 9 1 8 2 6 3 7 4 5 6 4 7 3 8 2 9 1 10 64 11 65 12 66 13 74 14
REMARK SMILES IDX 75 15 76 16 67 17 68 18 73 19 69 20 72 21 70 22 71 23 10 24
REMARK SMILES IDX 11 25 12 26 13 27 14 28 15 30 16 31 17 32 63 33 18 34 62 35
REMARK SMILES IDX 19 36 20 37 21 38 56 39 22 40 61 41 55 42 57 43 23 44 60 45
REMARK SMILES IDX 54 46 53 47 24 49 46 50 31 51 45 52 32 53 35 54 44 55 58 56
REMARK SMILES IDX 33 57 34 58 43 60 59 61 36 62 25 63 26 64 30 65 27 66 29 67
REMARK SMILES IDX 28 68 47 69 48 70 52 71 49 72 51 73 50 74 37 75 38 76 42 77
REMARK SMILES IDX 39 78 41 79 40 80
REMARK H PARENT 8 5 13 29 57 48 35 59
REMARK Flexibility Score: inf
ROOT
ATOM      1  C   UNL A   1      36.371  22.178  25.750  1.00  0.00     0.116 C 
ENDROOT
BRANCH   1   2
ATOM      2  N   UNL A   1      35.344  22.129  26.762  1.00  0.00    -0.355 N 
ATOM      3  C   UNL A   1      34.219  22.882  26.891  1.00  0.00     0.239 C 
ATOM      4  O   UNL A   1      33.525  22.683  27.890  1.00  0.00    -0.273 OA
ATOM      5  H   UNL A   1      35.477  21.451  27.463  1.00  0.00     0.163 HD
BRANCH   3   6
ATOM      6  C   UNL A   1      33.804  23.885  25.803  1.00  0.00     0.220 C 
BRANCH   6   7
ATOM      7  N   UNL A   1      32.366  24.123  25.637  1.00  0.00    -0.322 N 
BRANCH   7   8
ATOM      8  C   UNL A   1      31.576  22.999  25.124  1.00  0.00     0.209 C 
BRANCH   8   9
ATOM      9  C   UNL A   1      32.092  22.427  23.814  1.00  0.00    -0.085 C 
ATOM     10  C   UNL A   1      32.535  21.937  22.690  1.00  0.00     0.006 C 
ENDBRANCH   8   9
ENDBRANCH   7   8
BRANCH   7  11
ATOM     11  C   UNL A   1      31.707  25.328  25.920  1.00  0.00     0.231 C 
ATOM     12  O   UNL A   1      30.926  25.391  26.875  1.00  0.00    -0.274 OA
BRANCH  11  13
ATOM     13  C   UNL A   1      31.918  26.587  25.022  1.00  0.00     0.111 C 
BRANCH  13  14
ATOM     14  C   UNL A   1      30.594  27.040  24.300  1.00  0.00    -0.000 C 
ATOM     15  C   UNL A   1      30.878  27.863  23.032  1.00  0.00     0.008 C 
ATOM     16  C   UNL A   1      29.696  25.862  23.882  1.00  0.00     0.008 C 
ENDBRANCH  13  14
BRANCH  13  17
ATOM     17  C   UNL A   1      32.502  27.746  25.834  1.00  0.00    -0.035 A 
ATOM     18  C   UNL A   1      31.666  28.788  26.274  1.00  0.00     0.006 A 
ATOM     19  C   UNL A   1      33.872  27.816  26.130  1.00  0.00     0.006 A 
ATOM     20  C   UNL A   1      32.198  29.919  26.895  1.00  0.00     0.021 A 
ATOM     21  C   UNL A   1      34.399  28.930  26.788  1.00  0.00     0.021 A 
ATOM     22  C   UNL A   1      33.566  29.989  27.142  1.00  0.00     0.041 A 
ATOM     23  Cl  UNL A   1      34.228  31.396  27.875  1.00  0.00    -0.084 Cl
ENDBRANCH  13  17
ENDBRANCH  11  13
ENDBRANCH   7  11
ENDBRANCH   6   7
ENDBRANCH   3   6
ENDBRANCH   1   2
BRANCH   1  24
ATOM     24  C   UNL A   1      36.517  20.829  25.050  1.00  0.00     0.023 C 
BRANCH  24  25
ATOM     25  C   UNL A   1      37.951  20.451  24.678  1.00  0.00     0.023 C 
BRANCH  25  26
ATOM     26  C   UNL A   1      38.939  20.450  25.834  1.00  0.00     0.116 C 
BRANCH  26  27
ATOM     27  N   UNL A   1      39.860  19.325  25.804  1.00  0.00    -0.352 N 
ATOM     28  C   UNL A   1      41.212  19.330  26.044  1.00  0.00     0.251 C 
ATOM     29  H   UNL A   1      39.464  18.450  25.584  1.00  0.00     0.163 HD
ATOM     30  O   UNL A   1      41.873  18.311  25.921  1.00  0.00    -0.269 OA
BRANCH  28  31
ATOM     31  C   UNL A   1      41.860  20.605  26.403  1.00  0.00     0.039 A 
ATOM     32  C   UNL A   1      42.309  21.434  25.374  1.00  0.00     0.014 A 
ATOM     33  C   UNL A   1      41.964  21.002  27.739  1.00  0.00     0.014 A 
ATOM     34  C   UNL A   1      42.816  22.695  25.684  1.00  0.00     0.010 A 
ATOM     35  C   UNL A   1      42.406  22.286  28.040  1.00  0.00     0.010 A 
ATOM     36  C   UNL A   1      42.838  23.141  27.014  1.00  0.00    -0.014 A 
BRANCH  36  37
ATOM     37  C   UNL A   1      43.329  24.497  27.354  1.00  0.00     0.031 A 
ATOM     38  C   UNL A   1      42.354  25.557  27.784  1.00  0.00     0.074 A 
ATOM     39  C   UNL A   1      44.639  24.783  27.236  1.00  0.00     0.049 A 
ATOM     40  N   UNL A   1      42.578  26.812  28.081  1.00  0.00    -0.248 NA
ATOM     41  C   UNL A   1      40.940  25.159  27.873  1.00  0.00     0.031 C 
ATOM     42  C   UNL A   1      45.679  23.846  26.802  1.00  0.00     0.029 A 
ATOM     43  N   UNL A   1      45.322  25.949  27.473  1.00  0.00    -0.354 N 
ATOM     44  C   UNL A   1      41.335  27.352  28.382  1.00  0.00     0.074 A 
ATOM     45  C   UNL A   1      40.355  26.308  28.178  1.00  0.00     0.031 C 
ATOM     46  C   UNL A   1      46.870  24.466  26.836  1.00  0.00     0.029 A 
ATOM     47  C   UNL A   1      46.675  25.850  27.256  1.00  0.00     0.049 A 
ATOM     48  H   UNL A   1      44.884  26.778  27.772  1.00  0.00     0.167 HD
ATOM     49  C   UNL A   1      41.037  28.600  28.815  1.00  0.00     0.031 A 
ATOM     50  C   UNL A   1      47.645  26.773  27.382  1.00  0.00     0.031 A 
ATOM     51  C   UNL A   1      42.012  29.635  29.024  1.00  0.00     0.049 A 
ATOM     52  C   UNL A   1      47.282  28.159  27.836  1.00  0.00     0.074 A 
ATOM     53  C   UNL A   1      41.814  30.925  29.485  1.00  0.00     0.029 A 
ATOM     54  N   UNL A   1      43.370  29.495  28.789  1.00  0.00    -0.354 N 
ATOM     55  N   UNL A   1      46.108  28.642  28.161  1.00  0.00    -0.248 NA
ATOM     56  C   UNL A   1      48.385  29.126  27.949  1.00  0.00     0.031 C 
ATOM     57  C   UNL A   1      43.051  31.578  29.495  1.00  0.00     0.029 A 
ATOM     58  C   UNL A   1      44.023  30.679  29.084  1.00  0.00     0.049 A 
ATOM     59  H   UNL A   1      43.806  28.676  28.460  1.00  0.00     0.167 HD
ATOM     60  C   UNL A   1      46.334  29.955  28.551  1.00  0.00     0.074 A 
ATOM     61  C   UNL A   1      47.758  30.189  28.432  1.00  0.00     0.031 C 
ATOM     62  C   UNL A   1      45.443  30.886  28.970  1.00  0.00     0.031 A 
BRANCH  49  63
ATOM     63  C   UNL A   1      39.593  28.903  29.096  1.00  0.00    -0.014 A 
ATOM     64  C   UNL A   1      39.038  28.662  30.362  1.00  0.00     0.009 A 
ATOM     65  C   UNL A   1      38.784  29.458  28.093  1.00  0.00     0.009 A 
ATOM     66  C   UNL A   1      37.693  28.941  30.611  1.00  0.00     0.001 A 
ATOM     67  C   UNL A   1      37.446  29.762  28.352  1.00  0.00     0.001 A 
ATOM     68  C   UNL A   1      36.899  29.494  29.606  1.00  0.00     0.000 A 
ENDBRANCH  49  63
BRANCH  50  69
ATOM     69  C   UNL A   1      49.061  26.420  27.096  1.00  0.00    -0.014 A 
ATOM     70  C   UNL A   1      49.570  26.530  25.792  1.00  0.00     0.009 A 
ATOM     71  C   UNL A   1      49.901  25.946  28.115  1.00  0.00     0.009 A 
ATOM     72  C   UNL A   1      50.881  26.139  25.509  1.00  0.00     0.001 A 
ATOM     73  C   UNL A   1      51.221  25.583  27.833  1.00  0.00     0.001 A 
ATOM     74  C   UNL A   1      51.705  25.668  26.530  1.00  0.00     0.000 A 
ENDBRANCH  50  69
BRANCH  62  75
ATOM     75  C   UNL A   1      45.991  32.224  29.376  1.00  0.00    -0.014 A 
ATOM     76  C   UNL A   1      46.095  33.279  28.457  1.00  0.00     0.009 A 
ATOM     77  C   UNL A   1      46.372  32.440  30.710  1.00  0.00     0.009 A 
ATOM     78  C   UNL A   1      46.604  34.515  28.860  1.00  0.00     0.001 A 
ATOM     79  C   UNL A   1      46.855  33.684  31.115  1.00  0.00     0.001 A 
ATOM     80  C   UNL A   1      46.978  34.718  30.188  1.00  0.00     0.000 A 
ENDBRANCH  62  75
ENDBRANCH  36  37
ENDBRANCH  28  31
ENDBRANCH  26  27
ENDBRANCH  25  26
ENDBRANCH  24  25
ENDBRANCH   1  24
TORSDOF 18
ENDMDL
MODEL 2
REMARK VINA RESULT:     -10.3      2.245      6.547
REMARK SMILES C#CCN(CC(=O)NCCCCNC(=O)c1ccc(-c2c3nc(c(-c4ccccc4)c4ccc([nH]4)c(-c4ccccc4)c4nc(c(-c5ccccc5)c5ccc2[nH]5)C=C4)C=C3)cc1)C(=O)[C@H](c1ccc(Cl)cc1)C(C)C
REMARK SMILES IDX 9 1 8 2 6 3 7 4 5 6 4 7 3 8 2 9 1 10 64 11 65 12 66 13 74 14
REMARK SMILES IDX 75 15 76 16 67 17 68 18 73 19 69 20 72 21 70 22 71 23 10 24
REMARK SMILES IDX 11 25 12 26 13 27 14 28 15 30 16 31 17 32 63 33 18 34 62 35
REMARK SMILES IDX 19 36 20 37 21 38 56 39 22 40 61 41 55 42 57 43 23 44 60 45
REMARK SMILES IDX 54 46 53 47 24 49 46 50 31 51 45 52 32 53 35 54 44 55 58 56
REMARK SMILES IDX 33 57 34 58 43 60 59 61 36 62 25 63 26 64 30 65 27 66 29 67
REMARK SMILES IDX 28 68 47 69 48 70 52 71 49 72 51 73 50 74 37 75 38 76 42 77
REMARK SMILES IDX 39 78 41 79 40 80
REMARK H PARENT 8 5 13 29 57 48 35 59
REMARK Flexibility Score: inf
ROOT
ATOM      1  C   UNL A   1      35.229  19.986  24.797  1.00  0.00     0.116 C 
ENDROOT
BRANCH   1   2
ATOM      2  N   UNL A   1      35.000  20.714  26.021  1.00  0.00    -0.355 N 
ATOM      3  C   UNL A   1      33.886  21.369  26.445  1.00  0.00     0.239 C 
ATOM      4  O   UNL A   1      33.967  21.973  27.517  1.00  0.00    -0.273 OA
ATOM      5  H   UNL A   1      35.764  20.741  26.642  1.00  0.00     0.163 HD
BRANCH   3   6
ATOM      6  C   UNL A   1      32.573  21.298  25.651  1.00  0.00     0.220 C 
BRANCH   6   7
ATOM      7  N   UNL A   1      32.177  22.507  24.919  1.00  0.00    -0.322 N 
BRANCH   7   8
ATOM      8  C   UNL A   1      31.519  23.556  25.704  1.00  0.00     0.209 C 
BRANCH   8   9
ATOM      9  C   UNL A   1      30.355  23.060  26.546  1.00  0.00    -0.085 C 
ATOM     10  C   UNL A   1      29.355  22.635  27.268  1.00  0.00     0.006 C 
ENDBRANCH   8   9
ENDBRANCH   7   8
BRANCH   7  11
ATOM     11  C   UNL A   1      32.371  22.723  23.547  1.00  0.00     0.231 C 
ATOM     12  O   UNL A   1      31.807  21.993  22.725  1.00  0.00    -0.274 OA
BRANCH  11  13
ATOM     13  C   UNL A   1      33.319  23.853  23.039  1.00  0.00     0.111 C 
BRANCH  13  14
ATOM     14  C   UNL A   1      32.673  25.283  23.166  1.00  0.00    -0.000 C 
ATOM     15  C   UNL A   1      33.515  26.364  22.466  1.00  0.00     0.008 C 
ATOM     16  C   UNL A   1      31.254  25.363  22.575  1.00  0.00     0.008 C 
ENDBRANCH  13  14
BRANCH  13  17
ATOM     17  C   UNL A   1      34.663  23.812  23.773  1.00  0.00    -0.035 A 
ATOM     18  C   UNL A   1      35.756  23.138  23.200  1.00  0.00     0.006 A 
ATOM     19  C   UNL A   1      34.828  24.409  25.032  1.00  0.00     0.006 A 
ATOM     20  C   UNL A   1      36.946  22.970  23.911  1.00  0.00     0.021 A 
ATOM     21  C   UNL A   1      36.034  24.276  25.727  1.00  0.00     0.021 A 
ATOM     22  C   UNL A   1      37.076  23.534  25.176  1.00  0.00     0.041 A 
ATOM     23  Cl  UNL A   1      38.528  23.299  26.068  1.00  0.00    -0.084 Cl
ENDBRANCH  13  17
ENDBRANCH  11  13
ENDBRANCH   7  11
ENDBRANCH   6   7
ENDBRANCH   3   6
ENDBRANCH   1   2
BRANCH   1  24
ATOM     24  C   UNL A   1      36.409  19.027  24.940  1.00  0.00     0.023 C 
BRANCH  24  25
ATOM     25  C   UNL A   1      37.768  19.625  24.578  1.00  0.00     0.023 C 
BRANCH  25  26
ATOM     26  C   UNL A   1      38.683  19.911  25.757  1.00  0.00     0.116 C 
BRANCH  26  27
ATOM     27  N   UNL A   1      39.914  19.136  25.734  1.00  0.00    -0.352 N 
ATOM     28  C   UNL A   1      41.178  19.542  26.085  1.00  0.00     0.251 C 
ATOM     29  H   UNL A   1      39.830  18.204  25.427  1.00  0.00     0.163 HD
ATOM     30  O   UNL A   1      42.134  18.793  25.953  1.00  0.00    -0.269 OA
BRANCH  28  31
ATOM     31  C   UNL A   1      41.366  20.920  26.575  1.00  0.00     0.039 A 
ATOM     32  C   UNL A   1      41.133  21.182  27.925  1.00  0.00     0.014 A 
ATOM     33  C   UNL A   1      41.828  21.925  25.720  1.00  0.00     0.014 A 
ATOM     34  C   UNL A   1      41.418  22.447  28.435  1.00  0.00     0.010 A 
ATOM     35  C   UNL A   1      42.175  23.164  26.244  1.00  0.00     0.010 A 
ATOM     36  C   UNL A   1      41.970  23.436  27.606  1.00  0.00    -0.014 A 
BRANCH  36  37
ATOM     37  C   UNL A   1      42.323  24.770  28.144  1.00  0.00     0.031 A 
ATOM     38  C   UNL A   1      43.742  25.061  28.545  1.00  0.00     0.074 A 
ATOM     39  C   UNL A   1      41.364  25.700  28.309  1.00  0.00     0.049 A 
ATOM     40  N   UNL A   1      44.243  26.148  29.076  1.00  0.00    -0.248 NA
ATOM     41  C   UNL A   1      44.723  23.982  28.342  1.00  0.00     0.031 C 
ATOM     42  C   UNL A   1      39.946  25.527  27.983  1.00  0.00     0.029 A 
ATOM     43  N   UNL A   1      41.438  26.981  28.794  1.00  0.00    -0.354 N 
ATOM     44  C   UNL A   1      45.590  25.879  29.276  1.00  0.00     0.074 A 
ATOM     45  C   UNL A   1      45.819  24.512  28.865  1.00  0.00     0.031 C 
ATOM     46  C   UNL A   1      39.292  26.670  28.246  1.00  0.00     0.029 A 
ATOM     47  C   UNL A   1      40.234  27.642  28.794  1.00  0.00     0.049 A 
ATOM     48  H   UNL A   1      42.276  27.389  29.112  1.00  0.00     0.167 HD
ATOM     49  C   UNL A   1      46.559  26.705  29.738  1.00  0.00     0.031 A 
ATOM     50  C   UNL A   1      39.926  28.890  29.192  1.00  0.00     0.031 A 
ATOM     51  C   UNL A   1      46.333  28.066  30.140  1.00  0.00     0.049 A 
ATOM     52  C   UNL A   1      41.016  29.776  29.728  1.00  0.00     0.074 A 
ATOM     53  C   UNL A   1      47.253  28.994  30.598  1.00  0.00     0.029 A 
ATOM     54  N   UNL A   1      45.099  28.695  30.128  1.00  0.00    -0.354 N 
ATOM     55  N   UNL A   1      42.294  29.523  29.868  1.00  0.00    -0.248 NA
ATOM     56  C   UNL A   1      40.618  31.127  30.153  1.00  0.00     0.031 C 
ATOM     57  C   UNL A   1      46.567  30.176  30.897  1.00  0.00     0.029 A 
ATOM     58  C   UNL A   1      45.229  29.996  30.581  1.00  0.00     0.049 A 
ATOM     59  H   UNL A   1      44.254  28.278  29.841  1.00  0.00     0.167 HD
ATOM     60  C   UNL A   1      42.859  30.691  30.363  1.00  0.00     0.074 A 
ATOM     61  C   UNL A   1      41.786  31.656  30.486  1.00  0.00     0.031 C 
ATOM     62  C   UNL A   1      44.150  30.944  30.686  1.00  0.00     0.031 A 
BRANCH  49  63
ATOM     63  C   UNL A   1      47.952  26.150  29.823  1.00  0.00    -0.014 A 
ATOM     64  C   UNL A   1      48.496  25.749  31.053  1.00  0.00     0.009 A 
ATOM     65  C   UNL A   1      48.722  26.003  28.659  1.00  0.00     0.009 A 
ATOM     66  C   UNL A   1      49.794  25.242  31.122  1.00  0.00     0.001 A 
ATOM     67  C   UNL A   1      50.010  25.468  28.727  1.00  0.00     0.001 A 
ATOM     68  C   UNL A   1      50.549  25.098  29.959  1.00  0.00     0.000 A 
ENDBRANCH  49  63
BRANCH  50  69
ATOM     69  C   UNL A   1      38.531  29.392  29.083  1.00  0.00    -0.014 A 
ATOM     70  C   UNL A   1      37.654  29.293  30.174  1.00  0.00     0.009 A 
ATOM     71  C   UNL A   1      38.061  29.946  27.882  1.00  0.00     0.009 A 
ATOM     72  C   UNL A   1      36.325  29.706  30.054  1.00  0.00     0.001 A 
ATOM     73  C   UNL A   1      36.739  30.384  27.774  1.00  0.00     0.001 A 
ATOM     74  C   UNL A   1      35.870  30.253  28.855  1.00  0.00     0.000 A 
ENDBRANCH  50  69
BRANCH  62  75
ATOM     75  C   UNL A   1      44.479  32.331  31.157  1.00  0.00    -0.014 A 
ATOM     76  C   UNL A   1      44.535  32.644  32.522  1.00  0.00     0.009 A 
ATOM     77  C   UNL A   1      44.774  33.330  30.215  1.00  0.00     0.009 A 
ATOM     78  C   UNL A   1      44.847  33.940  32.936  1.00  0.00     0.001 A 
ATOM     79  C   UNL A   1      45.112  34.617  30.632  1.00  0.00     0.001 A 
ATOM     80  C   UNL A   1      45.140  34.923  31.991  1.00  0.00     0.000 A 
ENDBRANCH  62  75
ENDBRANCH  36  37
ENDBRANCH  28  31
ENDBRANCH  26  27
ENDBRANCH  25  26
ENDBRANCH  24  25
ENDBRANCH   1  24
TORSDOF 18
ENDMDL
MODEL 3
REMARK VINA RESULT:     -10.2      1.784      2.666
REMARK SMILES C#CCN(CC(=O)NCCCCNC(=O)c1ccc(-c2c3nc(c(-c4ccccc4)c4ccc([nH]4)c(-c4ccccc4)c4nc(c(-c5ccccc5)c5ccc2[nH]5)C=C4)C=C3)cc1)C(=O)[C@H](c1ccc(Cl)cc1)C(C)C
REMARK SMILES IDX 9 1 8 2 6 3 7 4 5 6 4 7 3 8 2 9 1 10 64 11 65 12 66 13 74 14
REMARK SMILES IDX 75 15 76 16 67 17 68 18 73 19 69 20 72 21 70 22 71 23 10 24
REMARK SMILES IDX 11 25 12 26 13 27 14 28 15 30 16 31 17 32 63 33 18 34 62 35
REMARK SMILES IDX 19 36 20 37 21 38 56 39 22 40 61 41 55 42 57 43 23 44 60 45
REMARK SMILES IDX 54 46 53 47 24 49 46 50 31 51 45 52 32 53 35 54 44 55 58 56
REMARK SMILES IDX 33 57 34 58 43 60 59 61 36 62 25 63 26 64 30 65 27 66 29 67
REMARK SMILES IDX 28 68 47 69 48 70 52 71 49 72 51 73 50 74 37 75 38 76 42 77
REMARK SMILES IDX 39 78 41 79 40 80
REMARK H PARENT 8 5 13 29 57 48 35 59
REMARK Flexibility Score: inf
ROOT
ATOM      1  C   UNL A   1      35.449  22.140  24.247  1.00  0.00     0.116 C 
ENDROOT
BRANCH   1   2
ATOM      2  N   UNL A   1      35.018  22.153  25.623  1.00  0.00    -0.355 N 
ATOM      3  C   UNL A   1      34.644  23.202  26.403  1.00  0.00     0.239 C 
ATOM      4  O   UNL A   1      34.374  22.954  27.581  1.00  0.00    -0.273 OA
ATOM      5  H   UNL A   1      34.991  21.273  26.063  1.00  0.00     0.163 HD
BRANCH   3   6
ATOM      6  C   UNL A   1      34.502  24.616  25.820  1.00  0.00     0.220 C 
BRANCH   6   7
ATOM      7  N   UNL A   1      33.154  25.033  25.417  1.00  0.00    -0.322 N 
BRANCH   7   8
ATOM      8  C   UNL A   1      32.096  24.027  25.548  1.00  0.00     0.209 C 
BRANCH   8   9
ATOM      9  C   UNL A   1      31.298  23.800  24.275  1.00  0.00    -0.085 C 
ATOM     10  C   UNL A   1      30.612  23.603  23.183  1.00  0.00     0.006 C 
ENDBRANCH   8   9
ENDBRANCH   7   8
BRANCH   7  11
ATOM     11  C   UNL A   1      32.814  26.298  24.916  1.00  0.00     0.231 C 
ATOM     12  O   UNL A   1      33.428  26.761  23.948  1.00  0.00    -0.274 OA
BRANCH  11  13
ATOM     13  C   UNL A   1      31.692  27.151  25.587  1.00  0.00     0.111 C 
BRANCH  13  14
ATOM     14  C   UNL A   1      32.270  28.262  26.541  1.00  0.00    -0.000 C 
ATOM     15  C   UNL A   1      31.607  28.235  27.929  1.00  0.00     0.008 C 
ATOM     16  C   UNL A   1      33.788  28.143  26.764  1.00  0.00     0.008 C 
ENDBRANCH  13  14
BRANCH  13  17
ATOM     17  C   UNL A   1      30.779  27.781  24.531  1.00  0.00    -0.035 A 
ATOM     18  C   UNL A   1      31.021  29.094  24.086  1.00  0.00     0.006 A 
ATOM     19  C   UNL A   1      29.676  27.089  24.009  1.00  0.00     0.006 A 
ATOM     20  C   UNL A   1      30.125  29.735  23.229  1.00  0.00     0.021 A 
ATOM     21  C   UNL A   1      28.801  27.717  23.119  1.00  0.00     0.021 A 
ATOM     22  C   UNL A   1      29.013  29.046  22.755  1.00  0.00     0.041 A 
ATOM     23  Cl  UNL A   1      27.889  29.845  21.728  1.00  0.00    -0.084 Cl
ENDBRANCH  13  17
ENDBRANCH  11  13
ENDBRANCH   7  11
ENDBRANCH   6   7
ENDBRANCH   3   6
ENDBRANCH   1   2
BRANCH   1  24
ATOM     24  C   UNL A   1      36.957  21.925  24.145  1.00  0.00     0.023 C 
BRANCH  24  25
ATOM     25  C   UNL A   1      37.473  20.659  24.829  1.00  0.00     0.023 C 
BRANCH  25  26
ATOM     26  C   UNL A   1      38.675  20.860  25.739  1.00  0.00     0.116 C 
BRANCH  26  27
ATOM     27  N   UNL A   1      39.633  19.768  25.677  1.00  0.00    -0.352 N 
ATOM     28  C   UNL A   1      40.956  19.779  26.047  1.00  0.00     0.251 C 
ATOM     29  H   UNL A   1      39.290  18.913  25.328  1.00  0.00     0.163 HD
ATOM     30  O   UNL A   1      41.660  18.795  25.879  1.00  0.00    -0.269 OA
BRANCH  28  31
ATOM     31  C   UNL A   1      41.523  21.022  26.600  1.00  0.00     0.039 A 
ATOM     32  C   UNL A   1      42.024  21.975  25.713  1.00  0.00     0.014 A 
ATOM     33  C   UNL A   1      41.502  21.266  27.976  1.00  0.00     0.014 A 
ATOM     34  C   UNL A   1      42.455  23.207  26.205  1.00  0.00     0.010 A 
ATOM     35  C   UNL A   1      41.869  22.518  28.456  1.00  0.00     0.010 A 
ATOM     36  C   UNL A   1      42.351  23.497  27.574  1.00  0.00    -0.014 A 
BRANCH  36  37
ATOM     37  C   UNL A   1      42.761  24.818  28.105  1.00  0.00     0.031 A 
ATOM     38  C   UNL A   1      41.728  25.888  28.322  1.00  0.00     0.074 A 
ATOM     39  C   UNL A   1      44.061  25.066  28.351  1.00  0.00     0.049 A 
ATOM     40  N   UNL A   1      41.890  27.119  28.735  1.00  0.00    -0.248 NA
ATOM     41  C   UNL A   1      40.332  25.533  28.014  1.00  0.00     0.031 C 
ATOM     42  C   UNL A   1      45.161  24.118  28.153  1.00  0.00     0.029 A 
ATOM     43  N   UNL A   1      44.679  26.196  28.822  1.00  0.00    -0.354 N 
ATOM     44  C   UNL A   1      40.621  27.685  28.729  1.00  0.00     0.074 A 
ATOM     45  C   UNL A   1      39.710  26.685  28.219  1.00  0.00     0.031 C 
ATOM     46  C   UNL A   1      46.312  24.695  28.533  1.00  0.00     0.029 A 
ATOM     47  C   UNL A   1      46.039  26.063  28.962  1.00  0.00     0.049 A 
ATOM     48  H   UNL A   1      44.194  27.025  29.041  1.00  0.00     0.167 HD
ATOM     49  C   UNL A   1      40.243  28.919  29.137  1.00  0.00     0.031 A 
ATOM     50  C   UNL A   1      46.960  26.947  29.389  1.00  0.00     0.031 A 
ATOM     51  C   UNL A   1      41.148  29.911  29.651  1.00  0.00     0.049 A 
ATOM     52  C   UNL A   1      46.516  28.321  29.807  1.00  0.00     0.074 A 
ATOM     53  C   UNL A   1      40.860  31.183  30.115  1.00  0.00     0.029 A 
ATOM     54  N   UNL A   1      42.517  29.738  29.773  1.00  0.00    -0.354 N 
ATOM     55  N   UNL A   1      45.307  28.826  29.840  1.00  0.00    -0.248 NA
ATOM     56  C   UNL A   1      47.568  29.245  30.259  1.00  0.00     0.031 C 
ATOM     57  C   UNL A   1      42.064  31.793  30.484  1.00  0.00     0.029 A 
ATOM     58  C   UNL A   1      43.092  30.883  30.294  1.00  0.00     0.049 A 
ATOM     59  H   UNL A   1      43.009  28.921  29.525  1.00  0.00     0.167 HD
ATOM     60  C   UNL A   1      45.448  30.111  30.347  1.00  0.00     0.074 A 
ATOM     61  C   UNL A   1      46.857  30.303  30.619  1.00  0.00     0.031 C 
ATOM     62  C   UNL A   1      44.496  31.050  30.568  1.00  0.00     0.031 A 
BRANCH  49  63
ATOM     63  C   UNL A   1      38.782  29.256  29.045  1.00  0.00    -0.014 A 
ATOM     64  C   UNL A   1      38.229  29.749  27.853  1.00  0.00     0.009 A 
ATOM     65  C   UNL A   1      37.944  29.055  30.152  1.00  0.00     0.009 A 
ATOM     66  C   UNL A   1      36.872  30.066  27.781  1.00  0.00     0.001 A 
ATOM     67  C   UNL A   1      36.581  29.346  30.068  1.00  0.00     0.001 A 
ATOM     68  C   UNL A   1      36.048  29.860  28.887  1.00  0.00     0.000 A 
ENDBRANCH  49  63
BRANCH  50  69
ATOM     69  C   UNL A   1      48.394  26.562  29.465  1.00  0.00    -0.014 A 
ATOM     70  C   UNL A   1      48.894  25.916  30.606  1.00  0.00     0.009 A 
ATOM     71  C   UNL A   1      49.273  26.861  28.414  1.00  0.00     0.009 A 
ATOM     72  C   UNL A   1      50.254  25.610  30.707  1.00  0.00     0.001 A 
ATOM     73  C   UNL A   1      50.627  26.528  28.505  1.00  0.00     0.001 A 
ATOM     74  C   UNL A   1      51.118  25.914  29.656  1.00  0.00     0.000 A 
ENDBRANCH  50  69
BRANCH  62  75
ATOM     75  C   UNL A   1      44.942  32.348  31.176  1.00  0.00    -0.014 A 
ATOM     76  C   UNL A   1      45.042  32.506  32.566  1.00  0.00     0.009 A 
ATOM     77  C   UNL A   1      45.305  33.415  30.339  1.00  0.00     0.009 A 
ATOM     78  C   UNL A   1      45.464  33.721  33.107  1.00  0.00     0.001 A 
ATOM     79  C   UNL A   1      45.752  34.620  30.883  1.00  0.00     0.001 A 
ATOM     80  C   UNL A   1      45.823  34.774  32.266  1.00  0.00     0.000 A 
ENDBRANCH  62  75
ENDBRANCH  36  37
ENDBRANCH  28  31
ENDBRANCH  26  27
ENDBRANCH  25  26
ENDBRANCH  24  25
ENDBRANCH   1  24
TORSDOF 18
ENDMDL
