MODEL 1
REMARK VINA RESULT:     -13.7      0.000      0.000
REMARK SMILES Cc1ccc(S(=O)(=O)n2cc(C(=O)C(=O)NCC(=O)N[C@@H](Cc3c[nH]c4ccccc34)C(=O)NCCCCNC(=O)c3ccc(-c4c5nc(c(-c6ccccc6)c6ccc([nH]6)c(-c6ccccc6)c6nc(c(-c7ccccc7)c7ccc4[nH]7)C=C6)C=C5)cc3)c3ccccc32)cc1
REMARK SMILES IDX 32 1 33 2 34 3 21 5 20 6 18 7 19 8 17 10 16 11 14 12 15 13
REMARK SMILES IDX 12 15 13 16 11 17 9 18 10 19 95 20 90 21 94 22 91 23 93 24
REMARK SMILES IDX 92 25 6 26 7 27 8 28 5 29 1 30 2 31 3 32 97 33 4 34 96 35
REMARK SMILES IDX 22 36 23 37 24 38 31 39 25 40 26 41 30 42 27 44 29 45 28 46
REMARK SMILES IDX 35 47 36 48 37 49 38 50 39 51 40 52 41 54 42 55 43 56 89 57
REMARK SMILES IDX 44 58 88 59 45 60 46 61 47 62 82 63 48 64 87 65 81 66 83 67
REMARK SMILES IDX 49 68 86 69 80 70 79 71 50 73 72 74 57 75 71 76 58 77 61 78
REMARK SMILES IDX 70 79 84 80 59 81 60 82 69 84 85 85 62 86 51 87 52 88 56 89
REMARK SMILES IDX 53 90 55 91 54 92 73 93 74 94 78 95 75 96 77 97 76 98 63 99
REMARK SMILES IDX 64 100 68 101 65 102 67 103 66 104
REMARK H PARENT 34 4 20 9 16 14 25 43 39 53 83 72 61 83
REMARK Flexibility Score: inf
ROOT
ATOM      1  C   UNL A   1      36.411  22.948  23.552  1.00  0.00     0.242 C 
ATOM      2  O   UNL A   1      36.474  23.329  22.376  1.00  0.00    -0.273 OA
ATOM      3  N   UNL A   1      37.404  23.386  24.379  1.00  0.00    -0.354 N 
ATOM      4  H   UNL A   1      38.257  23.586  23.930  1.00  0.00     0.163 HD
ENDROOT
BRANCH   1   5
ATOM      5  C   UNL A   1      35.199  22.101  24.006  1.00  0.00     0.175 C 
BRANCH   5   6
ATOM      6  N   UNL A   1      34.196  21.853  22.965  1.00  0.00    -0.342 N 
ATOM      7  C   UNL A   1      33.054  22.567  22.722  1.00  0.00     0.240 C 
ATOM      8  O   UNL A   1      32.519  22.459  21.619  1.00  0.00    -0.273 OA
ATOM      9  H   UNL A   1      34.365  21.084  22.373  1.00  0.00     0.164 HD
BRANCH   7  10
ATOM     10  C   UNL A   1      32.505  23.516  23.804  1.00  0.00     0.216 C 
BRANCH  10  11
ATOM     11  N   UNL A   1      31.413  22.863  24.535  1.00  0.00    -0.340 N 
ATOM     12  C   UNL A   1      30.896  23.170  25.782  1.00  0.00     0.292 C 
ATOM     13  O   UNL A   1      30.060  22.447  26.311  1.00  0.00    -0.265 OA
ATOM     14  H   UNL A   1      30.989  22.102  24.076  1.00  0.00     0.164 HD
BRANCH  12  15
ATOM     15  C   UNL A   1      31.393  24.424  26.509  1.00  0.00     0.252 C 
ATOM     16  O   UNL A   1      31.879  24.246  27.626  1.00  0.00    -0.283 OA
BRANCH  15  17
ATOM     17  C   UNL A   1      31.140  25.770  25.974  1.00  0.00     0.054 A 
ATOM     18  N   UNL A   1      30.299  27.627  24.992  1.00  0.00    -0.240 N 
ATOM     19  C   UNL A   1      30.080  26.267  25.203  1.00  0.00     0.117 A 
ATOM     20  C   UNL A   1      31.375  28.015  25.808  1.00  0.00     0.065 A 
ATOM     21  C   UNL A   1      32.070  26.846  26.103  1.00  0.00     0.012 A 
ATOM     22  C   UNL A   1      31.935  29.285  26.046  1.00  0.00     0.028 A 
ATOM     23  C   UNL A   1      33.429  26.946  26.472  1.00  0.00     0.011 A 
ATOM     24  C   UNL A   1      33.297  29.356  26.333  1.00  0.00     0.002 A 
ATOM     25  C   UNL A   1      34.045  28.201  26.503  1.00  0.00     0.001 A 
BRANCH  18  26
ATOM     26  S   UNL A   1      30.361  28.441  23.452  1.00  0.00     0.268 S 
ATOM     27  O   UNL A   1      29.899  27.420  22.527  1.00  0.00    -0.201 OA
ATOM     28  O   UNL A   1      31.734  28.927  23.412  1.00  0.00    -0.201 OA
BRANCH  26  29
ATOM     29  C   UNL A   1      29.478  29.887  22.995  1.00  0.00     0.088 A 
ATOM     30  C   UNL A   1      27.652  33.162  20.852  1.00  0.00     0.044 C 
ATOM     31  C   UNL A   1      28.236  32.027  21.642  1.00  0.00    -0.051 A 
ATOM     32  C   UNL A   1      28.510  30.852  20.956  1.00  0.00     0.005 A 
ATOM     33  C   UNL A   1      28.569  32.111  23.014  1.00  0.00     0.005 A 
ATOM     34  C   UNL A   1      29.108  29.804  21.628  1.00  0.00     0.022 A 
ATOM     35  C   UNL A   1      29.199  31.042  23.703  1.00  0.00     0.022 A 
ENDBRANCH  26  29
ENDBRANCH  18  26
ENDBRANCH  15  17
ENDBRANCH  12  15
ENDBRANCH  10  11
ENDBRANCH   7  10
ENDBRANCH   5   6
BRANCH   5  36
ATOM     36  C   UNL A   1      35.547  20.861  24.849  1.00  0.00     0.072 C 
BRANCH  36  37
ATOM     37  C   UNL A   1      34.394  19.981  25.201  1.00  0.00    -0.020 A 
ATOM     38  C   UNL A   1      33.324  20.340  25.999  1.00  0.00     0.087 A 
ATOM     39  C   UNL A   1      34.149  18.641  24.762  1.00  0.00     0.003 A 
ATOM     40  N   UNL A   1      32.528  19.243  26.175  1.00  0.00    -0.361 N 
ATOM     41  C   UNL A   1      33.051  18.177  25.483  1.00  0.00     0.046 A 
ATOM     42  C   UNL A   1      34.758  17.762  23.842  1.00  0.00     0.010 A 
ATOM     43  H   UNL A   1      31.706  19.219  26.715  1.00  0.00     0.166 HD
ATOM     44  C   UNL A   1      32.608  16.855  25.422  1.00  0.00     0.026 A 
ATOM     45  C   UNL A   1      34.267  16.457  23.705  1.00  0.00     0.001 A 
ATOM     46  C   UNL A   1      33.226  16.002  24.509  1.00  0.00     0.002 A 
ENDBRANCH  36  37
ENDBRANCH   5  36
ENDBRANCH   1   5
BRANCH   3  47
ATOM     47  C   UNL A   1      37.408  23.606  25.816  1.00  0.00     0.116 C 
BRANCH  47  48
ATOM     48  C   UNL A   1      38.583  22.952  26.544  1.00  0.00     0.023 C 
BRANCH  48  49
ATOM     49  C   UNL A   1      39.113  21.659  25.914  1.00  0.00     0.023 C 
BRANCH  49  50
ATOM     50  C   UNL A   1      40.127  20.893  26.756  1.00  0.00     0.116 C 
BRANCH  50  51
ATOM     51  N   UNL A   1      41.164  20.205  26.016  1.00  0.00    -0.352 N 
ATOM     52  C   UNL A   1      42.503  20.536  25.800  1.00  0.00     0.251 C 
ATOM     53  H   UNL A   1      40.877  19.362  25.595  1.00  0.00     0.163 HD
ATOM     54  O   UNL A   1      43.151  19.873  25.030  1.00  0.00    -0.269 OA
BRANCH  52  55
ATOM     55  C   UNL A   1      43.180  21.592  26.619  1.00  0.00     0.039 A 
ATOM     56  C   UNL A   1      42.908  21.606  28.000  1.00  0.00     0.014 A 
ATOM     57  C   UNL A   1      43.881  22.654  26.065  1.00  0.00     0.014 A 
ATOM     58  C   UNL A   1      43.086  22.778  28.734  1.00  0.00     0.010 A 
ATOM     59  C   UNL A   1      43.943  23.848  26.743  1.00  0.00     0.010 A 
ATOM     60  C   UNL A   1      43.471  23.924  28.051  1.00  0.00    -0.014 A 
BRANCH  60  61
ATOM     61  C   UNL A   1      43.300  25.278  28.549  1.00  0.00     0.031 A 
ATOM     62  C   UNL A   1      42.074  26.031  28.229  1.00  0.00     0.074 A 
ATOM     63  C   UNL A   1      44.189  25.716  29.468  1.00  0.00     0.049 A 
ATOM     64  N   UNL A   1      41.943  27.303  28.375  1.00  0.00    -0.248 NA
ATOM     65  C   UNL A   1      40.892  25.389  27.659  1.00  0.00     0.031 C 
ATOM     66  C   UNL A   1      44.039  26.836  30.392  1.00  0.00     0.029 A 
ATOM     67  N   UNL A   1      45.530  25.337  29.610  1.00  0.00    -0.354 N 
ATOM     68  C   UNL A   1      40.611  27.604  28.189  1.00  0.00     0.074 A 
ATOM     69  C   UNL A   1      40.015  26.397  27.672  1.00  0.00     0.031 C 
ATOM     70  C   UNL A   1      45.263  27.244  30.771  1.00  0.00     0.029 A 
ATOM     71  C   UNL A   1      46.223  26.509  29.959  1.00  0.00     0.049 A 
ATOM     72  H   UNL A   1      45.909  24.436  29.489  1.00  0.00     0.167 HD
ATOM     73  C   UNL A   1      40.131  28.805  28.617  1.00  0.00     0.031 A 
ATOM     74  C   UNL A   1      47.165  27.091  29.157  1.00  0.00     0.031 A 
ATOM     75  C   UNL A   1      41.203  29.642  29.143  1.00  0.00     0.049 A 
ATOM     76  C   UNL A   1      46.803  28.509  28.773  1.00  0.00     0.074 A 
ATOM     77  C   UNL A   1      41.671  29.866  30.427  1.00  0.00     0.029 A 
ATOM     78  N   UNL A   1      42.176  30.117  28.275  1.00  0.00    -0.354 N 
ATOM     79  N   UNL A   1      45.584  28.974  28.779  1.00  0.00    -0.248 NA
ATOM     80  C   UNL A   1      47.779  29.493  28.312  1.00  0.00     0.031 C 
ATOM     81  C   UNL A   1      42.990  30.384  30.322  1.00  0.00     0.029 A 
ATOM     82  C   UNL A   1      43.295  30.515  28.978  1.00  0.00     0.049 A 
ATOM     83  H   UNL A   1      42.081  30.163  27.296  1.00  0.00     0.167 HD
ATOM     84  C   UNL A   1      45.597  30.276  28.360  1.00  0.00     0.074 A 
ATOM     85  C   UNL A   1      46.991  30.554  28.071  1.00  0.00     0.031 C 
ATOM     86  C   UNL A   1      44.459  31.024  28.272  1.00  0.00     0.031 A 
BRANCH  73  87
ATOM     87  C   UNL A   1      38.666  29.108  28.814  1.00  0.00    -0.014 A 
ATOM     88  C   UNL A   1      37.940  29.705  27.765  1.00  0.00     0.009 A 
ATOM     89  C   UNL A   1      37.954  28.885  30.004  1.00  0.00     0.009 A 
ATOM     90  C   UNL A   1      36.614  30.130  27.924  1.00  0.00     0.001 A 
ATOM     91  C   UNL A   1      36.640  29.340  30.183  1.00  0.00     0.001 A 
ATOM     92  C   UNL A   1      35.972  29.972  29.144  1.00  0.00     0.000 A 
ENDBRANCH  73  87
BRANCH  74  93
ATOM     93  C   UNL A   1      47.891  26.159  28.251  1.00  0.00    -0.014 A 
ATOM     94  C   UNL A   1      47.573  26.163  26.884  1.00  0.00     0.009 A 
ATOM     95  C   UNL A   1      49.106  25.582  28.653  1.00  0.00     0.009 A 
ATOM     96  C   UNL A   1      48.506  25.738  25.930  1.00  0.00     0.001 A 
ATOM     97  C   UNL A   1      50.033  25.147  27.696  1.00  0.00     0.001 A 
ATOM     98  C   UNL A   1      49.750  25.265  26.337  1.00  0.00     0.000 A 
ENDBRANCH  74  93
BRANCH  86  99
ATOM     99  C   UNL A   1      44.337  32.339  27.549  1.00  0.00    -0.014 A 
ATOM    100  C   UNL A   1      44.351  32.463  26.154  1.00  0.00     0.009 A 
ATOM    101  C   UNL A   1      44.018  33.498  28.291  1.00  0.00     0.009 A 
ATOM    102  C   UNL A   1      44.094  33.692  25.533  1.00  0.00     0.001 A 
ATOM    103  C   UNL A   1      43.713  34.712  27.674  1.00  0.00     0.001 A 
ATOM    104  C   UNL A   1      43.762  34.811  26.291  1.00  0.00     0.000 A 
ENDBRANCH  86  99
ENDBRANCH  60  61
ENDBRANCH  52  55
ENDBRANCH  50  51
ENDBRANCH  49  50
ENDBRANCH  48  49
ENDBRANCH  47  48
ENDBRANCH   3  47
TORSDOF 20
ENDMDL
MODEL 2
REMARK VINA RESULT:     -13.3      3.658      9.591
REMARK SMILES Cc1ccc(S(=O)(=O)n2cc(C(=O)C(=O)NCC(=O)N[C@@H](Cc3c[nH]c4ccccc34)C(=O)NCCCCNC(=O)c3ccc(-c4c5nc(c(-c6ccccc6)c6ccc([nH]6)c(-c6ccccc6)c6nc(c(-c7ccccc7)c7ccc4[nH]7)C=C6)C=C5)cc3)c3ccccc32)cc1
REMARK SMILES IDX 32 1 33 2 34 3 21 5 20 6 18 7 19 8 17 10 16 11 14 12 15 13
REMARK SMILES IDX 12 15 13 16 11 17 9 18 10 19 95 20 90 21 94 22 91 23 93 24
REMARK SMILES IDX 92 25 6 26 7 27 8 28 5 29 1 30 2 31 3 32 97 33 4 34 96 35
REMARK SMILES IDX 22 36 23 37 24 38 31 39 25 40 26 41 30 42 27 44 29 45 28 46
REMARK SMILES IDX 35 47 36 48 37 49 38 50 39 51 40 52 41 54 42 55 43 56 89 57
REMARK SMILES IDX 44 58 88 59 45 60 46 61 47 62 82 63 48 64 87 65 81 66 83 67
REMARK SMILES IDX 49 68 86 69 80 70 79 71 50 73 72 74 57 75 71 76 58 77 61 78
REMARK SMILES IDX 70 79 84 80 59 81 60 82 69 84 85 85 62 86 51 87 52 88 56 89
REMARK SMILES IDX 53 90 55 91 54 92 73 93 74 94 78 95 75 96 77 97 76 98 63 99
REMARK SMILES IDX 64 100 68 101 65 102 67 103 66 104
REMARK H PARENT 34 4 20 9 16 14 25 43 39 53 83 72 61 83
REMARK Flexibility Score: inf
ROOT
ATOM      1  C   UNL A   1      32.125  30.032  25.999  1.00  0.00     0.242 C 
ATOM      2  O   UNL A   1      31.464  31.051  26.237  1.00  0.00    -0.273 OA
ATOM      3  N   UNL A   1      33.443  30.076  26.350  1.00  0.00    -0.354 N 
ATOM      4  H   UNL A   1      33.839  30.978  26.354  1.00  0.00     0.163 HD
ENDROOT
BRANCH   1   5
ATOM      5  C   UNL A   1      31.411  28.788  25.420  1.00  0.00     0.175 C 
BRANCH   5   6
ATOM      6  N   UNL A   1      30.877  28.959  24.065  1.00  0.00    -0.342 N 
ATOM      7  C   UNL A   1      31.360  28.418  22.905  1.00  0.00     0.240 C 
ATOM      8  O   UNL A   1      30.612  28.361  21.928  1.00  0.00    -0.273 OA
ATOM      9  H   UNL A   1      30.079  29.531  23.981  1.00  0.00     0.164 HD
BRANCH   7  10
ATOM     10  C   UNL A   1      32.792  27.854  22.867  1.00  0.00     0.216 C 
BRANCH  10  11
ATOM     11  N   UNL A   1      33.037  27.193  21.579  1.00  0.00    -0.340 N 
ATOM     12  C   UNL A   1      32.900  25.857  21.248  1.00  0.00     0.292 C 
ATOM     13  O   UNL A   1      33.264  25.439  20.155  1.00  0.00    -0.265 OA
ATOM     14  H   UNL A   1      33.339  27.782  20.850  1.00  0.00     0.164 HD
BRANCH  12  15
ATOM     15  C   UNL A   1      32.298  24.890  22.273  1.00  0.00     0.252 C 
ATOM     16  O   UNL A   1      31.091  25.010  22.488  1.00  0.00    -0.283 OA
BRANCH  15  17
ATOM     17  C   UNL A   1      33.147  23.998  23.076  1.00  0.00     0.054 A 
ATOM     18  N   UNL A   1      34.709  23.068  24.423  1.00  0.00    -0.240 N 
ATOM     19  C   UNL A   1      34.313  24.255  23.810  1.00  0.00     0.117 A 
ATOM     20  C   UNL A   1      33.677  22.133  24.243  1.00  0.00     0.065 A 
ATOM     21  C   UNL A   1      32.935  22.588  23.157  1.00  0.00     0.012 A 
ATOM     22  C   UNL A   1      33.528  20.823  24.741  1.00  0.00     0.028 A 
ATOM     23  C   UNL A   1      32.161  21.655  22.434  1.00  0.00     0.011 A 
ATOM     24  C   UNL A   1      32.822  19.906  23.966  1.00  0.00     0.002 A 
ATOM     25  C   UNL A   1      32.180  20.307  22.804  1.00  0.00     0.001 A 
BRANCH  18  26
ATOM     26  S   UNL A   1      36.271  22.304  24.293  1.00  0.00     0.268 S 
ATOM     27  O   UNL A   1      36.681  22.635  22.938  1.00  0.00    -0.201 OA
ATOM     28  O   UNL A   1      35.976  20.929  24.675  1.00  0.00    -0.201 OA
BRANCH  26  29
ATOM     29  C   UNL A   1      37.684  22.633  25.279  1.00  0.00     0.088 A 
ATOM     30  C   UNL A   1      41.136  22.341  27.857  1.00  0.00     0.044 C 
ATOM     31  C   UNL A   1      39.965  22.496  26.931  1.00  0.00    -0.051 A 
ATOM     32  C   UNL A   1      39.586  21.381  26.198  1.00  0.00     0.005 A 
ATOM     33  C   UNL A   1      39.207  23.683  26.812  1.00  0.00     0.005 A 
ATOM     34  C   UNL A   1      38.474  21.459  25.380  1.00  0.00     0.022 A 
ATOM     35  C   UNL A   1      38.055  23.762  25.987  1.00  0.00     0.022 A 
ENDBRANCH  26  29
ENDBRANCH  18  26
ENDBRANCH  15  17
ENDBRANCH  12  15
ENDBRANCH  10  11
ENDBRANCH   7  10
ENDBRANCH   5   6
BRANCH   5  36
ATOM     36  C   UNL A   1      32.142  27.452  25.641  1.00  0.00     0.072 C 
BRANCH  36  37
ATOM     37  C   UNL A   1      31.263  26.252  25.762  1.00  0.00    -0.020 A 
ATOM     38  C   UNL A   1      29.965  26.157  25.295  1.00  0.00     0.087 A 
ATOM     39  C   UNL A   1      31.589  24.980  26.332  1.00  0.00     0.003 A 
ATOM     40  N   UNL A   1      29.454  24.949  25.682  1.00  0.00    -0.361 N 
ATOM     41  C   UNL A   1      30.408  24.244  26.374  1.00  0.00     0.046 A 
ATOM     42  C   UNL A   1      32.763  24.383  26.838  1.00  0.00     0.010 A 
ATOM     43  H   UNL A   1      28.541  24.633  25.493  1.00  0.00     0.166 HD
ATOM     44  C   UNL A   1      30.312  23.000  26.999  1.00  0.00     0.026 A 
ATOM     45  C   UNL A   1      32.700  23.095  27.388  1.00  0.00     0.001 A 
ATOM     46  C   UNL A   1      31.483  22.428  27.496  1.00  0.00     0.002 A 
ENDBRANCH  36  37
ENDBRANCH   5  36
ENDBRANCH   1   5
BRANCH   3  47
ATOM     47  C   UNL A   1      34.358  29.008  26.717  1.00  0.00     0.116 C 
BRANCH  47  48
ATOM     48  C   UNL A   1      35.664  29.496  27.346  1.00  0.00     0.023 C 
BRANCH  48  49
ATOM     49  C   UNL A   1      35.674  30.960  27.798  1.00  0.00     0.023 C 
BRANCH  49  50
ATOM     50  C   UNL A   1      34.542  31.360  28.737  1.00  0.00     0.116 C 
BRANCH  50  51
ATOM     51  N   UNL A   1      34.167  32.758  28.707  1.00  0.00    -0.352 N 
ATOM     52  C   UNL A   1      34.726  33.867  29.346  1.00  0.00     0.251 C 
ATOM     53  H   UNL A   1      33.388  32.962  28.140  1.00  0.00     0.163 HD
ATOM     54  O   UNL A   1      34.158  34.927  29.279  1.00  0.00    -0.269 OA
BRANCH  52  55
ATOM     55  C   UNL A   1      36.085  33.793  29.973  1.00  0.00     0.039 A 
ATOM     56  C   UNL A   1      37.183  34.156  29.171  1.00  0.00     0.014 A 
ATOM     57  C   UNL A   1      36.324  33.203  31.207  1.00  0.00     0.014 A 
ATOM     58  C   UNL A   1      38.458  33.683  29.478  1.00  0.00     0.010 A 
ATOM     59  C   UNL A   1      37.548  32.626  31.452  1.00  0.00     0.010 A 
ATOM     60  C   UNL A   1      38.589  32.804  30.545  1.00  0.00    -0.014 A 
BRANCH  60  61
ATOM     61  C   UNL A   1      39.716  31.909  30.743  1.00  0.00     0.031 A 
ATOM     62  C   UNL A   1      39.770  30.622  30.026  1.00  0.00     0.074 A 
ATOM     63  C   UNL A   1      40.779  32.394  31.423  1.00  0.00     0.049 A 
ATOM     64  N   UNL A   1      40.558  29.652  30.332  1.00  0.00    -0.248 NA
ATOM     65  C   UNL A   1      38.877  30.313  28.912  1.00  0.00     0.031 C 
ATOM     66  C   UNL A   1      42.144  31.879  31.431  1.00  0.00     0.029 A 
ATOM     67  N   UNL A   1      40.778  33.368  32.430  1.00  0.00    -0.354 N 
ATOM     68  C   UNL A   1      40.480  28.721  29.318  1.00  0.00     0.074 A 
ATOM     69  C   UNL A   1      39.369  29.141  28.500  1.00  0.00     0.031 C 
ATOM     70  C   UNL A   1      42.753  32.301  32.553  1.00  0.00     0.029 A 
ATOM     71  C   UNL A   1      41.734  32.946  33.369  1.00  0.00     0.049 A 
ATOM     72  H   UNL A   1      40.222  34.180  32.471  1.00  0.00     0.167 HD
ATOM     73  C   UNL A   1      41.449  27.770  29.208  1.00  0.00     0.031 A 
ATOM     74  C   UNL A   1      41.418  32.578  34.647  1.00  0.00     0.031 A 
ATOM     75  C   UNL A   1      42.400  27.859  30.309  1.00  0.00     0.049 A 
ATOM     76  C   UNL A   1      41.822  31.153  34.957  1.00  0.00     0.074 A 
ATOM     77  C   UNL A   1      43.634  28.476  30.432  1.00  0.00     0.029 A 
ATOM     78  N   UNL A   1      41.974  27.558  31.595  1.00  0.00    -0.354 N 
ATOM     79  N   UNL A   1      42.000  30.236  34.046  1.00  0.00    -0.248 NA
ATOM     80  C   UNL A   1      42.009  30.645  36.313  1.00  0.00     0.031 C 
ATOM     81  C   UNL A   1      43.897  28.643  31.819  1.00  0.00     0.029 A 
ATOM     82  C   UNL A   1      42.846  28.084  32.527  1.00  0.00     0.049 A 
ATOM     83  H   UNL A   1      41.164  27.042  31.812  1.00  0.00     0.167 HD
ATOM     84  C   UNL A   1      42.334  29.056  34.655  1.00  0.00     0.074 A 
ATOM     85  C   UNL A   1      42.319  29.359  36.074  1.00  0.00     0.031 C 
ATOM     86  C   UNL A   1      42.586  27.918  33.947  1.00  0.00     0.031 A 
BRANCH  73  87
ATOM     87  C   UNL A   1      41.689  26.948  27.966  1.00  0.00    -0.014 A 
ATOM     88  C   UNL A   1      42.641  25.911  28.000  1.00  0.00     0.009 A 
ATOM     89  C   UNL A   1      41.061  27.164  26.728  1.00  0.00     0.009 A 
ATOM     90  C   UNL A   1      43.005  25.195  26.852  1.00  0.00     0.001 A 
ATOM     91  C   UNL A   1      41.446  26.478  25.567  1.00  0.00     0.001 A 
ATOM     92  C   UNL A   1      42.426  25.498  25.627  1.00  0.00     0.000 A 
ENDBRANCH  73  87
BRANCH  74  93
ATOM     93  C   UNL A   1      40.202  33.225  35.213  1.00  0.00    -0.014 A 
ATOM     94  C   UNL A   1      38.955  32.613  35.006  1.00  0.00     0.009 A 
ATOM     95  C   UNL A   1      40.316  34.180  36.234  1.00  0.00     0.009 A 
ATOM     96  C   UNL A   1      37.892  32.837  35.888  1.00  0.00     0.001 A 
ATOM     97  C   UNL A   1      39.246  34.411  37.109  1.00  0.00     0.001 A 
ATOM     98  C   UNL A   1      38.051  33.709  36.961  1.00  0.00     0.000 A 
ENDBRANCH  74  93
BRANCH  86  99
ATOM     99  C   UNL A   1      42.663  26.531  34.529  1.00  0.00    -0.014 A 
ATOM    100  C   UNL A   1      41.605  25.916  35.212  1.00  0.00     0.009 A 
ATOM    101  C   UNL A   1      43.785  25.728  34.232  1.00  0.00     0.009 A 
ATOM    102  C   UNL A   1      41.681  24.576  35.610  1.00  0.00     0.001 A 
ATOM    103  C   UNL A   1      43.844  24.378  34.584  1.00  0.00     0.001 A 
ATOM    104  C   UNL A   1      42.793  23.804  35.284  1.00  0.00     0.000 A 
ENDBRANCH  86  99
ENDBRANCH  60  61
ENDBRANCH  52  55
ENDBRANCH  50  51
ENDBRANCH  49  50
ENDBRANCH  48  49
ENDBRANCH  47  48
ENDBRANCH   3  47
TORSDOF 20
ENDMDL
MODEL 3
REMARK VINA RESULT:     -12.9      2.499      4.249
REMARK SMILES Cc1ccc(S(=O)(=O)n2cc(C(=O)C(=O)NCC(=O)N[C@@H](Cc3c[nH]c4ccccc34)C(=O)NCCCCNC(=O)c3ccc(-c4c5nc(c(-c6ccccc6)c6ccc([nH]6)c(-c6ccccc6)c6nc(c(-c7ccccc7)c7ccc4[nH]7)C=C6)C=C5)cc3)c3ccccc32)cc1
REMARK SMILES IDX 32 1 33 2 34 3 21 5 20 6 18 7 19 8 17 10 16 11 14 12 15 13
REMARK SMILES IDX 12 15 13 16 11 17 9 18 10 19 95 20 90 21 94 22 91 23 93 24
REMARK SMILES IDX 92 25 6 26 7 27 8 28 5 29 1 30 2 31 3 32 97 33 4 34 96 35
REMARK SMILES IDX 22 36 23 37 24 38 31 39 25 40 26 41 30 42 27 44 29 45 28 46
REMARK SMILES IDX 35 47 36 48 37 49 38 50 39 51 40 52 41 54 42 55 43 56 89 57
REMARK SMILES IDX 44 58 88 59 45 60 46 61 47 62 82 63 48 64 87 65 81 66 83 67
REMARK SMILES IDX 49 68 86 69 80 70 79 71 50 73 72 74 57 75 71 76 58 77 61 78
REMARK SMILES IDX 70 79 84 80 59 81 60 82 69 84 85 85 62 86 51 87 52 88 56 89
REMARK SMILES IDX 53 90 55 91 54 92 73 93 74 94 78 95 75 96 77 97 76 98 63 99
REMARK SMILES IDX 64 100 68 101 65 102 67 103 66 104
REMARK H PARENT 34 4 20 9 16 14 25 43 39 53 83 72 61 83
REMARK Flexibility Score: inf
ROOT
ATOM      1  C   UNL A   1      35.465  22.735  23.550  1.00  0.00     0.242 C 
ATOM      2  O   UNL A   1      35.395  22.925  22.329  1.00  0.00    -0.273 OA
ATOM      3  N   UNL A   1      36.445  23.417  24.210  1.00  0.00    -0.354 N 
ATOM      4  H   UNL A   1      37.231  23.643  23.661  1.00  0.00     0.163 HD
ENDROOT
BRANCH   1   5
ATOM      5  C   UNL A   1      34.410  21.832  24.234  1.00  0.00     0.175 C 
BRANCH   5   6
ATOM      6  N   UNL A   1      33.392  21.284  23.333  1.00  0.00    -0.342 N 
ATOM      7  C   UNL A   1      32.467  21.977  22.601  1.00  0.00     0.240 C 
ATOM      8  O   UNL A   1      31.936  21.415  21.643  1.00  0.00    -0.273 OA
ATOM      9  H   UNL A   1      33.372  20.303  23.244  1.00  0.00     0.164 HD
BRANCH   7  10
ATOM     10  C   UNL A   1      32.155  23.442  22.960  1.00  0.00     0.216 C 
BRANCH  10  11
ATOM     11  N   UNL A   1      32.692  24.336  21.926  1.00  0.00    -0.340 N 
ATOM     12  C   UNL A   1      33.226  25.605  22.066  1.00  0.00     0.292 C 
ATOM     13  O   UNL A   1      33.519  26.275  21.083  1.00  0.00    -0.265 OA
ATOM     14  H   UNL A   1      32.669  23.984  21.007  1.00  0.00     0.164 HD
BRANCH  12  15
ATOM     15  C   UNL A   1      33.436  26.177  23.472  1.00  0.00     0.252 C 
ATOM     16  O   UNL A   1      34.003  25.439  24.278  1.00  0.00    -0.283 OA
BRANCH  15  17
ATOM     17  C   UNL A   1      32.837  27.458  23.875  1.00  0.00     0.054 A 
ATOM     18  N   UNL A   1      32.408  29.548  24.626  1.00  0.00    -0.240 N 
ATOM     19  C   UNL A   1      33.401  28.578  24.500  1.00  0.00     0.117 A 
ATOM     20  C   UNL A   1      31.293  29.112  23.891  1.00  0.00     0.065 A 
ATOM     21  C   UNL A   1      31.441  27.735  23.754  1.00  0.00     0.012 A 
ATOM     22  C   UNL A   1      30.070  29.754  23.612  1.00  0.00     0.028 A 
ATOM     23  C   UNL A   1      30.290  26.956  23.512  1.00  0.00     0.011 A 
ATOM     24  C   UNL A   1      28.937  28.959  23.453  1.00  0.00     0.002 A 
ATOM     25  C   UNL A   1      29.038  27.576  23.445  1.00  0.00     0.001 A 
BRANCH  18  26
ATOM     26  S   UNL A   1      31.912  30.339  26.099  1.00  0.00     0.268 S 
ATOM     27  O   UNL A   1      31.552  29.225  26.960  1.00  0.00    -0.201 OA
ATOM     28  O   UNL A   1      30.904  31.279  25.622  1.00  0.00    -0.201 OA
BRANCH  26  29
ATOM     29  C   UNL A   1      32.895  31.384  27.110  1.00  0.00     0.088 A 
ATOM     30  C   UNL A   1      34.784  34.755  29.038  1.00  0.00     0.044 C 
ATOM     31  C   UNL A   1      34.134  33.548  28.425  1.00  0.00    -0.051 A 
ATOM     32  C   UNL A   1      32.885  33.725  27.848  1.00  0.00     0.005 A 
ATOM     33  C   UNL A   1      34.745  32.274  28.357  1.00  0.00     0.005 A 
ATOM     34  C   UNL A   1      32.278  32.657  27.216  1.00  0.00     0.022 A 
ATOM     35  C   UNL A   1      34.132  31.179  27.693  1.00  0.00     0.022 A 
ENDBRANCH  26  29
ENDBRANCH  18  26
ENDBRANCH  15  17
ENDBRANCH  12  15
ENDBRANCH  10  11
ENDBRANCH   7  10
ENDBRANCH   5   6
BRANCH   5  36
ATOM     36  C   UNL A   1      34.976  20.811  25.237  1.00  0.00     0.072 C 
BRANCH  36  37
ATOM     37  C   UNL A   1      34.068  19.676  25.576  1.00  0.00    -0.020 A 
ATOM     38  C   UNL A   1      33.126  19.675  26.588  1.00  0.00     0.087 A 
ATOM     39  C   UNL A   1      33.962  18.411  24.915  1.00  0.00     0.003 A 
ATOM     40  N   UNL A   1      32.565  18.429  26.656  1.00  0.00    -0.361 N 
ATOM     41  C   UNL A   1      33.111  17.623  25.687  1.00  0.00     0.046 A 
ATOM     42  C   UNL A   1      34.518  17.843  23.749  1.00  0.00     0.010 A 
ATOM     43  H   UNL A   1      31.877  18.153  27.302  1.00  0.00     0.166 HD
ATOM     44  C   UNL A   1      32.883  16.272  25.425  1.00  0.00     0.026 A 
ATOM     45  C   UNL A   1      34.226  16.511  23.424  1.00  0.00     0.001 A 
ATOM     46  C   UNL A   1      33.445  15.729  24.270  1.00  0.00     0.002 A 
ENDBRANCH  36  37
ENDBRANCH   5  36
ENDBRANCH   1   5
BRANCH   3  47
ATOM     47  C   UNL A   1      36.519  23.866  25.590  1.00  0.00     0.116 C 
BRANCH  47  48
ATOM     48  C   UNL A   1      37.907  23.726  26.218  1.00  0.00     0.023 C 
BRANCH  48  49
ATOM     49  C   UNL A   1      38.674  22.451  25.849  1.00  0.00     0.023 C 
BRANCH  49  50
ATOM     50  C   UNL A   1      39.847  22.110  26.761  1.00  0.00     0.116 C 
BRANCH  50  51
ATOM     51  N   UNL A   1      41.140  22.598  26.326  1.00  0.00    -0.352 N 
ATOM     52  C   UNL A   1      41.639  23.898  26.230  1.00  0.00     0.251 C 
ATOM     53  H   UNL A   1      41.773  21.894  26.054  1.00  0.00     0.163 HD
ATOM     54  O   UNL A   1      42.712  24.073  25.709  1.00  0.00    -0.269 OA
BRANCH  52  55
ATOM     55  C   UNL A   1      40.943  25.045  26.896  1.00  0.00     0.039 A 
ATOM     56  C   UNL A   1      40.687  26.184  26.111  1.00  0.00     0.014 A 
ATOM     57  C   UNL A   1      40.732  25.115  28.266  1.00  0.00     0.014 A 
ATOM     58  C   UNL A   1      40.499  27.424  26.721  1.00  0.00     0.010 A 
ATOM     59  C   UNL A   1      40.674  26.346  28.877  1.00  0.00     0.010 A 
ATOM     60  C   UNL A   1      40.638  27.501  28.100  1.00  0.00    -0.014 A 
BRANCH  60  61
ATOM     61  C   UNL A   1      40.891  28.727  28.837  1.00  0.00     0.031 A 
ATOM     62  C   UNL A   1      39.783  29.656  29.124  1.00  0.00     0.074 A 
ATOM     63  C   UNL A   1      42.105  28.861  29.415  1.00  0.00     0.049 A 
ATOM     64  N   UNL A   1      39.938  30.874  29.511  1.00  0.00    -0.248 NA
ATOM     65  C   UNL A   1      38.384  29.280  28.940  1.00  0.00     0.031 C 
ATOM     66  C   UNL A   1      42.484  29.766  30.496  1.00  0.00     0.029 A 
ATOM     67  N   UNL A   1      43.323  28.321  28.983  1.00  0.00    -0.354 N 
ATOM     68  C   UNL A   1      38.699  31.347  29.887  1.00  0.00     0.074 A 
ATOM     69  C   UNL A   1      37.758  30.348  29.443  1.00  0.00     0.031 C 
ATOM     70  C   UNL A   1      43.815  29.952  30.450  1.00  0.00     0.029 A 
ATOM     71  C   UNL A   1      44.290  29.311  29.232  1.00  0.00     0.049 A 
ATOM     72  H   UNL A   1      43.472  27.432  28.586  1.00  0.00     0.167 HD
ATOM     73  C   UNL A   1      38.617  32.473  30.651  1.00  0.00     0.031 A 
ATOM     74  C   UNL A   1      44.983  29.948  28.241  1.00  0.00     0.031 A 
ATOM     75  C   UNL A   1      39.934  33.059  30.865  1.00  0.00     0.049 A 
ATOM     76  C   UNL A   1      44.768  31.446  28.254  1.00  0.00     0.074 A 
ATOM     77  C   UNL A   1      40.848  32.952  31.900  1.00  0.00     0.029 A 
ATOM     78  N   UNL A   1      40.614  33.603  29.785  1.00  0.00    -0.354 N 
ATOM     79  N   UNL A   1      43.729  32.024  28.790  1.00  0.00    -0.248 NA
ATOM     80  C   UNL A   1      45.681  32.396  27.627  1.00  0.00     0.031 C 
ATOM     81  C   UNL A   1      42.119  33.337  31.394  1.00  0.00     0.029 A 
ATOM     82  C   UNL A   1      41.960  33.721  30.074  1.00  0.00     0.049 A 
ATOM     83  H   UNL A   1      40.197  33.868  28.934  1.00  0.00     0.167 HD
ATOM     84  C   UNL A   1      43.825  33.378  28.612  1.00  0.00     0.074 A 
ATOM     85  C   UNL A   1      45.060  33.562  27.872  1.00  0.00     0.031 C 
ATOM     86  C   UNL A   1      42.878  34.243  29.076  1.00  0.00     0.031 A 
BRANCH  73  87
ATOM     87  C   UNL A   1      37.388  32.879  31.426  1.00  0.00    -0.014 A 
ATOM     88  C   UNL A   1      36.413  31.910  31.728  1.00  0.00     0.009 A 
ATOM     89  C   UNL A   1      37.101  34.189  31.844  1.00  0.00     0.009 A 
ATOM     90  C   UNL A   1      35.192  32.243  32.330  1.00  0.00     0.001 A 
ATOM     91  C   UNL A   1      35.867  34.537  32.413  1.00  0.00     0.001 A 
ATOM     92  C   UNL A   1      34.908  33.563  32.648  1.00  0.00     0.000 A 
ENDBRANCH  73  87
BRANCH  74  93
ATOM     93  C   UNL A   1      45.175  29.160  26.993  1.00  0.00    -0.014 A 
ATOM     94  C   UNL A   1      46.427  28.573  26.752  1.00  0.00     0.009 A 
ATOM     95  C   UNL A   1      44.066  28.686  26.275  1.00  0.00     0.009 A 
ATOM     96  C   UNL A   1      46.544  27.446  25.929  1.00  0.00     0.001 A 
ATOM     97  C   UNL A   1      44.188  27.566  25.443  1.00  0.00     0.001 A 
ATOM     98  C   UNL A   1      45.416  26.922  25.305  1.00  0.00     0.000 A 
ENDBRANCH  74  93
BRANCH  86  99
ATOM     99  C   UNL A   1      42.748  35.688  28.673  1.00  0.00    -0.014 A 
ATOM    100  C   UNL A   1      43.161  36.758  29.478  1.00  0.00     0.009 A 
ATOM    101  C   UNL A   1      42.354  35.995  27.353  1.00  0.00     0.009 A 
ATOM    102  C   UNL A   1      43.146  38.074  28.998  1.00  0.00     0.001 A 
ATOM    103  C   UNL A   1      42.385  37.299  26.855  1.00  0.00     0.001 A 
ATOM    104  C   UNL A   1      42.771  38.342  27.684  1.00  0.00     0.000 A 
ENDBRANCH  86  99
ENDBRANCH  60  61
ENDBRANCH  52  55
ENDBRANCH  50  51
ENDBRANCH  49  50
ENDBRANCH  48  49
ENDBRANCH  47  48
ENDBRANCH   3  47
TORSDOF 20
ENDMDL
