MODEL 1
REMARK VINA RESULT:     -11.2      0.000      0.000
REMARK SMILES O=C(NCCCCNC(=O)[C@H]1C[C@H](O)CN1C(=O)CCOc1ccc(F)cc1)c1ccc(-c2c3nc(c(-c4ccccc4)c4ccc([nH]4)c(-c4ccccc4)c4nc(c(-c5ccccc5)c5ccc2[nH]5)C=C4)C=C3)cc1
REMARK SMILES IDX 7 1 6 2 5 3 4 4 3 5 1 6 2 7 29 9 30 10 76 11 31 12 75 13
REMARK SMILES IDX 32 14 33 15 34 16 69 17 35 18 74 19 68 20 70 21 36 22 73 23
REMARK SMILES IDX 67 24 66 25 37 27 59 28 44 29 58 30 45 31 48 32 57 33 71 34
REMARK SMILES IDX 46 35 47 36 56 38 72 39 49 40 38 41 39 42 43 43 40 44 42 45
REMARK SMILES IDX 41 46 60 47 61 48 65 49 62 50 64 51 63 52 50 53 51 54 55 55
REMARK SMILES IDX 52 56 54 57 53 58 8 59 9 60 10 62 11 63 12 64 16 65 13 66
REMARK SMILES IDX 15 67 17 68 18 69 19 70 20 71 21 72 22 73 23 74 28 75 24 76
REMARK SMILES IDX 27 77 25 78 26 79 14 80
REMARK H PARENT 3 8 70 26 48 37 8 61 14 81
REMARK Flexibility Score: inf
ROOT
ATOM      1  C   UNL A   1      32.432  29.405  27.241  1.00  0.00     0.116 C 
ENDROOT
BRANCH   1   2
ATOM      2  C   UNL A   1      32.122  30.497  26.217  1.00  0.00     0.023 C 
BRANCH   2   3
ATOM      3  C   UNL A   1      31.621  31.801  26.829  1.00  0.00     0.023 C 
BRANCH   3   4
ATOM      4  C   UNL A   1      32.753  32.681  27.325  1.00  0.00     0.116 C 
BRANCH   4   5
ATOM      5  N   UNL A   1      32.339  34.041  27.641  1.00  0.00    -0.352 N 
ATOM      6  O   UNL A   1      32.506  35.994  28.797  1.00  0.00    -0.269 OA
ATOM      7  C   UNL A   1      32.960  34.895  28.525  1.00  0.00     0.251 C 
ATOM      8  H   UNL A   1      31.539  34.383  27.178  1.00  0.00     0.163 HD
BRANCH   7   9
ATOM      9  C   UNL A   1      34.184  34.392  29.174  1.00  0.00     0.039 A 
ATOM     10  C   UNL A   1      35.414  34.575  28.539  1.00  0.00     0.014 A 
ATOM     11  C   UNL A   1      34.070  33.605  30.321  1.00  0.00     0.014 A 
ATOM     12  C   UNL A   1      36.517  33.862  28.981  1.00  0.00     0.010 A 
ATOM     13  C   UNL A   1      35.201  32.953  30.812  1.00  0.00     0.010 A 
ATOM     14  C   UNL A   1      36.424  33.058  30.130  1.00  0.00    -0.014 A 
BRANCH  14  15
ATOM     15  C   UNL A   1      37.650  32.425  30.664  1.00  0.00     0.031 A 
ATOM     16  C   UNL A   1      38.263  31.219  30.014  1.00  0.00     0.074 A 
ATOM     17  C   UNL A   1      38.208  32.974  31.759  1.00  0.00     0.049 A 
ATOM     18  N   UNL A   1      39.315  30.537  30.389  1.00  0.00    -0.248 NA
ATOM     19  C   UNL A   1      37.617  30.707  28.795  1.00  0.00     0.031 C 
ATOM     20  C   UNL A   1      37.687  34.146  32.471  1.00  0.00     0.029 A 
ATOM     21  N   UNL A   1      39.335  32.635  32.457  1.00  0.00    -0.354 N 
ATOM     22  C   UNL A   1      39.441  29.499  29.475  1.00  0.00     0.074 A 
ATOM     23  C   UNL A   1      38.358  29.639  28.525  1.00  0.00     0.031 C 
ATOM     24  C   UNL A   1      38.514  34.450  33.479  1.00  0.00     0.029 A 
ATOM     25  C   UNL A   1      39.578  33.457  33.528  1.00  0.00     0.049 A 
ATOM     26  H   UNL A   1      39.914  31.876  32.215  1.00  0.00     0.167 HD
ATOM     27  C   UNL A   1      40.376  28.519  29.444  1.00  0.00     0.031 A 
ATOM     28  C   UNL A   1      40.533  33.402  34.472  1.00  0.00     0.031 A 
ATOM     29  C   UNL A   1      41.458  28.400  30.386  1.00  0.00     0.049 A 
ATOM     30  C   UNL A   1      41.535  32.293  34.419  1.00  0.00     0.074 A 
ATOM     31  C   UNL A   1      42.486  27.473  30.404  1.00  0.00     0.029 A 
ATOM     32  N   UNL A   1      41.649  29.230  31.479  1.00  0.00    -0.354 N 
ATOM     33  N   UNL A   1      41.655  31.335  33.532  1.00  0.00    -0.248 NA
ATOM     34  C   UNL A   1      42.522  32.247  35.505  1.00  0.00     0.031 C 
ATOM     35  C   UNL A   1      43.273  27.714  31.535  1.00  0.00     0.029 A 
ATOM     36  C   UNL A   1      42.758  28.816  32.197  1.00  0.00     0.049 A 
ATOM     37  H   UNL A   1      41.080  29.999  31.709  1.00  0.00     0.167 HD
ATOM     38  C   UNL A   1      42.728  30.566  33.955  1.00  0.00     0.074 A 
ATOM     39  C   UNL A   1      43.242  31.189  35.160  1.00  0.00     0.031 C 
ATOM     40  C   UNL A   1      43.234  29.438  33.403  1.00  0.00     0.031 A 
BRANCH  27  41
ATOM     41  C   UNL A   1      40.262  27.469  28.376  1.00  0.00    -0.014 A 
ATOM     42  C   UNL A   1      40.908  27.612  27.138  1.00  0.00     0.009 A 
ATOM     43  C   UNL A   1      39.574  26.276  28.651  1.00  0.00     0.009 A 
ATOM     44  C   UNL A   1      40.856  26.583  26.194  1.00  0.00     0.001 A 
ATOM     45  C   UNL A   1      39.538  25.244  27.710  1.00  0.00     0.001 A 
ATOM     46  C   UNL A   1      40.177  25.400  26.481  1.00  0.00     0.000 A 
ENDBRANCH  27  41
BRANCH  28  47
ATOM     47  C   UNL A   1      40.540  34.404  35.565  1.00  0.00    -0.014 A 
ATOM     48  C   UNL A   1      41.273  35.592  35.443  1.00  0.00     0.009 A 
ATOM     49  C   UNL A   1      39.780  34.186  36.726  1.00  0.00     0.009 A 
ATOM     50  C   UNL A   1      41.254  36.538  36.469  1.00  0.00     0.001 A 
ATOM     51  C   UNL A   1      39.741  35.146  37.736  1.00  0.00     0.001 A 
ATOM     52  C   UNL A   1      40.484  36.318  37.611  1.00  0.00     0.000 A 
ENDBRANCH  28  47
BRANCH  40  53
ATOM     53  C   UNL A   1      44.398  28.814  34.112  1.00  0.00    -0.014 A 
ATOM     54  C   UNL A   1      45.711  29.205  33.814  1.00  0.00     0.009 A 
ATOM     55  C   UNL A   1      44.179  27.831  35.089  1.00  0.00     0.009 A 
ATOM     56  C   UNL A   1      46.789  28.600  34.459  1.00  0.00     0.001 A 
ATOM     57  C   UNL A   1      45.259  27.243  35.749  1.00  0.00     0.001 A 
ATOM     58  C   UNL A   1      46.562  27.621  35.427  1.00  0.00     0.000 A 
ENDBRANCH  40  53
ENDBRANCH  14  15
ENDBRANCH   7   9
ENDBRANCH   4   5
ENDBRANCH   3   4
ENDBRANCH   2   3
ENDBRANCH   1   2
BRANCH   1  59
ATOM     59  N   UNL A   1      31.500  28.312  27.137  1.00  0.00    -0.354 N 
ATOM     60  C   UNL A   1      31.530  27.221  26.327  1.00  0.00     0.242 C 
ATOM     61  H   UNL A   1      30.726  28.362  27.745  1.00  0.00     0.163 HD
ATOM     62  O   UNL A   1      30.644  26.384  26.536  1.00  0.00    -0.273 OA
BRANCH  60  63
ATOM     63  C   UNL A   1      32.685  26.940  25.315  1.00  0.00     0.177 C 
ATOM     64  C   UNL A   1      33.646  25.920  25.936  1.00  0.00     0.069 C 
ATOM     65  N   UNL A   1      32.364  26.285  24.033  1.00  0.00    -0.328 N 
ATOM     66  C   UNL A   1      32.990  24.586  25.578  1.00  0.00     0.136 C 
ATOM     67  C   UNL A   1      32.433  24.835  24.175  1.00  0.00     0.152 C 
BRANCH  65  68
ATOM     68  C   UNL A   1      32.329  26.970  22.836  1.00  0.00     0.226 C 
ATOM     69  O   UNL A   1      33.341  27.466  22.337  1.00  0.00    -0.275 OA
BRANCH  68  70
ATOM     70  C   UNL A   1      30.997  27.135  22.129  1.00  0.00     0.141 C 
BRANCH  70  71
ATOM     71  C   UNL A   1      30.031  27.945  22.989  1.00  0.00     0.239 C 
BRANCH  71  72
ATOM     72  O   UNL A   1      29.078  28.652  22.187  1.00  0.00    -0.493 OA
BRANCH  72  73
ATOM     73  C   UNL A   1      28.981  30.009  22.317  1.00  0.00     0.119 A 
ATOM     74  C   UNL A   1      28.595  30.909  21.323  1.00  0.00     0.049 A 
ATOM     75  C   UNL A   1      29.303  30.494  23.590  1.00  0.00     0.049 A 
ATOM     76  C   UNL A   1      28.460  32.269  21.616  1.00  0.00     0.043 A 
ATOM     77  C   UNL A   1      29.186  31.853  23.881  1.00  0.00     0.043 A 
ATOM     78  C   UNL A   1      28.752  32.728  22.893  1.00  0.00     0.123 A 
ATOM     79  F   UNL A   1      28.601  34.026  23.179  1.00  0.00    -0.207 F 
ENDBRANCH  72  73
ENDBRANCH  71  72
ENDBRANCH  70  71
ENDBRANCH  68  70
ENDBRANCH  65  68
BRANCH  66  80
ATOM     80  O   UNL A   1      33.932  23.524  25.597  1.00  0.00    -0.391 OA
ATOM     81  H   UNL A   1      33.514  22.716  25.260  1.00  0.00     0.211 HD
ENDBRANCH  66  80
ENDBRANCH  60  63
ENDBRANCH   1  59
TORSDOF 17
ENDMDL
MODEL 2
REMARK VINA RESULT:     -11.1      5.851     10.504
REMARK SMILES O=C(NCCCCNC(=O)[C@H]1C[C@H](O)CN1C(=O)CCOc1ccc(F)cc1)c1ccc(-c2c3nc(c(-c4ccccc4)c4ccc([nH]4)c(-c4ccccc4)c4nc(c(-c5ccccc5)c5ccc2[nH]5)C=C4)C=C3)cc1
REMARK SMILES IDX 7 1 6 2 5 3 4 4 3 5 1 6 2 7 29 9 30 10 76 11 31 12 75 13
REMARK SMILES IDX 32 14 33 15 34 16 69 17 35 18 74 19 68 20 70 21 36 22 73 23
REMARK SMILES IDX 67 24 66 25 37 27 59 28 44 29 58 30 45 31 48 32 57 33 71 34
REMARK SMILES IDX 46 35 47 36 56 38 72 39 49 40 38 41 39 42 43 43 40 44 42 45
REMARK SMILES IDX 41 46 60 47 61 48 65 49 62 50 64 51 63 52 50 53 51 54 55 55
REMARK SMILES IDX 52 56 54 57 53 58 8 59 9 60 10 62 11 63 12 64 16 65 13 66
REMARK SMILES IDX 15 67 17 68 18 69 19 70 20 71 21 72 22 73 23 74 28 75 24 76
REMARK SMILES IDX 27 77 25 78 26 79 14 80
REMARK H PARENT 3 8 70 26 48 37 8 61 14 81
REMARK Flexibility Score: inf
ROOT
ATOM      1  C   UNL A   1      37.342  22.265  26.032  1.00  0.00     0.116 C 
ENDROOT
BRANCH   1   2
ATOM      2  C   UNL A   1      37.217  21.317  24.839  1.00  0.00     0.023 C 
BRANCH   2   3
ATOM      3  C   UNL A   1      38.116  20.088  24.923  1.00  0.00     0.023 C 
BRANCH   3   4
ATOM      4  C   UNL A   1      39.310  20.304  25.834  1.00  0.00     0.116 C 
BRANCH   4   5
ATOM      5  N   UNL A   1      40.252  19.194  25.834  1.00  0.00    -0.352 N 
ATOM      6  O   UNL A   1      42.335  18.303  26.051  1.00  0.00    -0.269 OA
ATOM      7  C   UNL A   1      41.590  19.264  26.152  1.00  0.00     0.251 C 
ATOM      8  H   UNL A   1      39.899  18.309  25.583  1.00  0.00     0.163 HD
BRANCH   7   9
ATOM      9  C   UNL A   1      42.096  20.582  26.576  1.00  0.00     0.039 A 
ATOM     10  C   UNL A   1      42.101  20.904  27.934  1.00  0.00     0.014 A 
ATOM     11  C   UNL A   1      42.405  21.535  25.604  1.00  0.00     0.014 A 
ATOM     12  C   UNL A   1      42.290  22.222  28.317  1.00  0.00     0.010 A 
ATOM     13  C   UNL A   1      42.677  22.844  25.999  1.00  0.00     0.010 A 
ATOM     14  C   UNL A   1      42.597  23.200  27.355  1.00  0.00    -0.014 A 
BRANCH  14  15
ATOM     15  C   UNL A   1      42.938  24.567  27.805  1.00  0.00     0.031 A 
ATOM     16  C   UNL A   1      41.879  25.579  28.131  1.00  0.00     0.074 A 
ATOM     17  C   UNL A   1      44.243  24.876  27.920  1.00  0.00     0.049 A 
ATOM     18  N   UNL A   1      42.028  26.824  28.504  1.00  0.00    -0.248 NA
ATOM     19  C   UNL A   1      40.476  25.147  28.022  1.00  0.00     0.031 C 
ATOM     20  C   UNL A   1      45.354  23.965  27.622  1.00  0.00     0.029 A 
ATOM     21  N   UNL A   1      44.860  26.028  28.327  1.00  0.00    -0.354 N 
ATOM     22  C   UNL A   1      40.745  27.336  28.644  1.00  0.00     0.074 A 
ATOM     23  C   UNL A   1      39.826  26.267  28.317  1.00  0.00     0.031 C 
ATOM     24  C   UNL A   1      46.512  24.580  27.895  1.00  0.00     0.029 A 
ATOM     25  C   UNL A   1      46.229  25.946  28.315  1.00  0.00     0.049 A 
ATOM     26  H   UNL A   1      44.368  26.837  28.601  1.00  0.00     0.167 HD
ATOM     27  C   UNL A   1      40.377  28.588  29.007  1.00  0.00     0.031 A 
ATOM     28  C   UNL A   1      47.162  26.875  28.579  1.00  0.00     0.031 A 
ATOM     29  C   UNL A   1      41.302  29.639  29.346  1.00  0.00     0.049 A 
ATOM     30  C   UNL A   1      46.720  28.254  28.954  1.00  0.00     0.074 A 
ATOM     31  C   UNL A   1      41.023  30.924  29.779  1.00  0.00     0.029 A 
ATOM     32  N   UNL A   1      42.681  29.528  29.285  1.00  0.00    -0.354 N 
ATOM     33  N   UNL A   1      45.502  28.713  29.108  1.00  0.00    -0.248 NA
ATOM     34  C   UNL A   1      47.779  29.246  29.177  1.00  0.00     0.031 C 
ATOM     35  C   UNL A   1      42.236  31.605  29.935  1.00  0.00     0.029 A 
ATOM     36  C   UNL A   1      43.267  30.731  29.639  1.00  0.00     0.049 A 
ATOM     37  H   UNL A   1      43.171  28.713  29.028  1.00  0.00     0.167 HD
ATOM     38  C   UNL A   1      45.645  30.051  29.439  1.00  0.00     0.074 A 
ATOM     39  C   UNL A   1      47.069  30.320  29.496  1.00  0.00     0.031 C 
ATOM     40  C   UNL A   1      44.684  30.978  29.665  1.00  0.00     0.031 A 
BRANCH  27  41
ATOM     41  C   UNL A   1      38.911  28.914  29.030  1.00  0.00    -0.014 A 
ATOM     42  C   UNL A   1      38.152  28.781  30.202  1.00  0.00     0.009 A 
ATOM     43  C   UNL A   1      38.305  29.452  27.884  1.00  0.00     0.009 A 
ATOM     44  C   UNL A   1      36.810  29.171  30.220  1.00  0.00     0.001 A 
ATOM     45  C   UNL A   1      36.968  29.855  27.910  1.00  0.00     0.001 A 
ATOM     46  C   UNL A   1      36.221  29.712  29.078  1.00  0.00     0.000 A 
ENDBRANCH  27  41
BRANCH  28  47
ATOM     47  C   UNL A   1      48.598  26.531  28.440  1.00  0.00    -0.014 A 
ATOM     48  C   UNL A   1      49.328  26.054  29.537  1.00  0.00     0.009 A 
ATOM     49  C   UNL A   1      49.234  26.646  27.194  1.00  0.00     0.009 A 
ATOM     50  C   UNL A   1      50.674  25.712  29.390  1.00  0.00     0.001 A 
ATOM     51  C   UNL A   1      50.570  26.277  27.044  1.00  0.00     0.001 A 
ATOM     52  C   UNL A   1      51.292  25.817  28.144  1.00  0.00     0.000 A 
ENDBRANCH  28  47
BRANCH  40  53
ATOM     53  C   UNL A   1      45.157  32.364  29.984  1.00  0.00    -0.014 A 
ATOM     54  C   UNL A   1      45.425  32.741  31.308  1.00  0.00     0.009 A 
ATOM     55  C   UNL A   1      45.340  33.297  28.953  1.00  0.00     0.009 A 
ATOM     56  C   UNL A   1      45.840  34.041  31.598  1.00  0.00     0.001 A 
ATOM     57  C   UNL A   1      45.776  34.590  29.245  1.00  0.00     0.001 A 
ATOM     58  C   UNL A   1      46.017  34.963  30.567  1.00  0.00     0.000 A 
ENDBRANCH  40  53
ENDBRANCH  14  15
ENDBRANCH   7   9
ENDBRANCH   4   5
ENDBRANCH   3   4
ENDBRANCH   2   3
ENDBRANCH   1   2
BRANCH   1  59
ATOM     59  N   UNL A   1      36.648  23.503  25.790  1.00  0.00    -0.354 N 
ATOM     60  C   UNL A   1      35.359  23.716  25.413  1.00  0.00     0.242 C 
ATOM     61  H   UNL A   1      37.187  24.318  25.918  1.00  0.00     0.163 HD
ATOM     62  O   UNL A   1      35.005  24.900  25.387  1.00  0.00    -0.273 OA
BRANCH  60  63
ATOM     63  C   UNL A   1      34.334  22.560  25.186  1.00  0.00     0.177 C 
ATOM     64  C   UNL A   1      33.841  22.066  26.551  1.00  0.00     0.069 C 
ATOM     65  N   UNL A   1      33.057  22.863  24.514  1.00  0.00    -0.328 N 
ATOM     66  C   UNL A   1      32.700  23.035  26.862  1.00  0.00     0.136 C 
ATOM     67  C   UNL A   1      32.053  23.265  25.494  1.00  0.00     0.152 C 
BRANCH  65  68
ATOM     68  C   UNL A   1      32.798  22.501  23.209  1.00  0.00     0.226 C 
ATOM     69  O   UNL A   1      33.416  22.990  22.261  1.00  0.00    -0.275 OA
BRANCH  68  70
ATOM     70  C   UNL A   1      31.704  21.487  22.937  1.00  0.00     0.141 C 
BRANCH  70  71
ATOM     71  C   UNL A   1      32.259  20.067  23.011  1.00  0.00     0.239 C 
BRANCH  71  72
ATOM     72  O   UNL A   1      32.108  19.510  24.322  1.00  0.00    -0.493 OA
BRANCH  72  73
ATOM     73  C   UNL A   1      32.875  18.437  24.677  1.00  0.00     0.119 A 
ATOM     74  C   UNL A   1      32.441  17.300  25.359  1.00  0.00     0.049 A 
ATOM     75  C   UNL A   1      34.217  18.530  24.289  1.00  0.00     0.049 A 
ATOM     76  C   UNL A   1      33.318  16.236  25.587  1.00  0.00     0.043 A 
ATOM     77  C   UNL A   1      35.100  17.477  24.532  1.00  0.00     0.043 A 
ATOM     78  C   UNL A   1      34.638  16.332  25.168  1.00  0.00     0.123 A 
ATOM     79  F   UNL A   1      35.471  15.304  25.367  1.00  0.00    -0.207 F 
ENDBRANCH  72  73
ENDBRANCH  71  72
ENDBRANCH  70  71
ENDBRANCH  68  70
ENDBRANCH  65  68
BRANCH  66  80
ATOM     80  O   UNL A   1      31.788  22.479  27.796  1.00  0.00    -0.391 OA
ATOM     81  H   UNL A   1      30.921  22.902  27.692  1.00  0.00     0.211 HD
ENDBRANCH  66  80
ENDBRANCH  60  63
ENDBRANCH   1  59
TORSDOF 17
ENDMDL
MODEL 3
REMARK VINA RESULT:     -11.0      0.320      5.847
REMARK SMILES O=C(NCCCCNC(=O)[C@H]1C[C@H](O)CN1C(=O)CCOc1ccc(F)cc1)c1ccc(-c2c3nc(c(-c4ccccc4)c4ccc([nH]4)c(-c4ccccc4)c4nc(c(-c5ccccc5)c5ccc2[nH]5)C=C4)C=C3)cc1
REMARK SMILES IDX 7 1 6 2 5 3 4 4 3 5 1 6 2 7 29 9 30 10 76 11 31 12 75 13
REMARK SMILES IDX 32 14 33 15 34 16 69 17 35 18 74 19 68 20 70 21 36 22 73 23
REMARK SMILES IDX 67 24 66 25 37 27 59 28 44 29 58 30 45 31 48 32 57 33 71 34
REMARK SMILES IDX 46 35 47 36 56 38 72 39 49 40 38 41 39 42 43 43 40 44 42 45
REMARK SMILES IDX 41 46 60 47 61 48 65 49 62 50 64 51 63 52 50 53 51 54 55 55
REMARK SMILES IDX 52 56 54 57 53 58 8 59 9 60 10 62 11 63 12 64 16 65 13 66
REMARK SMILES IDX 15 67 17 68 18 69 19 70 20 71 21 72 22 73 23 74 28 75 24 76
REMARK SMILES IDX 27 77 25 78 26 79 14 80
REMARK H PARENT 3 8 70 26 48 37 8 61 14 81
REMARK Flexibility Score: inf
ROOT
ATOM      1  C   UNL A   1      32.510  29.225  27.255  1.00  0.00     0.116 C 
ENDROOT
BRANCH   1   2
ATOM      2  C   UNL A   1      32.239  30.342  26.247  1.00  0.00     0.023 C 
BRANCH   2   3
ATOM      3  C   UNL A   1      31.743  31.640  26.873  1.00  0.00     0.023 C 
BRANCH   3   4
ATOM      4  C   UNL A   1      32.879  32.570  27.257  1.00  0.00     0.116 C 
BRANCH   4   5
ATOM      5  N   UNL A   1      32.446  33.927  27.561  1.00  0.00    -0.352 N 
ATOM      6  O   UNL A   1      32.533  35.864  28.752  1.00  0.00    -0.269 OA
ATOM      7  C   UNL A   1      33.004  34.767  28.498  1.00  0.00     0.251 C 
ATOM      8  H   UNL A   1      31.680  34.276  27.048  1.00  0.00     0.163 HD
BRANCH   7   9
ATOM      9  C   UNL A   1      34.180  34.254  29.224  1.00  0.00     0.039 A 
ATOM     10  C   UNL A   1      35.456  34.511  28.719  1.00  0.00     0.014 A 
ATOM     11  C   UNL A   1      33.987  33.389  30.302  1.00  0.00     0.014 A 
ATOM     12  C   UNL A   1      36.536  33.798  29.214  1.00  0.00     0.010 A 
ATOM     13  C   UNL A   1      35.089  32.735  30.852  1.00  0.00     0.010 A 
ATOM     14  C   UNL A   1      36.365  32.917  30.295  1.00  0.00    -0.014 A 
BRANCH  14  15
ATOM     15  C   UNL A   1      37.557  32.281  30.899  1.00  0.00     0.031 A 
ATOM     16  C   UNL A   1      38.173  32.800  32.164  1.00  0.00     0.074 A 
ATOM     17  C   UNL A   1      38.072  31.206  30.273  1.00  0.00     0.049 A 
ATOM     18  N   UNL A   1      39.237  32.366  32.791  1.00  0.00    -0.248 NA
ATOM     19  C   UNL A   1      37.523  33.952  32.810  1.00  0.00     0.031 C 
ATOM     20  C   UNL A   1      37.549  30.624  29.032  1.00  0.00     0.029 A 
ATOM     21  N   UNL A   1      39.133  30.404  30.595  1.00  0.00    -0.354 N 
ATOM     22  C   UNL A   1      39.405  33.206  33.883  1.00  0.00     0.074 A 
ATOM     23  C   UNL A   1      38.333  34.178  33.838  1.00  0.00     0.031 C 
ATOM     24  C   UNL A   1      38.267  29.537  28.721  1.00  0.00     0.029 A 
ATOM     25  C   UNL A   1      39.340  29.389  29.696  1.00  0.00     0.049 A 
ATOM     26  H   UNL A   1      39.694  30.543  31.393  1.00  0.00     0.167 HD
ATOM     27  C   UNL A   1      40.373  33.167  34.830  1.00  0.00     0.031 A 
ATOM     28  C   UNL A   1      40.306  28.457  29.637  1.00  0.00     0.031 A 
ATOM     29  C   UNL A   1      41.425  32.185  34.874  1.00  0.00     0.049 A 
ATOM     30  C   UNL A   1      41.372  28.458  30.687  1.00  0.00     0.074 A 
ATOM     31  C   UNL A   1      42.420  32.031  35.824  1.00  0.00     0.029 A 
ATOM     32  N   UNL A   1      41.623  31.196  33.924  1.00  0.00    -0.354 N 
ATOM     33  N   UNL A   1      41.499  29.244  31.728  1.00  0.00    -0.248 NA
ATOM     34  C   UNL A   1      42.434  27.455  30.544  1.00  0.00     0.031 C 
ATOM     35  C   UNL A   1      43.247  30.975  35.424  1.00  0.00     0.029 A 
ATOM     36  C   UNL A   1      42.743  30.449  34.248  1.00  0.00     0.049 A 
ATOM     37  H   UNL A   1      41.051  31.047  33.137  1.00  0.00     0.167 HD
ATOM     38  C   UNL A   1      42.662  28.836  32.364  1.00  0.00     0.074 A 
ATOM     39  C   UNL A   1      43.182  27.712  31.609  1.00  0.00     0.031 C 
ATOM     40  C   UNL A   1      43.252  29.352  33.468  1.00  0.00     0.031 A 
BRANCH  27  41
ATOM     41  C   UNL A   1      40.369  34.233  35.888  1.00  0.00    -0.014 A 
ATOM     42  C   UNL A   1      41.056  35.444  35.709  1.00  0.00     0.009 A 
ATOM     43  C   UNL A   1      39.589  34.058  37.042  1.00  0.00     0.009 A 
ATOM     44  C   UNL A   1      40.968  36.453  36.671  1.00  0.00     0.001 A 
ATOM     45  C   UNL A   1      39.491  35.075  37.994  1.00  0.00     0.001 A 
ATOM     46  C   UNL A   1      40.183  36.271  37.809  1.00  0.00     0.000 A 
ENDBRANCH  27  41
BRANCH  28  47
ATOM     47  C   UNL A   1      40.324  27.491  28.513  1.00  0.00    -0.014 A 
ATOM     48  C   UNL A   1      41.045  27.767  27.343  1.00  0.00     0.009 A 
ATOM     49  C   UNL A   1      39.643  26.267  28.623  1.00  0.00     0.009 A 
ATOM     50  C   UNL A   1      41.073  26.840  26.300  1.00  0.00     0.001 A 
ATOM     51  C   UNL A   1      39.697  25.332  27.590  1.00  0.00     0.001 A 
ATOM     52  C   UNL A   1      40.406  25.622  26.426  1.00  0.00     0.000 A 
ENDBRANCH  28  47
BRANCH  40  53
ATOM     53  C   UNL A   1      44.529  28.702  33.907  1.00  0.00    -0.014 A 
ATOM     54  C   UNL A   1      45.767  29.172  33.445  1.00  0.00     0.009 A 
ATOM     55  C   UNL A   1      44.494  27.615  34.792  1.00  0.00     0.009 A 
ATOM     56  C   UNL A   1      46.949  28.544  33.837  1.00  0.00     0.001 A 
ATOM     57  C   UNL A   1      45.679  27.002  35.200  1.00  0.00     0.001 A 
ATOM     58  C   UNL A   1      46.904  27.462  34.716  1.00  0.00     0.000 A 
ENDBRANCH  40  53
ENDBRANCH  14  15
ENDBRANCH   7   9
ENDBRANCH   4   5
ENDBRANCH   3   4
ENDBRANCH   2   3
ENDBRANCH   1   2
BRANCH   1  59
ATOM     59  N   UNL A   1      31.549  28.161  27.127  1.00  0.00    -0.354 N 
ATOM     60  C   UNL A   1      31.563  27.072  26.313  1.00  0.00     0.242 C 
ATOM     61  H   UNL A   1      30.764  28.232  27.718  1.00  0.00     0.163 HD
ATOM     62  O   UNL A   1      30.649  26.261  26.499  1.00  0.00    -0.273 OA
BRANCH  60  63
ATOM     63  C   UNL A   1      32.730  26.762  25.323  1.00  0.00     0.177 C 
ATOM     64  C   UNL A   1      33.720  25.815  26.012  1.00  0.00     0.069 C 
ATOM     65  N   UNL A   1      32.435  26.015  24.086  1.00  0.00    -0.328 N 
ATOM     66  C   UNL A   1      33.107  24.441  25.741  1.00  0.00     0.136 C 
ATOM     67  C   UNL A   1      32.548  24.579  24.323  1.00  0.00     0.152 C 
BRANCH  65  68
ATOM     68  C   UNL A   1      32.383  26.618  22.847  1.00  0.00     0.226 C 
ATOM     69  O   UNL A   1      33.401  26.986  22.257  1.00  0.00    -0.275 OA
BRANCH  68  70
ATOM     70  C   UNL A   1      31.029  26.854  22.206  1.00  0.00     0.141 C 
BRANCH  70  71
ATOM     71  C   UNL A   1      30.275  27.960  22.940  1.00  0.00     0.239 C 
BRANCH  71  72
ATOM     72  O   UNL A   1      29.332  28.613  22.082  1.00  0.00    -0.493 OA
BRANCH  72  73
ATOM     73  C   UNL A   1      29.124  29.956  22.228  1.00  0.00     0.119 A 
ATOM     74  C   UNL A   1      28.646  30.830  21.251  1.00  0.00     0.049 A 
ATOM     75  C   UNL A   1      29.427  30.454  23.501  1.00  0.00     0.049 A 
ATOM     76  C   UNL A   1      28.403  32.170  21.561  1.00  0.00     0.043 A 
ATOM     77  C   UNL A   1      29.202  31.796  23.808  1.00  0.00     0.043 A 
ATOM     78  C   UNL A   1      28.679  32.640  22.838  1.00  0.00     0.123 A 
ATOM     79  F   UNL A   1      28.424  33.919  23.140  1.00  0.00    -0.207 F 
ENDBRANCH  72  73
ENDBRANCH  71  72
ENDBRANCH  70  71
ENDBRANCH  68  70
ENDBRANCH  65  68
BRANCH  66  80
ATOM     80  O   UNL A   1      34.080  23.412  25.832  1.00  0.00    -0.391 OA
ATOM     81  H   UNL A   1      34.958  23.781  25.646  1.00  0.00     0.211 HD
ENDBRANCH  66  80
ENDBRANCH  60  63
ENDBRANCH   1  59
TORSDOF 17
ENDMDL
