MODEL 1
REMARK VINA RESULT:     -11.7      0.000      0.000
REMARK SMILES O=C(NCCCCNC(=O)[C@H]1CCCN(C(=O)c2ccc(NC(=O)c3ccccc3)cc2)C1)c1ccc(-c2c3nc(c(-c4ccccc4)c4ccc([nH]4)c(-c4ccccc4)c4nc(c(-c5ccccc5)c5ccc2[nH]5)C=C4)C=C3)cc1
REMARK SMILES IDX 6 1 5 2 4 3 3 4 1 5 2 6 34 8 35 9 81 10 36 11 80 12 37 13
REMARK SMILES IDX 38 14 39 15 74 16 40 17 79 18 73 19 75 20 41 21 78 22 72 23
REMARK SMILES IDX 71 24 42 26 64 27 49 28 63 29 50 30 53 31 62 32 76 33 51 34
REMARK SMILES IDX 52 35 61 37 77 38 54 39 43 40 44 41 48 42 45 43 47 44 46 45
REMARK SMILES IDX 65 46 66 47 70 48 67 49 69 50 68 51 55 52 56 53 60 54 57 55
REMARK SMILES IDX 59 56 58 57 7 58 8 59 9 60 10 62 11 63 12 64 33 65 13 66
REMARK SMILES IDX 15 67 14 68 16 69 17 70 18 71 19 72 32 73 20 74 31 75 21 76
REMARK SMILES IDX 22 77 23 78 24 80 25 81 26 82 30 83 27 84 29 85 28 86
REMARK H PARENT 3 7 75 25 53 36 8 61 22 79
REMARK Flexibility Score: inf
ROOT
ATOM      1  C   UNL A   1      38.687  22.101  25.808  1.00  0.00     0.023 C 
ENDROOT
BRANCH   1   2
ATOM      2  C   UNL A   1      38.922  20.668  25.337  1.00  0.00     0.023 C 
BRANCH   2   3
ATOM      3  C   UNL A   1      39.564  19.759  26.375  1.00  0.00     0.116 C 
BRANCH   3   4
ATOM      4  N   UNL A   1      40.767  19.103  25.888  1.00  0.00    -0.352 N 
ATOM      5  O   UNL A   1      42.936  19.010  25.249  1.00  0.00    -0.269 OA
ATOM      6  C   UNL A   1      42.031  19.630  25.798  1.00  0.00     0.251 C 
ATOM      7  H   UNL A   1      40.662  18.173  25.584  1.00  0.00     0.163 HD
BRANCH   6   8
ATOM      8  C   UNL A   1      42.274  20.972  26.357  1.00  0.00     0.039 A 
ATOM      9  C   UNL A   1      42.178  21.180  27.736  1.00  0.00     0.014 A 
ATOM     10  C   UNL A   1      42.569  22.029  25.493  1.00  0.00     0.014 A 
ATOM     11  C   UNL A   1      42.276  22.469  28.243  1.00  0.00     0.010 A 
ATOM     12  C   UNL A   1      42.739  23.312  26.013  1.00  0.00     0.010 A 
ATOM     13  C   UNL A   1      42.585  23.540  27.389  1.00  0.00    -0.014 A 
BRANCH  13  14
ATOM     14  C   UNL A   1      42.869  24.868  27.979  1.00  0.00     0.031 A 
ATOM     15  C   UNL A   1      41.780  25.865  28.234  1.00  0.00     0.074 A 
ATOM     16  C   UNL A   1      44.149  25.154  28.284  1.00  0.00     0.049 A 
ATOM     17  N   UNL A   1      41.876  27.068  28.740  1.00  0.00    -0.248 NA
ATOM     18  C   UNL A   1      40.408  25.473  27.871  1.00  0.00     0.031 C 
ATOM     19  C   UNL A   1      45.289  24.257  28.062  1.00  0.00     0.029 A 
ATOM     20  N   UNL A   1      44.709  26.267  28.851  1.00  0.00    -0.354 N 
ATOM     21  C   UNL A   1      40.588  27.586  28.739  1.00  0.00     0.074 A 
ATOM     22  C   UNL A   1      39.725  26.571  28.174  1.00  0.00     0.031 C 
ATOM     23  C   UNL A   1      46.404  24.841  28.522  1.00  0.00     0.029 A 
ATOM     24  C   UNL A   1      46.069  26.172  29.011  1.00  0.00     0.049 A 
ATOM     25  H   UNL A   1      44.186  27.057  29.120  1.00  0.00     0.167 HD
ATOM     26  C   UNL A   1      40.171  28.799  29.172  1.00  0.00     0.031 A 
ATOM     27  C   UNL A   1      46.958  27.069  29.473  1.00  0.00     0.031 A 
ATOM     28  C   UNL A   1      41.038  29.799  29.741  1.00  0.00     0.049 A 
ATOM     29  C   UNL A   1      46.465  28.413  29.916  1.00  0.00     0.074 A 
ATOM     30  C   UNL A   1      40.700  31.036  30.263  1.00  0.00     0.029 A 
ATOM     31  N   UNL A   1      42.415  29.680  29.853  1.00  0.00    -0.354 N 
ATOM     32  N   UNL A   1      45.236  28.865  29.958  1.00  0.00    -0.248 NA
ATOM     33  C   UNL A   1      47.483  29.371  30.365  1.00  0.00     0.031 C 
ATOM     34  C   UNL A   1      41.878  31.686  30.644  1.00  0.00     0.029 A 
ATOM     35  C   UNL A   1      42.944  30.837  30.400  1.00  0.00     0.049 A 
ATOM     36  H   UNL A   1      42.938  28.891  29.585  1.00  0.00     0.167 HD
ATOM     37  C   UNL A   1      45.330  30.161  30.441  1.00  0.00     0.074 A 
ATOM     38  C   UNL A   1      46.733  30.410  30.705  1.00  0.00     0.031 C 
ATOM     39  C   UNL A   1      44.344  31.068  30.639  1.00  0.00     0.031 A 
BRANCH  26  40
ATOM     40  C   UNL A   1      38.716  29.138  29.028  1.00  0.00    -0.014 A 
ATOM     41  C   UNL A   1      37.820  28.979  30.096  1.00  0.00     0.009 A 
ATOM     42  C   UNL A   1      38.254  29.713  27.832  1.00  0.00     0.009 A 
ATOM     43  C   UNL A   1      36.488  29.377  29.964  1.00  0.00     0.001 A 
ATOM     44  C   UNL A   1      36.926  30.126  27.711  1.00  0.00     0.001 A 
ATOM     45  C   UNL A   1      36.043  29.956  28.776  1.00  0.00     0.000 A 
ENDBRANCH  26  40
BRANCH  27  46
ATOM     46  C   UNL A   1      48.404  26.734  29.494  1.00  0.00    -0.014 A 
ATOM     47  C   UNL A   1      48.979  26.110  30.610  1.00  0.00     0.009 A 
ATOM     48  C   UNL A   1      49.214  27.032  28.386  1.00  0.00     0.009 A 
ATOM     49  C   UNL A   1      50.343  25.812  30.624  1.00  0.00     0.001 A 
ATOM     50  C   UNL A   1      50.570  26.705  28.391  1.00  0.00     0.001 A 
ATOM     51  C   UNL A   1      51.136  26.105  29.514  1.00  0.00     0.000 A 
ENDBRANCH  27  46
BRANCH  39  52
ATOM     52  C   UNL A   1      44.762  32.409  31.166  1.00  0.00    -0.014 A 
ATOM     53  C   UNL A   1      44.855  32.641  32.547  1.00  0.00     0.009 A 
ATOM     54  C   UNL A   1      45.081  33.443  30.274  1.00  0.00     0.009 A 
ATOM     55  C   UNL A   1      45.229  33.897  33.025  1.00  0.00     0.001 A 
ATOM     56  C   UNL A   1      45.478  34.690  30.755  1.00  0.00     0.001 A 
ATOM     57  C   UNL A   1      45.543  34.919  32.129  1.00  0.00     0.000 A 
ENDBRANCH  39  52
ENDBRANCH  13  14
ENDBRANCH   6   8
ENDBRANCH   3   4
ENDBRANCH   2   3
ENDBRANCH   1   2
BRANCH   1  58
ATOM     58  C   UNL A   1      37.228  22.543  25.767  1.00  0.00     0.116 C 
BRANCH  58  59
ATOM     59  N   UNL A   1      36.860  23.034  24.451  1.00  0.00    -0.356 N 
ATOM     60  C   UNL A   1      35.723  22.857  23.720  1.00  0.00     0.224 C 
ATOM     61  H   UNL A   1      37.546  23.588  24.013  1.00  0.00     0.163 HD
ATOM     62  O   UNL A   1      35.696  23.326  22.581  1.00  0.00    -0.275 OA
BRANCH  60  63
ATOM     63  C   UNL A   1      34.518  22.126  24.291  1.00  0.00     0.098 C 
ATOM     64  C   UNL A   1      34.834  20.669  24.652  1.00  0.00     0.017 C 
ATOM     65  C   UNL A   1      33.883  22.974  25.398  1.00  0.00     0.133 C 
ATOM     66  C   UNL A   1      33.741  20.032  25.497  1.00  0.00     0.022 C 
ATOM     67  N   UNL A   1      32.930  22.239  26.224  1.00  0.00    -0.338 N 
ATOM     68  C   UNL A   1      33.360  20.915  26.674  1.00  0.00     0.120 C 
BRANCH  67  69
ATOM     69  C   UNL A   1      31.751  22.894  26.581  1.00  0.00     0.253 C 
ATOM     70  O   UNL A   1      31.210  22.765  27.678  1.00  0.00    -0.269 OA
BRANCH  69  71
ATOM     71  C   UNL A   1      31.134  23.854  25.647  1.00  0.00     0.040 A 
ATOM     72  C   UNL A   1      30.603  25.023  26.187  1.00  0.00     0.016 A 
ATOM     73  C   UNL A   1      31.033  23.609  24.277  1.00  0.00     0.016 A 
ATOM     74  C   UNL A   1      30.063  25.995  25.346  1.00  0.00     0.027 A 
ATOM     75  C   UNL A   1      30.526  24.606  23.436  1.00  0.00     0.027 A 
ATOM     76  C   UNL A   1      30.093  25.832  23.960  1.00  0.00     0.041 A 
BRANCH  76  77
ATOM     77  N   UNL A   1      29.701  26.819  23.036  1.00  0.00    -0.322 N 
ATOM     78  C   UNL A   1      30.079  28.133  22.866  1.00  0.00     0.255 C 
ATOM     79  H   UNL A   1      29.029  26.511  22.387  1.00  0.00     0.170 HD
ATOM     80  O   UNL A   1      29.464  28.850  22.077  1.00  0.00    -0.269 OA
BRANCH  78  81
ATOM     81  C   UNL A   1      31.241  28.705  23.572  1.00  0.00     0.040 A 
ATOM     82  C   UNL A   1      31.011  29.477  24.715  1.00  0.00     0.014 A 
ATOM     83  C   UNL A   1      32.547  28.469  23.125  1.00  0.00     0.014 A 
ATOM     84  C   UNL A   1      32.094  29.952  25.455  1.00  0.00     0.001 A 
ATOM     85  C   UNL A   1      33.626  28.942  23.875  1.00  0.00     0.001 A 
ATOM     86  C   UNL A   1      33.398  29.672  25.043  1.00  0.00     0.000 A 
ENDBRANCH  78  81
ENDBRANCH  76  77
ENDBRANCH  69  71
ENDBRANCH  67  69
ENDBRANCH  60  63
ENDBRANCH  58  59
ENDBRANCH   1  58
TORSDOF 15
ENDMDL
MODEL 2
REMARK VINA RESULT:     -11.7      4.630     11.192
REMARK SMILES O=C(NCCCCNC(=O)[C@H]1CCCN(C(=O)c2ccc(NC(=O)c3ccccc3)cc2)C1)c1ccc(-c2c3nc(c(-c4ccccc4)c4ccc([nH]4)c(-c4ccccc4)c4nc(c(-c5ccccc5)c5ccc2[nH]5)C=C4)C=C3)cc1
REMARK SMILES IDX 6 1 5 2 4 3 3 4 1 5 2 6 34 8 35 9 81 10 36 11 80 12 37 13
REMARK SMILES IDX 38 14 39 15 74 16 40 17 79 18 73 19 75 20 41 21 78 22 72 23
REMARK SMILES IDX 71 24 42 26 64 27 49 28 63 29 50 30 53 31 62 32 76 33 51 34
REMARK SMILES IDX 52 35 61 37 77 38 54 39 43 40 44 41 48 42 45 43 47 44 46 45
REMARK SMILES IDX 65 46 66 47 70 48 67 49 69 50 68 51 55 52 56 53 60 54 57 55
REMARK SMILES IDX 59 56 58 57 7 58 8 59 9 60 10 62 11 63 12 64 33 65 13 66
REMARK SMILES IDX 15 67 14 68 16 69 17 70 18 71 19 72 32 73 20 74 31 75 21 76
REMARK SMILES IDX 22 77 23 78 24 80 25 81 26 82 30 83 27 84 29 85 28 86
REMARK H PARENT 3 7 75 25 53 36 8 61 22 79
REMARK Flexibility Score: inf
ROOT
ATOM      1  C   UNL A   1      34.542  34.558  31.658  1.00  0.00     0.023 C 
ENDROOT
BRANCH   1   2
ATOM      2  C   UNL A   1      34.629  33.995  30.243  1.00  0.00     0.023 C 
BRANCH   2   3
ATOM      3  C   UNL A   1      35.065  32.539  30.168  1.00  0.00     0.116 C 
BRANCH   3   4
ATOM      4  N   UNL A   1      34.286  31.762  29.217  1.00  0.00    -0.352 N 
ATOM      5  O   UNL A   1      33.990  30.243  27.566  1.00  0.00    -0.269 OA
ATOM      6  C   UNL A   1      34.721  30.733  28.419  1.00  0.00     0.251 C 
ATOM      7  H   UNL A   1      33.336  32.003  29.134  1.00  0.00     0.163 HD
BRANCH   6   8
ATOM      8  C   UNL A   1      36.101  30.243  28.594  1.00  0.00     0.039 A 
ATOM      9  C   UNL A   1      37.027  30.382  27.556  1.00  0.00     0.014 A 
ATOM     10  C   UNL A   1      36.455  29.615  29.790  1.00  0.00     0.014 A 
ATOM     11  C   UNL A   1      38.282  29.802  27.676  1.00  0.00     0.010 A 
ATOM     12  C   UNL A   1      37.742  29.096  29.936  1.00  0.00     0.010 A 
ATOM     13  C   UNL A   1      38.659  29.178  28.876  1.00  0.00    -0.014 A 
BRANCH  13  14
ATOM     14  C   UNL A   1      40.061  28.736  29.045  1.00  0.00     0.031 A 
ATOM     15  C   UNL A   1      40.518  27.380  28.597  1.00  0.00     0.074 A 
ATOM     16  C   UNL A   1      40.923  29.597  29.618  1.00  0.00     0.049 A 
ATOM     17  N   UNL A   1      41.711  26.851  28.682  1.00  0.00    -0.248 NA
ATOM     18  C   UNL A   1      39.512  26.499  27.981  1.00  0.00     0.031 C 
ATOM     19  C   UNL A   1      40.577  30.938  30.104  1.00  0.00     0.029 A 
ATOM     20  N   UNL A   1      42.262  29.485  29.880  1.00  0.00    -0.354 N 
ATOM     21  C   UNL A   1      41.601  25.573  28.152  1.00  0.00     0.074 A 
ATOM     22  C   UNL A   1      40.220  25.399  27.754  1.00  0.00     0.031 C 
ATOM     23  C   UNL A   1      41.682  31.536  30.570  1.00  0.00     0.029 A 
ATOM     24  C   UNL A   1      42.796  30.601  30.475  1.00  0.00     0.049 A 
ATOM     25  H   UNL A   1      42.790  28.684  29.661  1.00  0.00     0.167 HD
ATOM     26  C   UNL A   1      42.567  24.635  28.014  1.00  0.00     0.031 A 
ATOM     27  C   UNL A   1      44.041  30.840  30.925  1.00  0.00     0.031 A 
ATOM     28  C   UNL A   1      43.940  24.823  28.405  1.00  0.00     0.049 A 
ATOM     29  C   UNL A   1      45.077  29.768  30.782  1.00  0.00     0.074 A 
ATOM     30  C   UNL A   1      45.006  23.952  28.251  1.00  0.00     0.029 A 
ATOM     31  N   UNL A   1      44.435  25.952  29.037  1.00  0.00    -0.354 N 
ATOM     32  N   UNL A   1      44.967  28.585  30.229  1.00  0.00    -0.248 NA
ATOM     33  C   UNL A   1      46.407  30.061  31.333  1.00  0.00     0.031 C 
ATOM     34  C   UNL A   1      46.134  24.535  28.836  1.00  0.00     0.029 A 
ATOM     35  C   UNL A   1      45.782  25.786  29.313  1.00  0.00     0.049 A 
ATOM     36  H   UNL A   1      43.908  26.754  29.256  1.00  0.00     0.167 HD
ATOM     37  C   UNL A   1      46.213  27.991  30.362  1.00  0.00     0.074 A 
ATOM     38  C   UNL A   1      47.070  28.956  31.022  1.00  0.00     0.031 C 
ATOM     39  C   UNL A   1      46.610  26.753  29.983  1.00  0.00     0.031 A 
BRANCH  26  40
ATOM     40  C   UNL A   1      42.181  23.303  27.438  1.00  0.00    -0.014 A 
ATOM     41  C   UNL A   1      42.460  22.976  26.103  1.00  0.00     0.009 A 
ATOM     42  C   UNL A   1      41.611  22.327  28.274  1.00  0.00     0.009 A 
ATOM     43  C   UNL A   1      42.165  21.701  25.613  1.00  0.00     0.001 A 
ATOM     44  C   UNL A   1      41.334  21.049  27.784  1.00  0.00     0.001 A 
ATOM     45  C   UNL A   1      41.609  20.738  26.454  1.00  0.00     0.000 A 
ENDBRANCH  26  40
BRANCH  27  46
ATOM     46  C   UNL A   1      44.353  32.130  31.589  1.00  0.00    -0.014 A 
ATOM     47  C   UNL A   1      44.822  33.222  30.847  1.00  0.00     0.009 A 
ATOM     48  C   UNL A   1      44.171  32.273  32.974  1.00  0.00     0.009 A 
ATOM     49  C   UNL A   1      45.126  34.428  31.485  1.00  0.00     0.001 A 
ATOM     50  C   UNL A   1      44.446  33.487  33.604  1.00  0.00     0.001 A 
ATOM     51  C   UNL A   1      44.933  34.560  32.860  1.00  0.00     0.000 A 
ENDBRANCH  27  46
BRANCH  39  52
ATOM     52  C   UNL A   1      48.034  26.386  30.277  1.00  0.00    -0.014 A 
ATOM     53  C   UNL A   1      49.043  26.602  29.327  1.00  0.00     0.009 A 
ATOM     54  C   UNL A   1      48.372  25.834  31.522  1.00  0.00     0.009 A 
ATOM     55  C   UNL A   1      50.361  26.241  29.606  1.00  0.00     0.001 A 
ATOM     56  C   UNL A   1      49.695  25.497  31.807  1.00  0.00     0.001 A 
ATOM     57  C   UNL A   1      50.686  25.692  30.846  1.00  0.00     0.000 A 
ENDBRANCH  39  52
ENDBRANCH  13  14
ENDBRANCH   6   8
ENDBRANCH   3   4
ENDBRANCH   2   3
ENDBRANCH   1   2
BRANCH   1  58
ATOM     58  C   UNL A   1      35.853  34.500  32.437  1.00  0.00     0.116 C 
BRANCH  58  59
ATOM     59  N   UNL A   1      36.993  34.763  31.576  1.00  0.00    -0.356 N 
ATOM     60  C   UNL A   1      38.300  34.395  31.692  1.00  0.00     0.224 C 
ATOM     61  H   UNL A   1      36.787  35.297  30.776  1.00  0.00     0.163 HD
ATOM     62  O   UNL A   1      39.092  34.822  30.850  1.00  0.00    -0.275 OA
BRANCH  60  63
ATOM     63  C   UNL A   1      38.769  33.473  32.807  1.00  0.00     0.098 C 
ATOM     64  C   UNL A   1      38.664  34.126  34.190  1.00  0.00     0.017 C 
ATOM     65  C   UNL A   1      38.099  32.104  32.654  1.00  0.00     0.133 C 
ATOM     66  C   UNL A   1      38.835  33.121  35.320  1.00  0.00     0.022 C 
ATOM     67  N   UNL A   1      38.224  31.256  33.835  1.00  0.00    -0.338 N 
ATOM     68  C   UNL A   1      37.950  31.901  35.119  1.00  0.00     0.120 C 
BRANCH  67  69
ATOM     69  C   UNL A   1      38.498  29.903  33.629  1.00  0.00     0.253 C 
ATOM     70  O   UNL A   1      37.634  29.071  33.355  1.00  0.00    -0.269 OA
BRANCH  69  71
ATOM     71  C   UNL A   1      39.892  29.425  33.662  1.00  0.00     0.040 A 
ATOM     72  C   UNL A   1      40.222  28.353  32.835  1.00  0.00     0.016 A 
ATOM     73  C   UNL A   1      40.855  29.976  34.507  1.00  0.00     0.016 A 
ATOM     74  C   UNL A   1      41.538  27.898  32.778  1.00  0.00     0.027 A 
ATOM     75  C   UNL A   1      42.182  29.541  34.415  1.00  0.00     0.027 A 
ATOM     76  C   UNL A   1      42.544  28.538  33.504  1.00  0.00     0.041 A 
BRANCH  76  77
ATOM     77  N   UNL A   1      43.915  28.237  33.396  1.00  0.00    -0.322 N 
ATOM     78  C   UNL A   1      44.646  27.112  33.709  1.00  0.00     0.255 C 
ATOM     79  H   UNL A   1      44.455  28.972  33.025  1.00  0.00     0.170 HD
ATOM     80  O   UNL A   1      45.876  27.152  33.675  1.00  0.00    -0.269 OA
BRANCH  78  81
ATOM     81  C   UNL A   1      43.995  25.831  34.042  1.00  0.00     0.040 A 
ATOM     82  C   UNL A   1      44.364  24.690  33.322  1.00  0.00     0.014 A 
ATOM     83  C   UNL A   1      43.045  25.748  35.067  1.00  0.00     0.014 A 
ATOM     84  C   UNL A   1      43.833  23.450  33.677  1.00  0.00     0.001 A 
ATOM     85  C   UNL A   1      42.524  24.502  35.423  1.00  0.00     0.001 A 
ATOM     86  C   UNL A   1      42.927  23.355  34.736  1.00  0.00     0.000 A 
ENDBRANCH  78  81
ENDBRANCH  76  77
ENDBRANCH  69  71
ENDBRANCH  67  69
ENDBRANCH  60  63
ENDBRANCH  58  59
ENDBRANCH   1  58
TORSDOF 15
ENDMDL
MODEL 3
REMARK VINA RESULT:     -11.5      4.557     10.469
REMARK SMILES O=C(NCCCCNC(=O)[C@H]1CCCN(C(=O)c2ccc(NC(=O)c3ccccc3)cc2)C1)c1ccc(-c2c3nc(c(-c4ccccc4)c4ccc([nH]4)c(-c4ccccc4)c4nc(c(-c5ccccc5)c5ccc2[nH]5)C=C4)C=C3)cc1
REMARK SMILES IDX 6 1 5 2 4 3 3 4 1 5 2 6 34 8 35 9 81 10 36 11 80 12 37 13
REMARK SMILES IDX 38 14 39 15 74 16 40 17 79 18 73 19 75 20 41 21 78 22 72 23
REMARK SMILES IDX 71 24 42 26 64 27 49 28 63 29 50 30 53 31 62 32 76 33 51 34
REMARK SMILES IDX 52 35 61 37 77 38 54 39 43 40 44 41 48 42 45 43 47 44 46 45
REMARK SMILES IDX 65 46 66 47 70 48 67 49 69 50 68 51 55 52 56 53 60 54 57 55
REMARK SMILES IDX 59 56 58 57 7 58 8 59 9 60 10 62 11 63 12 64 33 65 13 66
REMARK SMILES IDX 15 67 14 68 16 69 17 70 18 71 19 72 32 73 20 74 31 75 21 76
REMARK SMILES IDX 22 77 23 78 24 80 25 81 26 82 30 83 27 84 29 85 28 86
REMARK H PARENT 3 7 75 25 53 36 8 61 22 79
REMARK Flexibility Score: inf
ROOT
ATOM      1  C   UNL A   1      42.185  23.117  28.546  1.00  0.00     0.023 C 
ENDROOT
BRANCH   1   2
ATOM      2  C   UNL A   1      41.674  21.982  27.663  1.00  0.00     0.023 C 
BRANCH   2   3
ATOM      3  C   UNL A   1      41.494  22.353  26.199  1.00  0.00     0.116 C 
BRANCH   3   4
ATOM      4  N   UNL A   1      40.103  22.334  25.776  1.00  0.00    -0.352 N 
ATOM      5  O   UNL A   1      37.950  23.031  25.779  1.00  0.00    -0.269 OA
ATOM      6  C   UNL A   1      39.116  23.232  26.100  1.00  0.00     0.251 C 
ATOM      7  H   UNL A   1      39.837  21.590  25.190  1.00  0.00     0.163 HD
BRANCH   6   8
ATOM      8  C   UNL A   1      39.485  24.436  26.867  1.00  0.00     0.039 A 
ATOM      9  C   UNL A   1      40.289  25.417  26.278  1.00  0.00     0.014 A 
ATOM     10  C   UNL A   1      39.050  24.564  28.187  1.00  0.00     0.014 A 
ATOM     11  C   UNL A   1      40.742  26.481  27.045  1.00  0.00     0.010 A 
ATOM     12  C   UNL A   1      39.448  25.673  28.935  1.00  0.00     0.010 A 
ATOM     13  C   UNL A   1      40.304  26.632  28.371  1.00  0.00    -0.014 A 
BRANCH  13  14
ATOM     14  C   UNL A   1      40.650  27.870  29.104  1.00  0.00     0.031 A 
ATOM     15  C   UNL A   1      41.980  28.042  29.774  1.00  0.00     0.074 A 
ATOM     16  C   UNL A   1      39.725  28.848  29.150  1.00  0.00     0.049 A 
ATOM     17  N   UNL A   1      42.424  29.067  30.455  1.00  0.00    -0.248 NA
ATOM     18  C   UNL A   1      42.934  26.925  29.676  1.00  0.00     0.031 C 
ATOM     19  C   UNL A   1      38.392  28.776  28.542  1.00  0.00     0.029 A 
ATOM     20  N   UNL A   1      39.763  30.092  29.719  1.00  0.00    -0.354 N 
ATOM     21  C   UNL A   1      43.696  28.716  30.886  1.00  0.00     0.074 A 
ATOM     22  C   UNL A   1      43.953  27.378  30.397  1.00  0.00     0.031 C 
ATOM     23  C   UNL A   1      37.754  29.938  28.740  1.00  0.00     0.029 A 
ATOM     24  C   UNL A   1      38.606  30.809  29.539  1.00  0.00     0.049 A 
ATOM     25  H   UNL A   1      40.543  30.439  30.208  1.00  0.00     0.167 HD
ATOM     26  C   UNL A   1      44.565  29.447  31.623  1.00  0.00     0.031 A 
ATOM     27  C   UNL A   1      38.253  32.025  29.992  1.00  0.00     0.031 A 
ATOM     28  C   UNL A   1      44.302  30.782  32.097  1.00  0.00     0.049 A 
ATOM     29  C   UNL A   1      39.228  32.794  30.829  1.00  0.00     0.074 A 
ATOM     30  C   UNL A   1      45.143  31.627  32.800  1.00  0.00     0.029 A 
ATOM     31  N   UNL A   1      43.106  31.461  31.925  1.00  0.00    -0.354 N 
ATOM     32  N   UNL A   1      40.447  32.468  31.181  1.00  0.00    -0.248 NA
ATOM     33  C   UNL A   1      38.775  34.095  31.339  1.00  0.00     0.031 C 
ATOM     34  C   UNL A   1      44.438  32.797  33.099  1.00  0.00     0.029 A 
ATOM     35  C   UNL A   1      43.173  32.698  32.542  1.00  0.00     0.049 A 
ATOM     36  H   UNL A   1      42.325  31.115  31.436  1.00  0.00     0.167 HD
ATOM     37  C   UNL A   1      40.911  33.523  31.951  1.00  0.00     0.074 A 
ATOM     38  C   UNL A   1      39.851  34.512  31.991  1.00  0.00     0.031 C 
ATOM     39  C   UNL A   1      42.103  33.658  32.581  1.00  0.00     0.031 A 
BRANCH  26  40
ATOM     40  C   UNL A   1      45.879  28.822  31.993  1.00  0.00    -0.014 A 
ATOM     41  C   UNL A   1      47.048  29.098  31.269  1.00  0.00     0.009 A 
ATOM     42  C   UNL A   1      45.963  28.016  33.140  1.00  0.00     0.009 A 
ATOM     43  C   UNL A   1      48.274  28.569  31.680  1.00  0.00     0.001 A 
ATOM     44  C   UNL A   1      47.192  27.503  33.558  1.00  0.00     0.001 A 
ATOM     45  C   UNL A   1      48.346  27.778  32.827  1.00  0.00     0.000 A 
ENDBRANCH  26  40
BRANCH  27  46
ATOM     46  C   UNL A   1      36.901  32.561  29.697  1.00  0.00    -0.014 A 
ATOM     47  C   UNL A   1      35.839  32.360  30.589  1.00  0.00     0.009 A 
ATOM     48  C   UNL A   1      36.672  33.287  28.517  1.00  0.00     0.009 A 
ATOM     49  C   UNL A   1      34.567  32.857  30.294  1.00  0.00     0.001 A 
ATOM     50  C   UNL A   1      35.408  33.808  28.238  1.00  0.00     0.001 A 
ATOM     51  C   UNL A   1      34.355  33.584  29.122  1.00  0.00     0.000 A 
ENDBRANCH  27  46
BRANCH  39  52
ATOM     52  C   UNL A   1      42.311  34.922  33.360  1.00  0.00    -0.014 A 
ATOM     53  C   UNL A   1      43.019  36.000  32.806  1.00  0.00     0.009 A 
ATOM     54  C   UNL A   1      41.779  35.044  34.653  1.00  0.00     0.009 A 
ATOM     55  C   UNL A   1      43.220  37.165  33.547  1.00  0.00     0.001 A 
ATOM     56  C   UNL A   1      41.961  36.219  35.381  1.00  0.00     0.001 A 
ATOM     57  C   UNL A   1      42.688  37.274  34.832  1.00  0.00     0.000 A 
ENDBRANCH  39  52
ENDBRANCH  13  14
ENDBRANCH   6   8
ENDBRANCH   3   4
ENDBRANCH   2   3
ENDBRANCH   1   2
BRANCH   1  58
ATOM     58  C   UNL A   1      43.598  22.907  29.081  1.00  0.00     0.116 C 
BRANCH  58  59
ATOM     59  N   UNL A   1      44.519  22.549  28.017  1.00  0.00    -0.356 N 
ATOM     60  C   UNL A   1      45.432  23.300  27.339  1.00  0.00     0.224 C 
ATOM     61  H   UNL A   1      44.477  21.606  27.738  1.00  0.00     0.163 HD
ATOM     62  O   UNL A   1      46.043  22.762  26.413  1.00  0.00    -0.275 OA
BRANCH  60  63
ATOM     63  C   UNL A   1      45.709  24.746  27.718  1.00  0.00     0.098 C 
ATOM     64  C   UNL A   1      46.867  24.880  28.715  1.00  0.00     0.017 C 
ATOM     65  C   UNL A   1      45.810  25.597  26.447  1.00  0.00     0.133 C 
ATOM     66  C   UNL A   1      47.345  26.317  28.858  1.00  0.00     0.022 C 
ATOM     67  N   UNL A   1      46.385  26.919  26.673  1.00  0.00    -0.338 N 
ATOM     68  C   UNL A   1      47.589  26.961  27.502  1.00  0.00     0.120 C 
BRANCH  67  69
ATOM     69  C   UNL A   1      45.797  27.997  26.010  1.00  0.00     0.253 C 
ATOM     70  O   UNL A   1      45.755  28.097  24.785  1.00  0.00    -0.269 OA
BRANCH  69  71
ATOM     71  C   UNL A   1      45.119  29.052  26.785  1.00  0.00     0.040 A 
ATOM     72  C   UNL A   1      45.898  29.802  27.664  1.00  0.00     0.016 A 
ATOM     73  C   UNL A   1      43.746  29.285  26.696  1.00  0.00     0.016 A 
ATOM     74  C   UNL A   1      45.324  30.853  28.378  1.00  0.00     0.027 A 
ATOM     75  C   UNL A   1      43.186  30.367  27.385  1.00  0.00     0.027 A 
ATOM     76  C   UNL A   1      43.985  31.197  28.185  1.00  0.00     0.041 A 
BRANCH  76  77
ATOM     77  N   UNL A   1      43.365  32.326  28.754  1.00  0.00    -0.322 N 
ATOM     78  C   UNL A   1      43.577  33.678  28.597  1.00  0.00     0.255 C 
ATOM     79  H   UNL A   1      42.641  32.106  29.383  1.00  0.00     0.170 HD
ATOM     80  O   UNL A   1      43.006  34.476  29.340  1.00  0.00    -0.269 OA
BRANCH  78  81
ATOM     81  C   UNL A   1      44.439  34.211  27.527  1.00  0.00     0.040 A 
ATOM     82  C   UNL A   1      45.678  34.755  27.879  1.00  0.00     0.014 A 
ATOM     83  C   UNL A   1      44.042  34.159  26.184  1.00  0.00     0.014 A 
ATOM     84  C   UNL A   1      46.552  35.182  26.880  1.00  0.00     0.001 A 
ATOM     85  C   UNL A   1      44.926  34.580  25.189  1.00  0.00     0.001 A 
ATOM     86  C   UNL A   1      46.183  35.079  25.537  1.00  0.00     0.000 A 
ENDBRANCH  78  81
ENDBRANCH  76  77
ENDBRANCH  69  71
ENDBRANCH  67  69
ENDBRANCH  60  63
ENDBRANCH  58  59
ENDBRANCH   1  58
TORSDOF 15
ENDMDL
