MODEL 1
REMARK VINA RESULT:     -11.2      0.000      0.000
REMARK SMILES O=C(COc1cc(-c2ccccc2)nc(Nc2ccccc2Br)n1)NCCCCNC(=O)c1ccc(-c2c3nc(c(-c4ccccc4)c4ccc([nH]4)c(-c4ccccc4)c4nc(c(-c5ccccc5)c5ccc2[nH]5)C=C4)C=C3)cc1
REMARK SMILES IDX 26 1 25 2 1 3 2 4 3 6 4 7 5 8 6 9 24 10 7 11 15 12 14 13
REMARK SMILES IDX 8 14 9 15 13 16 10 17 12 18 11 19 16 20 17 22 18 23 22 24
REMARK SMILES IDX 19 25 21 26 23 27 20 28 27 29 28 30 29 31 30 32 31 33 32 35
REMARK SMILES IDX 33 36 34 37 80 38 35 39 79 40 36 41 37 42 38 43 73 44 39 45
REMARK SMILES IDX 78 46 72 47 74 48 40 49 77 50 71 51 70 52 41 54 63 55 48 56
REMARK SMILES IDX 62 57 49 58 52 59 61 60 75 61 50 62 51 63 60 65 76 66 53 67
REMARK SMILES IDX 42 68 43 69 47 70 44 71 46 72 45 73 64 74 65 75 69 76 66 77
REMARK SMILES IDX 68 78 67 79 54 80 55 81 59 82 56 83 58 84 57 85
REMARK H PARENT 25 5 16 21 30 34 74 53 52 64
REMARK Flexibility Score: inf
ROOT
ATOM      1  C   UNL A   1      34.227  23.124  23.182  1.00  0.00     0.116 C 
ENDROOT
BRANCH   1   2
ATOM      2  N   UNL A   1      33.075  23.972  22.947  1.00  0.00    -0.353 N 
ATOM      3  O   UNL A   1      34.238  25.706  21.984  1.00  0.00    -0.271 OA
ATOM      4  C   UNL A   1      33.171  25.157  22.239  1.00  0.00     0.258 C 
ATOM      5  H   UNL A   1      32.198  23.696  23.299  1.00  0.00     0.163 HD
BRANCH   4   6
ATOM      6  C   UNL A   1      31.827  25.697  21.729  1.00  0.00     0.331 C 
BRANCH   6   7
ATOM      7  O   UNL A   1      30.842  25.926  22.735  1.00  0.00    -0.467 OA
BRANCH   7   8
ATOM      8  C   UNL A   1      30.833  27.203  23.243  1.00  0.00     0.219 A 
ATOM      9  C   UNL A   1      30.214  28.235  22.596  1.00  0.00     0.097 A 
ATOM     10  N   UNL A   1      31.295  27.317  24.493  1.00  0.00    -0.177 NA
ATOM     11  C   UNL A   1      30.041  29.399  23.306  1.00  0.00     0.080 A 
ATOM     12  C   UNL A   1      31.164  28.513  25.094  1.00  0.00     0.231 A 
ATOM     13  N   UNL A   1      30.518  29.560  24.552  1.00  0.00    -0.212 NA
BRANCH  11  14
ATOM     14  C   UNL A   1      29.255  30.486  22.710  1.00  0.00     0.000 A 
ATOM     15  C   UNL A   1      29.069  31.706  23.374  1.00  0.00     0.010 A 
ATOM     16  C   UNL A   1      28.765  30.360  21.394  1.00  0.00     0.010 A 
ATOM     17  C   UNL A   1      28.452  32.779  22.724  1.00  0.00     0.001 A 
ATOM     18  C   UNL A   1      28.147  31.430  20.747  1.00  0.00     0.001 A 
ATOM     19  C   UNL A   1      28.000  32.644  21.411  1.00  0.00     0.000 A 
ENDBRANCH  11  14
BRANCH  12  20
ATOM     20  N   UNL A   1      31.650  28.704  26.383  1.00  0.00    -0.323 N 
ATOM     21  H   UNL A   1      31.097  28.314  27.098  1.00  0.00     0.170 HD
BRANCH  20  22
ATOM     22  C   UNL A   1      32.805  29.363  26.823  1.00  0.00     0.055 A 
ATOM     23  C   UNL A   1      33.939  28.581  27.105  1.00  0.00     0.027 A 
ATOM     24  C   UNL A   1      32.912  30.758  26.985  1.00  0.00     0.041 A 
ATOM     25  C   UNL A   1      35.144  29.164  27.504  1.00  0.00     0.002 A 
ATOM     26  C   UNL A   1      34.121  31.340  27.389  1.00  0.00     0.018 A 
ATOM     27  Br  UNL A   1      31.421  31.933  26.823  1.00  0.00    -0.049 Br
ATOM     28  C   UNL A   1      35.237  30.545  27.641  1.00  0.00     0.001 A 
ENDBRANCH  20  22
ENDBRANCH  12  20
ENDBRANCH   7   8
ENDBRANCH   6   7
ENDBRANCH   4   6
ENDBRANCH   1   2
BRANCH   1  29
ATOM     29  C   UNL A   1      34.807  23.265  24.583  1.00  0.00     0.023 C 
BRANCH  29  30
ATOM     30  C   UNL A   1      36.250  23.764  24.631  1.00  0.00     0.023 C 
BRANCH  30  31
ATOM     31  C   UNL A   1      36.930  23.684  25.996  1.00  0.00     0.116 C 
BRANCH  31  32
ATOM     32  N   UNL A   1      37.919  22.621  26.081  1.00  0.00    -0.352 N 
ATOM     33  C   UNL A   1      39.252  22.690  26.410  1.00  0.00     0.251 C 
ATOM     34  H   UNL A   1      37.584  21.719  25.874  1.00  0.00     0.163 HD
ATOM     35  O   UNL A   1      39.965  21.696  26.293  1.00  0.00    -0.269 OA
BRANCH  33  36
ATOM     36  C   UNL A   1      39.843  23.966  26.874  1.00  0.00     0.039 A 
ATOM     37  C   UNL A   1      40.138  24.955  25.931  1.00  0.00     0.014 A 
ATOM     38  C   UNL A   1      40.110  24.192  28.227  1.00  0.00     0.014 A 
ATOM     39  C   UNL A   1      40.624  26.196  26.353  1.00  0.00     0.010 A 
ATOM     40  C   UNL A   1      40.521  25.454  28.652  1.00  0.00     0.010 A 
ATOM     41  C   UNL A   1      40.781  26.471  27.721  1.00  0.00    -0.014 A 
BRANCH  41  42
ATOM     42  C   UNL A   1      41.198  27.817  28.195  1.00  0.00     0.031 A 
ATOM     43  C   UNL A   1      42.653  28.199  28.222  1.00  0.00     0.074 A 
ATOM     44  C   UNL A   1      40.272  28.678  28.662  1.00  0.00     0.049 A 
ATOM     45  N   UNL A   1      43.208  29.306  28.651  1.00  0.00    -0.248 NA
ATOM     46  C   UNL A   1      43.612  27.201  27.725  1.00  0.00     0.031 C 
ATOM     47  C   UNL A   1      38.831  28.423  28.725  1.00  0.00     0.029 A 
ATOM     48  N   UNL A   1      40.406  29.942  29.180  1.00  0.00    -0.354 N 
ATOM     49  C   UNL A   1      44.578  29.129  28.491  1.00  0.00     0.074 A 
ATOM     50  C   UNL A   1      44.772  27.792  27.973  1.00  0.00     0.031 C 
ATOM     51  C   UNL A   1      38.213  29.507  29.219  1.00  0.00     0.029 A 
ATOM     52  C   UNL A   1      39.213  30.515  29.553  1.00  0.00     0.049 A 
ATOM     53  H   UNL A   1      41.274  30.397  29.274  1.00  0.00     0.167 HD
ATOM     54  C   UNL A   1      45.582  30.004  28.737  1.00  0.00     0.031 A 
ATOM     55  C   UNL A   1      38.953  31.713  30.111  1.00  0.00     0.031 A 
ATOM     56  C   UNL A   1      45.392  31.336  29.248  1.00  0.00     0.049 A 
ATOM     57  C   UNL A   1      40.089  32.653  30.403  1.00  0.00     0.074 A 
ATOM     58  C   UNL A   1      46.343  32.315  29.473  1.00  0.00     0.029 A 
ATOM     59  N   UNL A   1      44.169  31.872  29.620  1.00  0.00    -0.354 N 
ATOM     60  N   UNL A   1      41.371  32.497  30.177  1.00  0.00    -0.248 NA
ATOM     61  C   UNL A   1      39.739  33.942  31.019  1.00  0.00     0.031 C 
ATOM     62  C   UNL A   1      45.704  33.423  30.041  1.00  0.00     0.029 A 
ATOM     63  C   UNL A   1      44.347  33.158  30.105  1.00  0.00     0.049 A 
ATOM     64  H   UNL A   1      43.304  31.408  29.551  1.00  0.00     0.167 HD
ATOM     65  C   UNL A   1      41.975  33.678  30.592  1.00  0.00     0.074 A 
ATOM     66  C   UNL A   1      40.917  34.545  31.068  1.00  0.00     0.031 C 
ATOM     67  C   UNL A   1      43.288  34.012  30.576  1.00  0.00     0.031 A 
BRANCH  54  68
ATOM     68  C   UNL A   1      46.989  29.540  28.468  1.00  0.00    -0.014 A 
ATOM     69  C   UNL A   1      47.631  29.815  27.250  1.00  0.00     0.009 A 
ATOM     70  C   UNL A   1      47.698  28.852  29.466  1.00  0.00     0.009 A 
ATOM     71  C   UNL A   1      48.936  29.377  27.022  1.00  0.00     0.001 A 
ATOM     72  C   UNL A   1      49.014  28.443  29.247  1.00  0.00     0.001 A 
ATOM     73  C   UNL A   1      49.629  28.697  28.022  1.00  0.00     0.000 A 
ENDBRANCH  54  68
BRANCH  55  74
ATOM     74  C   UNL A   1      37.551  32.103  30.423  1.00  0.00    -0.014 A 
ATOM     75  C   UNL A   1      36.884  33.053  29.635  1.00  0.00     0.009 A 
ATOM     76  C   UNL A   1      36.878  31.541  31.520  1.00  0.00     0.009 A 
ATOM     77  C   UNL A   1      35.585  33.455  29.956  1.00  0.00     0.001 A 
ATOM     78  C   UNL A   1      35.568  31.920  31.818  1.00  0.00     0.001 A 
ATOM     79  C   UNL A   1      34.927  32.884  31.044  1.00  0.00     0.000 A 
ENDBRANCH  55  74
BRANCH  67  80
ATOM     80  C   UNL A   1      43.654  35.393  31.051  1.00  0.00    -0.014 A 
ATOM     81  C   UNL A   1      43.715  36.481  30.169  1.00  0.00     0.009 A 
ATOM     82  C   UNL A   1      43.901  35.611  32.417  1.00  0.00     0.009 A 
ATOM     83  C   UNL A   1      44.053  37.753  30.637  1.00  0.00     0.001 A 
ATOM     84  C   UNL A   1      44.207  36.888  32.888  1.00  0.00     0.001 A 
ATOM     85  C   UNL A   1      44.292  37.956  31.996  1.00  0.00     0.000 A 
ENDBRANCH  67  80
ENDBRANCH  41  42
ENDBRANCH  33  36
ENDBRANCH  31  32
ENDBRANCH  30  31
ENDBRANCH  29  30
ENDBRANCH   1  29
TORSDOF 16
ENDMDL
MODEL 2
REMARK VINA RESULT:     -11.2      3.411      8.938
REMARK SMILES O=C(COc1cc(-c2ccccc2)nc(Nc2ccccc2Br)n1)NCCCCNC(=O)c1ccc(-c2c3nc(c(-c4ccccc4)c4ccc([nH]4)c(-c4ccccc4)c4nc(c(-c5ccccc5)c5ccc2[nH]5)C=C4)C=C3)cc1
REMARK SMILES IDX 26 1 25 2 1 3 2 4 3 6 4 7 5 8 6 9 24 10 7 11 15 12 14 13
REMARK SMILES IDX 8 14 9 15 13 16 10 17 12 18 11 19 16 20 17 22 18 23 22 24
REMARK SMILES IDX 19 25 21 26 23 27 20 28 27 29 28 30 29 31 30 32 31 33 32 35
REMARK SMILES IDX 33 36 34 37 80 38 35 39 79 40 36 41 37 42 38 43 73 44 39 45
REMARK SMILES IDX 78 46 72 47 74 48 40 49 77 50 71 51 70 52 41 54 63 55 48 56
REMARK SMILES IDX 62 57 49 58 52 59 61 60 75 61 50 62 51 63 60 65 76 66 53 67
REMARK SMILES IDX 42 68 43 69 47 70 44 71 46 72 45 73 64 74 65 75 69 76 66 77
REMARK SMILES IDX 68 78 67 79 54 80 55 81 59 82 56 83 58 84 57 85
REMARK H PARENT 25 5 16 21 30 34 74 53 52 64
REMARK Flexibility Score: inf
ROOT
ATOM      1  C   UNL A   1      31.037  27.805  24.835  1.00  0.00     0.116 C 
ENDROOT
BRANCH   1   2
ATOM      2  N   UNL A   1      31.541  26.679  24.073  1.00  0.00    -0.353 N 
ATOM      3  O   UNL A   1      32.265  27.907  22.269  1.00  0.00    -0.271 OA
ATOM      4  C   UNL A   1      32.238  26.850  22.890  1.00  0.00     0.258 C 
ATOM      5  H   UNL A   1      31.385  25.768  24.408  1.00  0.00     0.163 HD
BRANCH   4   6
ATOM      6  C   UNL A   1      33.045  25.619  22.452  1.00  0.00     0.331 C 
BRANCH   6   7
ATOM      7  O   UNL A   1      32.333  24.384  22.478  1.00  0.00    -0.467 OA
BRANCH   7   8
ATOM      8  C   UNL A   1      33.019  23.343  23.056  1.00  0.00     0.219 A 
ATOM      9  C   UNL A   1      34.324  23.463  23.445  1.00  0.00     0.097 A 
ATOM     10  N   UNL A   1      32.270  22.285  23.385  1.00  0.00    -0.177 NA
ATOM     11  C   UNL A   1      34.831  22.462  24.238  1.00  0.00     0.080 A 
ATOM     12  C   UNL A   1      32.859  21.305  24.094  1.00  0.00     0.231 A 
ATOM     13  N   UNL A   1      34.116  21.370  24.564  1.00  0.00    -0.212 NA
BRANCH  11  14
ATOM     14  C   UNL A   1      36.177  22.613  24.802  1.00  0.00     0.000 A 
ATOM     15  C   UNL A   1      36.576  23.794  25.442  1.00  0.00     0.010 A 
ATOM     16  C   UNL A   1      37.063  21.517  24.811  1.00  0.00     0.010 A 
ATOM     17  C   UNL A   1      37.804  23.860  26.107  1.00  0.00     0.001 A 
ATOM     18  C   UNL A   1      38.289  21.583  25.473  1.00  0.00     0.001 A 
ATOM     19  C   UNL A   1      38.654  22.754  26.130  1.00  0.00     0.000 A 
ENDBRANCH  11  14
BRANCH  12  20
ATOM     20  N   UNL A   1      32.141  20.167  24.442  1.00  0.00    -0.323 N 
ATOM     21  H   UNL A   1      31.205  20.330  24.702  1.00  0.00     0.170 HD
BRANCH  20  22
ATOM     22  C   UNL A   1      32.540  18.825  24.481  1.00  0.00     0.055 A 
ATOM     23  C   UNL A   1      32.860  18.274  25.734  1.00  0.00     0.027 A 
ATOM     24  C   UNL A   1      32.625  17.987  23.353  1.00  0.00     0.041 A 
ATOM     25  C   UNL A   1      33.224  16.931  25.866  1.00  0.00     0.002 A 
ATOM     26  C   UNL A   1      32.993  16.642  23.487  1.00  0.00     0.018 A 
ATOM     27  Br  UNL A   1      32.405  18.628  21.572  1.00  0.00    -0.049 Br
ATOM     28  C   UNL A   1      33.285  16.113  24.743  1.00  0.00     0.001 A 
ENDBRANCH  20  22
ENDBRANCH  12  20
ENDBRANCH   7   8
ENDBRANCH   6   7
ENDBRANCH   4   6
ENDBRANCH   1   2
BRANCH   1  29
ATOM     29  C   UNL A   1      31.562  27.855  26.263  1.00  0.00     0.023 C 
BRANCH  29  30
ATOM     30  C   UNL A   1      32.929  27.204  26.465  1.00  0.00     0.023 C 
BRANCH  30  31
ATOM     31  C   UNL A   1      34.116  28.163  26.509  1.00  0.00     0.116 C 
BRANCH  31  32
ATOM     32  N   UNL A   1      33.751  29.506  26.928  1.00  0.00    -0.352 N 
ATOM     33  C   UNL A   1      34.444  30.398  27.712  1.00  0.00     0.251 C 
ATOM     34  H   UNL A   1      32.879  29.826  26.600  1.00  0.00     0.163 HD
ATOM     35  O   UNL A   1      33.908  31.443  28.074  1.00  0.00    -0.269 OA
BRANCH  33  36
ATOM     36  C   UNL A   1      35.824  30.091  28.153  1.00  0.00     0.039 A 
ATOM     37  C   UNL A   1      36.025  29.591  29.442  1.00  0.00     0.014 A 
ATOM     38  C   UNL A   1      36.917  30.295  27.306  1.00  0.00     0.014 A 
ATOM     39  C   UNL A   1      37.308  29.222  29.854  1.00  0.00     0.010 A 
ATOM     40  C   UNL A   1      38.183  29.855  27.690  1.00  0.00     0.010 A 
ATOM     41  C   UNL A   1      38.393  29.311  28.966  1.00  0.00    -0.014 A 
BRANCH  41  42
ATOM     42  C   UNL A   1      39.746  28.828  29.350  1.00  0.00     0.031 A 
ATOM     43  C   UNL A   1      40.662  29.694  30.172  1.00  0.00     0.074 A 
ATOM     44  C   UNL A   1      40.179  27.631  28.904  1.00  0.00     0.049 A 
ATOM     45  N   UNL A   1      41.892  29.462  30.556  1.00  0.00    -0.248 NA
ATOM     46  C   UNL A   1      40.135  30.999  30.599  1.00  0.00     0.031 C 
ATOM     47  C   UNL A   1      39.408  26.706  28.071  1.00  0.00     0.029 A 
ATOM     48  N   UNL A   1      41.379  26.989  29.086  1.00  0.00    -0.354 N 
ATOM     49  C   UNL A   1      42.291  30.597  31.253  1.00  0.00     0.074 A 
ATOM     50  C   UNL A   1      41.190  31.535  31.196  1.00  0.00     0.031 C 
ATOM     51  C   UNL A   1      40.140  25.605  27.842  1.00  0.00     0.029 A 
ATOM     52  C   UNL A   1      41.448  25.763  28.470  1.00  0.00     0.049 A 
ATOM     53  H   UNL A   1      42.121  27.371  29.609  1.00  0.00     0.167 HD
ATOM     54  C   UNL A   1      43.460  30.833  31.896  1.00  0.00     0.031 A 
ATOM     55  C   UNL A   1      42.453  24.869  28.406  1.00  0.00     0.031 A 
ATOM     56  C   UNL A   1      44.554  29.901  31.958  1.00  0.00     0.049 A 
ATOM     57  C   UNL A   1      43.752  25.168  29.102  1.00  0.00     0.074 A 
ATOM     58  C   UNL A   1      45.755  30.027  32.635  1.00  0.00     0.029 A 
ATOM     59  N   UNL A   1      44.586  28.674  31.313  1.00  0.00    -0.354 N 
ATOM     60  N   UNL A   1      44.084  26.215  29.819  1.00  0.00    -0.248 NA
ATOM     61  C   UNL A   1      44.812  24.156  28.989  1.00  0.00     0.031 C 
ATOM     62  C   UNL A   1      46.539  28.904  32.348  1.00  0.00     0.029 A 
ATOM     63  C   UNL A   1      45.799  28.048  31.550  1.00  0.00     0.049 A 
ATOM     64  H   UNL A   1      43.855  28.303  30.768  1.00  0.00     0.167 HD
ATOM     65  C   UNL A   1      45.376  25.972  30.267  1.00  0.00     0.074 A 
ATOM     66  C   UNL A   1      45.760  24.673  29.756  1.00  0.00     0.031 C 
ATOM     67  C   UNL A   1      46.171  26.756  31.036  1.00  0.00     0.031 A 
BRANCH  54  68
ATOM     68  C   UNL A   1      43.621  32.166  32.576  1.00  0.00    -0.014 A 
ATOM     69  C   UNL A   1      43.256  32.351  33.920  1.00  0.00     0.009 A 
ATOM     70  C   UNL A   1      44.186  33.242  31.875  1.00  0.00     0.009 A 
ATOM     71  C   UNL A   1      43.416  33.595  34.532  1.00  0.00     0.001 A 
ATOM     72  C   UNL A   1      44.375  34.476  32.499  1.00  0.00     0.001 A 
ATOM     73  C   UNL A   1      43.980  34.655  33.824  1.00  0.00     0.000 A 
ENDBRANCH  54  68
BRANCH  55  74
ATOM     74  C   UNL A   1      42.272  23.592  27.664  1.00  0.00    -0.014 A 
ATOM     75  C   UNL A   1      41.817  22.442  28.325  1.00  0.00     0.009 A 
ATOM     76  C   UNL A   1      42.569  23.512  26.294  1.00  0.00     0.009 A 
ATOM     77  C   UNL A   1      41.693  21.231  27.640  1.00  0.00     0.001 A 
ATOM     78  C   UNL A   1      42.412  22.308  25.603  1.00  0.00     0.001 A 
ATOM     79  C   UNL A   1      41.986  21.167  26.279  1.00  0.00     0.000 A 
ENDBRANCH  55  74
BRANCH  67  80
ATOM     80  C   UNL A   1      47.524  26.211  31.408  1.00  0.00    -0.014 A 
ATOM     81  C   UNL A   1      47.752  25.595  32.648  1.00  0.00     0.009 A 
ATOM     82  C   UNL A   1      48.576  26.283  30.481  1.00  0.00     0.009 A 
ATOM     83  C   UNL A   1      49.017  25.095  32.966  1.00  0.00     0.001 A 
ATOM     84  C   UNL A   1      49.830  25.753  30.788  1.00  0.00     0.001 A 
ATOM     85  C   UNL A   1      50.052  25.168  32.034  1.00  0.00     0.000 A 
ENDBRANCH  67  80
ENDBRANCH  41  42
ENDBRANCH  33  36
ENDBRANCH  31  32
ENDBRANCH  30  31
ENDBRANCH  29  30
ENDBRANCH   1  29
TORSDOF 16
ENDMDL
MODEL 3
REMARK VINA RESULT:     -11.1      5.756     10.538
REMARK SMILES O=C(COc1cc(-c2ccccc2)nc(Nc2ccccc2Br)n1)NCCCCNC(=O)c1ccc(-c2c3nc(c(-c4ccccc4)c4ccc([nH]4)c(-c4ccccc4)c4nc(c(-c5ccccc5)c5ccc2[nH]5)C=C4)C=C3)cc1
REMARK SMILES IDX 26 1 25 2 1 3 2 4 3 6 4 7 5 8 6 9 24 10 7 11 15 12 14 13
REMARK SMILES IDX 8 14 9 15 13 16 10 17 12 18 11 19 16 20 17 22 18 23 22 24
REMARK SMILES IDX 19 25 21 26 23 27 20 28 27 29 28 30 29 31 30 32 31 33 32 35
REMARK SMILES IDX 33 36 34 37 80 38 35 39 79 40 36 41 37 42 38 43 73 44 39 45
REMARK SMILES IDX 78 46 72 47 74 48 40 49 77 50 71 51 70 52 41 54 63 55 48 56
REMARK SMILES IDX 62 57 49 58 52 59 61 60 75 61 50 62 51 63 60 65 76 66 53 67
REMARK SMILES IDX 42 68 43 69 47 70 44 71 46 72 45 73 64 74 65 75 69 76 66 77
REMARK SMILES IDX 68 78 67 79 54 80 55 81 59 82 56 83 58 84 57 85
REMARK H PARENT 25 5 16 21 30 34 74 53 52 64
REMARK Flexibility Score: inf
ROOT
ATOM      1  C   UNL A   1      44.638  19.228  24.754  1.00  0.00     0.116 C 
ENDROOT
BRANCH   1   2
ATOM      2  N   UNL A   1      43.226  19.506  24.930  1.00  0.00    -0.353 N 
ATOM      3  O   UNL A   1      42.796  17.728  26.322  1.00  0.00    -0.271 OA
ATOM      4  C   UNL A   1      42.445  18.789  25.818  1.00  0.00     0.258 C 
ATOM      5  H   UNL A   1      42.812  20.228  24.405  1.00  0.00     0.163 HD
BRANCH   4   6
ATOM      6  C   UNL A   1      41.119  19.472  26.184  1.00  0.00     0.331 C 
BRANCH   6   7
ATOM      7  O   UNL A   1      41.236  20.619  27.023  1.00  0.00    -0.467 OA
BRANCH   7   8
ATOM      8  C   UNL A   1      40.393  21.653  26.695  1.00  0.00     0.219 A 
ATOM      9  C   UNL A   1      39.282  21.464  25.921  1.00  0.00     0.097 A 
ATOM     10  N   UNL A   1      40.626  22.800  27.342  1.00  0.00    -0.177 NA
ATOM     11  C   UNL A   1      38.378  22.498  25.869  1.00  0.00     0.080 A 
ATOM     12  C   UNL A   1      39.737  23.796  27.177  1.00  0.00     0.231 A 
ATOM     13  N   UNL A   1      38.593  23.675  26.483  1.00  0.00    -0.212 NA
BRANCH  11  14
ATOM     14  C   UNL A   1      37.102  22.293  25.172  1.00  0.00     0.000 A 
ATOM     15  C   UNL A   1      36.102  21.468  25.701  1.00  0.00     0.010 A 
ATOM     16  C   UNL A   1      36.816  23.024  24.002  1.00  0.00     0.010 A 
ATOM     17  C   UNL A   1      34.840  21.411  25.102  1.00  0.00     0.001 A 
ATOM     18  C   UNL A   1      35.558  22.966  23.402  1.00  0.00     0.001 A 
ATOM     19  C   UNL A   1      34.566  22.165  23.960  1.00  0.00     0.000 A 
ENDBRANCH  11  14
BRANCH  12  20
ATOM     20  N   UNL A   1      39.939  25.022  27.801  1.00  0.00    -0.323 N 
ATOM     21  H   UNL A   1      39.704  25.045  28.757  1.00  0.00     0.170 HD
BRANCH  20  22
ATOM     22  C   UNL A   1      40.424  26.229  27.282  1.00  0.00     0.055 A 
ATOM     23  C   UNL A   1      41.305  26.164  26.188  1.00  0.00     0.027 A 
ATOM     24  C   UNL A   1      40.075  27.503  27.770  1.00  0.00     0.041 A 
ATOM     25  C   UNL A   1      41.798  27.323  25.582  1.00  0.00     0.002 A 
ATOM     26  C   UNL A   1      40.573  28.663  27.163  1.00  0.00     0.018 A 
ATOM     27  Br  UNL A   1      39.045  27.755  29.353  1.00  0.00    -0.049 Br
ATOM     28  C   UNL A   1      41.428  28.573  26.066  1.00  0.00     0.001 A 
ENDBRANCH  20  22
ENDBRANCH  12  20
ENDBRANCH   7   8
ENDBRANCH   6   7
ENDBRANCH   4   6
ENDBRANCH   1   2
BRANCH   1  29
ATOM     29  C   UNL A   1      45.514  20.472  24.813  1.00  0.00     0.023 C 
BRANCH  29  30
ATOM     30  C   UNL A   1      44.785  21.748  25.234  1.00  0.00     0.023 C 
BRANCH  30  31
ATOM     31  C   UNL A   1      45.216  22.342  26.573  1.00  0.00     0.116 C 
BRANCH  31  32
ATOM     32  N   UNL A   1      44.102  22.843  27.361  1.00  0.00    -0.352 N 
ATOM     33  C   UNL A   1      43.911  24.087  27.914  1.00  0.00     0.251 C 
ATOM     34  H   UNL A   1      43.377  22.197  27.522  1.00  0.00     0.163 HD
ATOM     35  O   UNL A   1      42.963  24.284  28.671  1.00  0.00    -0.269 OA
BRANCH  33  36
ATOM     36  C   UNL A   1      44.861  25.187  27.629  1.00  0.00     0.039 A 
ATOM     37  C   UNL A   1      44.967  25.664  26.319  1.00  0.00     0.014 A 
ATOM     38  C   UNL A   1      45.645  25.748  28.640  1.00  0.00     0.014 A 
ATOM     39  C   UNL A   1      45.799  26.751  26.039  1.00  0.00     0.010 A 
ATOM     40  C   UNL A   1      46.415  26.879  28.375  1.00  0.00     0.010 A 
ATOM     41  C   UNL A   1      46.498  27.396  27.073  1.00  0.00    -0.014 A 
BRANCH  41  42
ATOM     42  C   UNL A   1      47.307  28.616  26.813  1.00  0.00     0.031 A 
ATOM     43  C   UNL A   1      46.653  29.970  26.765  1.00  0.00     0.074 A 
ATOM     44  C   UNL A   1      48.626  28.501  26.555  1.00  0.00     0.049 A 
ATOM     45  N   UNL A   1      47.187  31.137  26.500  1.00  0.00    -0.248 NA
ATOM     46  C   UNL A   1      45.206  30.019  27.027  1.00  0.00     0.031 C 
ATOM     47  C   UNL A   1      49.381  27.246  26.535  1.00  0.00     0.029 A 
ATOM     48  N   UNL A   1      49.565  29.456  26.255  1.00  0.00    -0.354 N 
ATOM     49  C   UNL A   1      46.141  32.051  26.547  1.00  0.00     0.074 A 
ATOM     50  C   UNL A   1      44.935  31.299  26.816  1.00  0.00     0.031 C 
ATOM     51  C   UNL A   1      50.669  27.512  26.271  1.00  0.00     0.029 A 
ATOM     52  C   UNL A   1      50.826  28.947  26.056  1.00  0.00     0.049 A 
ATOM     53  H   UNL A   1      49.356  30.416  26.189  1.00  0.00     0.167 HD
ATOM     54  C   UNL A   1      46.182  33.397  26.396  1.00  0.00     0.031 A 
ATOM     55  C   UNL A   1      51.978  29.562  25.728  1.00  0.00     0.031 A 
ATOM     56  C   UNL A   1      47.380  34.149  26.133  1.00  0.00     0.049 A 
ATOM     57  C   UNL A   1      51.990  31.053  25.535  1.00  0.00     0.074 A 
ATOM     58  C   UNL A   1      47.529  35.520  26.022  1.00  0.00     0.029 A 
ATOM     59  N   UNL A   1      48.633  33.593  25.930  1.00  0.00    -0.354 N 
ATOM     60  N   UNL A   1      51.005  31.910  25.655  1.00  0.00    -0.248 NA
ATOM     61  C   UNL A   1      53.277  31.662  25.170  1.00  0.00     0.031 C 
ATOM     62  C   UNL A   1      48.861  35.790  25.691  1.00  0.00     0.029 A 
ATOM     63  C   UNL A   1      49.555  34.592  25.663  1.00  0.00     0.049 A 
ATOM     64  H   UNL A   1      48.838  32.631  25.970  1.00  0.00     0.167 HD
ATOM     65  C   UNL A   1      51.560  33.161  25.413  1.00  0.00     0.074 A 
ATOM     66  C   UNL A   1      52.970  32.951  25.157  1.00  0.00     0.031 C 
ATOM     67  C   UNL A   1      50.955  34.373  25.409  1.00  0.00     0.031 A 
BRANCH  54  68
ATOM     68  C   UNL A   1      44.880  34.146  26.497  1.00  0.00    -0.014 A 
ATOM     69  C   UNL A   1      44.052  34.328  25.377  1.00  0.00     0.009 A 
ATOM     70  C   UNL A   1      44.455  34.640  27.740  1.00  0.00     0.009 A 
ATOM     71  C   UNL A   1      42.847  35.024  25.493  1.00  0.00     0.001 A 
ATOM     72  C   UNL A   1      43.234  35.307  27.859  1.00  0.00     0.001 A 
ATOM     73  C   UNL A   1      42.437  35.508  26.733  1.00  0.00     0.000 A 
ENDBRANCH  54  68
BRANCH  55  74
ATOM     74  C   UNL A   1      53.229  28.771  25.571  1.00  0.00    -0.014 A 
ATOM     75  C   UNL A   1      54.083  28.564  26.664  1.00  0.00     0.009 A 
ATOM     76  C   UNL A   1      53.585  28.234  24.323  1.00  0.00     0.009 A 
ATOM     77  C   UNL A   1      55.281  27.862  26.507  1.00  0.00     0.001 A 
ATOM     78  C   UNL A   1      54.767  27.504  24.176  1.00  0.00     0.001 A 
ATOM     79  C   UNL A   1      55.619  27.330  25.264  1.00  0.00     0.000 A 
ENDBRANCH  55  74
BRANCH  67  80
ATOM     80  C   UNL A   1      51.823  35.576  25.156  1.00  0.00    -0.014 A 
ATOM     81  C   UNL A   1      52.141  35.993  23.855  1.00  0.00     0.009 A 
ATOM     82  C   UNL A   1      52.297  36.327  26.244  1.00  0.00     0.009 A 
ATOM     83  C   UNL A   1      52.945  37.116  23.649  1.00  0.00     0.001 A 
ATOM     84  C   UNL A   1      53.074  37.468  26.035  1.00  0.00     0.001 A 
ATOM     85  C   UNL A   1      53.405  37.855  24.738  1.00  0.00     0.000 A 
ENDBRANCH  67  80
ENDBRANCH  41  42
ENDBRANCH  33  36
ENDBRANCH  31  32
ENDBRANCH  30  31
ENDBRANCH  29  30
ENDBRANCH   1  29
TORSDOF 16
ENDMDL
