MODEL 1
REMARK VINA RESULT:     -11.4      0.000      0.000
REMARK SMILES Cc1cc(C(=O)NC[C@H]2CC[C@@H](C(=O)NCCCCNC(=O)c3ccc(-c4c5nc(c(-c6ccccc6)c6ccc([nH]6)c(-c6ccccc6)c6nc(c(-c7ccccc7)c7ccc4[nH]7)C=C6)C=C5)cc3)O2)c(C)s1
REMARK SMILES IDX 17 1 16 2 15 3 13 4 14 5 12 7 9 8 10 9 71 10 11 11 8 12 7 13
REMARK SMILES IDX 5 14 6 15 4 17 1 18 2 19 3 20 74 21 72 22 73 23 18 24 19 25
REMARK SMILES IDX 20 26 21 27 22 29 23 30 24 31 70 32 25 33 69 34 26 35 27 36
REMARK SMILES IDX 28 37 63 38 29 39 68 40 62 41 64 42 30 43 67 44 61 45 60 46
REMARK SMILES IDX 31 48 53 49 38 50 52 51 39 52 42 53 51 54 65 55 40 56 41 57
REMARK SMILES IDX 50 59 66 60 43 61 32 62 33 63 37 64 34 65 36 66 35 67 54 68
REMARK SMILES IDX 55 69 59 70 56 71 58 72 57 73 44 74 45 75 49 76 46 77 48 78
REMARK SMILES IDX 47 79
REMARK H PARENT 15 6 7 16 20 28 64 47 42 58
REMARK Flexibility Score: inf
ROOT
ATOM      1  C   UNL A   1      36.640  20.363  24.992  1.00  0.00     0.023 C 
ENDROOT
BRANCH   1   2
ATOM      2  C   UNL A   1      35.231  20.892  25.227  1.00  0.00     0.116 C 
BRANCH   2   3
ATOM      3  N   UNL A   1      34.258  19.839  25.410  1.00  0.00    -0.354 N 
ATOM      4  C   UNL A   1      32.910  19.845  25.194  1.00  0.00     0.249 C 
ATOM      5  O   UNL A   1      32.306  18.780  25.362  1.00  0.00    -0.272 OA
ATOM      6  H   UNL A   1      34.623  18.986  25.740  1.00  0.00     0.163 HD
BRANCH   4   7
ATOM      7  C   UNL A   1      32.148  21.102  24.723  1.00  0.00     0.207 C 
ATOM      8  C   UNL A   1      32.162  23.419  24.475  1.00  0.00     0.138 C 
ATOM      9  C   UNL A   1      31.718  22.795  23.151  1.00  0.00     0.037 C 
ATOM     10  O   UNL A   1      32.511  22.331  25.356  1.00  0.00    -0.363 OA
ATOM     11  C   UNL A   1      32.228  21.373  23.231  1.00  0.00     0.045 C 
BRANCH   8  12
ATOM     12  C   UNL A   1      33.389  24.308  24.280  1.00  0.00     0.148 C 
BRANCH  12  13
ATOM     13  N   UNL A   1      33.560  24.820  22.926  1.00  0.00    -0.349 N 
ATOM     14  C   UNL A   1      33.414  26.104  22.454  1.00  0.00     0.252 C 
ATOM     15  O   UNL A   1      33.561  26.302  21.249  1.00  0.00    -0.269 OA
ATOM     16  H   UNL A   1      33.818  24.151  22.252  1.00  0.00     0.163 HD
BRANCH  14  17
ATOM     17  C   UNL A   1      33.028  27.170  23.386  1.00  0.00     0.053 A 
ATOM     18  C   UNL A   1      33.947  29.025  26.490  1.00  0.00     0.056 C 
ATOM     19  C   UNL A   1      33.310  28.572  25.220  1.00  0.00     0.003 A 
ATOM     20  C   UNL A   1      33.917  28.049  24.104  1.00  0.00     0.029 A 
ATOM     21  S   UNL A   1      31.628  28.646  24.960  1.00  0.00    -0.145 S 
ATOM     22  C   UNL A   1      31.709  27.450  23.735  1.00  0.00     0.014 A 
ATOM     23  C   UNL A   1      30.435  26.808  23.286  1.00  0.00     0.057 C 
ENDBRANCH  14  17
ENDBRANCH  12  13
ENDBRANCH   8  12
ENDBRANCH   4   7
ENDBRANCH   2   3
ENDBRANCH   1   2
BRANCH   1  24
ATOM     24  C   UNL A   1      37.774  21.387  25.016  1.00  0.00     0.023 C 
BRANCH  24  25
ATOM     25  C   UNL A   1      38.924  21.149  25.994  1.00  0.00     0.116 C 
BRANCH  25  26
ATOM     26  N   UNL A   1      39.779  20.006  25.708  1.00  0.00    -0.352 N 
ATOM     27  C   UNL A   1      41.090  19.769  26.063  1.00  0.00     0.251 C 
ATOM     28  H   UNL A   1      39.356  19.293  25.178  1.00  0.00     0.163 HD
ATOM     29  O   UNL A   1      41.607  18.662  25.953  1.00  0.00    -0.269 OA
BRANCH  27  30
ATOM     30  C   UNL A   1      41.929  20.889  26.490  1.00  0.00     0.039 A 
ATOM     31  C   UNL A   1      42.351  21.802  25.514  1.00  0.00     0.014 A 
ATOM     32  C   UNL A   1      42.195  21.091  27.838  1.00  0.00     0.014 A 
ATOM     33  C   UNL A   1      42.943  22.994  25.910  1.00  0.00     0.010 A 
ATOM     34  C   UNL A   1      42.692  22.316  28.236  1.00  0.00     0.010 A 
ATOM     35  C   UNL A   1      43.054  23.279  27.277  1.00  0.00    -0.014 A 
BRANCH  35  36
ATOM     36  C   UNL A   1      43.549  24.581  27.763  1.00  0.00     0.031 A 
ATOM     37  C   UNL A   1      42.548  25.619  28.164  1.00  0.00     0.074 A 
ATOM     38  C   UNL A   1      44.865  24.856  27.688  1.00  0.00     0.049 A 
ATOM     39  N   UNL A   1      42.723  26.892  28.390  1.00  0.00    -0.248 NA
ATOM     40  C   UNL A   1      41.148  25.170  28.260  1.00  0.00     0.031 C 
ATOM     41  C   UNL A   1      45.908  23.923  27.256  1.00  0.00     0.029 A 
ATOM     42  N   UNL A   1      45.544  26.017  27.946  1.00  0.00    -0.354 N 
ATOM     43  C   UNL A   1      41.449  27.404  28.600  1.00  0.00     0.074 A 
ATOM     44  C   UNL A   1      40.513  26.318  28.423  1.00  0.00     0.031 C 
ATOM     45  C   UNL A   1      47.098  24.546  27.291  1.00  0.00     0.029 A 
ATOM     46  C   UNL A   1      46.893  25.929  27.702  1.00  0.00     0.049 A 
ATOM     47  H   UNL A   1      45.107  26.837  28.275  1.00  0.00     0.167 HD
ATOM     48  C   UNL A   1      41.100  28.669  28.928  1.00  0.00     0.031 A 
ATOM     49  C   UNL A   1      47.849  26.871  27.789  1.00  0.00     0.031 A 
ATOM     50  C   UNL A   1      42.057  29.721  29.131  1.00  0.00     0.049 A 
ATOM     51  C   UNL A   1      47.446  28.254  28.214  1.00  0.00     0.074 A 
ATOM     52  C   UNL A   1      41.840  31.025  29.533  1.00  0.00     0.029 A 
ATOM     53  N   UNL A   1      43.427  29.573  28.957  1.00  0.00    -0.354 N 
ATOM     54  N   UNL A   1      46.245  28.722  28.465  1.00  0.00    -0.248 NA
ATOM     55  C   UNL A   1      48.525  29.235  28.385  1.00  0.00     0.031 C 
ATOM     56  C   UNL A   1      43.079  31.676  29.572  1.00  0.00     0.029 A 
ATOM     57  C   UNL A   1      44.070  30.763  29.239  1.00  0.00     0.049 A 
ATOM     58  H   UNL A   1      43.874  28.742  28.674  1.00  0.00     0.167 HD
ATOM     59  C   UNL A   1      46.423  30.044  28.844  1.00  0.00     0.074 A 
ATOM     60  C   UNL A   1      47.851  30.297  28.807  1.00  0.00     0.031 C 
ATOM     61  C   UNL A   1      45.495  30.971  29.188  1.00  0.00     0.031 A 
BRANCH  48  62
ATOM     62  C   UNL A   1      39.631  28.957  29.069  1.00  0.00    -0.014 A 
ATOM     63  C   UNL A   1      38.964  28.776  30.293  1.00  0.00     0.009 A 
ATOM     64  C   UNL A   1      38.891  29.377  27.953  1.00  0.00     0.009 A 
ATOM     65  C   UNL A   1      37.582  28.950  30.382  1.00  0.00     0.001 A 
ATOM     66  C   UNL A   1      37.514  29.585  28.054  1.00  0.00     0.001 A 
ATOM     67  C   UNL A   1      36.858  29.356  29.262  1.00  0.00     0.000 A 
ENDBRANCH  48  62
BRANCH  49  68
ATOM     68  C   UNL A   1      49.264  26.526  27.496  1.00  0.00    -0.014 A 
ATOM     69  C   UNL A   1      49.767  26.642  26.191  1.00  0.00     0.009 A 
ATOM     70  C   UNL A   1      50.131  26.112  28.520  1.00  0.00     0.009 A 
ATOM     71  C   UNL A   1      51.101  26.330  25.913  1.00  0.00     0.001 A 
ATOM     72  C   UNL A   1      51.472  25.828  28.244  1.00  0.00     0.001 A 
ATOM     73  C   UNL A   1      51.953  25.929  26.941  1.00  0.00     0.000 A 
ENDBRANCH  49  68
BRANCH  61  74
ATOM     74  C   UNL A   1      46.007  32.326  29.578  1.00  0.00    -0.014 A 
ATOM     75  C   UNL A   1      46.356  32.615  30.905  1.00  0.00     0.009 A 
ATOM     76  C   UNL A   1      46.189  33.306  28.591  1.00  0.00     0.009 A 
ATOM     77  C   UNL A   1      46.852  33.874  31.241  1.00  0.00     0.001 A 
ATOM     78  C   UNL A   1      46.710  34.555  28.926  1.00  0.00     0.001 A 
ATOM     79  C   UNL A   1      47.035  34.840  30.252  1.00  0.00     0.000 A 
ENDBRANCH  61  74
ENDBRANCH  35  36
ENDBRANCH  27  30
ENDBRANCH  25  26
ENDBRANCH  24  25
ENDBRANCH   1  24
TORSDOF 14
ENDMDL
MODEL 2
REMARK VINA RESULT:     -11.2      2.729      7.562
REMARK SMILES Cc1cc(C(=O)NC[C@H]2CC[C@@H](C(=O)NCCCCNC(=O)c3ccc(-c4c5nc(c(-c6ccccc6)c6ccc([nH]6)c(-c6ccccc6)c6nc(c(-c7ccccc7)c7ccc4[nH]7)C=C6)C=C5)cc3)O2)c(C)s1
REMARK SMILES IDX 17 1 16 2 15 3 13 4 14 5 12 7 9 8 10 9 71 10 11 11 8 12 7 13
REMARK SMILES IDX 5 14 6 15 4 17 1 18 2 19 3 20 74 21 72 22 73 23 18 24 19 25
REMARK SMILES IDX 20 26 21 27 22 29 23 30 24 31 70 32 25 33 69 34 26 35 27 36
REMARK SMILES IDX 28 37 63 38 29 39 68 40 62 41 64 42 30 43 67 44 61 45 60 46
REMARK SMILES IDX 31 48 53 49 38 50 52 51 39 52 42 53 51 54 65 55 40 56 41 57
REMARK SMILES IDX 50 59 66 60 43 61 32 62 33 63 37 64 34 65 36 66 35 67 54 68
REMARK SMILES IDX 55 69 59 70 56 71 58 72 57 73 44 74 45 75 49 76 46 77 48 78
REMARK SMILES IDX 47 79
REMARK H PARENT 15 6 7 16 20 28 64 47 42 58
REMARK Flexibility Score: inf
ROOT
ATOM      1  C   UNL A   1      33.748  28.255  24.449  1.00  0.00     0.023 C 
ENDROOT
BRANCH   1   2
ATOM      2  C   UNL A   1      33.577  28.455  22.949  1.00  0.00     0.116 C 
BRANCH   2   3
ATOM      3  N   UNL A   1      32.437  29.279  22.617  1.00  0.00    -0.354 N 
ATOM      4  C   UNL A   1      31.124  28.938  22.468  1.00  0.00     0.249 C 
ATOM      5  O   UNL A   1      30.324  29.855  22.248  1.00  0.00    -0.272 OA
ATOM      6  H   UNL A   1      32.639  30.233  22.478  1.00  0.00     0.163 HD
BRANCH   4   7
ATOM      7  C   UNL A   1      30.621  27.485  22.598  1.00  0.00     0.207 C 
ATOM      8  C   UNL A   1      31.127  25.284  23.175  1.00  0.00     0.138 C 
ATOM      9  C   UNL A   1      29.820  25.677  23.867  1.00  0.00     0.037 C 
ATOM     10  O   UNL A   1      31.617  26.464  22.504  1.00  0.00    -0.363 OA
ATOM     11  C   UNL A   1      29.853  27.189  23.874  1.00  0.00     0.045 C 
BRANCH   8  12
ATOM     12  C   UNL A   1      32.172  24.826  24.191  1.00  0.00     0.148 C 
BRANCH  12  13
ATOM     13  N   UNL A   1      31.643  24.538  25.519  1.00  0.00    -0.349 N 
ATOM     14  C   UNL A   1      32.145  23.713  26.497  1.00  0.00     0.252 C 
ATOM     15  O   UNL A   1      31.500  23.580  27.536  1.00  0.00    -0.269 OA
ATOM     16  H   UNL A   1      30.806  25.001  25.748  1.00  0.00     0.163 HD
BRANCH  14  17
ATOM     17  C   UNL A   1      33.390  22.976  26.245  1.00  0.00     0.053 A 
ATOM     18  C   UNL A   1      37.007  23.255  25.375  1.00  0.00     0.056 C 
ATOM     19  C   UNL A   1      35.661  22.766  25.792  1.00  0.00     0.003 A 
ATOM     20  C   UNL A   1      34.727  23.409  26.567  1.00  0.00     0.029 A 
ATOM     21  S   UNL A   1      35.056  21.242  25.333  1.00  0.00    -0.145 S 
ATOM     22  C   UNL A   1      33.438  21.741  25.604  1.00  0.00     0.014 A 
ATOM     23  C   UNL A   1      32.334  20.893  25.057  1.00  0.00     0.057 C 
ENDBRANCH  14  17
ENDBRANCH  12  13
ENDBRANCH   8  12
ENDBRANCH   4   7
ENDBRANCH   2   3
ENDBRANCH   1   2
BRANCH   1  24
ATOM     24  C   UNL A   1      33.244  29.376  25.356  1.00  0.00     0.023 C 
BRANCH  24  25
ATOM     25  C   UNL A   1      33.414  29.199  26.864  1.00  0.00     0.116 C 
BRANCH  25  26
ATOM     26  N   UNL A   1      33.553  30.424  27.639  1.00  0.00    -0.352 N 
ATOM     27  C   UNL A   1      34.677  31.001  28.191  1.00  0.00     0.251 C 
ATOM     28  H   UNL A   1      32.715  30.916  27.795  1.00  0.00     0.163 HD
ATOM     29  O   UNL A   1      34.680  32.151  28.616  1.00  0.00    -0.269 OA
BRANCH  27  30
ATOM     30  C   UNL A   1      35.881  30.189  28.372  1.00  0.00     0.039 A 
ATOM     31  C   UNL A   1      36.811  30.149  27.325  1.00  0.00     0.014 A 
ATOM     32  C   UNL A   1      36.134  29.576  29.593  1.00  0.00     0.014 A 
ATOM     33  C   UNL A   1      38.061  29.588  27.547  1.00  0.00     0.010 A 
ATOM     34  C   UNL A   1      37.410  29.108  29.843  1.00  0.00     0.010 A 
ATOM     35  C   UNL A   1      38.384  29.126  28.829  1.00  0.00    -0.014 A 
BRANCH  35  36
ATOM     36  C   UNL A   1      39.736  28.643  29.166  1.00  0.00     0.031 A 
ATOM     37  C   UNL A   1      40.706  29.609  29.771  1.00  0.00     0.074 A 
ATOM     38  C   UNL A   1      40.110  27.408  28.784  1.00  0.00     0.049 A 
ATOM     39  N   UNL A   1      41.996  29.494  29.929  1.00  0.00    -0.248 NA
ATOM     40  C   UNL A   1      40.153  30.907  30.195  1.00  0.00     0.031 C 
ATOM     41  C   UNL A   1      39.245  26.417  28.137  1.00  0.00     0.029 A 
ATOM     42  N   UNL A   1      41.328  26.787  28.859  1.00  0.00    -0.354 N 
ATOM     43  C   UNL A   1      42.415  30.724  30.420  1.00  0.00     0.074 A 
ATOM     44  C   UNL A   1      41.254  31.581  30.482  1.00  0.00     0.031 C 
ATOM     45  C   UNL A   1      39.960  25.307  27.886  1.00  0.00     0.029 A 
ATOM     46  C   UNL A   1      41.336  25.528  28.311  1.00  0.00     0.049 A 
ATOM     47  H   UNL A   1      42.122  27.203  29.266  1.00  0.00     0.167 HD
ATOM     48  C   UNL A   1      43.660  31.093  30.800  1.00  0.00     0.031 A 
ATOM     49  C   UNL A   1      42.352  24.659  28.158  1.00  0.00     0.031 A 
ATOM     50  C   UNL A   1      44.789  30.207  30.758  1.00  0.00     0.049 A 
ATOM     51  C   UNL A   1      43.714  25.068  28.643  1.00  0.00     0.074 A 
ATOM     52  C   UNL A   1      46.086  30.434  31.178  1.00  0.00     0.029 A 
ATOM     53  N   UNL A   1      44.742  28.906  30.274  1.00  0.00    -0.354 N 
ATOM     54  N   UNL A   1      44.096  26.214  29.157  1.00  0.00    -0.248 NA
ATOM     55  C   UNL A   1      44.781  24.065  28.543  1.00  0.00     0.031 C 
ATOM     56  C   UNL A   1      46.832  29.278  30.919  1.00  0.00     0.029 A 
ATOM     57  C   UNL A   1      45.988  28.317  30.380  1.00  0.00     0.049 A 
ATOM     58  H   UNL A   1      43.939  28.468  29.909  1.00  0.00     0.167 HD
ATOM     59  C   UNL A   1      45.440  26.065  29.463  1.00  0.00     0.074 A 
ATOM     60  C   UNL A   1      45.802  24.710  29.092  1.00  0.00     0.031 C 
ATOM     61  C   UNL A   1      46.304  26.964  29.998  1.00  0.00     0.031 A 
BRANCH  48  62
ATOM     62  C   UNL A   1      43.837  32.510  31.271  1.00  0.00    -0.014 A 
ATOM     63  C   UNL A   1      44.175  33.541  30.378  1.00  0.00     0.009 A 
ATOM     64  C   UNL A   1      43.704  32.814  32.634  1.00  0.00     0.009 A 
ATOM     65  C   UNL A   1      44.435  34.830  30.846  1.00  0.00     0.001 A 
ATOM     66  C   UNL A   1      43.929  34.113  33.095  1.00  0.00     0.001 A 
ATOM     67  C   UNL A   1      44.310  35.116  32.204  1.00  0.00     0.000 A 
ENDBRANCH  48  62
BRANCH  49  68
ATOM     68  C   UNL A   1      42.108  23.325  27.552  1.00  0.00    -0.014 A 
ATOM     69  C   UNL A   1      42.448  23.082  26.213  1.00  0.00     0.009 A 
ATOM     70  C   UNL A   1      41.567  22.277  28.313  1.00  0.00     0.009 A 
ATOM     71  C   UNL A   1      42.232  21.825  25.641  1.00  0.00     0.001 A 
ATOM     72  C   UNL A   1      41.377  21.012  27.746  1.00  0.00     0.001 A 
ATOM     73  C   UNL A   1      41.702  20.790  26.410  1.00  0.00     0.000 A 
ENDBRANCH  49  68
BRANCH  61  74
ATOM     74  C   UNL A   1      47.707  26.491  30.236  1.00  0.00    -0.014 A 
ATOM     75  C   UNL A   1      48.083  25.924  31.463  1.00  0.00     0.009 A 
ATOM     76  C   UNL A   1      48.648  26.570  29.199  1.00  0.00     0.009 A 
ATOM     77  C   UNL A   1      49.387  25.470  31.655  1.00  0.00     0.001 A 
ATOM     78  C   UNL A   1      49.944  26.090  29.385  1.00  0.00     0.001 A 
ATOM     79  C   UNL A   1      50.314  25.548  30.616  1.00  0.00     0.000 A 
ENDBRANCH  61  74
ENDBRANCH  35  36
ENDBRANCH  27  30
ENDBRANCH  25  26
ENDBRANCH  24  25
ENDBRANCH   1  24
TORSDOF 14
ENDMDL
MODEL 3
REMARK VINA RESULT:     -11.2      4.481      9.454
REMARK SMILES Cc1cc(C(=O)NC[C@H]2CC[C@@H](C(=O)NCCCCNC(=O)c3ccc(-c4c5nc(c(-c6ccccc6)c6ccc([nH]6)c(-c6ccccc6)c6nc(c(-c7ccccc7)c7ccc4[nH]7)C=C6)C=C5)cc3)O2)c(C)s1
REMARK SMILES IDX 17 1 16 2 15 3 13 4 14 5 12 7 9 8 10 9 71 10 11 11 8 12 7 13
REMARK SMILES IDX 5 14 6 15 4 17 1 18 2 19 3 20 74 21 72 22 73 23 18 24 19 25
REMARK SMILES IDX 20 26 21 27 22 29 23 30 24 31 70 32 25 33 69 34 26 35 27 36
REMARK SMILES IDX 28 37 63 38 29 39 68 40 62 41 64 42 30 43 67 44 61 45 60 46
REMARK SMILES IDX 31 48 53 49 38 50 52 51 39 52 42 53 51 54 65 55 40 56 41 57
REMARK SMILES IDX 50 59 66 60 43 61 32 62 33 63 37 64 34 65 36 66 35 67 54 68
REMARK SMILES IDX 55 69 59 70 56 71 58 72 57 73 44 74 45 75 49 76 46 77 48 78
REMARK SMILES IDX 47 79
REMARK H PARENT 15 6 7 16 20 28 64 47 42 58
REMARK Flexibility Score: inf
ROOT
ATOM      1  C   UNL A   1      31.425  30.448  25.744  1.00  0.00     0.023 C 
ENDROOT
BRANCH   1   2
ATOM      2  C   UNL A   1      31.661  29.427  24.639  1.00  0.00     0.116 C 
BRANCH   2   3
ATOM      3  N   UNL A   1      30.944  29.739  23.422  1.00  0.00    -0.354 N 
ATOM      4  C   UNL A   1      30.338  28.907  22.526  1.00  0.00     0.249 C 
ATOM      5  O   UNL A   1      29.724  29.435  21.592  1.00  0.00    -0.272 OA
ATOM      6  H   UNL A   1      30.885  30.698  23.208  1.00  0.00     0.163 HD
BRANCH   4   7
ATOM      7  C   UNL A   1      30.365  27.370  22.665  1.00  0.00     0.207 C 
ATOM      8  C   UNL A   1      31.456  25.505  23.538  1.00  0.00     0.138 C 
ATOM      9  C   UNL A   1      29.966  25.392  23.869  1.00  0.00     0.037 C 
ATOM     10  O   UNL A   1      31.648  26.783  22.898  1.00  0.00    -0.363 OA
ATOM     11  C   UNL A   1      29.459  26.813  23.748  1.00  0.00     0.045 C 
BRANCH   8  12
ATOM     12  C   UNL A   1      32.306  25.457  24.807  1.00  0.00     0.148 C 
BRANCH  12  13
ATOM     13  N   UNL A   1      31.658  24.828  25.950  1.00  0.00    -0.349 N 
ATOM     14  C   UNL A   1      32.027  23.705  26.654  1.00  0.00     0.252 C 
ATOM     15  O   UNL A   1      31.295  23.321  27.565  1.00  0.00    -0.269 OA
ATOM     16  H   UNL A   1      30.836  25.269  26.264  1.00  0.00     0.163 HD
BRANCH  14  17
ATOM     17  C   UNL A   1      33.238  22.977  26.257  1.00  0.00     0.053 A 
ATOM     18  C   UNL A   1      36.923  23.196  25.717  1.00  0.00     0.056 C 
ATOM     19  C   UNL A   1      35.520  22.720  25.888  1.00  0.00     0.003 A 
ATOM     20  C   UNL A   1      34.570  23.176  26.771  1.00  0.00     0.029 A 
ATOM     21  S   UNL A   1      34.856  21.464  24.950  1.00  0.00    -0.145 S 
ATOM     22  C   UNL A   1      33.257  21.994  25.271  1.00  0.00     0.014 A 
ATOM     23  C   UNL A   1      32.148  21.448  24.429  1.00  0.00     0.057 C 
ENDBRANCH  14  17
ENDBRANCH  12  13
ENDBRANCH   8  12
ENDBRANCH   4   7
ENDBRANCH   2   3
ENDBRANCH   1   2
BRANCH   1  24
ATOM     24  C   UNL A   1      32.347  30.373  26.960  1.00  0.00     0.023 C 
BRANCH  24  25
ATOM     25  C   UNL A   1      33.295  31.547  27.204  1.00  0.00     0.116 C 
BRANCH  25  26
ATOM     26  N   UNL A   1      32.678  32.779  27.675  1.00  0.00    -0.352 N 
ATOM     27  C   UNL A   1      33.231  33.844  28.353  1.00  0.00     0.251 C 
ATOM     28  H   UNL A   1      31.717  32.863  27.481  1.00  0.00     0.163 HD
ATOM     29  O   UNL A   1      32.645  34.914  28.480  1.00  0.00    -0.269 OA
BRANCH  27  30
ATOM     30  C   UNL A   1      34.514  33.669  29.035  1.00  0.00     0.039 A 
ATOM     31  C   UNL A   1      34.538  32.893  30.201  1.00  0.00     0.014 A 
ATOM     32  C   UNL A   1      35.681  34.168  28.469  1.00  0.00     0.014 A 
ATOM     33  C   UNL A   1      35.760  32.512  30.738  1.00  0.00     0.010 A 
ATOM     34  C   UNL A   1      36.893  33.709  28.946  1.00  0.00     0.010 A 
ATOM     35  C   UNL A   1      36.940  32.866  30.071  1.00  0.00    -0.014 A 
BRANCH  35  36
ATOM     36  C   UNL A   1      38.261  32.382  30.513  1.00  0.00     0.031 A 
ATOM     37  C   UNL A   1      38.803  31.131  29.897  1.00  0.00     0.074 A 
ATOM     38  C   UNL A   1      38.868  32.980  31.555  1.00  0.00     0.049 A 
ATOM     39  N   UNL A   1      39.806  30.388  30.278  1.00  0.00    -0.248 NA
ATOM     40  C   UNL A   1      38.072  30.611  28.727  1.00  0.00     0.031 C 
ATOM     41  C   UNL A   1      38.384  34.173  32.254  1.00  0.00     0.029 A 
ATOM     42  N   UNL A   1      40.013  32.643  32.226  1.00  0.00    -0.354 N 
ATOM     43  C   UNL A   1      39.791  29.289  29.430  1.00  0.00     0.074 A 
ATOM     44  C   UNL A   1      38.652  29.436  28.553  1.00  0.00     0.031 C 
ATOM     45  C   UNL A   1      39.234  34.475  33.249  1.00  0.00     0.029 A 
ATOM     46  C   UNL A   1      40.292  33.473  33.285  1.00  0.00     0.049 A 
ATOM     47  H   UNL A   1      40.581  31.879  31.976  1.00  0.00     0.167 HD
ATOM     48  C   UNL A   1      40.665  28.257  29.383  1.00  0.00     0.031 A 
ATOM     49  C   UNL A   1      41.286  33.414  34.189  1.00  0.00     0.031 A 
ATOM     50  C   UNL A   1      41.808  28.155  30.246  1.00  0.00     0.049 A 
ATOM     51  C   UNL A   1      42.280  32.294  34.078  1.00  0.00     0.074 A 
ATOM     52  C   UNL A   1      42.806  27.200  30.254  1.00  0.00     0.029 A 
ATOM     53  N   UNL A   1      42.107  29.063  31.254  1.00  0.00    -0.354 N 
ATOM     54  N   UNL A   1      42.293  31.284  33.240  1.00  0.00    -0.248 NA
ATOM     55  C   UNL A   1      43.403  32.309  35.024  1.00  0.00     0.031 C 
ATOM     56  C   UNL A   1      43.695  27.514  31.290  1.00  0.00     0.029 A 
ATOM     57  C   UNL A   1      43.273  28.689  31.895  1.00  0.00     0.049 A 
ATOM     58  H   UNL A   1      41.567  29.855  31.479  1.00  0.00     0.167 HD
ATOM     59  C   UNL A   1      43.434  30.555  33.540  1.00  0.00     0.074 A 
ATOM     60  C   UNL A   1      44.097  31.251  34.628  1.00  0.00     0.031 C 
ATOM     61  C   UNL A   1      43.896  29.412  32.975  1.00  0.00     0.031 A 
BRANCH  48  62
ATOM     62  C   UNL A   1      40.391  27.177  28.373  1.00  0.00    -0.014 A 
ATOM     63  C   UNL A   1      39.624  26.046  28.703  1.00  0.00     0.009 A 
ATOM     64  C   UNL A   1      40.938  27.269  27.085  1.00  0.00     0.009 A 
ATOM     65  C   UNL A   1      39.463  25.005  27.787  1.00  0.00     0.001 A 
ATOM     66  C   UNL A   1      40.745  26.243  26.158  1.00  0.00     0.001 A 
ATOM     67  C   UNL A   1      40.023  25.105  26.514  1.00  0.00     0.000 A 
ENDBRANCH  48  62
BRANCH  49  68
ATOM     68  C   UNL A   1      41.399  34.457  35.242  1.00  0.00    -0.014 A 
ATOM     69  C   UNL A   1      42.148  35.620  35.010  1.00  0.00     0.009 A 
ATOM     70  C   UNL A   1      40.734  34.315  36.470  1.00  0.00     0.009 A 
ATOM     71  C   UNL A   1      42.247  36.609  35.992  1.00  0.00     0.001 A 
ATOM     72  C   UNL A   1      40.812  35.319  37.440  1.00  0.00     0.001 A 
ATOM     73  C   UNL A   1      41.575  36.460  37.204  1.00  0.00     0.000 A 
ENDBRANCH  49  68
BRANCH  61  74
ATOM     74  C   UNL A   1      45.189  28.870  33.508  1.00  0.00    -0.014 A 
ATOM     75  C   UNL A   1      46.422  29.286  32.983  1.00  0.00     0.009 A 
ATOM     76  C   UNL A   1      45.170  27.971  34.585  1.00  0.00     0.009 A 
ATOM     77  C   UNL A   1      47.613  28.787  33.510  1.00  0.00     0.001 A 
ATOM     78  C   UNL A   1      46.364  27.496  35.128  1.00  0.00     0.001 A 
ATOM     79  C   UNL A   1      47.583  27.898  34.584  1.00  0.00     0.000 A 
ENDBRANCH  61  74
ENDBRANCH  35  36
ENDBRANCH  27  30
ENDBRANCH  25  26
ENDBRANCH  24  25
ENDBRANCH   1  24
TORSDOF 14
ENDMDL
