MODEL 1
REMARK VINA RESULT:     -11.5      0.000      0.000
REMARK SMILES Cc1ccc(C(=O)[C@@H](C)[C@H](C)C(=O)NCCCCNC(=O)c2ccc(-c3c4nc(c(-c5ccccc5)c5ccc([nH]5)c(-c5ccccc5)c5nc(c(-c6ccccc6)c6ccc3[nH]6)C=C5)C=C4)cc2)cc1
REMARK SMILES IDX 16 1 15 2 14 3 12 4 13 5 10 7 11 8 8 9 9 10 6 11 7 12 5 13
REMARK SMILES IDX 1 14 2 15 3 16 71 17 4 18 70 19 17 20 18 21 19 22 20 23
REMARK SMILES IDX 21 25 22 26 23 27 69 28 24 29 68 30 25 31 26 32 27 33 62 34
REMARK SMILES IDX 28 35 67 36 61 37 63 38 29 39 66 40 60 41 59 42 30 44 52 45
REMARK SMILES IDX 37 46 51 47 38 48 41 49 50 50 64 51 39 52 40 53 49 55 65 56
REMARK SMILES IDX 42 57 31 58 32 59 36 60 33 61 35 62 34 63 53 64 54 65 58 66
REMARK SMILES IDX 55 67 57 68 56 69 43 70 44 71 48 72 45 73 47 74 46 75
REMARK H PARENT 14 6 19 24 63 43 41 54
REMARK Flexibility Score: inf
ROOT
ATOM      1  C   UNL A   1      36.285  21.488  25.366  1.00  0.00     0.023 C 
ENDROOT
BRANCH   1   2
ATOM      2  C   UNL A   1      35.744  20.120  24.938  1.00  0.00     0.116 C 
BRANCH   2   3
ATOM      3  N   UNL A   1      34.309  19.957  25.150  1.00  0.00    -0.356 N 
ATOM      4  C   UNL A   1      33.132  20.369  24.630  1.00  0.00     0.223 C 
ATOM      5  O   UNL A   1      32.146  19.800  25.124  1.00  0.00    -0.275 OA
ATOM      6  H   UNL A   1      34.147  19.357  25.914  1.00  0.00     0.163 HD
BRANCH   4   7
ATOM      7  C   UNL A   1      32.876  21.446  23.560  1.00  0.00     0.086 C 
ATOM      8  C   UNL A   1      32.073  20.919  22.374  1.00  0.00     0.019 C 
BRANCH   7   9
ATOM      9  C   UNL A   1      32.671  22.924  24.008  1.00  0.00     0.070 C 
ATOM     10  C   UNL A   1      31.242  23.459  23.967  1.00  0.00     0.017 C 
BRANCH   9  11
ATOM     11  C   UNL A   1      33.701  23.997  23.580  1.00  0.00     0.166 C 
ATOM     12  O   UNL A   1      34.556  23.727  22.732  1.00  0.00    -0.294 OA
BRANCH  11  13
ATOM     13  C   UNL A   1      33.737  25.367  24.177  1.00  0.00     0.018 A 
ATOM     14  C   UNL A   1      33.657  29.300  25.976  1.00  0.00     0.044 C 
ATOM     15  C   UNL A   1      33.688  27.944  25.338  1.00  0.00    -0.051 A 
ATOM     16  C   UNL A   1      33.622  27.787  23.949  1.00  0.00     0.004 A 
ATOM     17  C   UNL A   1      33.798  26.808  26.132  1.00  0.00     0.004 A 
ATOM     18  C   UNL A   1      33.642  26.507  23.371  1.00  0.00     0.012 A 
ATOM     19  C   UNL A   1      33.821  25.544  25.546  1.00  0.00     0.012 A 
ENDBRANCH  11  13
ENDBRANCH   9  11
ENDBRANCH   7   9
ENDBRANCH   4   7
ENDBRANCH   2   3
ENDBRANCH   1   2
BRANCH   1  20
ATOM     20  C   UNL A   1      37.812  21.702  25.336  1.00  0.00     0.023 C 
BRANCH  20  21
ATOM     21  C   UNL A   1      38.363  22.947  26.028  1.00  0.00     0.116 C 
BRANCH  21  22
ATOM     22  N   UNL A   1      39.760  22.872  26.447  1.00  0.00    -0.352 N 
ATOM     23  C   UNL A   1      40.569  23.855  27.018  1.00  0.00     0.251 C 
ATOM     24  H   UNL A   1      40.195  22.001  26.305  1.00  0.00     0.163 HD
ATOM     25  O   UNL A   1      41.681  23.571  27.409  1.00  0.00    -0.269 OA
BRANCH  23  26
ATOM     26  C   UNL A   1      40.021  25.223  27.259  1.00  0.00     0.039 A 
ATOM     27  C   UNL A   1      40.472  26.288  26.466  1.00  0.00     0.014 A 
ATOM     28  C   UNL A   1      39.195  25.485  28.342  1.00  0.00     0.014 A 
ATOM     29  C   UNL A   1      40.311  27.599  26.922  1.00  0.00     0.010 A 
ATOM     30  C   UNL A   1      39.163  26.754  28.871  1.00  0.00     0.010 A 
ATOM     31  C   UNL A   1      39.770  27.807  28.187  1.00  0.00    -0.014 A 
BRANCH  31  32
ATOM     32  C   UNL A   1      39.850  29.054  28.933  1.00  0.00     0.031 A 
ATOM     33  C   UNL A   1      38.811  30.087  28.774  1.00  0.00     0.074 A 
ATOM     34  C   UNL A   1      40.788  29.174  29.896  1.00  0.00     0.049 A 
ATOM     35  N   UNL A   1      38.942  31.310  29.155  1.00  0.00    -0.248 NA
ATOM     36  C   UNL A   1      37.529  29.817  28.131  1.00  0.00     0.031 C 
ATOM     37  C   UNL A   1      40.863  30.159  30.971  1.00  0.00     0.029 A 
ATOM     38  N   UNL A   1      42.016  28.517  29.947  1.00  0.00    -0.354 N 
ATOM     39  C   UNL A   1      37.707  31.908  29.069  1.00  0.00     0.074 A 
ATOM     40  C   UNL A   1      36.875  30.957  28.371  1.00  0.00     0.031 C 
ATOM     41  C   UNL A   1      42.134  30.236  31.397  1.00  0.00     0.029 A 
ATOM     42  C   UNL A   1      42.940  29.423  30.501  1.00  0.00     0.049 A 
ATOM     43  H   UNL A   1      42.201  27.596  29.651  1.00  0.00     0.167 HD
ATOM     44  C   UNL A   1      37.498  33.097  29.699  1.00  0.00     0.031 A 
ATOM     45  C   UNL A   1      43.959  29.895  29.721  1.00  0.00     0.031 A 
ATOM     46  C   UNL A   1      38.728  33.623  30.291  1.00  0.00     0.049 A 
ATOM     47  C   UNL A   1      43.868  31.379  29.408  1.00  0.00     0.074 A 
ATOM     48  C   UNL A   1      39.246  33.680  31.574  1.00  0.00     0.029 A 
ATOM     49  N   UNL A   1      39.781  33.928  29.442  1.00  0.00    -0.354 N 
ATOM     50  N   UNL A   1      42.899  32.165  29.795  1.00  0.00    -0.248 NA
ATOM     51  C   UNL A   1      44.827  32.071  28.543  1.00  0.00     0.031 C 
ATOM     52  C   UNL A   1      40.638  33.987  31.476  1.00  0.00     0.029 A 
ATOM     53  C   UNL A   1      40.952  34.141  30.140  1.00  0.00     0.049 A 
ATOM     54  H   UNL A   1      39.702  33.985  28.463  1.00  0.00     0.167 HD
ATOM     55  C   UNL A   1      43.058  33.400  29.229  1.00  0.00     0.074 A 
ATOM     56  C   UNL A   1      44.282  33.297  28.456  1.00  0.00     0.031 C 
ATOM     57  C   UNL A   1      42.164  34.416  29.388  1.00  0.00     0.031 A 
BRANCH  44  58
ATOM     58  C   UNL A   1      36.132  33.686  29.945  1.00  0.00    -0.014 A 
ATOM     59  C   UNL A   1      35.324  34.044  28.851  1.00  0.00     0.009 A 
ATOM     60  C   UNL A   1      35.594  33.949  31.216  1.00  0.00     0.009 A 
ATOM     61  C   UNL A   1      34.096  34.700  29.016  1.00  0.00     0.001 A 
ATOM     62  C   UNL A   1      34.388  34.641  31.392  1.00  0.00     0.001 A 
ATOM     63  C   UNL A   1      33.641  35.025  30.287  1.00  0.00     0.000 A 
ENDBRANCH  44  58
BRANCH  45  64
ATOM     64  C   UNL A   1      44.484  28.853  28.787  1.00  0.00    -0.014 A 
ATOM     65  C   UNL A   1      43.902  28.765  27.503  1.00  0.00     0.009 A 
ATOM     66  C   UNL A   1      45.740  28.267  28.990  1.00  0.00     0.009 A 
ATOM     67  C   UNL A   1      44.621  28.243  26.425  1.00  0.00     0.001 A 
ATOM     68  C   UNL A   1      46.445  27.719  27.911  1.00  0.00     0.001 A 
ATOM     69  C   UNL A   1      45.907  27.749  26.624  1.00  0.00     0.000 A 
ENDBRANCH  45  64
BRANCH  57  70
ATOM     70  C   UNL A   1      42.374  35.778  28.798  1.00  0.00    -0.014 A 
ATOM     71  C   UNL A   1      41.847  36.129  27.547  1.00  0.00     0.009 A 
ATOM     72  C   UNL A   1      43.220  36.710  29.430  1.00  0.00     0.009 A 
ATOM     73  C   UNL A   1      42.111  37.380  26.979  1.00  0.00     0.001 A 
ATOM     74  C   UNL A   1      43.503  37.951  28.854  1.00  0.00     0.001 A 
ATOM     75  C   UNL A   1      42.938  38.290  27.632  1.00  0.00     0.000 A 
ENDBRANCH  57  70
ENDBRANCH  31  32
ENDBRANCH  23  26
ENDBRANCH  21  22
ENDBRANCH  20  21
ENDBRANCH   1  20
TORSDOF 14
ENDMDL
MODEL 2
REMARK VINA RESULT:     -11.5      3.467      8.835
REMARK SMILES Cc1ccc(C(=O)[C@@H](C)[C@H](C)C(=O)NCCCCNC(=O)c2ccc(-c3c4nc(c(-c5ccccc5)c5ccc([nH]5)c(-c5ccccc5)c5nc(c(-c6ccccc6)c6ccc3[nH]6)C=C5)C=C4)cc2)cc1
REMARK SMILES IDX 16 1 15 2 14 3 12 4 13 5 10 7 11 8 8 9 9 10 6 11 7 12 5 13
REMARK SMILES IDX 1 14 2 15 3 16 71 17 4 18 70 19 17 20 18 21 19 22 20 23
REMARK SMILES IDX 21 25 22 26 23 27 69 28 24 29 68 30 25 31 26 32 27 33 62 34
REMARK SMILES IDX 28 35 67 36 61 37 63 38 29 39 66 40 60 41 59 42 30 44 52 45
REMARK SMILES IDX 37 46 51 47 38 48 41 49 50 50 64 51 39 52 40 53 49 55 65 56
REMARK SMILES IDX 42 57 31 58 32 59 36 60 33 61 35 62 34 63 53 64 54 65 58 66
REMARK SMILES IDX 55 67 57 68 56 69 43 70 44 71 48 72 45 73 47 74 46 75
REMARK H PARENT 14 6 19 24 63 43 41 54
REMARK Flexibility Score: inf
ROOT
ATOM      1  C   UNL A   1      32.740  28.792  25.412  1.00  0.00     0.023 C 
ENDROOT
BRANCH   1   2
ATOM      2  C   UNL A   1      33.841  27.761  25.143  1.00  0.00     0.116 C 
BRANCH   2   3
ATOM      3  N   UNL A   1      33.938  27.347  23.746  1.00  0.00    -0.356 N 
ATOM      4  C   UNL A   1      33.496  26.373  22.922  1.00  0.00     0.223 C 
ATOM      5  O   UNL A   1      33.774  26.569  21.729  1.00  0.00    -0.275 OA
ATOM      6  H   UNL A   1      34.504  27.979  23.246  1.00  0.00     0.163 HD
BRANCH   4   7
ATOM      7  C   UNL A   1      32.746  25.076  23.278  1.00  0.00     0.086 C 
ATOM      8  C   UNL A   1      31.291  25.091  22.817  1.00  0.00     0.019 C 
BRANCH   7   9
ATOM      9  C   UNL A   1      33.522  23.725  23.268  1.00  0.00     0.070 C 
ATOM     10  C   UNL A   1      33.054  22.675  22.264  1.00  0.00     0.017 C 
BRANCH   9  11
ATOM     11  C   UNL A   1      33.953  23.087  24.611  1.00  0.00     0.166 C 
ATOM     12  O   UNL A   1      33.102  22.803  25.459  1.00  0.00    -0.294 OA
BRANCH  11  13
ATOM     13  C   UNL A   1      35.382  22.820  24.958  1.00  0.00     0.018 A 
ATOM     14  C   UNL A   1      39.455  21.924  26.106  1.00  0.00     0.044 C 
ATOM     15  C   UNL A   1      38.046  22.249  25.711  1.00  0.00    -0.051 A 
ATOM     16  C   UNL A   1      37.484  23.504  25.974  1.00  0.00     0.004 A 
ATOM     17  C   UNL A   1      37.273  21.298  25.054  1.00  0.00     0.004 A 
ATOM     18  C   UNL A   1      36.159  23.787  25.605  1.00  0.00     0.012 A 
ATOM     19  C   UNL A   1      35.962  21.593  24.688  1.00  0.00     0.012 A 
ENDBRANCH  11  13
ENDBRANCH   9  11
ENDBRANCH   7   9
ENDBRANCH   4   7
ENDBRANCH   2   3
ENDBRANCH   1   2
BRANCH   1  20
ATOM     20  C   UNL A   1      33.124  30.075  26.177  1.00  0.00     0.023 C 
BRANCH  20  21
ATOM     21  C   UNL A   1      33.520  29.928  27.644  1.00  0.00     0.116 C 
BRANCH  21  22
ATOM     22  N   UNL A   1      34.127  31.107  28.257  1.00  0.00    -0.352 N 
ATOM     23  C   UNL A   1      35.425  31.292  28.733  1.00  0.00     0.251 C 
ATOM     24  H   UNL A   1      33.532  31.885  28.348  1.00  0.00     0.163 HD
ATOM     25  O   UNL A   1      35.782  32.389  29.107  1.00  0.00    -0.269 OA
BRANCH  23  26
ATOM     26  C   UNL A   1      36.408  30.170  28.667  1.00  0.00     0.039 A 
ATOM     27  C   UNL A   1      36.611  29.373  29.802  1.00  0.00     0.014 A 
ATOM     28  C   UNL A   1      37.228  29.998  27.561  1.00  0.00     0.014 A 
ATOM     29  C   UNL A   1      37.782  28.618  29.910  1.00  0.00     0.010 A 
ATOM     30  C   UNL A   1      38.447  29.381  27.718  1.00  0.00     0.010 A 
ATOM     31  C   UNL A   1      38.749  28.734  28.916  1.00  0.00    -0.014 A 
BRANCH  31  32
ATOM     32  C   UNL A   1      40.131  28.297  29.043  1.00  0.00     0.031 A 
ATOM     33  C   UNL A   1      40.566  27.017  28.456  1.00  0.00     0.074 A 
ATOM     34  C   UNL A   1      41.040  29.158  29.549  1.00  0.00     0.049 A 
ATOM     35  N   UNL A   1      41.666  26.419  28.758  1.00  0.00    -0.248 NA
ATOM     36  C   UNL A   1      39.759  26.285  27.485  1.00  0.00     0.031 C 
ATOM     37  C   UNL A   1      42.495  29.084  29.478  1.00  0.00     0.029 A 
ATOM     38  N   UNL A   1      40.791  30.196  30.444  1.00  0.00    -0.354 N 
ATOM     39  C   UNL A   1      41.848  25.400  27.853  1.00  0.00     0.074 A 
ATOM     40  C   UNL A   1      40.607  25.320  27.120  1.00  0.00     0.031 C 
ATOM     41  C   UNL A   1      43.013  29.829  30.468  1.00  0.00     0.029 A 
ATOM     42  C   UNL A   1      41.906  30.269  31.301  1.00  0.00     0.049 A 
ATOM     43  H   UNL A   1      39.990  30.767  30.473  1.00  0.00     0.167 HD
ATOM     44  C   UNL A   1      43.072  24.812  27.750  1.00  0.00     0.031 A 
ATOM     45  C   UNL A   1      41.751  29.959  32.624  1.00  0.00     0.031 A 
ATOM     46  C   UNL A   1      44.002  25.311  28.763  1.00  0.00     0.049 A 
ATOM     47  C   UNL A   1      42.477  28.697  33.057  1.00  0.00     0.074 A 
ATOM     48  C   UNL A   1      45.060  26.206  28.759  1.00  0.00     0.029 A 
ATOM     49  N   UNL A   1      43.690  25.096  30.096  1.00  0.00    -0.354 N 
ATOM     50  N   UNL A   1      43.167  27.923  32.262  1.00  0.00    -0.248 NA
ATOM     51  C   UNL A   1      42.395  28.158  34.417  1.00  0.00     0.031 C 
ATOM     52  C   UNL A   1      45.350  26.552  30.114  1.00  0.00     0.029 A 
ATOM     53  C   UNL A   1      44.488  25.849  30.934  1.00  0.00     0.049 A 
ATOM     54  H   UNL A   1      42.986  24.483  30.407  1.00  0.00     0.167 HD
ATOM     55  C   UNL A   1      43.569  26.809  32.946  1.00  0.00     0.074 A 
ATOM     56  C   UNL A   1      43.067  27.000  34.294  1.00  0.00     0.031 C 
ATOM     57  C   UNL A   1      44.248  25.780  32.364  1.00  0.00     0.031 A 
BRANCH  44  58
ATOM     58  C   UNL A   1      43.481  23.923  26.603  1.00  0.00    -0.014 A 
ATOM     59  C   UNL A   1      43.271  22.535  26.691  1.00  0.00     0.009 A 
ATOM     60  C   UNL A   1      44.107  24.375  25.428  1.00  0.00     0.009 A 
ATOM     61  C   UNL A   1      43.734  21.649  25.709  1.00  0.00     0.001 A 
ATOM     62  C   UNL A   1      44.609  23.495  24.461  1.00  0.00     0.001 A 
ATOM     63  C   UNL A   1      44.429  22.127  24.606  1.00  0.00     0.000 A 
ENDBRANCH  44  58
BRANCH  45  64
ATOM     64  C   UNL A   1      40.433  30.417  33.160  1.00  0.00    -0.014 A 
ATOM     65  C   UNL A   1      40.194  31.807  33.224  1.00  0.00     0.009 A 
ATOM     66  C   UNL A   1      39.334  29.549  33.214  1.00  0.00     0.009 A 
ATOM     67  C   UNL A   1      38.892  32.313  33.188  1.00  0.00     0.001 A 
ATOM     68  C   UNL A   1      38.031  30.062  33.207  1.00  0.00     0.001 A 
ATOM     69  C   UNL A   1      37.810  31.438  33.147  1.00  0.00     0.000 A 
ENDBRANCH  45  64
BRANCH  57  70
ATOM     70  C   UNL A   1      44.722  24.585  33.136  1.00  0.00    -0.014 A 
ATOM     71  C   UNL A   1      43.856  23.536  33.476  1.00  0.00     0.009 A 
ATOM     72  C   UNL A   1      46.030  24.540  33.654  1.00  0.00     0.009 A 
ATOM     73  C   UNL A   1      44.296  22.461  34.256  1.00  0.00     0.001 A 
ATOM     74  C   UNL A   1      46.466  23.479  34.453  1.00  0.00     0.001 A 
ATOM     75  C   UNL A   1      45.600  22.434  34.744  1.00  0.00     0.000 A 
ENDBRANCH  57  70
ENDBRANCH  31  32
ENDBRANCH  23  26
ENDBRANCH  21  22
ENDBRANCH  20  21
ENDBRANCH   1  20
TORSDOF 14
ENDMDL
MODEL 3
REMARK VINA RESULT:     -11.5      1.622      3.405
REMARK SMILES Cc1ccc(C(=O)[C@@H](C)[C@H](C)C(=O)NCCCCNC(=O)c2ccc(-c3c4nc(c(-c5ccccc5)c5ccc([nH]5)c(-c5ccccc5)c5nc(c(-c6ccccc6)c6ccc3[nH]6)C=C5)C=C4)cc2)cc1
REMARK SMILES IDX 16 1 15 2 14 3 12 4 13 5 10 7 11 8 8 9 9 10 6 11 7 12 5 13
REMARK SMILES IDX 1 14 2 15 3 16 71 17 4 18 70 19 17 20 18 21 19 22 20 23
REMARK SMILES IDX 21 25 22 26 23 27 69 28 24 29 68 30 25 31 26 32 27 33 62 34
REMARK SMILES IDX 28 35 67 36 61 37 63 38 29 39 66 40 60 41 59 42 30 44 52 45
REMARK SMILES IDX 37 46 51 47 38 48 41 49 50 50 64 51 39 52 40 53 49 55 65 56
REMARK SMILES IDX 42 57 31 58 32 59 36 60 33 61 35 62 34 63 53 64 54 65 58 66
REMARK SMILES IDX 55 67 57 68 56 69 43 70 44 71 48 72 45 73 47 74 46 75
REMARK H PARENT 14 6 19 24 63 43 41 54
REMARK Flexibility Score: inf
ROOT
ATOM      1  C   UNL A   1      36.374  23.045  24.060  1.00  0.00     0.023 C 
ENDROOT
BRANCH   1   2
ATOM      2  C   UNL A   1      35.629  23.915  25.079  1.00  0.00     0.116 C 
BRANCH   2   3
ATOM      3  N   UNL A   1      34.716  24.883  24.477  1.00  0.00    -0.356 N 
ATOM      4  C   UNL A   1      33.523  24.926  23.845  1.00  0.00     0.223 C 
ATOM      5  O   UNL A   1      33.110  26.078  23.646  1.00  0.00    -0.275 OA
ATOM      6  H   UNL A   1      35.087  25.791  24.556  1.00  0.00     0.163 HD
BRANCH   4   7
ATOM      7  C   UNL A   1      32.662  23.758  23.330  1.00  0.00     0.086 C 
ATOM      8  C   UNL A   1      33.272  23.067  22.113  1.00  0.00     0.019 C 
BRANCH   7   9
ATOM      9  C   UNL A   1      31.857  22.902  24.353  1.00  0.00     0.070 C 
ATOM     10  C   UNL A   1      30.766  23.624  25.140  1.00  0.00     0.017 C 
BRANCH   9  11
ATOM     11  C   UNL A   1      32.600  21.858  25.223  1.00  0.00     0.166 C 
ATOM     12  O   UNL A   1      32.883  22.123  26.395  1.00  0.00    -0.294 OA
BRANCH  11  13
ATOM     13  C   UNL A   1      33.034  20.528  24.696  1.00  0.00     0.018 A 
ATOM     14  C   UNL A   1      34.159  16.592  23.300  1.00  0.00     0.044 C 
ATOM     15  C   UNL A   1      33.784  17.959  23.788  1.00  0.00    -0.051 A 
ATOM     16  C   UNL A   1      34.663  18.727  24.561  1.00  0.00     0.004 A 
ATOM     17  C   UNL A   1      32.543  18.495  23.461  1.00  0.00     0.004 A 
ATOM     18  C   UNL A   1      34.289  20.002  25.016  1.00  0.00     0.012 A 
ATOM     19  C   UNL A   1      32.187  19.763  23.915  1.00  0.00     0.012 A 
ENDBRANCH  11  13
ENDBRANCH   9  11
ENDBRANCH   7   9
ENDBRANCH   4   7
ENDBRANCH   2   3
ENDBRANCH   1   2
BRANCH   1  20
ATOM     20  C   UNL A   1      37.446  22.071  24.590  1.00  0.00     0.023 C 
BRANCH  20  21
ATOM     21  C   UNL A   1      38.103  22.406  25.927  1.00  0.00     0.116 C 
BRANCH  21  22
ATOM     22  N   UNL A   1      39.559  22.300  25.962  1.00  0.00    -0.352 N 
ATOM     23  C   UNL A   1      40.508  23.238  26.370  1.00  0.00     0.251 C 
ATOM     24  H   UNL A   1      39.924  21.441  25.652  1.00  0.00     0.163 HD
ATOM     25  O   UNL A   1      41.677  22.924  26.437  1.00  0.00    -0.269 OA
BRANCH  23  26
ATOM     26  C   UNL A   1      40.069  24.585  26.839  1.00  0.00     0.039 A 
ATOM     27  C   UNL A   1      40.483  25.723  26.132  1.00  0.00     0.014 A 
ATOM     28  C   UNL A   1      39.390  24.742  28.038  1.00  0.00     0.014 A 
ATOM     29  C   UNL A   1      40.450  26.971  26.758  1.00  0.00     0.010 A 
ATOM     30  C   UNL A   1      39.490  25.934  28.717  1.00  0.00     0.010 A 
ATOM     31  C   UNL A   1      40.072  27.039  28.096  1.00  0.00    -0.014 A 
BRANCH  31  32
ATOM     32  C   UNL A   1      40.307  28.178  28.971  1.00  0.00     0.031 A 
ATOM     33  C   UNL A   1      39.237  29.158  29.225  1.00  0.00     0.074 A 
ATOM     34  C   UNL A   1      41.455  28.224  29.680  1.00  0.00     0.049 A 
ATOM     35  N   UNL A   1      39.430  30.326  29.734  1.00  0.00    -0.248 NA
ATOM     36  C   UNL A   1      37.841  28.901  28.887  1.00  0.00     0.031 C 
ATOM     37  C   UNL A   1      41.775  29.058  30.834  1.00  0.00     0.029 A 
ATOM     38  N   UNL A   1      42.671  27.640  29.330  1.00  0.00    -0.354 N 
ATOM     39  C   UNL A   1      38.200  30.854  30.044  1.00  0.00     0.074 A 
ATOM     40  C   UNL A   1      37.242  29.957  29.442  1.00  0.00     0.031 C 
ATOM     41  C   UNL A   1      43.110  29.153  30.940  1.00  0.00     0.029 A 
ATOM     42  C   UNL A   1      43.683  28.518  29.764  1.00  0.00     0.049 A 
ATOM     43  H   UNL A   1      42.798  26.781  28.868  1.00  0.00     0.167 HD
ATOM     44  C   UNL A   1      38.128  31.934  30.871  1.00  0.00     0.031 A 
ATOM     45  C   UNL A   1      44.460  29.151  28.833  1.00  0.00     0.031 A 
ATOM     46  C   UNL A   1      39.455  32.448  31.211  1.00  0.00     0.049 A 
ATOM     47  C   UNL A   1      44.257  30.655  28.771  1.00  0.00     0.074 A 
ATOM     48  C   UNL A   1      40.279  32.364  32.321  1.00  0.00     0.029 A 
ATOM     49  N   UNL A   1      40.250  32.927  30.182  1.00  0.00    -0.354 N 
ATOM     50  N   UNL A   1      43.398  31.322  29.495  1.00  0.00    -0.248 NA
ATOM     51  C   UNL A   1      44.948  31.513  27.806  1.00  0.00     0.031 C 
ATOM     52  C   UNL A   1      41.592  32.764  31.928  1.00  0.00     0.029 A 
ATOM     53  C   UNL A   1      41.555  33.114  30.592  1.00  0.00     0.049 A 
ATOM     54  H   UNL A   1      39.925  33.109  29.271  1.00  0.00     0.167 HD
ATOM     55  C   UNL A   1      43.379  32.629  29.092  1.00  0.00     0.074 A 
ATOM     56  C   UNL A   1      44.370  32.705  28.034  1.00  0.00     0.031 C 
ATOM     57  C   UNL A   1      42.530  33.560  29.612  1.00  0.00     0.031 A 
BRANCH  44  58
ATOM     58  C   UNL A   1      36.854  32.402  31.529  1.00  0.00    -0.014 A 
ATOM     59  C   UNL A   1      35.847  32.996  30.747  1.00  0.00     0.009 A 
ATOM     60  C   UNL A   1      36.593  32.323  32.908  1.00  0.00     0.009 A 
ATOM     61  C   UNL A   1      34.695  33.554  31.318  1.00  0.00     0.001 A 
ATOM     62  C   UNL A   1      35.465  32.913  33.492  1.00  0.00     0.001 A 
ATOM     63  C   UNL A   1      34.517  33.537  32.695  1.00  0.00     0.000 A 
ENDBRANCH  44  58
BRANCH  45  64
ATOM     64  C   UNL A   1      44.757  28.277  27.658  1.00  0.00    -0.014 A 
ATOM     65  C   UNL A   1      45.530  27.115  27.878  1.00  0.00     0.009 A 
ATOM     66  C   UNL A   1      43.990  28.354  26.488  1.00  0.00     0.009 A 
ATOM     67  C   UNL A   1      45.419  26.009  27.032  1.00  0.00     0.001 A 
ATOM     68  C   UNL A   1      43.904  27.251  25.628  1.00  0.00     0.001 A 
ATOM     69  C   UNL A   1      44.580  26.067  25.924  1.00  0.00     0.000 A 
ENDBRANCH  45  64
BRANCH  57  70
ATOM     70  C   UNL A   1      42.551  34.999  29.192  1.00  0.00    -0.014 A 
ATOM     71  C   UNL A   1      41.866  35.444  28.053  1.00  0.00     0.009 A 
ATOM     72  C   UNL A   1      43.369  35.929  29.862  1.00  0.00     0.009 A 
ATOM     73  C   UNL A   1      41.951  36.776  27.635  1.00  0.00     0.001 A 
ATOM     74  C   UNL A   1      43.475  37.254  29.433  1.00  0.00     0.001 A 
ATOM     75  C   UNL A   1      42.756  37.680  28.324  1.00  0.00     0.000 A 
ENDBRANCH  57  70
ENDBRANCH  31  32
ENDBRANCH  23  26
ENDBRANCH  21  22
ENDBRANCH  20  21
ENDBRANCH   1  20
TORSDOF 14
ENDMDL
