MODEL 1
REMARK VINA RESULT:      -8.4      0.000      0.000
REMARK SMILES O=C(C[NH2+]Cc1cccs1)NCCCCNC(=O)c1ccc(-c2c3nc(c(-c4ccccc4)c4ccc([nH]4)c(-c4ccccc4)c4nc(c(-c5ccccc5)c5ccc2[nH]5)C=C4)C=C3)cc1
REMARK SMILES IDX 13 1 12 2 11 3 1 4 2 5 3 7 4 8 5 11 6 12 7 13 10 14 8 15
REMARK SMILES IDX 9 16 14 17 15 18 16 19 17 20 18 22 19 23 20 24 66 25 21 26
REMARK SMILES IDX 65 27 22 28 23 29 24 30 59 31 25 32 64 33 58 34 60 35 26 36
REMARK SMILES IDX 63 37 57 38 56 39 27 41 49 42 34 43 48 44 35 45 38 46 47 47
REMARK SMILES IDX 61 48 36 49 37 50 46 52 62 53 39 54 28 55 29 56 33 57 30 58
REMARK SMILES IDX 32 59 31 60 50 61 51 62 55 63 52 64 54 65 53 66 40 67 41 68
REMARK SMILES IDX 45 69 42 70 44 71 43 72
REMARK H PARENT 11 6 4 9 4 10 16 21 60 40 38 51
REMARK Flexibility Score: inf
ROOT
ATOM      1  C   UNL A   1      34.616  36.092  32.697  1.00  0.00     0.023 C 
ENDROOT
BRANCH   1   2
ATOM      2  C   UNL A   1      34.694  35.172  33.916  1.00  0.00     0.116 C 
BRANCH   2   3
ATOM      3  N   UNL A   1      35.859  34.319  33.856  1.00  0.00    -0.351 N 
ATOM      4  O   UNL A   1      35.885  33.762  36.087  1.00  0.00    -0.269 OA
ATOM      5  C   UNL A   1      36.407  33.736  34.977  1.00  0.00     0.275 C 
ATOM      6  H   UNL A   1      36.276  34.148  32.981  1.00  0.00     0.163 HD
BRANCH   5   7
ATOM      7  C   UNL A   1      37.756  33.063  34.719  1.00  0.00     0.362 C 
BRANCH   7   8
ATOM      8  N   UNL A   1      37.599  31.601  34.719  1.00  0.00    -0.334 N 
ATOM      9  H   UNL A   1      36.929  31.339  33.996  1.00  0.00     0.347 HD
ATOM     10  H   UNL A   1      37.269  31.312  35.639  1.00  0.00     0.347 HD
BRANCH   8  11
ATOM     11  C   UNL A   1      38.877  30.929  34.453  1.00  0.00     0.308 C 
BRANCH  11  12
ATOM     12  C   UNL A   1      38.792  29.727  33.544  1.00  0.00     0.059 A 
ATOM     13  C   UNL A   1      37.672  29.275  32.864  1.00  0.00     0.021 A 
ATOM     14  S   UNL A   1      40.156  28.756  33.165  1.00  0.00    -0.143 S 
ATOM     15  C   UNL A   1      37.940  28.137  32.050  1.00  0.00     0.012 A 
ATOM     16  C   UNL A   1      39.256  27.746  32.131  1.00  0.00     0.065 A 
ENDBRANCH  11  12
ENDBRANCH   8  11
ENDBRANCH   7   8
ENDBRANCH   5   7
ENDBRANCH   2   3
ENDBRANCH   1   2
BRANCH   1  17
ATOM     17  C   UNL A   1      33.426  35.824  31.769  1.00  0.00     0.023 C 
BRANCH  17  18
ATOM     18  C   UNL A   1      33.589  36.332  30.341  1.00  0.00     0.116 C 
BRANCH  18  19
ATOM     19  N   UNL A   1      32.789  35.589  29.382  1.00  0.00    -0.352 N 
ATOM     20  C   UNL A   1      33.112  34.460  28.668  1.00  0.00     0.251 C 
ATOM     21  H   UNL A   1      31.885  35.945  29.219  1.00  0.00     0.163 HD
ATOM     22  O   UNL A   1      32.358  34.050  27.788  1.00  0.00    -0.269 OA
BRANCH  20  23
ATOM     23  C   UNL A   1      34.384  33.754  28.933  1.00  0.00     0.039 A 
ATOM     24  C   UNL A   1      35.527  34.137  28.227  1.00  0.00     0.014 A 
ATOM     25  C   UNL A   1      34.456  32.723  29.874  1.00  0.00     0.014 A 
ATOM     26  C   UNL A   1      36.754  33.537  28.514  1.00  0.00     0.010 A 
ATOM     27  C   UNL A   1      35.692  32.180  30.214  1.00  0.00     0.010 A 
ATOM     28  C   UNL A   1      36.855  32.581  29.539  1.00  0.00    -0.014 A 
BRANCH  28  29
ATOM     29  C   UNL A   1      38.168  32.001  29.923  1.00  0.00     0.031 A 
ATOM     30  C   UNL A   1      39.104  32.763  30.821  1.00  0.00     0.074 A 
ATOM     31  C   UNL A   1      38.545  30.810  29.415  1.00  0.00     0.049 A 
ATOM     32  N   UNL A   1      40.311  32.442  31.219  1.00  0.00    -0.248 NA
ATOM     33  C   UNL A   1      38.634  34.065  31.321  1.00  0.00     0.031 C 
ATOM     34  C   UNL A   1      37.749  29.985  28.504  1.00  0.00     0.029 A 
ATOM     35  N   UNL A   1      39.700  30.090  29.589  1.00  0.00    -0.354 N 
ATOM     36  C   UNL A   1      40.745  33.504  32.002  1.00  0.00     0.074 A 
ATOM     37  C   UNL A   1      39.697  34.502  31.979  1.00  0.00     0.031 C 
ATOM     38  C   UNL A   1      38.427  28.861  28.222  1.00  0.00     0.029 A 
ATOM     39  C   UNL A   1      39.721  28.905  28.893  1.00  0.00     0.049 A 
ATOM     40  H   UNL A   1      40.445  30.392  30.159  1.00  0.00     0.167 HD
ATOM     41  C   UNL A   1      41.901  33.631  32.696  1.00  0.00     0.031 A 
ATOM     42  C   UNL A   1      40.680  27.964  28.794  1.00  0.00     0.031 A 
ATOM     43  C   UNL A   1      42.944  32.640  32.721  1.00  0.00     0.049 A 
ATOM     44  C   UNL A   1      41.968  28.143  29.548  1.00  0.00     0.074 A 
ATOM     45  C   UNL A   1      44.133  32.656  33.431  1.00  0.00     0.029 A 
ATOM     46  N   UNL A   1      42.926  31.455  32.001  1.00  0.00    -0.354 N 
ATOM     47  N   UNL A   1      42.335  29.124  30.337  1.00  0.00    -0.248 NA
ATOM     48  C   UNL A   1      42.970  27.078  29.406  1.00  0.00     0.031 C 
ATOM     49  C   UNL A   1      44.860  31.511  33.093  1.00  0.00     0.029 A 
ATOM     50  C   UNL A   1      44.095  30.748  32.227  1.00  0.00     0.049 A 
ATOM     51  H   UNL A   1      42.191  31.161  31.414  1.00  0.00     0.167 HD
ATOM     52  C   UNL A   1      43.596  28.779  30.809  1.00  0.00     0.074 A 
ATOM     53  C   UNL A   1      43.921  27.491  30.232  1.00  0.00     0.031 C 
ATOM     54  C   UNL A   1      44.409  29.468  31.646  1.00  0.00     0.031 A 
BRANCH  41  55
ATOM     55  C   UNL A   1      42.102  34.897  33.483  1.00  0.00    -0.014 A 
ATOM     56  C   UNL A   1      42.810  35.985  32.943  1.00  0.00     0.009 A 
ATOM     57  C   UNL A   1      41.543  35.022  34.763  1.00  0.00     0.009 A 
ATOM     58  C   UNL A   1      42.986  37.154  33.686  1.00  0.00     0.001 A 
ATOM     59  C   UNL A   1      41.693  36.204  35.492  1.00  0.00     0.001 A 
ATOM     60  C   UNL A   1      42.422  37.264  34.957  1.00  0.00     0.000 A 
ENDBRANCH  41  55
BRANCH  42  61
ATOM     61  C   UNL A   1      40.459  26.760  27.948  1.00  0.00    -0.014 A 
ATOM     62  C   UNL A   1      39.757  25.653  28.449  1.00  0.00     0.009 A 
ATOM     63  C   UNL A   1      40.964  26.705  26.640  1.00  0.00     0.009 A 
ATOM     64  C   UNL A   1      39.593  24.505  27.670  1.00  0.00     0.001 A 
ATOM     65  C   UNL A   1      40.770  25.569  25.851  1.00  0.00     0.001 A 
ATOM     66  C   UNL A   1      40.095  24.466  26.370  1.00  0.00     0.000 A 
ENDBRANCH  42  61
BRANCH  54  67
ATOM     67  C   UNL A   1      45.715  28.825  32.022  1.00  0.00    -0.014 A 
ATOM     68  C   UNL A   1      45.817  27.958  33.122  1.00  0.00     0.009 A 
ATOM     69  C   UNL A   1      46.855  29.060  31.237  1.00  0.00     0.009 A 
ATOM     70  C   UNL A   1      47.041  27.370  33.448  1.00  0.00     0.001 A 
ATOM     71  C   UNL A   1      48.070  28.446  31.545  1.00  0.00     0.001 A 
ATOM     72  C   UNL A   1      48.164  27.610  32.656  1.00  0.00     0.000 A 
ENDBRANCH  54  67
ENDBRANCH  28  29
ENDBRANCH  20  23
ENDBRANCH  18  19
ENDBRANCH  17  18
ENDBRANCH   1  17
TORSDOF 14
ENDMDL
MODEL 2
REMARK VINA RESULT:      -8.2      4.487     10.445
REMARK SMILES O=C(C[NH2+]Cc1cccs1)NCCCCNC(=O)c1ccc(-c2c3nc(c(-c4ccccc4)c4ccc([nH]4)c(-c4ccccc4)c4nc(c(-c5ccccc5)c5ccc2[nH]5)C=C4)C=C3)cc1
REMARK SMILES IDX 13 1 12 2 11 3 1 4 2 5 3 7 4 8 5 11 6 12 7 13 10 14 8 15
REMARK SMILES IDX 9 16 14 17 15 18 16 19 17 20 18 22 19 23 20 24 66 25 21 26
REMARK SMILES IDX 65 27 22 28 23 29 24 30 59 31 25 32 64 33 58 34 60 35 26 36
REMARK SMILES IDX 63 37 57 38 56 39 27 41 49 42 34 43 48 44 35 45 38 46 47 47
REMARK SMILES IDX 61 48 36 49 37 50 46 52 62 53 39 54 28 55 29 56 33 57 30 58
REMARK SMILES IDX 32 59 31 60 50 61 51 62 55 63 52 64 54 65 53 66 40 67 41 68
REMARK SMILES IDX 45 69 42 70 44 71 43 72
REMARK H PARENT 11 6 4 9 4 10 16 21 60 40 38 51
REMARK Flexibility Score: inf
ROOT
ATOM      1  C   UNL A   1      42.124  19.610  27.157  1.00  0.00     0.023 C 
ENDROOT
BRANCH   1   2
ATOM      2  C   UNL A   1      42.667  18.495  26.260  1.00  0.00     0.116 C 
BRANCH   2   3
ATOM      3  N   UNL A   1      43.280  19.035  25.067  1.00  0.00    -0.351 N 
ATOM      4  O   UNL A   1      45.351  18.090  25.394  1.00  0.00    -0.269 OA
ATOM      5  C   UNL A   1      44.611  18.843  24.769  1.00  0.00     0.275 C 
ATOM      6  H   UNL A   1      42.725  19.558  24.444  1.00  0.00     0.163 HD
BRANCH   5   7
ATOM      7  C   UNL A   1      45.100  19.681  23.588  1.00  0.00     0.362 C 
BRANCH   7   8
ATOM      8  N   UNL A   1      45.732  20.918  24.072  1.00  0.00    -0.334 N 
ATOM      9  H   UNL A   1      46.618  21.051  23.585  1.00  0.00     0.347 HD
ATOM     10  H   UNL A   1      45.881  20.831  25.077  1.00  0.00     0.347 HD
BRANCH   8  11
ATOM     11  C   UNL A   1      44.874  22.084  23.831  1.00  0.00     0.308 C 
BRANCH  11  12
ATOM     12  C   UNL A   1      44.516  22.881  25.062  1.00  0.00     0.059 A 
ATOM     13  C   UNL A   1      43.502  23.817  25.183  1.00  0.00     0.021 A 
ATOM     14  S   UNL A   1      45.320  22.671  26.565  1.00  0.00    -0.143 S 
ATOM     15  C   UNL A   1      43.400  24.357  26.497  1.00  0.00     0.012 A 
ATOM     16  C   UNL A   1      44.340  23.824  27.347  1.00  0.00     0.065 A 
ENDBRANCH  11  12
ENDBRANCH   8  11
ENDBRANCH   7   8
ENDBRANCH   5   7
ENDBRANCH   2   3
ENDBRANCH   1   2
BRANCH   1  17
ATOM     17  C   UNL A   1      41.580  20.827  26.403  1.00  0.00     0.023 C 
BRANCH  17  18
ATOM     18  C   UNL A   1      40.448  21.572  27.104  1.00  0.00     0.116 C 
BRANCH  18  19
ATOM     19  N   UNL A   1      39.385  21.968  26.196  1.00  0.00    -0.352 N 
ATOM     20  C   UNL A   1      38.775  23.190  26.049  1.00  0.00     0.251 C 
ATOM     21  H   UNL A   1      39.053  21.259  25.599  1.00  0.00     0.163 HD
ATOM     22  O   UNL A   1      37.787  23.305  25.327  1.00  0.00    -0.269 OA
BRANCH  20  23
ATOM     23  C   UNL A   1      39.284  24.367  26.787  1.00  0.00     0.039 A 
ATOM     24  C   UNL A   1      40.023  25.328  26.094  1.00  0.00     0.014 A 
ATOM     25  C   UNL A   1      39.032  24.528  28.152  1.00  0.00     0.014 A 
ATOM     26  C   UNL A   1      40.449  26.483  26.752  1.00  0.00     0.010 A 
ATOM     27  C   UNL A   1      39.389  25.716  28.787  1.00  0.00     0.010 A 
ATOM     28  C   UNL A   1      40.100  26.706  28.094  1.00  0.00    -0.014 A 
BRANCH  28  29
ATOM     29  C   UNL A   1      40.463  27.973  28.783  1.00  0.00     0.031 A 
ATOM     30  C   UNL A   1      41.817  28.134  29.417  1.00  0.00     0.074 A 
ATOM     31  C   UNL A   1      39.549  28.958  28.890  1.00  0.00     0.049 A 
ATOM     32  N   UNL A   1      42.291  29.142  30.107  1.00  0.00    -0.248 NA
ATOM     33  C   UNL A   1      42.755  27.008  29.278  1.00  0.00     0.031 C 
ATOM     34  C   UNL A   1      38.187  28.916  28.353  1.00  0.00     0.029 A 
ATOM     35  N   UNL A   1      39.628  30.188  29.495  1.00  0.00    -0.354 N 
ATOM     36  C   UNL A   1      43.572  28.767  30.492  1.00  0.00     0.074 A 
ATOM     37  C   UNL A   1      43.781  27.420  30.007  1.00  0.00     0.031 C 
ATOM     38  C   UNL A   1      37.569  30.076  28.628  1.00  0.00     0.029 A 
ATOM     39  C   UNL A   1      38.472  30.925  29.398  1.00  0.00     0.049 A 
ATOM     40  H   UNL A   1      40.436  30.513  29.955  1.00  0.00     0.167 HD
ATOM     41  C   UNL A   1      44.500  29.485  31.168  1.00  0.00     0.031 A 
ATOM     42  C   UNL A   1      38.166  32.143  29.885  1.00  0.00     0.031 A 
ATOM     43  C   UNL A   1      44.294  30.825  31.651  1.00  0.00     0.049 A 
ATOM     44  C   UNL A   1      39.202  32.906  30.662  1.00  0.00     0.074 A 
ATOM     45  C   UNL A   1      45.190  31.652  32.307  1.00  0.00     0.029 A 
ATOM     46  N   UNL A   1      43.109  31.534  31.533  1.00  0.00    -0.354 N 
ATOM     47  N   UNL A   1      40.432  32.563  30.960  1.00  0.00    -0.248 NA
ATOM     48  C   UNL A   1      38.811  34.233  31.159  1.00  0.00     0.031 C 
ATOM     49  C   UNL A   1      44.528  32.838  32.640  1.00  0.00     0.029 A 
ATOM     50  C   UNL A   1      43.241  32.777  32.130  1.00  0.00     0.049 A 
ATOM     51  H   UNL A   1      42.293  31.203  31.092  1.00  0.00     0.167 HD
ATOM     52  C   UNL A   1      40.970  33.641  31.651  1.00  0.00     0.074 A 
ATOM     53  C   UNL A   1      39.938  34.656  31.712  1.00  0.00     0.031 C 
ATOM     54  C   UNL A   1      42.208  33.778  32.186  1.00  0.00     0.031 A 
BRANCH  41  55
ATOM     55  C   UNL A   1      45.827  28.827  31.435  1.00  0.00    -0.014 A 
ATOM     56  C   UNL A   1      46.043  28.071  32.599  1.00  0.00     0.009 A 
ATOM     57  C   UNL A   1      46.861  28.931  30.493  1.00  0.00     0.009 A 
ATOM     58  C   UNL A   1      47.280  27.464  32.830  1.00  0.00     0.001 A 
ATOM     59  C   UNL A   1      48.086  28.296  30.711  1.00  0.00     0.001 A 
ATOM     60  C   UNL A   1      48.298  27.573  31.883  1.00  0.00     0.000 A 
ENDBRANCH  41  55
BRANCH  42  61
ATOM     61  C   UNL A   1      36.816  32.722  29.652  1.00  0.00    -0.014 A 
ATOM     62  C   UNL A   1      35.806  32.597  30.618  1.00  0.00     0.009 A 
ATOM     63  C   UNL A   1      36.525  33.391  28.452  1.00  0.00     0.009 A 
ATOM     64  C   UNL A   1      34.526  33.100  30.375  1.00  0.00     0.001 A 
ATOM     65  C   UNL A   1      35.253  33.922  28.226  1.00  0.00     0.001 A 
ATOM     66  C   UNL A   1      34.252  33.766  29.182  1.00  0.00     0.000 A 
ENDBRANCH  42  61
BRANCH  54  67
ATOM     67  C   UNL A   1      42.531  35.088  32.851  1.00  0.00    -0.014 A 
ATOM     68  C   UNL A   1      42.117  35.367  34.162  1.00  0.00     0.009 A 
ATOM     69  C   UNL A   1      43.298  36.043  32.163  1.00  0.00     0.009 A 
ATOM     70  C   UNL A   1      42.434  36.590  34.758  1.00  0.00     0.001 A 
ATOM     71  C   UNL A   1      43.641  37.250  32.773  1.00  0.00     0.001 A 
ATOM     72  C   UNL A   1      43.200  37.527  34.065  1.00  0.00     0.000 A 
ENDBRANCH  54  67
ENDBRANCH  28  29
ENDBRANCH  20  23
ENDBRANCH  18  19
ENDBRANCH  17  18
ENDBRANCH   1  17
TORSDOF 14
ENDMDL
MODEL 3
REMARK VINA RESULT:      -8.1      4.336      8.936
REMARK SMILES O=C(C[NH2+]Cc1cccs1)NCCCCNC(=O)c1ccc(-c2c3nc(c(-c4ccccc4)c4ccc([nH]4)c(-c4ccccc4)c4nc(c(-c5ccccc5)c5ccc2[nH]5)C=C4)C=C3)cc1
REMARK SMILES IDX 13 1 12 2 11 3 1 4 2 5 3 7 4 8 5 11 6 12 7 13 10 14 8 15
REMARK SMILES IDX 9 16 14 17 15 18 16 19 17 20 18 22 19 23 20 24 66 25 21 26
REMARK SMILES IDX 65 27 22 28 23 29 24 30 59 31 25 32 64 33 58 34 60 35 26 36
REMARK SMILES IDX 63 37 57 38 56 39 27 41 49 42 34 43 48 44 35 45 38 46 47 47
REMARK SMILES IDX 61 48 36 49 37 50 46 52 62 53 39 54 28 55 29 56 33 57 30 58
REMARK SMILES IDX 32 59 31 60 50 61 51 62 55 63 52 64 54 65 53 66 40 67 41 68
REMARK SMILES IDX 45 69 42 70 44 71 43 72
REMARK H PARENT 11 6 4 9 4 10 16 21 60 40 38 51
REMARK Flexibility Score: inf
ROOT
ATOM      1  C   UNL A   1      31.711  30.579  26.745  1.00  0.00     0.023 C 
ENDROOT
BRANCH   1   2
ATOM      2  C   UNL A   1      32.889  30.098  25.895  1.00  0.00     0.116 C 
BRANCH   2   3
ATOM      3  N   UNL A   1      32.432  29.481  24.670  1.00  0.00    -0.351 N 
ATOM      4  O   UNL A   1      34.231  28.071  24.408  1.00  0.00    -0.269 OA
ATOM      5  C   UNL A   1      33.189  28.559  23.981  1.00  0.00     0.275 C 
ATOM      6  H   UNL A   1      31.549  29.729  24.314  1.00  0.00     0.163 HD
BRANCH   5   7
ATOM      7  C   UNL A   1      32.621  28.206  22.606  1.00  0.00     0.362 C 
BRANCH   7   8
ATOM      8  N   UNL A   1      31.806  29.319  22.095  1.00  0.00    -0.334 N 
ATOM      9  H   UNL A   1      32.106  29.543  21.147  1.00  0.00     0.347 HD
ATOM     10  H   UNL A   1      31.931  30.120  22.713  1.00  0.00     0.347 HD
BRANCH   8  11
ATOM     11  C   UNL A   1      30.380  28.968  22.075  1.00  0.00     0.308 C 
BRANCH  11  12
ATOM     12  C   UNL A   1      29.440  30.089  22.450  1.00  0.00     0.059 A 
ATOM     13  C   UNL A   1      29.319  30.694  23.690  1.00  0.00     0.021 A 
ATOM     14  S   UNL A   1      28.395  30.838  21.312  1.00  0.00    -0.143 S 
ATOM     15  C   UNL A   1      28.368  31.755  23.698  1.00  0.00     0.012 A 
ATOM     16  C   UNL A   1      27.784  31.931  22.466  1.00  0.00     0.065 A 
ENDBRANCH  11  12
ENDBRANCH   8  11
ENDBRANCH   7   8
ENDBRANCH   5   7
ENDBRANCH   2   3
ENDBRANCH   1   2
BRANCH   1  17
ATOM     17  C   UNL A   1      31.525  32.099  26.776  1.00  0.00     0.023 C 
BRANCH  17  18
ATOM     18  C   UNL A   1      32.742  32.894  27.236  1.00  0.00     0.116 C 
BRANCH  18  19
ATOM     19  N   UNL A   1      32.413  34.253  27.633  1.00  0.00    -0.352 N 
ATOM     20  C   UNL A   1      32.977  35.035  28.611  1.00  0.00     0.251 C 
ATOM     21  H   UNL A   1      31.679  34.674  27.129  1.00  0.00     0.163 HD
ATOM     22  O   UNL A   1      32.470  36.115  28.906  1.00  0.00    -0.269 OA
BRANCH  20  23
ATOM     23  C   UNL A   1      34.178  34.566  29.335  1.00  0.00     0.039 A 
ATOM     24  C   UNL A   1      34.020  33.987  30.597  1.00  0.00     0.014 A 
ATOM     25  C   UNL A   1      35.454  34.687  28.776  1.00  0.00     0.014 A 
ATOM     26  C   UNL A   1      35.130  33.468  31.266  1.00  0.00     0.010 A 
ATOM     27  C   UNL A   1      36.547  34.100  29.409  1.00  0.00     0.010 A 
ATOM     28  C   UNL A   1      36.396  33.483  30.660  1.00  0.00    -0.014 A 
BRANCH  28  29
ATOM     29  C   UNL A   1      37.571  32.851  31.316  1.00  0.00     0.031 A 
ATOM     30  C   UNL A   1      38.237  31.654  30.694  1.00  0.00     0.074 A 
ATOM     31  C   UNL A   1      38.003  33.319  32.504  1.00  0.00     0.049 A 
ATOM     32  N   UNL A   1      39.236  30.937  31.147  1.00  0.00    -0.248 NA
ATOM     33  C   UNL A   1      37.698  31.186  29.407  1.00  0.00     0.031 C 
ATOM     34  C   UNL A   1      37.424  34.449  33.234  1.00  0.00     0.029 A 
ATOM     35  N   UNL A   1      39.029  32.895  33.312  1.00  0.00    -0.354 N 
ATOM     36  C   UNL A   1      39.436  29.932  30.209  1.00  0.00     0.074 A 
ATOM     37  C   UNL A   1      38.421  30.097  29.191  1.00  0.00     0.031 C 
ATOM     38  C   UNL A   1      38.119  34.645  34.366  1.00  0.00     0.029 A 
ATOM     39  C   UNL A   1      39.162  33.630  34.465  1.00  0.00     0.049 A 
ATOM     40  H   UNL A   1      39.615  32.136  33.087  1.00  0.00     0.167 HD
ATOM     41  C   UNL A   1      40.389  28.971  30.184  1.00  0.00     0.031 A 
ATOM     42  C   UNL A   1      40.019  33.496  35.496  1.00  0.00     0.031 A 
ATOM     43  C   UNL A   1      41.400  28.805  31.195  1.00  0.00     0.049 A 
ATOM     44  C   UNL A   1      41.048  32.400  35.460  1.00  0.00     0.074 A 
ATOM     45  C   UNL A   1      42.438  27.890  31.235  1.00  0.00     0.029 A 
ATOM     46  N   UNL A   1      41.498  29.570  32.347  1.00  0.00    -0.354 N 
ATOM     47  N   UNL A   1      41.264  31.499  34.532  1.00  0.00    -0.248 NA
ATOM     48  C   UNL A   1      41.959  32.311  36.609  1.00  0.00     0.031 C 
ATOM     49  C   UNL A   1      43.127  28.061  32.439  1.00  0.00     0.029 A 
ATOM     50  C   UNL A   1      42.561  29.128  33.117  1.00  0.00     0.049 A 
ATOM     51  H   UNL A   1      40.901  30.316  32.583  1.00  0.00     0.167 HD
ATOM     52  C   UNL A   1      42.353  30.757  34.972  1.00  0.00     0.074 A 
ATOM     53  C   UNL A   1      42.764  31.326  36.239  1.00  0.00     0.031 C 
ATOM     54  C   UNL A   1      42.959  29.700  34.377  1.00  0.00     0.031 A 
BRANCH  41  55
ATOM     55  C   UNL A   1      40.378  28.013  29.023  1.00  0.00    -0.014 A 
ATOM     56  C   UNL A   1      39.644  26.816  29.074  1.00  0.00     0.009 A 
ATOM     57  C   UNL A   1      41.077  28.330  27.849  1.00  0.00     0.009 A 
ATOM     58  C   UNL A   1      39.643  25.940  27.986  1.00  0.00     0.001 A 
ATOM     59  C   UNL A   1      41.048  27.467  26.750  1.00  0.00     0.001 A 
ATOM     60  C   UNL A   1      40.340  26.269  26.824  1.00  0.00     0.000 A 
ENDBRANCH  41  55
BRANCH  42  61
ATOM     61  C   UNL A   1      39.946  34.428  36.653  1.00  0.00    -0.014 A 
ATOM     62  C   UNL A   1      40.683  35.622  36.658  1.00  0.00     0.009 A 
ATOM     63  C   UNL A   1      39.151  34.119  37.768  1.00  0.00     0.009 A 
ATOM     64  C   UNL A   1      40.650  36.471  37.767  1.00  0.00     0.001 A 
ATOM     65  C   UNL A   1      39.093  34.986  38.861  1.00  0.00     0.001 A 
ATOM     66  C   UNL A   1      39.852  36.155  38.865  1.00  0.00     0.000 A 
ENDBRANCH  42  61
BRANCH  54  67
ATOM     67  C   UNL A   1      44.158  29.113  35.070  1.00  0.00    -0.014 A 
ATOM     68  C   UNL A   1      44.032  28.059  35.988  1.00  0.00     0.009 A 
ATOM     69  C   UNL A   1      45.440  29.600  34.767  1.00  0.00     0.009 A 
ATOM     70  C   UNL A   1      45.162  27.529  36.615  1.00  0.00     0.001 A 
ATOM     71  C   UNL A   1      46.571  29.046  35.371  1.00  0.00     0.001 A 
ATOM     72  C   UNL A   1      46.429  28.019  36.301  1.00  0.00     0.000 A 
ENDBRANCH  54  67
ENDBRANCH  28  29
ENDBRANCH  20  23
ENDBRANCH  18  19
ENDBRANCH  17  18
ENDBRANCH   1  17
TORSDOF 14
ENDMDL
