MODEL 1
REMARK VINA RESULT:     -11.7      0.000      0.000
REMARK SMILES C[C@@H]1[C@H](C(=O)NCCCCNC(=O)c2ccc(-c3c4nc(c(-c5ccccc5)c5ccc([nH]5)c(-c5ccccc5)c5nc(c(-c6ccccc6)c6ccc3[nH]6)C=C5)C=C4)cc2)CCN1C(=O)/C=C/c1cccc(Br)c1
REMARK SMILES IDX 8 1 7 2 6 3 4 4 5 5 3 7 1 8 2 9 64 10 62 11 63 12 65 13
REMARK SMILES IDX 66 14 67 15 68 16 69 17 70 18 75 19 71 20 73 21 72 22 74 23
REMARK SMILES IDX 9 24 10 25 11 26 12 27 13 29 14 30 15 31 61 32 16 33 60 34
REMARK SMILES IDX 17 35 18 36 19 37 54 38 20 39 59 40 53 41 55 42 21 43 58 44
REMARK SMILES IDX 52 45 51 46 22 48 44 49 29 50 43 51 30 52 33 53 42 54 56 55
REMARK SMILES IDX 31 56 32 57 41 59 57 60 34 61 23 62 24 63 28 64 25 65 27 66
REMARK SMILES IDX 26 67 45 68 46 69 50 70 47 71 49 72 48 73 35 74 36 75 40 76
REMARK SMILES IDX 37 77 39 78 38 79
REMARK H PARENT 6 6 11 28 55 47 33 58
REMARK Flexibility Score: inf
ROOT
ATOM      1  C   UNL A   1      37.382  21.487  24.671  1.00  0.00     0.023 C 
ENDROOT
BRANCH   1   2
ATOM      2  C   UNL A   1      35.956  21.571  25.231  1.00  0.00     0.116 C 
BRANCH   2   3
ATOM      3  N   UNL A   1      35.226  20.323  25.100  1.00  0.00    -0.356 N 
ATOM      4  C   UNL A   1      33.915  20.013  24.925  1.00  0.00     0.225 C 
ATOM      5  O   UNL A   1      33.658  18.803  24.882  1.00  0.00    -0.275 OA
ATOM      6  H   UNL A   1      35.806  19.529  25.149  1.00  0.00     0.163 HD
BRANCH   4   7
ATOM      7  C   UNL A   1      32.762  21.010  24.828  1.00  0.00     0.102 C 
ATOM      8  C   UNL A   1      33.236  21.838  27.212  1.00  0.00     0.032 C 
ATOM      9  C   UNL A   1      32.201  21.575  26.146  1.00  0.00     0.094 C 
ATOM     10  N   UNL A   1      31.521  22.816  25.758  1.00  0.00    -0.336 N 
ATOM     11  C   UNL A   1      32.892  22.212  23.901  1.00  0.00     0.037 C 
ATOM     12  C   UNL A   1      31.758  23.127  24.354  1.00  0.00     0.121 C 
BRANCH  10  13
ATOM     13  C   UNL A   1      30.735  23.660  26.522  1.00  0.00     0.246 C 
ATOM     14  O   UNL A   1      29.964  23.239  27.382  1.00  0.00    -0.270 OA
BRANCH  13  15
ATOM     15  C   UNL A   1      30.685  25.115  26.196  1.00  0.00     0.072 C 
ATOM     16  C   UNL A   1      31.641  26.015  26.474  1.00  0.00     0.014 C 
BRANCH  16  17
ATOM     17  C   UNL A   1      31.592  27.400  25.990  1.00  0.00    -0.024 A 
ATOM     18  C   UNL A   1      32.000  28.463  26.813  1.00  0.00     0.008 A 
ATOM     19  C   UNL A   1      31.086  27.681  24.720  1.00  0.00     0.023 A 
ATOM     20  C   UNL A   1      31.891  29.787  26.381  1.00  0.00     0.002 A 
ATOM     21  C   UNL A   1      30.971  29.007  24.297  1.00  0.00     0.018 A 
ATOM     22  C   UNL A   1      31.367  30.060  25.122  1.00  0.00     0.016 A 
ATOM     23  Br  UNL A   1      30.244  29.382  22.592  1.00  0.00    -0.051 Br
ENDBRANCH  16  17
ENDBRANCH  13  15
ENDBRANCH  10  13
ENDBRANCH   4   7
ENDBRANCH   2   3
ENDBRANCH   1   2
BRANCH   1  24
ATOM     24  C   UNL A   1      38.137  20.205  24.960  1.00  0.00     0.023 C 
BRANCH  24  25
ATOM     25  C   UNL A   1      39.215  20.350  26.010  1.00  0.00     0.116 C 
BRANCH  25  26
ATOM     26  N   UNL A   1      40.274  19.355  25.897  1.00  0.00    -0.352 N 
ATOM     27  C   UNL A   1      41.623  19.522  26.107  1.00  0.00     0.251 C 
ATOM     28  H   UNL A   1      39.988  18.449  25.636  1.00  0.00     0.163 HD
ATOM     29  O   UNL A   1      42.417  18.624  25.874  1.00  0.00    -0.269 OA
BRANCH  27  30
ATOM     30  C   UNL A   1      42.088  20.836  26.586  1.00  0.00     0.039 A 
ATOM     31  C   UNL A   1      42.420  21.821  25.656  1.00  0.00     0.014 A 
ATOM     32  C   UNL A   1      42.078  21.113  27.955  1.00  0.00     0.014 A 
ATOM     33  C   UNL A   1      42.676  23.117  26.102  1.00  0.00     0.010 A 
ATOM     34  C   UNL A   1      42.214  22.421  28.382  1.00  0.00     0.010 A 
ATOM     35  C   UNL A   1      42.536  23.432  27.464  1.00  0.00    -0.014 A 
BRANCH  35  36
ATOM     36  C   UNL A   1      42.778  24.799  27.976  1.00  0.00     0.031 A 
ATOM     37  C   UNL A   1      44.174  25.193  28.372  1.00  0.00     0.074 A 
ATOM     38  C   UNL A   1      41.748  25.644  28.162  1.00  0.00     0.049 A 
ATOM     39  N   UNL A   1      44.593  26.293  28.940  1.00  0.00    -0.248 NA
ATOM     40  C   UNL A   1      45.234  24.195  28.141  1.00  0.00     0.031 C 
ATOM     41  C   UNL A   1      40.341  25.357  27.867  1.00  0.00     0.029 A 
ATOM     42  N   UNL A   1      41.729  26.925  28.651  1.00  0.00    -0.354 N 
ATOM     43  C   UNL A   1      45.950  26.102  29.166  1.00  0.00     0.074 A 
ATOM     44  C   UNL A   1      46.272  24.761  28.736  1.00  0.00     0.031 C 
ATOM     45  C   UNL A   1      39.604  26.444  28.146  1.00  0.00     0.029 A 
ATOM     46  C   UNL A   1      40.476  27.488  28.671  1.00  0.00     0.049 A 
ATOM     47  H   UNL A   1      42.536  27.396  28.959  1.00  0.00     0.167 HD
ATOM     48  C   UNL A   1      46.858  26.975  29.660  1.00  0.00     0.031 A 
ATOM     49  C   UNL A   1      40.082  28.713  29.066  1.00  0.00     0.031 A 
ATOM     50  C   UNL A   1      46.542  28.322  30.044  1.00  0.00     0.049 A 
ATOM     51  C   UNL A   1      41.114  29.681  29.572  1.00  0.00     0.074 A 
ATOM     52  C   UNL A   1      47.394  29.314  30.492  1.00  0.00     0.029 A 
ATOM     53  N   UNL A   1      45.269  28.869  30.007  1.00  0.00    -0.354 N 
ATOM     54  N   UNL A   1      42.405  29.508  29.726  1.00  0.00    -0.248 NA
ATOM     55  C   UNL A   1      40.636  31.020  29.945  1.00  0.00     0.031 C 
ATOM     56  C   UNL A   1      46.629  30.455  30.757  1.00  0.00     0.029 A 
ATOM     57  C   UNL A   1      45.309  30.184  30.431  1.00  0.00     0.049 A 
ATOM     58  H   UNL A   1      44.456  28.391  29.722  1.00  0.00     0.167 HD
ATOM     59  C   UNL A   1      42.898  30.722  30.183  1.00  0.00     0.074 A 
ATOM     60  C   UNL A   1      41.769  31.627  30.271  1.00  0.00     0.031 C 
ATOM     61  C   UNL A   1      44.172  31.063  30.500  1.00  0.00     0.031 A 
BRANCH  48  62
ATOM     62  C   UNL A   1      48.271  26.488  29.800  1.00  0.00    -0.014 A 
ATOM     63  C   UNL A   1      49.188  26.600  28.740  1.00  0.00     0.009 A 
ATOM     64  C   UNL A   1      48.692  25.902  31.003  1.00  0.00     0.009 A 
ATOM     65  C   UNL A   1      50.482  26.094  28.867  1.00  0.00     0.001 A 
ATOM     66  C   UNL A   1      49.998  25.425  31.137  1.00  0.00     0.001 A 
ATOM     67  C   UNL A   1      50.887  25.510  30.067  1.00  0.00     0.000 A 
ENDBRANCH  48  62
BRANCH  49  68
ATOM     68  C   UNL A   1      38.656  29.110  28.952  1.00  0.00    -0.014 A 
ATOM     69  C   UNL A   1      37.794  28.971  30.053  1.00  0.00     0.009 A 
ATOM     70  C   UNL A   1      38.146  29.629  27.753  1.00  0.00     0.009 A 
ATOM     71  C   UNL A   1      36.446  29.320  29.945  1.00  0.00     0.001 A 
ATOM     72  C   UNL A   1      36.803  30.000  27.656  1.00  0.00     0.001 A 
ATOM     73  C   UNL A   1      35.953  29.837  28.748  1.00  0.00     0.000 A 
ENDBRANCH  49  68
BRANCH  61  74
ATOM     74  C   UNL A   1      44.414  32.480  30.927  1.00  0.00    -0.014 A 
ATOM     75  C   UNL A   1      44.741  33.476  29.994  1.00  0.00     0.009 A 
ATOM     76  C   UNL A   1      44.265  32.831  32.278  1.00  0.00     0.009 A 
ATOM     77  C   UNL A   1      44.944  34.792  30.413  1.00  0.00     0.001 A 
ATOM     78  C   UNL A   1      44.443  34.151  32.689  1.00  0.00     0.001 A 
ATOM     79  C   UNL A   1      44.791  35.128  31.758  1.00  0.00     0.000 A 
ENDBRANCH  61  74
ENDBRANCH  35  36
ENDBRANCH  27  30
ENDBRANCH  25  26
ENDBRANCH  24  25
ENDBRANCH   1  24
TORSDOF 14
ENDMDL
MODEL 2
REMARK VINA RESULT:     -11.7      4.272      9.558
REMARK SMILES C[C@@H]1[C@H](C(=O)NCCCCNC(=O)c2ccc(-c3c4nc(c(-c5ccccc5)c5ccc([nH]5)c(-c5ccccc5)c5nc(c(-c6ccccc6)c6ccc3[nH]6)C=C5)C=C4)cc2)CCN1C(=O)/C=C/c1cccc(Br)c1
REMARK SMILES IDX 8 1 7 2 6 3 4 4 5 5 3 7 1 8 2 9 64 10 62 11 63 12 65 13
REMARK SMILES IDX 66 14 67 15 68 16 69 17 70 18 75 19 71 20 73 21 72 22 74 23
REMARK SMILES IDX 9 24 10 25 11 26 12 27 13 29 14 30 15 31 61 32 16 33 60 34
REMARK SMILES IDX 17 35 18 36 19 37 54 38 20 39 59 40 53 41 55 42 21 43 58 44
REMARK SMILES IDX 52 45 51 46 22 48 44 49 29 50 43 51 30 52 33 53 42 54 56 55
REMARK SMILES IDX 31 56 32 57 41 59 57 60 34 61 23 62 24 63 28 64 25 65 27 66
REMARK SMILES IDX 26 67 45 68 46 69 50 70 47 71 49 72 48 73 35 74 36 75 40 76
REMARK SMILES IDX 37 77 39 78 38 79
REMARK H PARENT 6 6 11 28 55 47 33 58
REMARK Flexibility Score: inf
ROOT
ATOM      1  C   UNL A   1      31.850  30.420  26.903  1.00  0.00     0.023 C 
ENDROOT
BRANCH   1   2
ATOM      2  C   UNL A   1      31.798  29.532  25.652  1.00  0.00     0.116 C 
BRANCH   2   3
ATOM      3  N   UNL A   1      30.874  30.029  24.648  1.00  0.00    -0.356 N 
ATOM      4  C   UNL A   1      30.279  29.475  23.561  1.00  0.00     0.225 C 
ATOM      5  O   UNL A   1      29.551  30.236  22.909  1.00  0.00    -0.275 OA
ATOM      6  H   UNL A   1      30.626  30.972  24.784  1.00  0.00     0.163 HD
BRANCH   4   7
ATOM      7  C   UNL A   1      30.467  28.042  23.066  1.00  0.00     0.102 C 
ATOM      8  C   UNL A   1      32.937  28.512  22.549  1.00  0.00     0.032 C 
ATOM      9  C   UNL A   1      31.688  27.756  22.173  1.00  0.00     0.094 C 
ATOM     10  N   UNL A   1      31.898  26.308  22.284  1.00  0.00    -0.336 N 
ATOM     11  C   UNL A   1      30.429  26.896  24.070  1.00  0.00     0.037 C 
ATOM     12  C   UNL A   1      31.014  25.725  23.285  1.00  0.00     0.121 C 
BRANCH  10  13
ATOM     13  C   UNL A   1      32.777  25.495  21.593  1.00  0.00     0.246 C 
ATOM     14  O   UNL A   1      33.057  25.686  20.410  1.00  0.00    -0.270 OA
BRANCH  13  15
ATOM     15  C   UNL A   1      33.286  24.247  22.233  1.00  0.00     0.072 C 
ATOM     16  C   UNL A   1      34.344  24.162  23.054  1.00  0.00     0.014 C 
BRANCH  16  17
ATOM     17  C   UNL A   1      34.697  22.929  23.768  1.00  0.00    -0.024 A 
ATOM     18  C   UNL A   1      36.037  22.631  24.068  1.00  0.00     0.008 A 
ATOM     19  C   UNL A   1      33.705  22.009  24.111  1.00  0.00     0.023 A 
ATOM     20  C   UNL A   1      36.383  21.427  24.686  1.00  0.00     0.002 A 
ATOM     21  C   UNL A   1      34.057  20.803  24.721  1.00  0.00     0.018 A 
ATOM     22  C   UNL A   1      35.390  20.506  25.007  1.00  0.00     0.016 A 
ATOM     23  Br  UNL A   1      32.712  19.544  25.143  1.00  0.00    -0.051 Br
ENDBRANCH  16  17
ENDBRANCH  13  15
ENDBRANCH  10  13
ENDBRANCH   4   7
ENDBRANCH   2   3
ENDBRANCH   1   2
BRANCH   1  24
ATOM     24  C   UNL A   1      31.728  31.911  26.667  1.00  0.00     0.023 C 
BRANCH  24  25
ATOM     25  C   UNL A   1      32.900  32.714  27.182  1.00  0.00     0.116 C 
BRANCH  25  26
ATOM     26  N   UNL A   1      32.536  34.052  27.632  1.00  0.00    -0.352 N 
ATOM     27  C   UNL A   1      33.125  34.806  28.620  1.00  0.00     0.251 C 
ATOM     28  H   UNL A   1      31.771  34.467  27.172  1.00  0.00     0.163 HD
ATOM     29  O   UNL A   1      32.651  35.876  28.969  1.00  0.00    -0.269 OA
BRANCH  27  30
ATOM     30  C   UNL A   1      34.329  34.263  29.275  1.00  0.00     0.039 A 
ATOM     31  C   UNL A   1      34.183  33.426  30.381  1.00  0.00     0.014 A 
ATOM     32  C   UNL A   1      35.585  34.500  28.712  1.00  0.00     0.014 A 
ATOM     33  C   UNL A   1      35.302  32.764  30.882  1.00  0.00     0.010 A 
ATOM     34  C   UNL A   1      36.668  33.752  29.135  1.00  0.00     0.010 A 
ATOM     35  C   UNL A   1      36.544  32.893  30.238  1.00  0.00    -0.014 A 
BRANCH  35  36
ATOM     36  C   UNL A   1      37.752  32.191  30.724  1.00  0.00     0.031 A 
ATOM     37  C   UNL A   1      38.485  32.742  31.916  1.00  0.00     0.074 A 
ATOM     38  C   UNL A   1      38.230  31.125  30.057  1.00  0.00     0.049 A 
ATOM     39  N   UNL A   1      39.617  32.354  32.443  1.00  0.00    -0.248 NA
ATOM     40  C   UNL A   1      37.890  33.920  32.573  1.00  0.00     0.031 C 
ATOM     41  C   UNL A   1      37.637  30.531  28.856  1.00  0.00     0.029 A 
ATOM     42  N   UNL A   1      39.336  30.352  30.298  1.00  0.00    -0.354 N 
ATOM     43  C   UNL A   1      39.883  33.258  33.463  1.00  0.00     0.074 A 
ATOM     44  C   UNL A   1      38.833  34.251  33.440  1.00  0.00     0.031 C 
ATOM     45  C   UNL A   1      38.366  29.463  28.490  1.00  0.00     0.029 A 
ATOM     46  C   UNL A   1      39.492  29.320  29.405  1.00  0.00     0.049 A 
ATOM     47  H   UNL A   1      39.959  30.519  31.042  1.00  0.00     0.167 HD
ATOM     48  C   UNL A   1      40.894  33.249  34.361  1.00  0.00     0.031 A 
ATOM     49  C   UNL A   1      40.439  28.366  29.339  1.00  0.00     0.031 A 
ATOM     50  C   UNL A   1      41.910  32.235  34.409  1.00  0.00     0.049 A 
ATOM     51  C   UNL A   1      41.530  28.350  30.372  1.00  0.00     0.074 A 
ATOM     52  C   UNL A   1      42.941  32.089  35.316  1.00  0.00     0.029 A 
ATOM     53  N   UNL A   1      42.007  31.182  33.512  1.00  0.00    -0.354 N 
ATOM     54  N   UNL A   1      41.737  29.178  31.368  1.00  0.00    -0.248 NA
ATOM     55  C   UNL A   1      42.509  27.258  30.281  1.00  0.00     0.031 C 
ATOM     56  C   UNL A   1      43.684  30.961  34.951  1.00  0.00     0.029 A 
ATOM     57  C   UNL A   1      43.086  30.383  33.841  1.00  0.00     0.049 A 
ATOM     58  H   UNL A   1      41.398  31.026  32.754  1.00  0.00     0.167 HD
ATOM     59  C   UNL A   1      42.850  28.691  32.040  1.00  0.00     0.074 A 
ATOM     60  C   UNL A   1      43.267  27.489  31.344  1.00  0.00     0.031 C 
ATOM     61  C   UNL A   1      43.472  29.189  33.136  1.00  0.00     0.031 A 
BRANCH  48  62
ATOM     62  C   UNL A   1      40.933  34.369  35.360  1.00  0.00    -0.014 A 
ATOM     63  C   UNL A   1      40.235  34.284  36.576  1.00  0.00     0.009 A 
ATOM     64  C   UNL A   1      41.671  35.530  35.080  1.00  0.00     0.009 A 
ATOM     65  C   UNL A   1      40.237  35.356  37.471  1.00  0.00     0.001 A 
ATOM     66  C   UNL A   1      41.697  36.587  35.991  1.00  0.00     0.001 A 
ATOM     67  C   UNL A   1      40.972  36.505  37.178  1.00  0.00     0.000 A 
ENDBRANCH  48  62
BRANCH  49  68
ATOM     68  C   UNL A   1      40.369  27.318  28.288  1.00  0.00    -0.014 A 
ATOM     69  C   UNL A   1      39.665  26.127  28.524  1.00  0.00     0.009 A 
ATOM     70  C   UNL A   1      41.001  27.500  27.048  1.00  0.00     0.009 A 
ATOM     71  C   UNL A   1      39.616  25.128  27.549  1.00  0.00     0.001 A 
ATOM     72  C   UNL A   1      40.929  26.509  26.066  1.00  0.00     0.001 A 
ATOM     73  C   UNL A   1      40.245  25.322  26.320  1.00  0.00     0.000 A 
ENDBRANCH  49  68
BRANCH  61  74
ATOM     74  C   UNL A   1      44.638  28.413  33.673  1.00  0.00    -0.014 A 
ATOM     75  C   UNL A   1      45.950  28.693  33.264  1.00  0.00     0.009 A 
ATOM     76  C   UNL A   1      44.419  27.418  34.640  1.00  0.00     0.009 A 
ATOM     77  C   UNL A   1      47.020  27.968  33.792  1.00  0.00     0.001 A 
ATOM     78  C   UNL A   1      45.493  26.714  35.184  1.00  0.00     0.001 A 
ATOM     79  C   UNL A   1      46.791  26.983  34.754  1.00  0.00     0.000 A 
ENDBRANCH  61  74
ENDBRANCH  35  36
ENDBRANCH  27  30
ENDBRANCH  25  26
ENDBRANCH  24  25
ENDBRANCH   1  24
TORSDOF 14
ENDMDL
MODEL 3
REMARK VINA RESULT:     -11.6      4.855      9.762
REMARK SMILES C[C@@H]1[C@H](C(=O)NCCCCNC(=O)c2ccc(-c3c4nc(c(-c5ccccc5)c5ccc([nH]5)c(-c5ccccc5)c5nc(c(-c6ccccc6)c6ccc3[nH]6)C=C5)C=C4)cc2)CCN1C(=O)/C=C/c1cccc(Br)c1
REMARK SMILES IDX 8 1 7 2 6 3 4 4 5 5 3 7 1 8 2 9 64 10 62 11 63 12 65 13
REMARK SMILES IDX 66 14 67 15 68 16 69 17 70 18 75 19 71 20 73 21 72 22 74 23
REMARK SMILES IDX 9 24 10 25 11 26 12 27 13 29 14 30 15 31 61 32 16 33 60 34
REMARK SMILES IDX 17 35 18 36 19 37 54 38 20 39 59 40 53 41 55 42 21 43 58 44
REMARK SMILES IDX 52 45 51 46 22 48 44 49 29 50 43 51 30 52 33 53 42 54 56 55
REMARK SMILES IDX 31 56 32 57 41 59 57 60 34 61 23 62 24 63 28 64 25 65 27 66
REMARK SMILES IDX 26 67 45 68 46 69 50 70 47 71 49 72 48 73 35 74 36 75 40 76
REMARK SMILES IDX 37 77 39 78 38 79
REMARK H PARENT 6 6 11 28 55 47 33 58
REMARK Flexibility Score: inf
ROOT
ATOM      1  C   UNL A   1      32.083  30.406  26.904  1.00  0.00     0.023 C 
ENDROOT
BRANCH   1   2
ATOM      2  C   UNL A   1      32.157  29.699  25.544  1.00  0.00     0.116 C 
BRANCH   2   3
ATOM      3  N   UNL A   1      31.067  30.068  24.659  1.00  0.00    -0.356 N 
ATOM      4  C   UNL A   1      30.357  29.400  23.712  1.00  0.00     0.225 C 
ATOM      5  O   UNL A   1      29.495  30.069  23.127  1.00  0.00    -0.275 OA
ATOM      6  H   UNL A   1      30.780  31.003  24.767  1.00  0.00     0.163 HD
BRANCH   4   7
ATOM      7  C   UNL A   1      30.565  27.946  23.292  1.00  0.00     0.102 C 
ATOM      8  C   UNL A   1      32.943  28.486  22.488  1.00  0.00     0.032 C 
ATOM      9  C   UNL A   1      31.700  27.653  22.295  1.00  0.00     0.094 C 
ATOM     10  N   UNL A   1      31.993  26.226  22.475  1.00  0.00    -0.336 N 
ATOM     11  C   UNL A   1      30.687  26.871  24.364  1.00  0.00     0.037 C 
ATOM     12  C   UNL A   1      31.246  25.676  23.598  1.00  0.00     0.121 C 
BRANCH  10  13
ATOM     13  C   UNL A   1      32.836  25.406  21.747  1.00  0.00     0.246 C 
ATOM     14  O   UNL A   1      33.061  25.591  20.552  1.00  0.00    -0.270 OA
BRANCH  13  15
ATOM     15  C   UNL A   1      33.368  24.158  22.369  1.00  0.00     0.072 C 
ATOM     16  C   UNL A   1      34.463  24.072  23.139  1.00  0.00     0.014 C 
BRANCH  16  17
ATOM     17  C   UNL A   1      34.843  22.841  23.842  1.00  0.00    -0.024 A 
ATOM     18  C   UNL A   1      36.191  22.563  24.127  1.00  0.00     0.008 A 
ATOM     19  C   UNL A   1      33.869  21.902  24.188  1.00  0.00     0.023 A 
ATOM     20  C   UNL A   1      36.562  21.361  24.734  1.00  0.00     0.002 A 
ATOM     21  C   UNL A   1      34.247  20.699  24.787  1.00  0.00     0.018 A 
ATOM     22  C   UNL A   1      35.587  20.422  25.058  1.00  0.00     0.016 A 
ATOM     23  Br  UNL A   1      32.927  19.414  25.214  1.00  0.00    -0.051 Br
ENDBRANCH  16  17
ENDBRANCH  13  15
ENDBRANCH  10  13
ENDBRANCH   4   7
ENDBRANCH   2   3
ENDBRANCH   1   2
BRANCH   1  24
ATOM     24  C   UNL A   1      31.770  31.888  26.869  1.00  0.00     0.023 C 
BRANCH  24  25
ATOM     25  C   UNL A   1      32.873  32.762  27.421  1.00  0.00     0.116 C 
BRANCH  25  26
ATOM     26  N   UNL A   1      32.459  34.141  27.657  1.00  0.00    -0.352 N 
ATOM     27  C   UNL A   1      32.970  35.038  28.565  1.00  0.00     0.251 C 
ATOM     28  H   UNL A   1      31.719  34.469  27.096  1.00  0.00     0.163 HD
ATOM     29  O   UNL A   1      32.457  36.134  28.731  1.00  0.00    -0.269 OA
BRANCH  27  30
ATOM     30  C   UNL A   1      34.136  34.620  29.364  1.00  0.00     0.039 A 
ATOM     31  C   UNL A   1      33.935  34.098  30.641  1.00  0.00     0.014 A 
ATOM     32  C   UNL A   1      35.409  34.646  28.789  1.00  0.00     0.014 A 
ATOM     33  C   UNL A   1      35.012  33.530  31.319  1.00  0.00     0.010 A 
ATOM     34  C   UNL A   1      36.447  33.977  29.412  1.00  0.00     0.010 A 
ATOM     35  C   UNL A   1      36.265  33.433  30.692  1.00  0.00    -0.014 A 
BRANCH  35  36
ATOM     36  C   UNL A   1      37.429  32.819  31.368  1.00  0.00     0.031 A 
ATOM     37  C   UNL A   1      38.117  31.650  30.719  1.00  0.00     0.074 A 
ATOM     38  C   UNL A   1      37.811  33.249  32.585  1.00  0.00     0.049 A 
ATOM     39  N   UNL A   1      39.081  30.896  31.180  1.00  0.00    -0.248 NA
ATOM     40  C   UNL A   1      37.620  31.244  29.391  1.00  0.00     0.031 C 
ATOM     41  C   UNL A   1      37.187  34.339  33.341  1.00  0.00     0.029 A 
ATOM     42  N   UNL A   1      38.820  32.813  33.403  1.00  0.00    -0.354 N 
ATOM     43  C   UNL A   1      39.276  29.912  30.219  1.00  0.00     0.074 A 
ATOM     44  C   UNL A   1      38.291  30.122  29.183  1.00  0.00     0.031 C 
ATOM     45  C   UNL A   1      37.854  34.509  34.495  1.00  0.00     0.029 A 
ATOM     46  C   UNL A   1      38.924  33.522  34.575  1.00  0.00     0.049 A 
ATOM     47  H   UNL A   1      39.415  32.063  33.173  1.00  0.00     0.167 HD
ATOM     48  C   UNL A   1      40.212  28.936  30.185  1.00  0.00     0.031 A 
ATOM     49  C   UNL A   1      39.791  33.388  35.596  1.00  0.00     0.031 A 
ATOM     50  C   UNL A   1      41.217  28.759  31.194  1.00  0.00     0.049 A 
ATOM     51  C   UNL A   1      40.849  32.323  35.518  1.00  0.00     0.074 A 
ATOM     52  C   UNL A   1      42.256  27.847  31.227  1.00  0.00     0.029 A 
ATOM     53  N   UNL A   1      41.316  29.526  32.344  1.00  0.00    -0.354 N 
ATOM     54  N   UNL A   1      41.060  31.435  34.575  1.00  0.00    -0.248 NA
ATOM     55  C   UNL A   1      41.799  32.253  36.637  1.00  0.00     0.031 C 
ATOM     56  C   UNL A   1      42.967  28.043  32.416  1.00  0.00     0.029 A 
ATOM     57  C   UNL A   1      42.394  29.105  33.100  1.00  0.00     0.049 A 
ATOM     58  H   UNL A   1      40.707  30.261  32.588  1.00  0.00     0.167 HD
ATOM     59  C   UNL A   1      42.182  30.722  34.972  1.00  0.00     0.074 A 
ATOM     60  C   UNL A   1      42.614  31.287  36.235  1.00  0.00     0.031 C 
ATOM     61  C   UNL A   1      42.805  29.692  34.348  1.00  0.00     0.031 A 
BRANCH  48  62
ATOM     62  C   UNL A   1      40.182  28.000  29.011  1.00  0.00    -0.014 A 
ATOM     63  C   UNL A   1      39.506  26.770  29.078  1.00  0.00     0.009 A 
ATOM     64  C   UNL A   1      40.845  28.346  27.824  1.00  0.00     0.009 A 
ATOM     65  C   UNL A   1      39.533  25.887  27.997  1.00  0.00     0.001 A 
ATOM     66  C   UNL A   1      40.843  27.475  26.733  1.00  0.00     0.001 A 
ATOM     67  C   UNL A   1      40.199  26.242  26.825  1.00  0.00     0.000 A 
ENDBRANCH  48  62
BRANCH  49  68
ATOM     68  C   UNL A   1      39.727  34.315  36.755  1.00  0.00    -0.014 A 
ATOM     69  C   UNL A   1      40.314  35.588  36.674  1.00  0.00     0.009 A 
ATOM     70  C   UNL A   1      39.083  33.939  37.943  1.00  0.00     0.009 A 
ATOM     71  C   UNL A   1      40.279  36.455  37.768  1.00  0.00     0.001 A 
ATOM     72  C   UNL A   1      39.027  34.818  39.027  1.00  0.00     0.001 A 
ATOM     73  C   UNL A   1      39.633  36.070  38.942  1.00  0.00     0.000 A 
ENDBRANCH  49  68
BRANCH  61  74
ATOM     74  C   UNL A   1      44.040  29.144  34.999  1.00  0.00    -0.014 A 
ATOM     75  C   UNL A   1      43.969  28.090  35.923  1.00  0.00     0.009 A 
ATOM     76  C   UNL A   1      45.296  29.660  34.644  1.00  0.00     0.009 A 
ATOM     77  C   UNL A   1      45.135  27.585  36.502  1.00  0.00     0.001 A 
ATOM     78  C   UNL A   1      46.460  29.135  35.205  1.00  0.00     0.001 A 
ATOM     79  C   UNL A   1      46.377  28.105  36.140  1.00  0.00     0.000 A 
ENDBRANCH  61  74
ENDBRANCH  35  36
ENDBRANCH  27  30
ENDBRANCH  25  26
ENDBRANCH  24  25
ENDBRANCH   1  24
TORSDOF 14
ENDMDL
