MODEL 1
REMARK VINA RESULT:     -12.8      0.000      0.000
REMARK SMILES C[C@H]1CC[C@H]([NH2+]Cc2c(C(=O)NCCCCNC(=O)c3ccc(-c4c5nc(c(-c6ccccc6)c6ccc([nH]6)c(-c6ccccc6)c6nc(c(-c7ccccc7)c7ccc4[nH]7)C=C6)C=C5)cc3)n(Cc3ccccc3F)c3ccccc23)CC1
REMARK SMILES IDX 14 1 13 2 12 3 10 4 11 5 9 7 8 8 82 9 68 10 77 11 81 12
REMARK SMILES IDX 78 13 80 14 79 15 7 16 6 17 5 20 1 21 2 22 3 23 84 24 4 25
REMARK SMILES IDX 83 26 69 27 70 28 71 29 75 30 72 31 74 32 76 33 73 34 15 35
REMARK SMILES IDX 16 36 17 37 18 38 19 40 20 41 21 42 67 43 22 44 66 45 23 46
REMARK SMILES IDX 24 47 25 48 60 49 26 50 65 51 59 52 61 53 27 54 64 55 58 56
REMARK SMILES IDX 57 57 28 59 50 60 35 61 49 62 36 63 39 64 48 65 62 66 37 67
REMARK SMILES IDX 38 68 47 70 63 71 40 72 29 73 30 74 34 75 31 76 33 77 32 78
REMARK SMILES IDX 51 79 52 80 56 81 53 82 55 83 54 84 41 85 42 86 46 87 43 88
REMARK SMILES IDX 45 89 44 90
REMARK H PARENT 12 6 6 18 6 19 17 39 61 58 39 69
REMARK Flexibility Score: inf
ROOT
ATOM      1  C   UNL A   1      32.106  28.475  27.605  1.00  0.00     0.023 C 
ENDROOT
BRANCH   1   2
ATOM      2  C   UNL A   1      32.421  27.192  26.843  1.00  0.00     0.116 C 
BRANCH   2   3
ATOM      3  N   UNL A   1      31.438  26.137  26.903  1.00  0.00    -0.351 N 
ATOM      4  C   UNL A   1      31.565  24.801  26.603  1.00  0.00     0.268 C 
ATOM      5  O   UNL A   1      30.520  24.145  26.798  1.00  0.00    -0.268 OA
ATOM      6  H   UNL A   1      30.544  26.416  27.204  1.00  0.00     0.163 HD
BRANCH   4   7
ATOM      7  C   UNL A   1      32.770  24.184  26.039  1.00  0.00     0.117 A 
ATOM      8  C   UNL A   1      33.649  23.185  26.508  1.00  0.00     0.045 A 
ATOM      9  C   UNL A   1      34.849  23.322  25.739  1.00  0.00     0.009 A 
ATOM     10  N   UNL A   1      33.200  24.381  24.700  1.00  0.00    -0.331 N 
ATOM     11  C   UNL A   1      34.468  23.845  24.516  1.00  0.00     0.049 A 
ATOM     12  C   UNL A   1      36.178  22.879  25.918  1.00  0.00     0.011 A 
ATOM     13  C   UNL A   1      35.314  23.739  23.397  1.00  0.00     0.027 A 
ATOM     14  C   UNL A   1      37.076  22.937  24.853  1.00  0.00     0.001 A 
ATOM     15  C   UNL A   1      36.634  23.319  23.594  1.00  0.00     0.002 A 
BRANCH   8  16
ATOM     16  C   UNL A   1      33.588  22.105  27.549  1.00  0.00     0.300 C 
BRANCH  16  17
ATOM     17  N   UNL A   1      33.223  20.769  27.111  1.00  0.00    -0.340 N 
ATOM     18  H   UNL A   1      33.749  20.127  27.706  1.00  0.00     0.346 HD
ATOM     19  H   UNL A   1      32.205  20.812  27.171  1.00  0.00     0.346 HD
BRANCH  17  20
ATOM     20  C   UNL A   1      33.408  20.286  25.743  1.00  0.00     0.182 C 
ATOM     21  C   UNL A   1      32.196  17.710  22.349  1.00  0.00     0.007 C 
ATOM     22  C   UNL A   1      32.248  18.515  23.638  1.00  0.00    -0.014 C 
ATOM     23  C   UNL A   1      32.509  20.001  23.374  1.00  0.00     0.009 C 
ATOM     24  C   UNL A   1      33.326  17.979  24.579  1.00  0.00     0.009 C 
ATOM     25  C   UNL A   1      32.425  20.787  24.681  1.00  0.00     0.065 C 
ATOM     26  C   UNL A   1      33.311  18.751  25.888  1.00  0.00     0.065 C 
ENDBRANCH  17  20
ENDBRANCH  16  17
ENDBRANCH   8  16
BRANCH  10  27
ATOM     27  C   UNL A   1      32.405  24.922  23.581  1.00  0.00     0.161 C 
BRANCH  27  28
ATOM     28  C   UNL A   1      32.410  26.430  23.450  1.00  0.00     0.008 A 
ATOM     29  C   UNL A   1      33.592  27.172  23.280  1.00  0.00     0.008 A 
ATOM     30  C   UNL A   1      31.207  27.136  23.387  1.00  0.00     0.128 A 
ATOM     31  C   UNL A   1      33.571  28.557  23.087  1.00  0.00     0.001 A 
ATOM     32  C   UNL A   1      31.175  28.521  23.210  1.00  0.00     0.039 A 
ATOM     33  F   UNL A   1      30.038  26.485  23.446  1.00  0.00    -0.207 F 
ATOM     34  C   UNL A   1      32.360  29.236  23.062  1.00  0.00     0.003 A 
ENDBRANCH  27  28
ENDBRANCH  10  27
ENDBRANCH   4   7
ENDBRANCH   2   3
ENDBRANCH   1   2
BRANCH   1  35
ATOM     35  C   UNL A   1      32.329  29.801  26.853  1.00  0.00     0.023 C 
BRANCH  35  36
ATOM     36  C   UNL A   1      33.701  30.480  26.970  1.00  0.00     0.116 C 
BRANCH  36  37
ATOM     37  N   UNL A   1      34.031  31.156  28.213  1.00  0.00    -0.352 N 
ATOM     38  C   UNL A   1      35.233  31.530  28.762  1.00  0.00     0.251 C 
ATOM     39  H   UNL A   1      33.249  31.389  28.763  1.00  0.00     0.163 HD
ATOM     40  O   UNL A   1      35.246  32.505  29.518  1.00  0.00    -0.269 OA
BRANCH  38  41
ATOM     41  C   UNL A   1      36.460  30.711  28.623  1.00  0.00     0.039 A 
ATOM     42  C   UNL A   1      36.457  29.351  28.335  1.00  0.00     0.014 A 
ATOM     43  C   UNL A   1      37.678  31.339  28.943  1.00  0.00     0.014 A 
ATOM     44  C   UNL A   1      37.587  28.592  28.572  1.00  0.00     0.010 A 
ATOM     45  C   UNL A   1      38.834  30.588  29.128  1.00  0.00     0.010 A 
ATOM     46  C   UNL A   1      38.762  29.202  29.018  1.00  0.00    -0.014 A 
BRANCH  46  47
ATOM     47  C   UNL A   1      39.881  28.309  29.287  1.00  0.00     0.031 A 
ATOM     48  C   UNL A   1      40.304  28.223  30.714  1.00  0.00     0.074 A 
ATOM     49  C   UNL A   1      40.488  27.562  28.347  1.00  0.00     0.049 A 
ATOM     50  N   UNL A   1      41.468  28.456  31.231  1.00  0.00    -0.248 NA
ATOM     51  C   UNL A   1      39.257  27.909  31.697  1.00  0.00     0.031 C 
ATOM     52  C   UNL A   1      40.036  27.274  26.985  1.00  0.00     0.029 A 
ATOM     53  N   UNL A   1      41.608  26.796  28.477  1.00  0.00    -0.354 N 
ATOM     54  C   UNL A   1      41.342  28.194  32.595  1.00  0.00     0.074 A 
ATOM     55  C   UNL A   1      39.940  27.957  32.838  1.00  0.00     0.031 C 
ATOM     56  C   UNL A   1      40.726  26.211  26.513  1.00  0.00     0.029 A 
ATOM     57  C   UNL A   1      41.749  25.847  27.480  1.00  0.00     0.049 A 
ATOM     58  H   UNL A   1      42.255  26.907  29.211  1.00  0.00     0.167 HD
ATOM     59  C   UNL A   1      42.413  28.041  33.420  1.00  0.00     0.031 A 
ATOM     60  C   UNL A   1      42.579  24.779  27.508  1.00  0.00     0.031 A 
ATOM     61  C   UNL A   1      43.610  28.618  32.878  1.00  0.00     0.049 A 
ATOM     62  C   UNL A   1      43.621  25.023  28.531  1.00  0.00     0.074 A 
ATOM     63  C   UNL A   1      43.998  29.896  32.531  1.00  0.00     0.029 A 
ATOM     64  N   UNL A   1      44.548  27.780  32.330  1.00  0.00    -0.354 N 
ATOM     65  N   UNL A   1      44.574  25.902  28.416  1.00  0.00    -0.248 NA
ATOM     66  C   UNL A   1      43.397  24.517  29.875  1.00  0.00     0.031 C 
ATOM     67  C   UNL A   1      44.860  29.729  31.409  1.00  0.00     0.029 A 
ATOM     68  C   UNL A   1      44.965  28.360  31.160  1.00  0.00     0.049 A 
ATOM     69  H   UNL A   1      44.862  26.927  32.705  1.00  0.00     0.167 HD
ATOM     70  C   UNL A   1      44.793  26.362  29.707  1.00  0.00     0.074 A 
ATOM     71  C   UNL A   1      44.128  25.390  30.570  1.00  0.00     0.031 C 
ATOM     72  C   UNL A   1      45.251  27.626  29.946  1.00  0.00     0.031 A 
BRANCH  59  73
ATOM     73  C   UNL A   1      42.428  27.097  34.598  1.00  0.00    -0.014 A 
ATOM     74  C   UNL A   1      41.912  27.432  35.864  1.00  0.00     0.009 A 
ATOM     75  C   UNL A   1      42.732  25.739  34.385  1.00  0.00     0.009 A 
ATOM     76  C   UNL A   1      41.700  26.473  36.859  1.00  0.00     0.001 A 
ATOM     77  C   UNL A   1      42.475  24.769  35.362  1.00  0.00     0.001 A 
ATOM     78  C   UNL A   1      41.956  25.136  36.598  1.00  0.00     0.000 A 
ENDBRANCH  59  73
BRANCH  60  79
ATOM     79  C   UNL A   1      42.319  23.425  26.972  1.00  0.00    -0.014 A 
ATOM     80  C   UNL A   1      41.266  22.644  27.484  1.00  0.00     0.009 A 
ATOM     81  C   UNL A   1      43.272  22.790  26.162  1.00  0.00     0.009 A 
ATOM     82  C   UNL A   1      41.188  21.272  27.227  1.00  0.00     0.001 A 
ATOM     83  C   UNL A   1      43.200  21.414  25.914  1.00  0.00     0.001 A 
ATOM     84  C   UNL A   1      42.167  20.654  26.457  1.00  0.00     0.000 A 
ENDBRANCH  60  79
BRANCH  72  85
ATOM     85  C   UNL A   1      45.791  28.436  28.791  1.00  0.00    -0.014 A 
ATOM     86  C   UNL A   1      44.895  29.230  28.053  1.00  0.00     0.009 A 
ATOM     87  C   UNL A   1      47.102  28.293  28.305  1.00  0.00     0.009 A 
ATOM     88  C   UNL A   1      45.294  29.853  26.867  1.00  0.00     0.001 A 
ATOM     89  C   UNL A   1      47.509  28.939  27.134  1.00  0.00     0.001 A 
ATOM     90  C   UNL A   1      46.602  29.710  26.410  1.00  0.00     0.000 A 
ENDBRANCH  72  85
ENDBRANCH  46  47
ENDBRANCH  38  41
ENDBRANCH  36  37
ENDBRANCH  35  36
ENDBRANCH   1  35
TORSDOF 16
ENDMDL
MODEL 2
REMARK VINA RESULT:     -12.8      2.019      3.987
REMARK SMILES C[C@H]1CC[C@H]([NH2+]Cc2c(C(=O)NCCCCNC(=O)c3ccc(-c4c5nc(c(-c6ccccc6)c6ccc([nH]6)c(-c6ccccc6)c6nc(c(-c7ccccc7)c7ccc4[nH]7)C=C6)C=C5)cc3)n(Cc3ccccc3F)c3ccccc23)CC1
REMARK SMILES IDX 14 1 13 2 12 3 10 4 11 5 9 7 8 8 82 9 68 10 77 11 81 12
REMARK SMILES IDX 78 13 80 14 79 15 7 16 6 17 5 20 1 21 2 22 3 23 84 24 4 25
REMARK SMILES IDX 83 26 69 27 70 28 71 29 75 30 72 31 74 32 76 33 73 34 15 35
REMARK SMILES IDX 16 36 17 37 18 38 19 40 20 41 21 42 67 43 22 44 66 45 23 46
REMARK SMILES IDX 24 47 25 48 60 49 26 50 65 51 59 52 61 53 27 54 64 55 58 56
REMARK SMILES IDX 57 57 28 59 50 60 35 61 49 62 36 63 39 64 48 65 62 66 37 67
REMARK SMILES IDX 38 68 47 70 63 71 40 72 29 73 30 74 34 75 31 76 33 77 32 78
REMARK SMILES IDX 51 79 52 80 56 81 53 82 55 83 54 84 41 85 42 86 46 87 43 88
REMARK SMILES IDX 45 89 44 90
REMARK H PARENT 12 6 6 18 6 19 17 39 61 58 39 69
REMARK Flexibility Score: inf
ROOT
ATOM      1  C   UNL A   1      32.661  27.773  25.836  1.00  0.00     0.023 C 
ENDROOT
BRANCH   1   2
ATOM      2  C   UNL A   1      33.630  26.686  25.383  1.00  0.00     0.116 C 
BRANCH   2   3
ATOM      3  N   UNL A   1      33.790  26.503  23.961  1.00  0.00    -0.351 N 
ATOM      4  C   UNL A   1      34.082  25.363  23.249  1.00  0.00     0.268 C 
ATOM      5  O   UNL A   1      34.114  25.541  22.013  1.00  0.00    -0.268 OA
ATOM      6  H   UNL A   1      33.671  27.316  23.419  1.00  0.00     0.163 HD
BRANCH   4   7
ATOM      7  C   UNL A   1      34.402  24.064  23.851  1.00  0.00     0.117 A 
ATOM      8  C   UNL A   1      35.412  23.640  24.740  1.00  0.00     0.045 A 
ATOM      9  C   UNL A   1      35.473  22.214  24.616  1.00  0.00     0.009 A 
ATOM     10  N   UNL A   1      33.550  22.931  23.774  1.00  0.00    -0.331 N 
ATOM     11  C   UNL A   1      34.203  21.802  24.251  1.00  0.00     0.049 A 
ATOM     12  C   UNL A   1      36.442  21.246  24.959  1.00  0.00     0.011 A 
ATOM     13  C   UNL A   1      33.807  20.464  24.428  1.00  0.00     0.027 A 
ATOM     14  C   UNL A   1      36.099  19.894  24.963  1.00  0.00     0.001 A 
ATOM     15  C   UNL A   1      34.783  19.514  24.746  1.00  0.00     0.002 A 
BRANCH   8  16
ATOM     16  C   UNL A   1      36.346  24.312  25.704  1.00  0.00     0.300 C 
BRANCH  16  17
ATOM     17  N   UNL A   1      37.742  23.910  25.679  1.00  0.00    -0.340 N 
ATOM     18  H   UNL A   1      37.749  22.948  25.340  1.00  0.00     0.346 HD
ATOM     19  H   UNL A   1      38.154  24.658  25.119  1.00  0.00     0.346 HD
BRANCH  17  20
ATOM     20  C   UNL A   1      38.609  23.925  26.857  1.00  0.00     0.182 C 
ATOM     21  C   UNL A   1      42.620  23.629  28.715  1.00  0.00     0.007 C 
ATOM     22  C   UNL A   1      41.454  23.792  27.751  1.00  0.00    -0.014 C 
ATOM     23  C   UNL A   1      40.550  24.965  28.143  1.00  0.00     0.009 C 
ATOM     24  C   UNL A   1      40.615  22.518  27.681  1.00  0.00     0.009 C 
ATOM     25  C   UNL A   1      39.472  25.170  27.080  1.00  0.00     0.065 C 
ATOM     26  C   UNL A   1      39.501  22.678  26.660  1.00  0.00     0.065 C 
ENDBRANCH  17  20
ENDBRANCH  16  17
ENDBRANCH   8  16
BRANCH  10  27
ATOM     27  C   UNL A   1      32.122  22.916  23.405  1.00  0.00     0.161 C 
BRANCH  27  28
ATOM     28  C   UNL A   1      31.229  23.821  24.224  1.00  0.00     0.008 A 
ATOM     29  C   UNL A   1      31.040  23.651  25.607  1.00  0.00     0.008 A 
ATOM     30  C   UNL A   1      30.635  24.942  23.640  1.00  0.00     0.128 A 
ATOM     31  C   UNL A   1      30.270  24.541  26.361  1.00  0.00     0.001 A 
ATOM     32  C   UNL A   1      29.851  25.830  24.381  1.00  0.00     0.039 A 
ATOM     33  F   UNL A   1      30.847  25.223  22.348  1.00  0.00    -0.207 F 
ATOM     34  C   UNL A   1      29.664  25.628  25.746  1.00  0.00     0.003 A 
ENDBRANCH  27  28
ENDBRANCH  10  27
ENDBRANCH   4   7
ENDBRANCH   2   3
ENDBRANCH   1   2
BRANCH   1  35
ATOM     35  C   UNL A   1      33.255  29.170  26.094  1.00  0.00     0.023 C 
BRANCH  35  36
ATOM     36  C   UNL A   1      33.407  29.638  27.548  1.00  0.00     0.116 C 
BRANCH  36  37
ATOM     37  N   UNL A   1      33.810  31.013  27.790  1.00  0.00    -0.352 N 
ATOM     38  C   UNL A   1      35.044  31.615  27.816  1.00  0.00     0.251 C 
ATOM     39  H   UNL A   1      33.061  31.625  27.968  1.00  0.00     0.163 HD
ATOM     40  O   UNL A   1      35.110  32.812  27.527  1.00  0.00    -0.269 OA
BRANCH  38  41
ATOM     41  C   UNL A   1      36.251  30.934  28.344  1.00  0.00     0.039 A 
ATOM     42  C   UNL A   1      37.229  31.567  29.103  1.00  0.00     0.014 A 
ATOM     43  C   UNL A   1      36.463  29.609  27.921  1.00  0.00     0.014 A 
ATOM     44  C   UNL A   1      38.472  30.982  29.252  1.00  0.00     0.010 A 
ATOM     45  C   UNL A   1      37.695  28.993  28.118  1.00  0.00     0.010 A 
ATOM     46  C   UNL A   1      38.722  29.717  28.715  1.00  0.00    -0.014 A 
BRANCH  46  47
ATOM     47  C   UNL A   1      40.079  29.212  28.883  1.00  0.00     0.031 A 
ATOM     48  C   UNL A   1      40.483  28.913  30.286  1.00  0.00     0.074 A 
ATOM     49  C   UNL A   1      40.923  28.975  27.862  1.00  0.00     0.049 A 
ATOM     50  N   UNL A   1      41.484  29.383  30.960  1.00  0.00    -0.248 NA
ATOM     51  C   UNL A   1      39.596  28.029  31.056  1.00  0.00     0.031 C 
ATOM     52  C   UNL A   1      40.621  28.908  26.432  1.00  0.00     0.029 A 
ATOM     53  N   UNL A   1      42.237  28.620  27.926  1.00  0.00    -0.354 N 
ATOM     54  C   UNL A   1      41.436  28.758  32.205  1.00  0.00     0.074 A 
ATOM     55  C   UNL A   1      40.202  28.012  32.241  1.00  0.00     0.031 C 
ATOM     56  C   UNL A   1      41.645  28.293  25.799  1.00  0.00     0.029 A 
ATOM     57  C   UNL A   1      42.717  28.059  26.755  1.00  0.00     0.049 A 
ATOM     58  H   UNL A   1      42.793  28.751  28.727  1.00  0.00     0.167 HD
ATOM     59  C   UNL A   1      42.480  28.767  33.078  1.00  0.00     0.031 A 
ATOM     60  C   UNL A   1      43.867  27.359  26.619  1.00  0.00     0.031 A 
ATOM     61  C   UNL A   1      43.409  29.828  32.811  1.00  0.00     0.049 A 
ATOM     62  C   UNL A   1      44.742  27.670  27.772  1.00  0.00     0.074 A 
ATOM     63  C   UNL A   1      43.331  31.206  32.811  1.00  0.00     0.029 A 
ATOM     64  N   UNL A   1      44.588  29.520  32.182  1.00  0.00    -0.354 N 
ATOM     65  N   UNL A   1      45.329  28.815  27.963  1.00  0.00    -0.248 NA
ATOM     66  C   UNL A   1      44.688  26.795  28.932  1.00  0.00     0.031 C 
ATOM     67  C   UNL A   1      44.215  31.627  31.776  1.00  0.00     0.029 A 
ATOM     68  C   UNL A   1      44.795  30.482  31.228  1.00  0.00     0.049 A 
ATOM     69  H   UNL A   1      45.175  28.754  32.379  1.00  0.00     0.167 HD
ATOM     70  C   UNL A   1      45.354  28.979  29.341  1.00  0.00     0.074 A 
ATOM     71  C   UNL A   1      45.057  27.656  29.881  1.00  0.00     0.031 C 
ATOM     72  C   UNL A   1      45.337  30.219  29.912  1.00  0.00     0.031 A 
BRANCH  59  73
ATOM     73  C   UNL A   1      42.805  27.617  33.999  1.00  0.00    -0.014 A 
ATOM     74  C   UNL A   1      42.288  27.500  35.303  1.00  0.00     0.009 A 
ATOM     75  C   UNL A   1      43.442  26.476  33.474  1.00  0.00     0.009 A 
ATOM     76  C   UNL A   1      42.389  26.318  36.042  1.00  0.00     0.001 A 
ATOM     77  C   UNL A   1      43.502  25.275  34.192  1.00  0.00     0.001 A 
ATOM     78  C   UNL A   1      42.972  25.195  35.475  1.00  0.00     0.000 A 
ENDBRANCH  59  73
BRANCH  60  79
ATOM     79  C   UNL A   1      44.104  26.179  25.759  1.00  0.00    -0.014 A 
ATOM     80  C   UNL A   1      43.036  25.344  25.382  1.00  0.00     0.009 A 
ATOM     81  C   UNL A   1      45.409  25.712  25.544  1.00  0.00     0.009 A 
ATOM     82  C   UNL A   1      43.262  24.074  24.843  1.00  0.00     0.001 A 
ATOM     83  C   UNL A   1      45.635  24.436  25.015  1.00  0.00     0.001 A 
ATOM     84  C   UNL A   1      44.563  23.613  24.678  1.00  0.00     0.000 A 
ENDBRANCH  60  79
BRANCH  72  85
ATOM     85  C   UNL A   1      45.579  31.428  29.039  1.00  0.00    -0.014 A 
ATOM     86  C   UNL A   1      46.819  32.083  29.131  1.00  0.00     0.009 A 
ATOM     87  C   UNL A   1      44.565  32.035  28.279  1.00  0.00     0.009 A 
ATOM     88  C   UNL A   1      47.036  33.306  28.492  1.00  0.00     0.001 A 
ATOM     89  C   UNL A   1      44.790  33.246  27.617  1.00  0.00     0.001 A 
ATOM     90  C   UNL A   1      46.022  33.886  27.732  1.00  0.00     0.000 A 
ENDBRANCH  72  85
ENDBRANCH  46  47
ENDBRANCH  38  41
ENDBRANCH  36  37
ENDBRANCH  35  36
ENDBRANCH   1  35
TORSDOF 16
ENDMDL
MODEL 3
REMARK VINA RESULT:     -12.7      1.784      2.905
REMARK SMILES C[C@H]1CC[C@H]([NH2+]Cc2c(C(=O)NCCCCNC(=O)c3ccc(-c4c5nc(c(-c6ccccc6)c6ccc([nH]6)c(-c6ccccc6)c6nc(c(-c7ccccc7)c7ccc4[nH]7)C=C6)C=C5)cc3)n(Cc3ccccc3F)c3ccccc23)CC1
REMARK SMILES IDX 14 1 13 2 12 3 10 4 11 5 9 7 8 8 82 9 68 10 77 11 81 12
REMARK SMILES IDX 78 13 80 14 79 15 7 16 6 17 5 20 1 21 2 22 3 23 84 24 4 25
REMARK SMILES IDX 83 26 69 27 70 28 71 29 75 30 72 31 74 32 76 33 73 34 15 35
REMARK SMILES IDX 16 36 17 37 18 38 19 40 20 41 21 42 67 43 22 44 66 45 23 46
REMARK SMILES IDX 24 47 25 48 60 49 26 50 65 51 59 52 61 53 27 54 64 55 58 56
REMARK SMILES IDX 57 57 28 59 50 60 35 61 49 62 36 63 39 64 48 65 62 66 37 67
REMARK SMILES IDX 38 68 47 70 63 71 40 72 29 73 30 74 34 75 31 76 33 77 32 78
REMARK SMILES IDX 51 79 52 80 56 81 53 82 55 83 54 84 41 85 42 86 46 87 43 88
REMARK SMILES IDX 45 89 44 90
REMARK H PARENT 12 6 6 18 6 19 17 39 61 58 39 69
REMARK Flexibility Score: inf
ROOT
ATOM      1  C   UNL A   1      35.289  29.270  27.652  1.00  0.00     0.023 C 
ENDROOT
BRANCH   1   2
ATOM      2  C   UNL A   1      34.075  29.102  26.745  1.00  0.00     0.116 C 
BRANCH   2   3
ATOM      3  N   UNL A   1      32.818  28.794  27.383  1.00  0.00    -0.351 N 
ATOM      4  C   UNL A   1      31.818  27.939  26.985  1.00  0.00     0.268 C 
ATOM      5  O   UNL A   1      30.867  27.874  27.791  1.00  0.00    -0.268 OA
ATOM      6  H   UNL A   1      32.653  29.266  28.230  1.00  0.00     0.163 HD
BRANCH   4   7
ATOM      7  C   UNL A   1      31.800  27.213  25.709  1.00  0.00     0.117 A 
ATOM      8  C   UNL A   1      31.545  25.867  25.373  1.00  0.00     0.045 A 
ATOM      9  C   UNL A   1      32.096  25.676  24.065  1.00  0.00     0.009 A 
ATOM     10  N   UNL A   1      31.868  27.850  24.442  1.00  0.00    -0.331 N 
ATOM     11  C   UNL A   1      32.040  26.907  23.437  1.00  0.00     0.049 A 
ATOM     12  C   UNL A   1      32.461  24.535  23.318  1.00  0.00     0.011 A 
ATOM     13  C   UNL A   1      32.125  27.000  22.036  1.00  0.00     0.027 A 
ATOM     14  C   UNL A   1      32.721  24.655  21.953  1.00  0.00     0.001 A 
ATOM     15  C   UNL A   1      32.508  25.867  21.312  1.00  0.00     0.002 A 
BRANCH   8  16
ATOM     16  C   UNL A   1      30.871  24.703  26.040  1.00  0.00     0.300 C 
BRANCH  16  17
ATOM     17  N   UNL A   1      31.522  24.126  27.204  1.00  0.00    -0.340 N 
ATOM     18  H   UNL A   1      31.905  24.914  27.728  1.00  0.00     0.346 HD
ATOM     19  H   UNL A   1      30.765  23.564  27.596  1.00  0.00     0.346 HD
BRANCH  17  20
ATOM     20  C   UNL A   1      32.598  23.139  27.124  1.00  0.00     0.182 C 
ATOM     21  C   UNL A   1      35.321  20.565  24.761  1.00  0.00     0.007 C 
ATOM     22  C   UNL A   1      34.346  21.634  25.228  1.00  0.00    -0.014 C 
ATOM     23  C   UNL A   1      34.940  22.501  26.343  1.00  0.00     0.009 C 
ATOM     24  C   UNL A   1      33.041  21.012  25.723  1.00  0.00     0.009 C 
ATOM     25  C   UNL A   1      33.979  23.637  26.689  1.00  0.00     0.065 C 
ATOM     26  C   UNL A   1      32.056  22.101  26.116  1.00  0.00     0.065 C 
ENDBRANCH  17  20
ENDBRANCH  16  17
ENDBRANCH   8  16
BRANCH  10  27
ATOM     27  C   UNL A   1      31.637  29.277  24.151  1.00  0.00     0.161 C 
BRANCH  27  28
ATOM     28  C   UNL A   1      30.222  29.638  23.753  1.00  0.00     0.008 A 
ATOM     29  C   UNL A   1      29.357  28.729  23.120  1.00  0.00     0.008 A 
ATOM     30  C   UNL A   1      29.686  30.879  24.104  1.00  0.00     0.128 A 
ATOM     31  C   UNL A   1      28.030  29.057  22.826  1.00  0.00     0.001 A 
ATOM     32  C   UNL A   1      28.366  31.223  23.802  1.00  0.00     0.039 A 
ATOM     33  F   UNL A   1      30.421  31.762  24.792  1.00  0.00    -0.207 F 
ATOM     34  C   UNL A   1      27.535  30.310  23.158  1.00  0.00     0.003 A 
ENDBRANCH  27  28
ENDBRANCH  10  27
ENDBRANCH   4   7
ENDBRANCH   2   3
ENDBRANCH   1   2
BRANCH   1  35
ATOM     35  C   UNL A   1      35.967  30.653  27.658  1.00  0.00     0.023 C 
BRANCH  35  36
ATOM     36  C   UNL A   1      35.121  31.875  28.042  1.00  0.00     0.116 C 
BRANCH  36  37
ATOM     37  N   UNL A   1      34.690  32.008  29.423  1.00  0.00    -0.352 N 
ATOM     38  C   UNL A   1      35.393  32.065  30.601  1.00  0.00     0.251 C 
ATOM     39  H   UNL A   1      33.714  32.067  29.534  1.00  0.00     0.163 HD
ATOM     40  O   UNL A   1      34.890  32.679  31.545  1.00  0.00    -0.269 OA
BRANCH  38  41
ATOM     41  C   UNL A   1      36.628  31.279  30.830  1.00  0.00     0.039 A 
ATOM     42  C   UNL A   1      37.910  31.763  30.599  1.00  0.00     0.014 A 
ATOM     43  C   UNL A   1      36.459  29.923  31.168  1.00  0.00     0.014 A 
ATOM     44  C   UNL A   1      38.971  30.884  30.490  1.00  0.00     0.010 A 
ATOM     45  C   UNL A   1      37.535  29.042  31.115  1.00  0.00     0.010 A 
ATOM     46  C   UNL A   1      38.774  29.517  30.696  1.00  0.00    -0.014 A 
BRANCH  46  47
ATOM     47  C   UNL A   1      39.944  28.669  30.507  1.00  0.00     0.031 A 
ATOM     48  C   UNL A   1      40.777  28.446  31.722  1.00  0.00     0.074 A 
ATOM     49  C   UNL A   1      40.260  28.075  29.342  1.00  0.00     0.049 A 
ATOM     50  N   UNL A   1      42.037  28.690  31.899  1.00  0.00    -0.248 NA
ATOM     51  C   UNL A   1      40.081  27.957  32.921  1.00  0.00     0.031 C 
ATOM     52  C   UNL A   1      39.428  27.918  28.148  1.00  0.00     0.029 A 
ATOM     53  N   UNL A   1      41.386  27.370  29.038  1.00  0.00    -0.354 N 
ATOM     54  C   UNL A   1      42.331  28.266  33.195  1.00  0.00     0.074 A 
ATOM     55  C   UNL A   1      41.073  27.916  33.807  1.00  0.00     0.031 C 
ATOM     56  C   UNL A   1      39.971  26.961  27.362  1.00  0.00     0.029 A 
ATOM     57  C   UNL A   1      41.246  26.553  27.930  1.00  0.00     0.049 A 
ATOM     58  H   UNL A   1      42.220  27.436  29.556  1.00  0.00     0.167 HD
ATOM     59  C   UNL A   1      43.604  28.086  33.642  1.00  0.00     0.031 A 
ATOM     60  C   UNL A   1      42.072  25.542  27.575  1.00  0.00     0.031 A 
ATOM     61  C   UNL A   1      44.569  28.795  32.851  1.00  0.00     0.049 A 
ATOM     62  C   UNL A   1      43.367  25.731  28.269  1.00  0.00     0.074 A 
ATOM     63  C   UNL A   1      44.803  30.126  32.571  1.00  0.00     0.029 A 
ATOM     64  N   UNL A   1      45.320  28.085  31.948  1.00  0.00    -0.354 N 
ATOM     65  N   UNL A   1      44.219  26.675  27.993  1.00  0.00    -0.248 NA
ATOM     66  C   UNL A   1      43.569  25.061  29.543  1.00  0.00     0.031 C 
ATOM     67  C   UNL A   1      45.293  30.143  31.234  1.00  0.00     0.029 A 
ATOM     68  C   UNL A   1      45.353  28.820  30.792  1.00  0.00     0.049 A 
ATOM     69  H   UNL A   1      45.753  27.215  32.102  1.00  0.00     0.167 HD
ATOM     70  C   UNL A   1      44.803  26.996  29.210  1.00  0.00     0.074 A 
ATOM     71  C   UNL A   1      44.452  25.892  30.098  1.00  0.00     0.031 C 
ATOM     72  C   UNL A   1      45.280  28.250  29.464  1.00  0.00     0.031 A 
BRANCH  59  73
ATOM     73  C   UNL A   1      43.994  27.015  34.632  1.00  0.00    -0.014 A 
ATOM     74  C   UNL A   1      44.118  27.248  36.014  1.00  0.00     0.009 A 
ATOM     75  C   UNL A   1      43.994  25.669  34.222  1.00  0.00     0.009 A 
ATOM     76  C   UNL A   1      44.226  26.206  36.939  1.00  0.00     0.001 A 
ATOM     77  C   UNL A   1      44.053  24.621  35.149  1.00  0.00     0.001 A 
ATOM     78  C   UNL A   1      44.166  24.890  36.509  1.00  0.00     0.000 A 
ENDBRANCH  59  73
BRANCH  60  79
ATOM     79  C   UNL A   1      41.698  24.245  26.970  1.00  0.00    -0.014 A 
ATOM     80  C   UNL A   1      40.673  23.463  27.535  1.00  0.00     0.009 A 
ATOM     81  C   UNL A   1      42.529  23.644  26.015  1.00  0.00     0.009 A 
ATOM     82  C   UNL A   1      40.508  22.120  27.185  1.00  0.00     0.001 A 
ATOM     83  C   UNL A   1      42.371  22.296  25.672  1.00  0.00     0.001 A 
ATOM     84  C   UNL A   1      41.371  21.531  26.268  1.00  0.00     0.000 A 
ENDBRANCH  60  79
BRANCH  72  85
ATOM     85  C   UNL A   1      45.429  29.220  28.315  1.00  0.00    -0.014 A 
ATOM     86  C   UNL A   1      46.714  29.446  27.793  1.00  0.00     0.009 A 
ATOM     87  C   UNL A   1      44.379  30.040  27.867  1.00  0.00     0.009 A 
ATOM     88  C   UNL A   1      46.944  30.462  26.861  1.00  0.00     0.001 A 
ATOM     89  C   UNL A   1      44.603  31.038  26.914  1.00  0.00     0.001 A 
ATOM     90  C   UNL A   1      45.887  31.255  26.419  1.00  0.00     0.000 A 
ENDBRANCH  72  85
ENDBRANCH  46  47
ENDBRANCH  38  41
ENDBRANCH  36  37
ENDBRANCH  35  36
ENDBRANCH   1  35
TORSDOF 16
ENDMDL
