MODEL 1
REMARK VINA RESULT:     -10.0      0.000      0.000
REMARK SMILES O=C(/C=C/C(=O)NNC(=O)CSc1ccc2ccccc2n1)NCCCCNC(=O)c1ccc(-c2c3nc(c(-c4ccccc4)c4ccc([nH]4)c(-c4ccccc4)c4nc(c(-c5ccccc5)c5ccc2[nH]5)C=C4)C=C3)cc1
REMARK SMILES IDX 24 1 23 2 1 3 2 4 3 6 4 7 5 8 6 9 7 10 8 12 9 13 10 15 11 16
REMARK SMILES IDX 12 17 13 18 14 19 22 20 15 21 21 22 16 23 20 24 17 25 19 26
REMARK SMILES IDX 18 27 25 28 26 29 27 30 28 31 29 32 30 34 31 35 32 36 78 37
REMARK SMILES IDX 33 38 77 39 34 40 35 41 36 42 71 43 37 44 76 45 70 46 72 47
REMARK SMILES IDX 38 48 75 49 69 50 68 51 39 53 61 54 46 55 60 56 47 57 50 58
REMARK SMILES IDX 59 59 73 60 48 61 49 62 58 64 74 65 51 66 40 67 41 68 45 69
REMARK SMILES IDX 42 70 44 71 43 72 62 73 63 74 67 75 64 76 66 77 65 78 52 79
REMARK SMILES IDX 53 80 57 81 54 82 56 83 55 84
REMARK H PARENT 23 5 7 11 8 14 28 33 72 52 50 63
REMARK Flexibility Score: inf
ROOT
ATOM      1  C   UNL A   1      32.985  35.558  30.404  1.00  0.00     0.116 C 
ENDROOT
BRANCH   1   2
ATOM      2  N   UNL A   1      34.117  35.625  31.312  1.00  0.00    -0.353 N 
ATOM      3  O   UNL A   1      33.274  34.107  32.822  1.00  0.00    -0.270 OA
ATOM      4  C   UNL A   1      34.165  34.859  32.450  1.00  0.00     0.244 C 
ATOM      5  H   UNL A   1      34.866  36.230  31.107  1.00  0.00     0.163 HD
BRANCH   4   6
ATOM      6  C   UNL A   1      35.428  34.908  33.224  1.00  0.00     0.077 C 
ATOM      7  C   UNL A   1      36.325  33.916  33.236  1.00  0.00     0.078 C 
BRANCH   7   8
ATOM      8  C   UNL A   1      37.626  33.937  33.952  1.00  0.00     0.262 C 
ATOM      9  O   UNL A   1      38.142  35.032  34.176  1.00  0.00    -0.268 OA
ATOM     10  N   UNL A   1      38.208  32.794  34.431  1.00  0.00    -0.264 N 
ATOM     11  H   UNL A   1      39.039  32.903  34.949  1.00  0.00     0.191 HD
BRANCH  10  12
ATOM     12  N   UNL A   1      37.747  31.494  34.261  1.00  0.00    -0.267 N 
ATOM     13  C   UNL A   1      38.522  30.424  33.870  1.00  0.00     0.248 C 
ATOM     14  H   UNL A   1      36.793  31.323  34.435  1.00  0.00     0.191 HD
ATOM     15  O   UNL A   1      37.947  29.371  33.581  1.00  0.00    -0.272 OA
BRANCH  13  16
ATOM     16  C   UNL A   1      40.038  30.493  33.941  1.00  0.00     0.178 C 
BRANCH  16  17
ATOM     17  S   UNL A   1      40.752  29.913  35.500  1.00  0.00    -0.096 SA
BRANCH  17  18
ATOM     18  C   UNL A   1      41.650  28.489  34.922  1.00  0.00     0.097 A 
ATOM     19  C   UNL A   1      42.754  28.690  34.110  1.00  0.00     0.036 A 
ATOM     20  N   UNL A   1      41.277  27.277  35.386  1.00  0.00    -0.241 NA
ATOM     21  C   UNL A   1      43.523  27.591  33.756  1.00  0.00     0.013 A 
ATOM     22  C   UNL A   1      42.036  26.211  35.057  1.00  0.00     0.072 A 
ATOM     23  C   UNL A   1      43.182  26.324  34.239  1.00  0.00     0.000 A 
ATOM     24  C   UNL A   1      41.714  24.947  35.542  1.00  0.00     0.029 A 
ATOM     25  C   UNL A   1      43.963  25.196  33.936  1.00  0.00     0.010 A 
ATOM     26  C   UNL A   1      42.493  23.821  35.248  1.00  0.00     0.002 A 
ATOM     27  C   UNL A   1      43.620  23.946  34.445  1.00  0.00     0.001 A 
ENDBRANCH  17  18
ENDBRANCH  16  17
ENDBRANCH  13  16
ENDBRANCH  10  12
ENDBRANCH   7   8
ENDBRANCH   4   6
ENDBRANCH   1   2
BRANCH   1  28
ATOM     28  C   UNL A   1      33.300  34.818  29.105  1.00  0.00     0.023 C 
BRANCH  28  29
ATOM     29  C   UNL A   1      34.787  34.691  28.773  1.00  0.00     0.023 C 
BRANCH  29  30
ATOM     30  C   UNL A   1      35.336  33.268  28.733  1.00  0.00     0.116 C 
BRANCH  30  31
ATOM     31  N   UNL A   1      34.352  32.284  28.316  1.00  0.00    -0.352 N 
ATOM     32  C   UNL A   1      34.515  30.941  28.062  1.00  0.00     0.251 C 
ATOM     33  H   UNL A   1      33.436  32.627  28.198  1.00  0.00     0.163 HD
ATOM     34  O   UNL A   1      33.594  30.285  27.594  1.00  0.00    -0.269 OA
BRANCH  32  35
ATOM     35  C   UNL A   1      35.821  30.293  28.324  1.00  0.00     0.039 A 
ATOM     36  C   UNL A   1      36.766  30.242  27.294  1.00  0.00     0.014 A 
ATOM     37  C   UNL A   1      36.121  29.749  29.575  1.00  0.00     0.014 A 
ATOM     38  C   UNL A   1      38.034  29.713  27.543  1.00  0.00     0.010 A 
ATOM     39  C   UNL A   1      37.409  29.295  29.843  1.00  0.00     0.010 A 
ATOM     40  C   UNL A   1      38.381  29.273  28.830  1.00  0.00    -0.014 A 
BRANCH  40  41
ATOM     41  C   UNL A   1      39.756  28.799  29.139  1.00  0.00     0.031 A 
ATOM     42  C   UNL A   1      40.738  29.710  29.824  1.00  0.00     0.074 A 
ATOM     43  C   UNL A   1      40.142  27.569  28.748  1.00  0.00     0.049 A 
ATOM     44  N   UNL A   1      41.993  29.491  30.129  1.00  0.00    -0.248 NA
ATOM     45  C   UNL A   1      40.256  31.050  30.194  1.00  0.00     0.031 C 
ATOM     46  C   UNL A   1      39.300  26.597  28.044  1.00  0.00     0.029 A 
ATOM     47  N   UNL A   1      41.348  26.924  28.883  1.00  0.00    -0.354 N 
ATOM     48  C   UNL A   1      42.452  30.668  30.708  1.00  0.00     0.074 A 
ATOM     49  C   UNL A   1      41.358  31.614  30.668  1.00  0.00     0.031 C 
ATOM     50  C   UNL A   1      40.003  25.472  27.841  1.00  0.00     0.029 A 
ATOM     51  C   UNL A   1      41.357  25.655  28.354  1.00  0.00     0.049 A 
ATOM     52  H   UNL A   1      42.131  27.332  29.318  1.00  0.00     0.167 HD
ATOM     53  C   UNL A   1      43.668  30.933  31.244  1.00  0.00     0.031 A 
ATOM     54  C   UNL A   1      42.345  24.743  28.283  1.00  0.00     0.031 A 
ATOM     55  C   UNL A   1      44.755  29.991  31.292  1.00  0.00     0.049 A 
ATOM     56  C   UNL A   1      43.695  25.075  28.857  1.00  0.00     0.074 A 
ATOM     57  C   UNL A   1      46.005  30.148  31.866  1.00  0.00     0.029 A 
ATOM     58  N   UNL A   1      44.725  28.720  30.739  1.00  0.00    -0.354 N 
ATOM     59  N   UNL A   1      44.088  26.165  29.468  1.00  0.00    -0.248 NA
ATOM     60  C   UNL A   1      44.734  24.042  28.740  1.00  0.00     0.031 C 
ATOM     61  C   UNL A   1      46.752  28.996  31.605  1.00  0.00     0.029 A 
ATOM     62  C   UNL A   1      45.946  28.095  30.929  1.00  0.00     0.049 A 
ATOM     63  H   UNL A   1      43.951  28.322  30.278  1.00  0.00     0.167 HD
ATOM     64  C   UNL A   1      45.408  25.938  29.836  1.00  0.00     0.074 A 
ATOM     65  C   UNL A   1      45.742  24.599  29.395  1.00  0.00     0.031 C 
ATOM     66  C   UNL A   1      46.266  26.763  30.485  1.00  0.00     0.031 A 
BRANCH  53  67
ATOM     67  C   UNL A   1      43.893  32.308  31.811  1.00  0.00    -0.014 A 
ATOM     68  C   UNL A   1      44.376  33.358  31.013  1.00  0.00     0.009 A 
ATOM     69  C   UNL A   1      43.579  32.568  33.154  1.00  0.00     0.009 A 
ATOM     70  C   UNL A   1      44.574  34.629  31.558  1.00  0.00     0.001 A 
ATOM     71  C   UNL A   1      43.747  33.847  33.688  1.00  0.00     0.001 A 
ATOM     72  C   UNL A   1      44.254  34.874  32.893  1.00  0.00     0.000 A 
ENDBRANCH  53  67
BRANCH  54  73
ATOM     73  C   UNL A   1      42.098  23.418  27.651  1.00  0.00    -0.014 A 
ATOM     74  C   UNL A   1      42.422  23.202  26.304  1.00  0.00     0.009 A 
ATOM     75  C   UNL A   1      41.520  22.371  28.386  1.00  0.00     0.009 A 
ATOM     76  C   UNL A   1      42.143  21.975  25.695  1.00  0.00     0.001 A 
ATOM     77  C   UNL A   1      41.273  21.135  27.784  1.00  0.00     0.001 A 
ATOM     78  C   UNL A   1      41.572  20.942  26.436  1.00  0.00     0.000 A 
ENDBRANCH  54  73
BRANCH  66  79
ATOM     79  C   UNL A   1      47.636  26.227  30.797  1.00  0.00    -0.014 A 
ATOM     80  C   UNL A   1      48.670  26.258  29.847  1.00  0.00     0.009 A 
ATOM     81  C   UNL A   1      47.907  25.719  32.077  1.00  0.00     0.009 A 
ATOM     82  C   UNL A   1      49.935  25.757  30.163  1.00  0.00     0.001 A 
ATOM     83  C   UNL A   1      49.181  25.251  32.401  1.00  0.00     0.001 A 
ATOM     84  C   UNL A   1      50.190  25.261  31.440  1.00  0.00     0.000 A 
ENDBRANCH  66  79
ENDBRANCH  40  41
ENDBRANCH  32  35
ENDBRANCH  30  31
ENDBRANCH  29  30
ENDBRANCH  28  29
ENDBRANCH   1  28
TORSDOF 16
ENDMDL
MODEL 2
REMARK VINA RESULT:      -9.9      4.884     10.960
REMARK SMILES O=C(/C=C/C(=O)NNC(=O)CSc1ccc2ccccc2n1)NCCCCNC(=O)c1ccc(-c2c3nc(c(-c4ccccc4)c4ccc([nH]4)c(-c4ccccc4)c4nc(c(-c5ccccc5)c5ccc2[nH]5)C=C4)C=C3)cc1
REMARK SMILES IDX 24 1 23 2 1 3 2 4 3 6 4 7 5 8 6 9 7 10 8 12 9 13 10 15 11 16
REMARK SMILES IDX 12 17 13 18 14 19 22 20 15 21 21 22 16 23 20 24 17 25 19 26
REMARK SMILES IDX 18 27 25 28 26 29 27 30 28 31 29 32 30 34 31 35 32 36 78 37
REMARK SMILES IDX 33 38 77 39 34 40 35 41 36 42 71 43 37 44 76 45 70 46 72 47
REMARK SMILES IDX 38 48 75 49 69 50 68 51 39 53 61 54 46 55 60 56 47 57 50 58
REMARK SMILES IDX 59 59 73 60 48 61 49 62 58 64 74 65 51 66 40 67 41 68 45 69
REMARK SMILES IDX 42 70 44 71 43 72 62 73 63 74 67 75 64 76 66 77 65 78 52 79
REMARK SMILES IDX 53 80 57 81 54 82 56 83 55 84
REMARK H PARENT 23 5 7 11 8 14 28 33 72 52 50 63
REMARK Flexibility Score: inf
ROOT
ATOM      1  C   UNL A   1      45.200  19.894  23.514  1.00  0.00     0.116 C 
ENDROOT
BRANCH   1   2
ATOM      2  N   UNL A   1      45.942  20.815  24.358  1.00  0.00    -0.353 N 
ATOM      3  O   UNL A   1      44.807  22.696  23.676  1.00  0.00    -0.270 OA
ATOM      4  C   UNL A   1      45.654  22.156  24.375  1.00  0.00     0.244 C 
ATOM      5  H   UNL A   1      46.665  20.470  24.930  1.00  0.00     0.163 HD
BRANCH   4   6
ATOM      6  C   UNL A   1      46.382  22.973  25.375  1.00  0.00     0.077 C 
ATOM      7  C   UNL A   1      47.158  24.014  25.053  1.00  0.00     0.078 C 
BRANCH   7   8
ATOM      8  C   UNL A   1      47.865  24.894  26.017  1.00  0.00     0.262 C 
ATOM      9  O   UNL A   1      48.248  24.397  27.076  1.00  0.00    -0.268 OA
ATOM     10  N   UNL A   1      48.167  26.197  25.722  1.00  0.00    -0.264 N 
ATOM     11  H   UNL A   1      48.693  26.692  26.392  1.00  0.00     0.191 HD
BRANCH  10  12
ATOM     12  N   UNL A   1      47.807  26.894  24.575  1.00  0.00    -0.267 N 
ATOM     13  C   UNL A   1      46.738  27.756  24.475  1.00  0.00     0.248 C 
ATOM     14  H   UNL A   1      48.360  26.761  23.771  1.00  0.00     0.191 HD
ATOM     15  O   UNL A   1      46.427  28.160  23.352  1.00  0.00    -0.272 OA
BRANCH  13  16
ATOM     16  C   UNL A   1      46.065  28.310  25.720  1.00  0.00     0.178 C 
BRANCH  16  17
ATOM     17  S   UNL A   1      47.081  29.455  26.686  1.00  0.00    -0.096 SA
BRANCH  17  18
ATOM     18  C   UNL A   1      46.057  30.909  26.625  1.00  0.00     0.097 A 
ATOM     19  C   UNL A   1      44.719  30.788  26.960  1.00  0.00     0.036 A 
ATOM     20  N   UNL A   1      46.654  32.090  26.354  1.00  0.00    -0.241 NA
ATOM     21  C   UNL A   1      43.948  31.941  27.027  1.00  0.00     0.013 A 
ATOM     22  C   UNL A   1      45.909  33.211  26.438  1.00  0.00     0.072 A 
ATOM     23  C   UNL A   1      44.539  33.183  26.778  1.00  0.00     0.000 A 
ATOM     24  C   UNL A   1      46.488  34.455  26.205  1.00  0.00     0.029 A 
ATOM     25  C   UNL A   1      43.798  34.373  26.880  1.00  0.00     0.010 A 
ATOM     26  C   UNL A   1      45.757  35.644  26.311  1.00  0.00     0.002 A 
ATOM     27  C   UNL A   1      44.409  35.603  26.650  1.00  0.00     0.001 A 
ENDBRANCH  17  18
ENDBRANCH  16  17
ENDBRANCH  13  16
ENDBRANCH  10  12
ENDBRANCH   7   8
ENDBRANCH   4   6
ENDBRANCH   1   2
BRANCH   1  28
ATOM     28  C   UNL A   1      44.060  19.192  24.250  1.00  0.00     0.023 C 
BRANCH  28  29
ATOM     29  C   UNL A   1      44.459  18.486  25.546  1.00  0.00     0.023 C 
BRANCH  29  30
ATOM     30  C   UNL A   1      43.394  18.458  26.637  1.00  0.00     0.116 C 
BRANCH  30  31
ATOM     31  N   UNL A   1      42.039  18.557  26.121  1.00  0.00    -0.352 N 
ATOM     32  C   UNL A   1      41.162  19.617  26.173  1.00  0.00     0.251 C 
ATOM     33  H   UNL A   1      41.700  17.752  25.668  1.00  0.00     0.163 HD
ATOM     34  O   UNL A   1      40.005  19.479  25.794  1.00  0.00    -0.269 OA
BRANCH  32  35
ATOM     35  C   UNL A   1      41.606  20.918  26.723  1.00  0.00     0.039 A 
ATOM     36  C   UNL A   1      42.151  21.866  25.852  1.00  0.00     0.014 A 
ATOM     37  C   UNL A   1      41.479  21.209  28.083  1.00  0.00     0.014 A 
ATOM     38  C   UNL A   1      42.498  23.131  26.333  1.00  0.00     0.010 A 
ATOM     39  C   UNL A   1      41.750  22.494  28.545  1.00  0.00     0.010 A 
ATOM     40  C   UNL A   1      42.262  23.470  27.675  1.00  0.00    -0.014 A 
BRANCH  40  41
ATOM     41  C   UNL A   1      42.531  24.841  28.183  1.00  0.00     0.031 A 
ATOM     42  C   UNL A   1      43.912  25.224  28.644  1.00  0.00     0.074 A 
ATOM     43  C   UNL A   1      41.520  25.725  28.286  1.00  0.00     0.049 A 
ATOM     44  N   UNL A   1      44.325  26.354  29.162  1.00  0.00    -0.248 NA
ATOM     45  C   UNL A   1      44.959  24.197  28.530  1.00  0.00     0.031 C 
ATOM     46  C   UNL A   1      40.127  25.473  27.907  1.00  0.00     0.029 A 
ATOM     47  N   UNL A   1      41.507  27.020  28.747  1.00  0.00    -0.354 N 
ATOM     48  C   UNL A   1      45.671  26.167  29.451  1.00  0.00     0.074 A 
ATOM     49  C   UNL A   1      45.994  24.801  29.097  1.00  0.00     0.031 C 
ATOM     50  C   UNL A   1      39.405  26.584  28.119  1.00  0.00     0.029 A 
ATOM     51  C   UNL A   1      40.268  27.612  28.692  1.00  0.00     0.049 A 
ATOM     52  H   UNL A   1      42.309  27.480  29.085  1.00  0.00     0.167 HD
ATOM     53  C   UNL A   1      46.565  27.055  29.948  1.00  0.00     0.031 A 
ATOM     54  C   UNL A   1      39.867  28.842  29.066  1.00  0.00     0.031 A 
ATOM     55  C   UNL A   1      46.248  28.416  30.293  1.00  0.00     0.049 A 
ATOM     56  C   UNL A   1      40.873  29.799  29.645  1.00  0.00     0.074 A 
ATOM     57  C   UNL A   1      47.099  29.409  30.748  1.00  0.00     0.029 A 
ATOM     58  N   UNL A   1      44.980  28.973  30.229  1.00  0.00    -0.354 N 
ATOM     59  N   UNL A   1      42.158  29.630  29.841  1.00  0.00    -0.248 NA
ATOM     60  C   UNL A   1      40.373  31.122  30.043  1.00  0.00     0.031 C 
ATOM     61  C   UNL A   1      46.334  30.547  31.020  1.00  0.00     0.029 A 
ATOM     62  C   UNL A   1      45.020  30.286  30.668  1.00  0.00     0.049 A 
ATOM     63  H   UNL A   1      44.172  28.505  29.918  1.00  0.00     0.167 HD
ATOM     64  C   UNL A   1      42.625  30.833  30.354  1.00  0.00     0.074 A 
ATOM     65  C   UNL A   1      41.488  31.729  30.422  1.00  0.00     0.031 C 
ATOM     66  C   UNL A   1      43.883  31.167  30.731  1.00  0.00     0.031 A 
BRANCH  53  67
ATOM     67  C   UNL A   1      47.976  26.578  30.163  1.00  0.00    -0.014 A 
ATOM     68  C   UNL A   1      48.335  25.853  31.310  1.00  0.00     0.009 A 
ATOM     69  C   UNL A   1      48.950  26.821  29.182  1.00  0.00     0.009 A 
ATOM     70  C   UNL A   1      49.650  25.414  31.488  1.00  0.00     0.001 A 
ATOM     71  C   UNL A   1      50.255  26.353  29.347  1.00  0.00     0.001 A 
ATOM     72  C   UNL A   1      50.607  25.660  30.505  1.00  0.00     0.000 A 
ENDBRANCH  53  67
BRANCH  54  73
ATOM     73  C   UNL A   1      38.446  29.251  28.899  1.00  0.00    -0.014 A 
ATOM     74  C   UNL A   1      37.984  29.728  27.664  1.00  0.00     0.009 A 
ATOM     75  C   UNL A   1      37.550  29.185  29.978  1.00  0.00     0.009 A 
ATOM     76  C   UNL A   1      36.663  30.161  27.519  1.00  0.00     0.001 A 
ATOM     77  C   UNL A   1      36.222  29.587  29.822  1.00  0.00     0.001 A 
ATOM     78  C   UNL A   1      35.783  30.087  28.597  1.00  0.00     0.000 A 
ENDBRANCH  54  73
BRANCH  66  79
ATOM     79  C   UNL A   1      44.108  32.574  31.213  1.00  0.00    -0.014 A 
ATOM     80  C   UNL A   1      43.939  32.925  32.562  1.00  0.00     0.009 A 
ATOM     81  C   UNL A   1      44.536  33.556  30.305  1.00  0.00     0.009 A 
ATOM     82  C   UNL A   1      44.158  34.238  32.983  1.00  0.00     0.001 A 
ATOM     83  C   UNL A   1      44.787  34.860  30.736  1.00  0.00     0.001 A 
ATOM     84  C   UNL A   1      44.588  35.202  32.072  1.00  0.00     0.000 A 
ENDBRANCH  66  79
ENDBRANCH  40  41
ENDBRANCH  32  35
ENDBRANCH  30  31
ENDBRANCH  29  30
ENDBRANCH  28  29
ENDBRANCH   1  28
TORSDOF 16
ENDMDL
MODEL 3
REMARK VINA RESULT:      -9.8      4.941     10.251
REMARK SMILES O=C(/C=C/C(=O)NNC(=O)CSc1ccc2ccccc2n1)NCCCCNC(=O)c1ccc(-c2c3nc(c(-c4ccccc4)c4ccc([nH]4)c(-c4ccccc4)c4nc(c(-c5ccccc5)c5ccc2[nH]5)C=C4)C=C3)cc1
REMARK SMILES IDX 24 1 23 2 1 3 2 4 3 6 4 7 5 8 6 9 7 10 8 12 9 13 10 15 11 16
REMARK SMILES IDX 12 17 13 18 14 19 22 20 15 21 21 22 16 23 20 24 17 25 19 26
REMARK SMILES IDX 18 27 25 28 26 29 27 30 28 31 29 32 30 34 31 35 32 36 78 37
REMARK SMILES IDX 33 38 77 39 34 40 35 41 36 42 71 43 37 44 76 45 70 46 72 47
REMARK SMILES IDX 38 48 75 49 69 50 68 51 39 53 61 54 46 55 60 56 47 57 50 58
REMARK SMILES IDX 59 59 73 60 48 61 49 62 58 64 74 65 51 66 40 67 41 68 45 69
REMARK SMILES IDX 42 70 44 71 43 72 62 73 63 74 67 75 64 76 66 77 65 78 52 79
REMARK SMILES IDX 53 80 57 81 54 82 56 83 55 84
REMARK H PARENT 23 5 7 11 8 14 28 33 72 52 50 63
REMARK Flexibility Score: inf
ROOT
ATOM      1  C   UNL A   1      32.575  29.905  26.584  1.00  0.00     0.116 C 
ENDROOT
BRANCH   1   2
ATOM      2  N   UNL A   1      33.047  28.923  25.622  1.00  0.00    -0.353 N 
ATOM      3  O   UNL A   1      32.797  27.114  27.021  1.00  0.00    -0.270 OA
ATOM      4  C   UNL A   1      33.093  27.588  25.932  1.00  0.00     0.244 C 
ATOM      5  H   UNL A   1      33.338  29.222  24.730  1.00  0.00     0.163 HD
BRANCH   4   6
ATOM      6  C   UNL A   1      33.459  26.668  24.828  1.00  0.00     0.077 C 
ATOM      7  C   UNL A   1      34.159  25.542  25.007  1.00  0.00     0.078 C 
BRANCH   7   8
ATOM      8  C   UNL A   1      34.505  24.563  23.946  1.00  0.00     0.262 C 
ATOM      9  O   UNL A   1      34.404  24.925  22.774  1.00  0.00    -0.268 OA
ATOM     10  N   UNL A   1      35.006  23.322  24.240  1.00  0.00    -0.264 N 
ATOM     11  H   UNL A   1      35.269  22.758  23.477  1.00  0.00     0.191 HD
BRANCH  10  12
ATOM     12  N   UNL A   1      35.179  22.776  25.506  1.00  0.00    -0.267 N 
ATOM     13  C   UNL A   1      34.765  21.519  25.889  1.00  0.00     0.248 C 
ATOM     14  H   UNL A   1      35.634  23.329  26.181  1.00  0.00     0.191 HD
ATOM     15  O   UNL A   1      34.818  21.236  27.089  1.00  0.00    -0.272 OA
BRANCH  13  16
ATOM     16  C   UNL A   1      34.404  20.468  24.853  1.00  0.00     0.178 C 
BRANCH  16  17
ATOM     17  S   UNL A   1      32.634  20.105  24.726  1.00  0.00    -0.096 SA
BRANCH  17  18
ATOM     18  C   UNL A   1      32.005  21.736  24.395  1.00  0.00     0.097 A 
ATOM     19  C   UNL A   1      31.855  22.131  23.076  1.00  0.00     0.036 A 
ATOM     20  N   UNL A   1      31.601  22.481  25.447  1.00  0.00    -0.241 NA
ATOM     21  C   UNL A   1      31.255  23.355  22.816  1.00  0.00     0.013 A 
ATOM     22  C   UNL A   1      31.000  23.663  25.193  1.00  0.00     0.072 A 
ATOM     23  C   UNL A   1      30.801  24.142  23.879  1.00  0.00     0.000 A 
ATOM     24  C   UNL A   1      30.533  24.448  26.242  1.00  0.00     0.029 A 
ATOM     25  C   UNL A   1      30.150  25.366  23.651  1.00  0.00     0.010 A 
ATOM     26  C   UNL A   1      29.878  25.666  26.020  1.00  0.00     0.002 A 
ATOM     27  C   UNL A   1      29.685  26.125  24.722  1.00  0.00     0.001 A 
ENDBRANCH  17  18
ENDBRANCH  16  17
ENDBRANCH  13  16
ENDBRANCH  10  12
ENDBRANCH   7   8
ENDBRANCH   4   6
ENDBRANCH   1   2
BRANCH   1  28
ATOM     28  C   UNL A   1      31.484  30.816  26.024  1.00  0.00     0.023 C 
BRANCH  28  29
ATOM     29  C   UNL A   1      31.307  32.146  26.757  1.00  0.00     0.023 C 
BRANCH  29  30
ATOM     30  C   UNL A   1      32.556  33.018  26.855  1.00  0.00     0.116 C 
BRANCH  30  31
ATOM     31  N   UNL A   1      32.373  34.192  27.691  1.00  0.00    -0.352 N 
ATOM     32  C   UNL A   1      33.131  34.633  28.752  1.00  0.00     0.251 C 
ATOM     33  H   UNL A   1      31.597  34.754  27.465  1.00  0.00     0.163 HD
ATOM     34  O   UNL A   1      32.754  35.583  29.426  1.00  0.00    -0.269 OA
BRANCH  32  35
ATOM     35  C   UNL A   1      34.389  33.935  29.102  1.00  0.00     0.039 A 
ATOM     36  C   UNL A   1      35.577  34.336  28.485  1.00  0.00     0.014 A 
ATOM     37  C   UNL A   1      34.404  32.899  30.040  1.00  0.00     0.014 A 
ATOM     38  C   UNL A   1      36.787  33.750  28.862  1.00  0.00     0.010 A 
ATOM     39  C   UNL A   1      35.618  32.373  30.472  1.00  0.00     0.010 A 
ATOM     40  C   UNL A   1      36.823  32.792  29.888  1.00  0.00    -0.014 A 
BRANCH  40  41
ATOM     41  C   UNL A   1      38.112  32.230  30.373  1.00  0.00     0.031 A 
ATOM     42  C   UNL A   1      38.640  30.940  29.805  1.00  0.00     0.074 A 
ATOM     43  C   UNL A   1      38.778  32.848  31.368  1.00  0.00     0.049 A 
ATOM     44  N   UNL A   1      39.717  30.272  30.138  1.00  0.00    -0.248 NA
ATOM     45  C   UNL A   1      37.843  30.305  28.744  1.00  0.00     0.031 C 
ATOM     46  C   UNL A   1      38.360  34.086  32.030  1.00  0.00     0.029 A 
ATOM     47  N   UNL A   1      39.951  32.515  32.000  1.00  0.00    -0.354 N 
ATOM     48  C   UNL A   1      39.716  29.134  29.340  1.00  0.00     0.074 A 
ATOM     49  C   UNL A   1      38.508  29.176  28.544  1.00  0.00     0.031 C 
ATOM     50  C   UNL A   1      39.277  34.425  32.950  1.00  0.00     0.029 A 
ATOM     51  C   UNL A   1      40.323  33.407  32.978  1.00  0.00     0.049 A 
ATOM     52  H   UNL A   1      40.476  31.714  31.776  1.00  0.00     0.167 HD
ATOM     53  C   UNL A   1      40.645  28.151  29.261  1.00  0.00     0.031 A 
ATOM     54  C   UNL A   1      41.382  33.405  33.810  1.00  0.00     0.031 A 
ATOM     55  C   UNL A   1      41.850  28.111  30.046  1.00  0.00     0.049 A 
ATOM     56  C   UNL A   1      42.382  32.285  33.723  1.00  0.00     0.074 A 
ATOM     57  C   UNL A   1      42.880  27.188  29.996  1.00  0.00     0.029 A 
ATOM     58  N   UNL A   1      42.184  29.030  31.029  1.00  0.00    -0.354 N 
ATOM     59  N   UNL A   1      42.404  31.257  32.911  1.00  0.00    -0.248 NA
ATOM     60  C   UNL A   1      43.510  32.334  34.664  1.00  0.00     0.031 C 
ATOM     61  C   UNL A   1      43.806  27.512  30.992  1.00  0.00     0.029 A 
ATOM     62  C   UNL A   1      43.388  28.676  31.615  1.00  0.00     0.049 A 
ATOM     63  H   UNL A   1      41.645  29.817  31.275  1.00  0.00     0.167 HD
ATOM     64  C   UNL A   1      43.562  30.555  33.220  1.00  0.00     0.074 A 
ATOM     65  C   UNL A   1      44.224  31.285  34.282  1.00  0.00     0.031 C 
ATOM     66  C   UNL A   1      44.037  29.410  32.671  1.00  0.00     0.031 A 
BRANCH  53  67
ATOM     67  C   UNL A   1      40.386  27.025  28.298  1.00  0.00    -0.014 A 
ATOM     68  C   UNL A   1      40.878  27.059  26.983  1.00  0.00     0.009 A 
ATOM     69  C   UNL A   1      39.675  25.892  28.726  1.00  0.00     0.009 A 
ATOM     70  C   UNL A   1      40.631  26.000  26.107  1.00  0.00     0.001 A 
ATOM     71  C   UNL A   1      39.458  24.821  27.858  1.00  0.00     0.001 A 
ATOM     72  C   UNL A   1      39.926  24.880  26.546  1.00  0.00     0.000 A 
ENDBRANCH  53  67
BRANCH  54  73
ATOM     73  C   UNL A   1      41.563  34.505  34.796  1.00  0.00    -0.014 A 
ATOM     74  C   UNL A   1      42.259  35.670  34.441  1.00  0.00     0.009 A 
ATOM     75  C   UNL A   1      41.060  34.388  36.101  1.00  0.00     0.009 A 
ATOM     76  C   UNL A   1      42.476  36.681  35.380  1.00  0.00     0.001 A 
ATOM     77  C   UNL A   1      41.248  35.414  37.029  1.00  0.00     0.001 A 
ATOM     78  C   UNL A   1      41.967  36.554  36.672  1.00  0.00     0.000 A 
ENDBRANCH  54  73
BRANCH  66  79
ATOM     79  C   UNL A   1      45.357  28.897  33.178  1.00  0.00    -0.014 A 
ATOM     80  C   UNL A   1      45.429  27.978  34.237  1.00  0.00     0.009 A 
ATOM     81  C   UNL A   1      46.545  29.311  32.556  1.00  0.00     0.009 A 
ATOM     82  C   UNL A   1      46.668  27.515  34.686  1.00  0.00     0.001 A 
ATOM     83  C   UNL A   1      47.779  28.820  32.985  1.00  0.00     0.001 A 
ATOM     84  C   UNL A   1      47.840  27.930  34.056  1.00  0.00     0.000 A 
ENDBRANCH  66  79
ENDBRANCH  40  41
ENDBRANCH  32  35
ENDBRANCH  30  31
ENDBRANCH  29  30
ENDBRANCH  28  29
ENDBRANCH   1  28
TORSDOF 16
ENDMDL
