MODEL 1
REMARK VINA RESULT:     -11.3      0.000      0.000
REMARK SMILES CC(C)OC(=O)c1cccc(-c2ccc([C@H]3[NH2+][C@H](C(=O)NCCCCNC(=O)c4ccc(-c5c6nc(c(-c7ccccc7)c7ccc([nH]7)c(-c7ccccc7)c7nc(c(-c8ccccc8)c8ccc5[nH]8)C=C7)C=C6)cc4)C(C)(C)S3)o2)c1
REMARK SMILES IDX 22 1 21 2 19 3 20 4 18 6 16 7 17 8 80 9 77 12 78 13 79 14
REMARK SMILES IDX 15 15 12 16 13 17 81 18 14 19 11 20 7 21 8 22 82 23 9 24
REMARK SMILES IDX 10 25 5 26 6 27 4 28 2 29 1 30 3 31 23 32 24 33 25 34 26 35
REMARK SMILES IDX 27 36 28 38 29 39 30 40 76 41 31 42 75 43 32 44 33 45 34 46
REMARK SMILES IDX 69 47 35 48 74 49 68 50 70 51 36 52 73 53 67 54 66 55 37 57
REMARK SMILES IDX 59 58 44 59 58 60 45 61 48 62 57 63 71 64 46 65 47 66 56 68
REMARK SMILES IDX 72 69 49 70 38 71 39 72 43 73 40 74 42 75 41 76 60 77 61 78
REMARK SMILES IDX 65 79 62 80 64 81 63 82 50 83 51 84 55 85 52 86 54 87 53 88
REMARK H PARENT 21 5 17 10 17 11 26 37 70 56 48 67
REMARK Flexibility Score: inf
ROOT
ATOM      1  C   UNL A   1      34.757  29.065  27.311  1.00  0.00     0.116 C 
ENDROOT
BRANCH   1   2
ATOM      2  N   UNL A   1      33.334  28.847  27.444  1.00  0.00    -0.351 N 
ATOM      3  C   UNL A   1      32.507  27.868  26.995  1.00  0.00     0.279 C 
ATOM      4  O   UNL A   1      31.440  27.776  27.624  1.00  0.00    -0.268 OA
ATOM      5  H   UNL A   1      32.873  29.545  27.963  1.00  0.00     0.163 HD
BRANCH   3   6
ATOM      6  C   UNL A   1      32.706  26.967  25.730  1.00  0.00     0.289 C 
ATOM      7  C   UNL A   1      32.299  24.749  26.538  1.00  0.00     0.311 C 
ATOM      8  N   UNL A   1      33.354  25.705  26.183  1.00  0.00    -0.317 N 
ATOM      9  S   UNL A   1      30.857  25.097  25.463  1.00  0.00    -0.078 SA
ATOM     10  H   UNL A   1      33.927  25.322  25.431  1.00  0.00     0.348 HD
ATOM     11  H   UNL A   1      33.951  25.885  26.990  1.00  0.00     0.348 HD
ATOM     12  C   UNL A   1      31.606  26.598  24.716  1.00  0.00     0.078 C 
ATOM     13  C   UNL A   1      32.189  26.099  23.373  1.00  0.00     0.030 C 
ATOM     14  C   UNL A   1      30.639  27.742  24.380  1.00  0.00     0.030 C 
BRANCH   7  15
ATOM     15  C   UNL A   1      32.799  23.349  26.353  1.00  0.00     0.172 A 
ATOM     16  C   UNL A   1      32.904  21.420  25.299  1.00  0.00     0.134 A 
ATOM     17  C   UNL A   1      33.579  21.250  26.487  1.00  0.00     0.051 A 
ATOM     18  O   UNL A   1      32.441  22.699  25.196  1.00  0.00    -0.454 OA
ATOM     19  C   UNL A   1      33.521  22.488  27.161  1.00  0.00     0.054 A 
BRANCH  16  20
ATOM     20  C   UNL A   1      32.608  20.509  24.208  1.00  0.00     0.018 A 
ATOM     21  C   UNL A   1      32.885  18.325  23.182  1.00  0.00     0.060 A 
ATOM     22  C   UNL A   1      32.358  18.819  21.983  1.00  0.00     0.016 A 
ATOM     23  C   UNL A   1      33.010  19.168  24.293  1.00  0.00     0.027 A 
ATOM     24  C   UNL A   1      31.923  20.142  21.907  1.00  0.00     0.002 A 
ATOM     25  C   UNL A   1      32.045  20.983  23.017  1.00  0.00     0.012 A 
BRANCH  21  26
ATOM     26  C   UNL A   1      33.382  16.932  23.215  1.00  0.00     0.338 C 
ATOM     27  O   UNL A   1      34.306  16.541  22.514  1.00  0.00    -0.246 OA
BRANCH  26  28
ATOM     28  O   UNL A   1      32.647  16.205  24.085  1.00  0.00    -0.459 OA
BRANCH  28  29
ATOM     29  C   UNL A   1      33.309  15.413  25.097  1.00  0.00     0.170 C 
ATOM     30  C   UNL A   1      34.645  15.998  25.549  1.00  0.00     0.052 C 
ATOM     31  C   UNL A   1      32.369  15.110  26.257  1.00  0.00     0.052 C 
ENDBRANCH  28  29
ENDBRANCH  26  28
ENDBRANCH  21  26
ENDBRANCH  16  20
ENDBRANCH   7  15
ENDBRANCH   3   6
ENDBRANCH   1   2
BRANCH   1  32
ATOM     32  C   UNL A   1      35.213  30.461  27.710  1.00  0.00     0.023 C 
BRANCH  32  33
ATOM     33  C   UNL A   1      34.092  31.475  27.905  1.00  0.00     0.023 C 
BRANCH  33  34
ATOM     34  C   UNL A   1      34.499  32.786  28.566  1.00  0.00     0.116 C 
BRANCH  34  35
ATOM     35  N   UNL A   1      34.080  32.904  29.958  1.00  0.00    -0.352 N 
ATOM     36  C   UNL A   1      34.803  32.631  31.097  1.00  0.00     0.251 C 
ATOM     37  H   UNL A   1      33.158  33.221  30.102  1.00  0.00     0.163 HD
ATOM     38  O   UNL A   1      34.297  32.720  32.209  1.00  0.00    -0.269 OA
BRANCH  36  39
ATOM     39  C   UNL A   1      36.198  32.178  30.946  1.00  0.00     0.039 A 
ATOM     40  C   UNL A   1      36.619  31.037  31.632  1.00  0.00     0.014 A 
ATOM     41  C   UNL A   1      37.036  32.814  30.027  1.00  0.00     0.014 A 
ATOM     42  C   UNL A   1      37.854  30.470  31.320  1.00  0.00     0.010 A 
ATOM     43  C   UNL A   1      38.225  32.201  29.660  1.00  0.00     0.010 A 
ATOM     44  C   UNL A   1      38.641  31.018  30.294  1.00  0.00    -0.014 A 
BRANCH  44  45
ATOM     45  C   UNL A   1      39.910  30.386  29.856  1.00  0.00     0.031 A 
ATOM     46  C   UNL A   1      41.180  31.189  29.877  1.00  0.00     0.074 A 
ATOM     47  C   UNL A   1      39.906  29.138  29.346  1.00  0.00     0.049 A 
ATOM     48  N   UNL A   1      42.356  30.889  29.393  1.00  0.00    -0.248 NA
ATOM     49  C   UNL A   1      41.101  32.525  30.491  1.00  0.00     0.031 C 
ATOM     50  C   UNL A   1      38.736  28.262  29.240  1.00  0.00     0.029 A 
ATOM     51  N   UNL A   1      40.926  28.396  28.805  1.00  0.00    -0.354 N 
ATOM     52  C   UNL A   1      43.146  32.009  29.612  1.00  0.00     0.074 A 
ATOM     53  C   UNL A   1      42.304  33.011  30.228  1.00  0.00     0.031 C 
ATOM     54  C   UNL A   1      39.111  27.095  28.692  1.00  0.00     0.029 A 
ATOM     55  C   UNL A   1      40.532  27.154  28.366  1.00  0.00     0.049 A 
ATOM     56  H   UNL A   1      41.852  28.721  28.738  1.00  0.00     0.167 HD
ATOM     57  C   UNL A   1      44.462  32.185  29.343  1.00  0.00     0.031 A 
ATOM     58  C   UNL A   1      41.235  26.180  27.758  1.00  0.00     0.031 A 
ATOM     59  C   UNL A   1      45.305  31.181  28.757  1.00  0.00     0.049 A 
ATOM     60  C   UNL A   1      42.694  26.398  27.467  1.00  0.00     0.074 A 
ATOM     61  C   UNL A   1      46.662  31.241  28.492  1.00  0.00     0.029 A 
ATOM     62  N   UNL A   1      44.871  29.928  28.353  1.00  0.00    -0.354 N 
ATOM     63  N   UNL A   1      43.437  27.448  27.719  1.00  0.00    -0.248 NA
ATOM     64  C   UNL A   1      43.410  25.294  26.813  1.00  0.00     0.031 C 
ATOM     65  C   UNL A   1      47.043  30.035  27.894  1.00  0.00     0.029 A 
ATOM     66  C   UNL A   1      45.932  29.209  27.830  1.00  0.00     0.049 A 
ATOM     67  H   UNL A   1      43.946  29.599  28.424  1.00  0.00     0.167 HD
ATOM     68  C   UNL A   1      44.716  27.118  27.288  1.00  0.00     0.074 A 
ATOM     69  C   UNL A   1      44.647  25.770  26.763  1.00  0.00     0.031 C 
ATOM     70  C   UNL A   1      45.846  27.863  27.327  1.00  0.00     0.031 A 
BRANCH  57  71
ATOM     71  C   UNL A   1      45.057  33.522  29.682  1.00  0.00    -0.014 A 
ATOM     72  C   UNL A   1      45.622  33.767  30.943  1.00  0.00     0.009 A 
ATOM     73  C   UNL A   1      45.060  34.548  28.724  1.00  0.00     0.009 A 
ATOM     74  C   UNL A   1      46.136  35.027  31.255  1.00  0.00     0.001 A 
ATOM     75  C   UNL A   1      45.602  35.797  29.028  1.00  0.00     0.001 A 
ATOM     76  C   UNL A   1      46.129  36.040  30.296  1.00  0.00     0.000 A 
ENDBRANCH  57  71
BRANCH  58  77
ATOM     77  C   UNL A   1      40.578  24.896  27.401  1.00  0.00    -0.014 A 
ATOM     78  C   UNL A   1      41.027  23.692  27.967  1.00  0.00     0.009 A 
ATOM     79  C   UNL A   1      39.510  24.861  26.491  1.00  0.00     0.009 A 
ATOM     80  C   UNL A   1      40.437  22.478  27.610  1.00  0.00     0.001 A 
ATOM     81  C   UNL A   1      38.906  23.647  26.156  1.00  0.00     0.001 A 
ATOM     82  C   UNL A   1      39.375  22.456  26.708  1.00  0.00     0.000 A 
ENDBRANCH  58  77
BRANCH  70  83
ATOM     83  C   UNL A   1      47.114  27.223  26.841  1.00  0.00    -0.014 A 
ATOM     84  C   UNL A   1      47.940  26.490  27.706  1.00  0.00     0.009 A 
ATOM     85  C   UNL A   1      47.452  27.306  25.481  1.00  0.00     0.009 A 
ATOM     86  C   UNL A   1      49.093  25.870  27.221  1.00  0.00     0.001 A 
ATOM     87  C   UNL A   1      48.590  26.663  24.994  1.00  0.00     0.001 A 
ATOM     88  C   UNL A   1      49.413  25.952  25.865  1.00  0.00     0.000 A 
ENDBRANCH  70  83
ENDBRANCH  44  45
ENDBRANCH  36  39
ENDBRANCH  34  35
ENDBRANCH  33  34
ENDBRANCH  32  33
ENDBRANCH   1  32
TORSDOF 16
ENDMDL
MODEL 2
REMARK VINA RESULT:     -11.3      1.990      3.313
REMARK SMILES CC(C)OC(=O)c1cccc(-c2ccc([C@H]3[NH2+][C@H](C(=O)NCCCCNC(=O)c4ccc(-c5c6nc(c(-c7ccccc7)c7ccc([nH]7)c(-c7ccccc7)c7nc(c(-c8ccccc8)c8ccc5[nH]8)C=C7)C=C6)cc4)C(C)(C)S3)o2)c1
REMARK SMILES IDX 22 1 21 2 19 3 20 4 18 6 16 7 17 8 80 9 77 12 78 13 79 14
REMARK SMILES IDX 15 15 12 16 13 17 81 18 14 19 11 20 7 21 8 22 82 23 9 24
REMARK SMILES IDX 10 25 5 26 6 27 4 28 2 29 1 30 3 31 23 32 24 33 25 34 26 35
REMARK SMILES IDX 27 36 28 38 29 39 30 40 76 41 31 42 75 43 32 44 33 45 34 46
REMARK SMILES IDX 69 47 35 48 74 49 68 50 70 51 36 52 73 53 67 54 66 55 37 57
REMARK SMILES IDX 59 58 44 59 58 60 45 61 48 62 57 63 71 64 46 65 47 66 56 68
REMARK SMILES IDX 72 69 49 70 38 71 39 72 43 73 40 74 42 75 41 76 60 77 61 78
REMARK SMILES IDX 65 79 62 80 64 81 63 82 50 83 51 84 55 85 52 86 54 87 53 88
REMARK H PARENT 21 5 17 10 17 11 26 37 70 56 48 67
REMARK Flexibility Score: inf
ROOT
ATOM      1  C   UNL A   1      32.276  30.296  25.771  1.00  0.00     0.116 C 
ENDROOT
BRANCH   1   2
ATOM      2  N   UNL A   1      31.431  29.780  24.717  1.00  0.00    -0.351 N 
ATOM      3  C   UNL A   1      31.257  28.536  24.202  1.00  0.00     0.279 C 
ATOM      4  O   UNL A   1      30.180  28.381  23.602  1.00  0.00    -0.268 OA
ATOM      5  H   UNL A   1      30.870  30.467  24.287  1.00  0.00     0.163 HD
BRANCH   3   6
ATOM      6  C   UNL A   1      32.296  27.365  24.182  1.00  0.00     0.289 C 
ATOM      7  C   UNL A   1      30.967  25.413  24.578  1.00  0.00     0.311 C 
ATOM      8  N   UNL A   1      31.870  26.378  25.213  1.00  0.00    -0.317 N 
ATOM      9  S   UNL A   1      31.479  25.249  22.826  1.00  0.00    -0.078 SA
ATOM     10  H   UNL A   1      32.687  25.893  25.584  1.00  0.00     0.348 HD
ATOM     11  H   UNL A   1      31.395  26.852  25.980  1.00  0.00     0.348 HD
ATOM     12  C   UNL A   1      32.736  26.584  22.929  1.00  0.00     0.078 C 
ATOM     13  C   UNL A   1      34.069  25.831  23.146  1.00  0.00     0.030 C 
ATOM     14  C   UNL A   1      32.914  27.446  21.671  1.00  0.00     0.030 C 
BRANCH   7  15
ATOM     15  C   UNL A   1      31.038  24.101  25.297  1.00  0.00     0.172 A 
ATOM     16  C   UNL A   1      31.818  22.067  25.610  1.00  0.00     0.134 A 
ATOM     17  C   UNL A   1      30.747  22.207  26.464  1.00  0.00     0.051 A 
ATOM     18  O   UNL A   1      32.018  23.220  24.908  1.00  0.00    -0.454 OA
ATOM     19  C   UNL A   1      30.250  23.513  26.272  1.00  0.00     0.054 A 
BRANCH  16  20
ATOM     20  C   UNL A   1      32.709  20.953  25.338  1.00  0.00     0.018 A 
ATOM     21  C   UNL A   1      34.970  20.107  25.077  1.00  0.00     0.060 A 
ATOM     22  C   UNL A   1      34.469  18.938  24.494  1.00  0.00     0.016 A 
ATOM     23  C   UNL A   1      34.093  21.113  25.499  1.00  0.00     0.027 A 
ATOM     24  C   UNL A   1      33.091  18.760  24.367  1.00  0.00     0.002 A 
ATOM     25  C   UNL A   1      32.214  19.762  24.791  1.00  0.00     0.012 A 
BRANCH  21  26
ATOM     26  C   UNL A   1      36.437  20.287  25.152  1.00  0.00     0.338 C 
ATOM     27  O   UNL A   1      37.227  19.504  24.643  1.00  0.00    -0.246 OA
BRANCH  26  28
ATOM     28  O   UNL A   1      36.725  21.390  25.878  1.00  0.00    -0.459 OA
BRANCH  28  29
ATOM     29  C   UNL A   1      37.708  22.332  25.390  1.00  0.00     0.170 C 
ATOM     30  C   UNL A   1      37.186  23.763  25.299  1.00  0.00     0.052 C 
ATOM     31  C   UNL A   1      39.009  22.221  26.176  1.00  0.00     0.052 C 
ENDBRANCH  28  29
ENDBRANCH  26  28
ENDBRANCH  21  26
ENDBRANCH  16  20
ENDBRANCH   7  15
ENDBRANCH   3   6
ENDBRANCH   1   2
BRANCH   1  32
ATOM     32  C   UNL A   1      32.231  29.486  27.057  1.00  0.00     0.023 C 
BRANCH  32  33
ATOM     33  C   UNL A   1      33.539  28.802  27.436  1.00  0.00     0.023 C 
BRANCH  33  34
ATOM     34  C   UNL A   1      34.759  29.711  27.512  1.00  0.00     0.116 C 
BRANCH  34  35
ATOM     35  N   UNL A   1      34.840  30.492  28.742  1.00  0.00    -0.352 N 
ATOM     36  C   UNL A   1      35.888  30.584  29.630  1.00  0.00     0.251 C 
ATOM     37  H   UNL A   1      34.042  31.023  28.966  1.00  0.00     0.163 HD
ATOM     38  O   UNL A   1      35.792  31.239  30.661  1.00  0.00    -0.269 OA
BRANCH  36  39
ATOM     39  C   UNL A   1      37.121  29.833  29.335  1.00  0.00     0.039 A 
ATOM     40  C   UNL A   1      37.663  29.897  28.050  1.00  0.00     0.014 A 
ATOM     41  C   UNL A   1      37.797  29.179  30.368  1.00  0.00     0.014 A 
ATOM     42  C   UNL A   1      38.941  29.386  27.822  1.00  0.00     0.010 A 
ATOM     43  C   UNL A   1      39.099  28.749  30.158  1.00  0.00     0.010 A 
ATOM     44  C   UNL A   1      39.688  28.857  28.887  1.00  0.00    -0.014 A 
BRANCH  44  45
ATOM     45  C   UNL A   1      41.090  28.403  28.712  1.00  0.00     0.031 A 
ATOM     46  C   UNL A   1      42.206  29.404  28.807  1.00  0.00     0.074 A 
ATOM     47  C   UNL A   1      41.351  27.127  28.370  1.00  0.00     0.049 A 
ATOM     48  N   UNL A   1      43.476  29.255  28.533  1.00  0.00    -0.248 NA
ATOM     49  C   UNL A   1      41.835  30.765  29.229  1.00  0.00     0.031 C 
ATOM     50  C   UNL A   1      40.357  26.062  28.214  1.00  0.00     0.029 A 
ATOM     51  N   UNL A   1      42.543  26.512  28.074  1.00  0.00    -0.354 N 
ATOM     52  C   UNL A   1      44.046  30.508  28.715  1.00  0.00     0.074 A 
ATOM     53  C   UNL A   1      42.978  31.414  29.076  1.00  0.00     0.031 C 
ATOM     54  C   UNL A   1      40.982  24.922  27.876  1.00  0.00     0.029 A 
ATOM     55  C   UNL A   1      42.412  25.183  27.746  1.00  0.00     0.049 A 
ATOM     56  H   UNL A   1      43.409  26.978  28.095  1.00  0.00     0.167 HD
ATOM     57  C   UNL A   1      45.346  30.871  28.611  1.00  0.00     0.031 A 
ATOM     58  C   UNL A   1      43.339  24.282  27.370  1.00  0.00     0.031 A 
ATOM     59  C   UNL A   1      46.411  29.966  28.281  1.00  0.00     0.049 A 
ATOM     60  C   UNL A   1      44.777  24.708  27.259  1.00  0.00     0.074 A 
ATOM     61  C   UNL A   1      47.769  30.223  28.201  1.00  0.00     0.029 A 
ATOM     62  N   UNL A   1      46.237  28.624  27.982  1.00  0.00    -0.354 N 
ATOM     63  N   UNL A   1      45.307  25.887  27.476  1.00  0.00    -0.248 NA
ATOM     64  C   UNL A   1      45.743  23.677  26.856  1.00  0.00     0.031 C 
ATOM     65  C   UNL A   1      48.414  29.042  27.820  1.00  0.00     0.029 A 
ATOM     66  C   UNL A   1      47.462  28.041  27.707  1.00  0.00     0.049 A 
ATOM     67  H   UNL A   1      45.372  28.154  27.966  1.00  0.00     0.167 HD
ATOM     68  C   UNL A   1      46.672  25.731  27.272  1.00  0.00     0.074 A 
ATOM     69  C   UNL A   1      46.888  24.344  26.918  1.00  0.00     0.031 C 
ATOM     70  C   UNL A   1      47.658  26.655  27.372  1.00  0.00     0.031 A 
BRANCH  57  71
ATOM     71  C   UNL A   1      45.675  32.316  28.857  1.00  0.00    -0.014 A 
ATOM     72  C   UNL A   1      45.924  32.794  30.153  1.00  0.00     0.009 A 
ATOM     73  C   UNL A   1      45.744  33.209  27.777  1.00  0.00     0.009 A 
ATOM     74  C   UNL A   1      46.190  34.148  30.368  1.00  0.00     0.001 A 
ATOM     75  C   UNL A   1      46.041  34.556  27.992  1.00  0.00     0.001 A 
ATOM     76  C   UNL A   1      46.252  35.027  29.287  1.00  0.00     0.000 A 
ENDBRANCH  57  71
BRANCH  58  77
ATOM     77  C   UNL A   1      42.945  22.877  27.091  1.00  0.00    -0.014 A 
ATOM     78  C   UNL A   1      42.951  22.391  25.774  1.00  0.00     0.009 A 
ATOM     79  C   UNL A   1      42.554  22.017  28.129  1.00  0.00     0.009 A 
ATOM     80  C   UNL A   1      42.549  21.082  25.499  1.00  0.00     0.001 A 
ATOM     81  C   UNL A   1      42.177  20.701  27.853  1.00  0.00     0.001 A 
ATOM     82  C   UNL A   1      42.166  20.237  26.539  1.00  0.00     0.000 A 
ENDBRANCH  58  77
BRANCH  70  83
ATOM     83  C   UNL A   1      49.068  26.187  27.152  1.00  0.00    -0.014 A 
ATOM     84  C   UNL A   1      49.654  26.211  25.878  1.00  0.00     0.009 A 
ATOM     85  C   UNL A   1      49.837  25.774  28.251  1.00  0.00     0.009 A 
ATOM     86  C   UNL A   1      50.981  25.809  25.707  1.00  0.00     0.001 A 
ATOM     87  C   UNL A   1      51.169  25.398  28.081  1.00  0.00     0.001 A 
ATOM     88  C   UNL A   1      51.738  25.409  26.808  1.00  0.00     0.000 A 
ENDBRANCH  70  83
ENDBRANCH  44  45
ENDBRANCH  36  39
ENDBRANCH  34  35
ENDBRANCH  33  34
ENDBRANCH  32  33
ENDBRANCH   1  32
TORSDOF 16
ENDMDL
MODEL 3
REMARK VINA RESULT:     -11.3      4.131      9.813
REMARK SMILES CC(C)OC(=O)c1cccc(-c2ccc([C@H]3[NH2+][C@H](C(=O)NCCCCNC(=O)c4ccc(-c5c6nc(c(-c7ccccc7)c7ccc([nH]7)c(-c7ccccc7)c7nc(c(-c8ccccc8)c8ccc5[nH]8)C=C7)C=C6)cc4)C(C)(C)S3)o2)c1
REMARK SMILES IDX 22 1 21 2 19 3 20 4 18 6 16 7 17 8 80 9 77 12 78 13 79 14
REMARK SMILES IDX 15 15 12 16 13 17 81 18 14 19 11 20 7 21 8 22 82 23 9 24
REMARK SMILES IDX 10 25 5 26 6 27 4 28 2 29 1 30 3 31 23 32 24 33 25 34 26 35
REMARK SMILES IDX 27 36 28 38 29 39 30 40 76 41 31 42 75 43 32 44 33 45 34 46
REMARK SMILES IDX 69 47 35 48 74 49 68 50 70 51 36 52 73 53 67 54 66 55 37 57
REMARK SMILES IDX 59 58 44 59 58 60 45 61 48 62 57 63 71 64 46 65 47 66 56 68
REMARK SMILES IDX 72 69 49 70 38 71 39 72 43 73 40 74 42 75 41 76 60 77 61 78
REMARK SMILES IDX 65 79 62 80 64 81 63 82 50 83 51 84 55 85 52 86 54 87 53 88
REMARK H PARENT 21 5 17 10 17 11 26 37 70 56 48 67
REMARK Flexibility Score: inf
ROOT
ATOM      1  C   UNL A   1      38.613  22.757  26.203  1.00  0.00     0.116 C 
ENDROOT
BRANCH   1   2
ATOM      2  N   UNL A   1      37.971  22.396  24.958  1.00  0.00    -0.351 N 
ATOM      3  C   UNL A   1      36.749  22.676  24.437  1.00  0.00     0.279 C 
ATOM      4  O   UNL A   1      36.684  22.555  23.203  1.00  0.00    -0.268 OA
ATOM      5  H   UNL A   1      38.531  21.837  24.372  1.00  0.00     0.163 HD
BRANCH   3   6
ATOM      6  C   UNL A   1      35.435  22.998  25.225  1.00  0.00     0.289 C 
ATOM      7  C   UNL A   1      34.360  24.668  23.887  1.00  0.00     0.311 C 
ATOM      8  N   UNL A   1      35.181  24.459  25.084  1.00  0.00    -0.317 N 
ATOM      9  S   UNL A   1      33.298  23.189  23.683  1.00  0.00    -0.078 SA
ATOM     10  H   UNL A   1      34.686  24.804  25.906  1.00  0.00     0.348 HD
ATOM     11  H   UNL A   1      36.063  24.963  24.998  1.00  0.00     0.348 HD
ATOM     12  C   UNL A   1      34.091  22.264  25.056  1.00  0.00     0.078 C 
ATOM     13  C   UNL A   1      33.144  22.489  26.258  1.00  0.00     0.030 C 
ATOM     14  C   UNL A   1      34.214  20.745  24.868  1.00  0.00     0.030 C 
BRANCH   7  15
ATOM     15  C   UNL A   1      33.545  25.915  24.042  1.00  0.00     0.172 A 
ATOM     16  C   UNL A   1      31.689  27.086  23.877  1.00  0.00     0.134 A 
ATOM     17  C   UNL A   1      32.682  27.978  24.214  1.00  0.00     0.051 A 
ATOM     18  O   UNL A   1      32.197  25.823  23.788  1.00  0.00    -0.454 OA
ATOM     19  C   UNL A   1      33.871  27.229  24.328  1.00  0.00     0.054 A 
BRANCH  16  20
ATOM     20  C   UNL A   1      30.274  27.261  23.602  1.00  0.00     0.018 A 
ATOM     21  C   UNL A   1      28.470  28.652  22.759  1.00  0.00     0.060 A 
ATOM     22  C   UNL A   1      27.532  27.802  23.355  1.00  0.00     0.016 A 
ATOM     23  C   UNL A   1      29.839  28.383  22.881  1.00  0.00     0.027 A 
ATOM     24  C   UNL A   1      27.961  26.665  24.041  1.00  0.00     0.002 A 
ATOM     25  C   UNL A   1      29.327  26.394  24.160  1.00  0.00     0.012 A 
BRANCH  21  26
ATOM     26  C   UNL A   1      27.986  29.875  22.081  1.00  0.00     0.338 C 
ATOM     27  O   UNL A   1      28.151  30.080  20.887  1.00  0.00    -0.246 OA
BRANCH  26  28
ATOM     28  O   UNL A   1      27.397  30.693  22.981  1.00  0.00    -0.459 OA
BRANCH  28  29
ATOM     29  C   UNL A   1      28.073  31.900  23.404  1.00  0.00     0.170 C 
ATOM     30  C   UNL A   1      29.321  31.636  24.241  1.00  0.00     0.052 C 
ATOM     31  C   UNL A   1      28.333  32.823  22.220  1.00  0.00     0.052 C 
ENDBRANCH  28  29
ENDBRANCH  26  28
ENDBRANCH  21  26
ENDBRANCH  16  20
ENDBRANCH   7  15
ENDBRANCH   3   6
ENDBRANCH   1   2
BRANCH   1  32
ATOM     32  C   UNL A   1      38.758  24.257  26.416  1.00  0.00     0.023 C 
BRANCH  32  33
ATOM     33  C   UNL A   1      40.177  24.735  26.696  1.00  0.00     0.023 C 
BRANCH  33  34
ATOM     34  C   UNL A   1      40.903  24.015  27.826  1.00  0.00     0.116 C 
BRANCH  34  35
ATOM     35  N   UNL A   1      41.809  22.965  27.374  1.00  0.00    -0.352 N 
ATOM     36  C   UNL A   1      43.091  23.090  26.888  1.00  0.00     0.251 C 
ATOM     37  H   UNL A   1      41.458  22.046  27.424  1.00  0.00     0.163 HD
ATOM     38  O   UNL A   1      43.717  22.116  26.487  1.00  0.00    -0.269 OA
BRANCH  36  39
ATOM     39  C   UNL A   1      43.682  24.438  26.814  1.00  0.00     0.039 A 
ATOM     40  C   UNL A   1      44.288  24.976  27.951  1.00  0.00     0.014 A 
ATOM     41  C   UNL A   1      43.742  25.100  25.586  1.00  0.00     0.014 A 
ATOM     42  C   UNL A   1      45.046  26.140  27.835  1.00  0.00     0.010 A 
ATOM     43  C   UNL A   1      44.566  26.209  25.456  1.00  0.00     0.010 A 
ATOM     44  C   UNL A   1      45.235  26.734  26.576  1.00  0.00    -0.014 A 
BRANCH  44  45
ATOM     45  C   UNL A   1      46.121  27.908  26.388  1.00  0.00     0.031 A 
ATOM     46  C   UNL A   1      47.593  27.695  26.173  1.00  0.00     0.074 A 
ATOM     47  C   UNL A   1      45.629  29.157  26.512  1.00  0.00     0.049 A 
ATOM     48  N   UNL A   1      48.561  28.572  26.146  1.00  0.00    -0.248 NA
ATOM     49  C   UNL A   1      48.036  26.300  26.005  1.00  0.00     0.031 C 
ATOM     50  C   UNL A   1      44.226  29.502  26.752  1.00  0.00     0.029 A 
ATOM     51  N   UNL A   1      46.266  30.372  26.467  1.00  0.00    -0.354 N 
ATOM     52  C   UNL A   1      49.728  27.836  25.994  1.00  0.00     0.074 A 
ATOM     53  C   UNL A   1      49.352  26.439  25.983  1.00  0.00     0.031 C 
ATOM     54  C   UNL A   1      44.106  30.839  26.809  1.00  0.00     0.029 A 
ATOM     55  C   UNL A   1      45.426  31.443  26.657  1.00  0.00     0.049 A 
ATOM     56  H   UNL A   1      47.233  30.468  26.314  1.00  0.00     0.167 HD
ATOM     57  C   UNL A   1      51.000  28.281  25.856  1.00  0.00     0.031 A 
ATOM     58  C   UNL A   1      45.692  32.762  26.713  1.00  0.00     0.031 A 
ATOM     59  C   UNL A   1      51.370  29.668  25.838  1.00  0.00     0.049 A 
ATOM     60  C   UNL A   1      47.112  33.233  26.560  1.00  0.00     0.074 A 
ATOM     61  C   UNL A   1      52.624  30.224  25.652  1.00  0.00     0.029 A 
ATOM     62  N   UNL A   1      50.483  30.720  26.007  1.00  0.00    -0.354 N 
ATOM     63  N   UNL A   1      48.200  32.526  26.374  1.00  0.00    -0.248 NA
ATOM     64  C   UNL A   1      47.338  34.684  26.619  1.00  0.00     0.031 C 
ATOM     65  C   UNL A   1      52.501  31.615  25.742  1.00  0.00     0.029 A 
ATOM     66  C   UNL A   1      51.164  31.924  25.938  1.00  0.00     0.049 A 
ATOM     67  H   UNL A   1      49.515  30.627  26.154  1.00  0.00     0.167 HD
ATOM     68  C   UNL A   1      49.233  33.446  26.258  1.00  0.00     0.074 A 
ATOM     69  C   UNL A   1      48.641  34.761  26.390  1.00  0.00     0.031 C 
ATOM     70  C   UNL A   1      50.554  33.222  26.056  1.00  0.00     0.031 A 
BRANCH  57  71
ATOM     71  C   UNL A   1      52.077  27.243  25.718  1.00  0.00    -0.014 A 
ATOM     72  C   UNL A   1      52.448  26.744  24.459  1.00  0.00     0.009 A 
ATOM     73  C   UNL A   1      52.734  26.763  26.861  1.00  0.00     0.009 A 
ATOM     74  C   UNL A   1      53.424  25.752  24.352  1.00  0.00     0.001 A 
ATOM     75  C   UNL A   1      53.731  25.792  26.747  1.00  0.00     0.001 A 
ATOM     76  C   UNL A   1      54.067  25.279  25.495  1.00  0.00     0.000 A 
ENDBRANCH  57  71
BRANCH  58  77
ATOM     77  C   UNL A   1      44.589  33.739  26.903  1.00  0.00    -0.014 A 
ATOM     78  C   UNL A   1      43.917  34.269  25.790  1.00  0.00     0.009 A 
ATOM     79  C   UNL A   1      44.206  34.155  28.187  1.00  0.00     0.009 A 
ATOM     80  C   UNL A   1      42.902  35.213  25.958  1.00  0.00     0.001 A 
ATOM     81  C   UNL A   1      43.174  35.081  28.353  1.00  0.00     0.001 A 
ATOM     82  C   UNL A   1      42.529  35.617  27.239  1.00  0.00     0.000 A 
ENDBRANCH  58  77
BRANCH  70  83
ATOM     83  C   UNL A   1      51.445  34.422  25.909  1.00  0.00    -0.014 A 
ATOM     84  C   UNL A   1      51.629  35.046  24.666  1.00  0.00     0.009 A 
ATOM     85  C   UNL A   1      52.058  34.970  27.047  1.00  0.00     0.009 A 
ATOM     86  C   UNL A   1      52.430  36.185  24.563  1.00  0.00     0.001 A 
ATOM     87  C   UNL A   1      52.837  36.123  26.945  1.00  0.00     0.001 A 
ATOM     88  C   UNL A   1      53.027  36.725  25.702  1.00  0.00     0.000 A 
ENDBRANCH  70  83
ENDBRANCH  44  45
ENDBRANCH  36  39
ENDBRANCH  34  35
ENDBRANCH  33  34
ENDBRANCH  32  33
ENDBRANCH   1  32
TORSDOF 16
ENDMDL
