MODEL 1
REMARK VINA RESULT:     -11.1      0.000      0.000
REMARK SMILES O=C(CC1(CC(=O)NNc2ccc([N+](=O)[O-])cc2)CCCC1)NCCCCNC(=O)c1ccc(-c2c3nc(c(-c4ccccc4)c4ccc([nH]4)c(-c4ccccc4)c4nc(c(-c5ccccc5)c5ccc2[nH]5)C=C4)C=C3)cc1
REMARK SMILES IDX 1 1 2 2 23 3 3 5 4 6 19 7 22 8 20 9 21 10 5 11 6 12 7 13
REMARK SMILES IDX 8 14 9 16 10 18 11 19 18 20 12 21 17 22 13 23 14 24 15 25
REMARK SMILES IDX 16 26 24 27 25 28 26 29 27 30 28 31 29 32 30 34 31 35 32 36
REMARK SMILES IDX 78 37 33 38 77 39 34 40 35 41 36 42 71 43 37 44 76 45 70 46
REMARK SMILES IDX 72 47 38 48 75 49 69 50 68 51 39 53 61 54 46 55 60 56 47 57
REMARK SMILES IDX 50 58 59 59 73 60 48 61 49 62 58 64 74 65 51 66 40 67 41 68
REMARK SMILES IDX 45 69 42 70 44 71 43 72 62 73 63 74 67 75 64 76 66 77 65 78
REMARK SMILES IDX 52 79 53 80 57 81 54 82 56 83 55 84
REMARK H PARENT 23 4 8 15 9 17 28 33 72 52 50 63
REMARK Flexibility Score: inf
ROOT
ATOM      1  O   UNL A   1      34.664  22.585  26.436  1.00  0.00    -0.275 OA
ATOM      2  C   UNL A   1      35.081  23.621  25.923  1.00  0.00     0.220 C 
ATOM      3  N   UNL A   1      36.321  23.728  25.340  1.00  0.00    -0.356 N 
ATOM      4  H   UNL A   1      36.536  24.537  24.821  1.00  0.00     0.163 HD
ENDROOT
BRANCH   2   5
ATOM      5  C   UNL A   1      34.277  24.914  25.978  1.00  0.00     0.107 C 
BRANCH   5   6
ATOM      6  C   UNL A   1      33.346  25.131  24.750  1.00  0.00    -0.012 C 
ATOM      7  C   UNL A   1      33.425  26.599  24.254  1.00  0.00     0.008 C 
ATOM      8  C   UNL A   1      33.843  24.426  23.476  1.00  0.00     0.008 C 
ATOM      9  C   UNL A   1      32.933  26.570  22.805  1.00  0.00     0.001 C 
ATOM     10  C   UNL A   1      33.163  25.142  22.315  1.00  0.00     0.001 C 
BRANCH   6  11
ATOM     11  C   UNL A   1      31.858  24.812  25.081  1.00  0.00     0.109 C 
BRANCH  11  12
ATOM     12  C   UNL A   1      31.618  23.684  26.065  1.00  0.00     0.238 C 
ATOM     13  O   UNL A   1      31.428  23.915  27.264  1.00  0.00    -0.273 OA
ATOM     14  N   UNL A   1      31.618  22.386  25.638  1.00  0.00    -0.270 N 
ATOM     15  H   UNL A   1      31.298  21.690  26.257  1.00  0.00     0.191 HD
BRANCH  14  16
ATOM     16  N   UNL A   1      32.047  21.993  24.376  1.00  0.00    -0.299 N 
ATOM     17  H   UNL A   1      32.134  22.617  23.619  1.00  0.00     0.188 HD
BRANCH  16  18
ATOM     18  C   UNL A   1      32.343  20.622  24.283  1.00  0.00     0.055 A 
ATOM     19  C   UNL A   1      32.831  19.928  25.397  1.00  0.00     0.034 A 
ATOM     20  C   UNL A   1      32.204  19.937  23.069  1.00  0.00     0.034 A 
ATOM     21  C   UNL A   1      33.142  18.568  25.323  1.00  0.00     0.088 A 
ATOM     22  C   UNL A   1      32.517  18.577  22.978  1.00  0.00     0.088 A 
ATOM     23  C   UNL A   1      32.980  17.895  24.109  1.00  0.00     0.269 A 
BRANCH  23  24
ATOM     24  N   UNL A   1      33.310  16.467  24.017  1.00  0.00     0.062 N 
ATOM     25  O   UNL A   1      34.062  16.107  23.102  1.00  0.00    -0.258 OA
ATOM     26  O   UNL A   1      32.808  15.710  24.860  1.00  0.00    -0.258 OA
ENDBRANCH  23  24
ENDBRANCH  16  18
ENDBRANCH  14  16
ENDBRANCH  11  12
ENDBRANCH   6  11
ENDBRANCH   5   6
ENDBRANCH   2   5
BRANCH   3  27
ATOM     27  C   UNL A   1      37.320  22.686  25.466  1.00  0.00     0.116 C 
BRANCH  27  28
ATOM     28  C   UNL A   1      37.189  21.591  24.410  1.00  0.00     0.023 C 
BRANCH  28  29
ATOM     29  C   UNL A   1      37.952  20.295  24.701  1.00  0.00     0.023 C 
BRANCH  29  30
ATOM     30  C   UNL A   1      38.846  20.314  25.940  1.00  0.00     0.116 C 
BRANCH  30  31
ATOM     31  N   UNL A   1      39.974  19.401  25.845  1.00  0.00    -0.352 N 
ATOM     32  C   UNL A   1      41.320  19.612  26.037  1.00  0.00     0.251 C 
ATOM     33  H   UNL A   1      39.734  18.477  25.604  1.00  0.00     0.163 HD
ATOM     34  O   UNL A   1      42.112  18.719  25.752  1.00  0.00    -0.269 OA
BRANCH  32  35
ATOM     35  C   UNL A   1      41.840  20.899  26.566  1.00  0.00     0.039 A 
ATOM     36  C   UNL A   1      42.305  21.863  25.664  1.00  0.00     0.014 A 
ATOM     37  C   UNL A   1      41.920  21.153  27.935  1.00  0.00     0.014 A 
ATOM     38  C   UNL A   1      42.774  23.097  26.132  1.00  0.00     0.010 A 
ATOM     39  C   UNL A   1      42.337  22.400  28.404  1.00  0.00     0.010 A 
ATOM     40  C   UNL A   1      42.759  23.389  27.505  1.00  0.00    -0.014 A 
BRANCH  40  41
ATOM     41  C   UNL A   1      43.117  24.739  28.014  1.00  0.00     0.031 A 
ATOM     42  C   UNL A   1      42.060  25.777  28.273  1.00  0.00     0.074 A 
ATOM     43  C   UNL A   1      44.417  25.060  28.161  1.00  0.00     0.049 A 
ATOM     44  N   UNL A   1      42.206  27.017  28.669  1.00  0.00    -0.248 NA
ATOM     45  C   UNL A   1      40.664  25.382  28.032  1.00  0.00     0.031 C 
ATOM     46  C   UNL A   1      45.546  24.166  27.890  1.00  0.00     0.029 A 
ATOM     47  N   UNL A   1      45.010  26.231  28.561  1.00  0.00    -0.354 N 
ATOM     48  C   UNL A   1      40.925  27.554  28.716  1.00  0.00     0.074 A 
ATOM     49  C   UNL A   1      40.019  26.517  28.266  1.00  0.00     0.031 C 
ATOM     50  C   UNL A   1      46.692  24.814  28.154  1.00  0.00     0.029 A 
ATOM     51  C   UNL A   1      46.383  26.174  28.581  1.00  0.00     0.049 A 
ATOM     52  H   UNL A   1      44.501  27.036  28.811  1.00  0.00     0.167 HD
ATOM     53  C   UNL A   1      40.536  28.790  29.113  1.00  0.00     0.031 A 
ATOM     54  C   UNL A   1      47.294  27.109  28.906  1.00  0.00     0.031 A 
ATOM     55  C   UNL A   1      41.430  29.819  29.577  1.00  0.00     0.049 A 
ATOM     56  C   UNL A   1      46.837  28.471  29.344  1.00  0.00     0.074 A 
ATOM     57  C   UNL A   1      41.118  31.073  30.073  1.00  0.00     0.029 A 
ATOM     58  N   UNL A   1      42.812  29.715  29.598  1.00  0.00    -0.354 N 
ATOM     59  N   UNL A   1      45.616  28.932  29.462  1.00  0.00    -0.248 NA
ATOM     60  C   UNL A   1      47.885  29.434  29.708  1.00  0.00     0.031 C 
ATOM     61  C   UNL A   1      42.312  31.745  30.352  1.00  0.00     0.029 A 
ATOM     62  C   UNL A   1      43.367  30.892  30.073  1.00  0.00     0.049 A 
ATOM     63  H   UNL A   1      43.323  28.921  29.318  1.00  0.00     0.167 HD
ATOM     64  C   UNL A   1      45.748  30.228  29.941  1.00  0.00     0.074 A 
ATOM     65  C   UNL A   1      47.165  30.477  30.102  1.00  0.00     0.031 C 
ATOM     66  C   UNL A   1      44.778  31.130  30.226  1.00  0.00     0.031 A 
BRANCH  53  67
ATOM     67  C   UNL A   1      39.066  29.105  29.064  1.00  0.00    -0.014 A 
ATOM     68  C   UNL A   1      38.238  28.882  30.175  1.00  0.00     0.009 A 
ATOM     69  C   UNL A   1      38.514  29.687  27.911  1.00  0.00     0.009 A 
ATOM     70  C   UNL A   1      36.880  29.204  30.122  1.00  0.00     0.001 A 
ATOM     71  C   UNL A   1      37.162  30.032  27.870  1.00  0.00     0.001 A 
ATOM     72  C   UNL A   1      36.344  29.783  28.971  1.00  0.00     0.000 A 
ENDBRANCH  53  67
BRANCH  54  73
ATOM     73  C   UNL A   1      48.741  26.780  28.858  1.00  0.00    -0.014 A 
ATOM     74  C   UNL A   1      49.395  26.302  30.004  1.00  0.00     0.009 A 
ATOM     75  C   UNL A   1      49.474  26.939  27.672  1.00  0.00     0.009 A 
ATOM     76  C   UNL A   1      50.761  26.013  29.970  1.00  0.00     0.001 A 
ATOM     77  C   UNL A   1      50.833  26.625  27.634  1.00  0.00     0.001 A 
ATOM     78  C   UNL A   1      51.478  26.171  28.785  1.00  0.00     0.000 A 
ENDBRANCH  54  73
BRANCH  66  79
ATOM     79  C   UNL A   1      45.217  32.460  30.771  1.00  0.00    -0.014 A 
ATOM     80  C   UNL A   1      45.468  33.547  29.920  1.00  0.00     0.009 A 
ATOM     81  C   UNL A   1      45.354  32.632  32.157  1.00  0.00     0.009 A 
ATOM     82  C   UNL A   1      45.876  34.775  30.446  1.00  0.00     0.001 A 
ATOM     83  C   UNL A   1      45.738  33.867  32.682  1.00  0.00     0.001 A 
ATOM     84  C   UNL A   1      46.008  34.934  31.826  1.00  0.00     0.000 A 
ENDBRANCH  66  79
ENDBRANCH  40  41
ENDBRANCH  32  35
ENDBRANCH  30  31
ENDBRANCH  29  30
ENDBRANCH  28  29
ENDBRANCH  27  28
ENDBRANCH   3  27
TORSDOF 17
ENDMDL
MODEL 2
REMARK VINA RESULT:     -10.9      1.043      1.823
REMARK SMILES O=C(CC1(CC(=O)NNc2ccc([N+](=O)[O-])cc2)CCCC1)NCCCCNC(=O)c1ccc(-c2c3nc(c(-c4ccccc4)c4ccc([nH]4)c(-c4ccccc4)c4nc(c(-c5ccccc5)c5ccc2[nH]5)C=C4)C=C3)cc1
REMARK SMILES IDX 1 1 2 2 23 3 3 5 4 6 19 7 22 8 20 9 21 10 5 11 6 12 7 13
REMARK SMILES IDX 8 14 9 16 10 18 11 19 18 20 12 21 17 22 13 23 14 24 15 25
REMARK SMILES IDX 16 26 24 27 25 28 26 29 27 30 28 31 29 32 30 34 31 35 32 36
REMARK SMILES IDX 78 37 33 38 77 39 34 40 35 41 36 42 71 43 37 44 76 45 70 46
REMARK SMILES IDX 72 47 38 48 75 49 69 50 68 51 39 53 61 54 46 55 60 56 47 57
REMARK SMILES IDX 50 58 59 59 73 60 48 61 49 62 58 64 74 65 51 66 40 67 41 68
REMARK SMILES IDX 45 69 42 70 44 71 43 72 62 73 63 74 67 75 64 76 66 77 65 78
REMARK SMILES IDX 52 79 53 80 57 81 54 82 56 83 55 84
REMARK H PARENT 23 4 8 15 9 17 28 33 72 52 50 63
REMARK Flexibility Score: inf
ROOT
ATOM      1  O   UNL A   1      36.287  23.960  26.030  1.00  0.00    -0.275 OA
ATOM      2  C   UNL A   1      35.617  23.488  25.115  1.00  0.00     0.220 C 
ATOM      3  N   UNL A   1      35.523  22.139  24.867  1.00  0.00    -0.356 N 
ATOM      4  H   UNL A   1      34.857  21.819  24.215  1.00  0.00     0.163 HD
ENDROOT
BRANCH   2   5
ATOM      5  C   UNL A   1      34.900  24.382  24.110  1.00  0.00     0.107 C 
BRANCH   5   6
ATOM      6  C   UNL A   1      33.516  24.898  24.600  1.00  0.00    -0.012 C 
ATOM      7  C   UNL A   1      32.987  24.025  25.768  1.00  0.00     0.008 C 
ATOM      8  C   UNL A   1      33.594  26.249  25.333  1.00  0.00     0.008 C 
ATOM      9  C   UNL A   1      31.955  24.892  26.494  1.00  0.00     0.001 C 
ATOM     10  C   UNL A   1      32.325  26.338  26.171  1.00  0.00     0.001 C 
BRANCH   6  11
ATOM     11  C   UNL A   1      32.452  24.883  23.464  1.00  0.00     0.109 C 
BRANCH  11  12
ATOM     12  C   UNL A   1      32.863  24.213  22.168  1.00  0.00     0.238 C 
ATOM     13  O   UNL A   1      33.503  24.827  21.309  1.00  0.00    -0.273 OA
ATOM     14  N   UNL A   1      32.519  22.912  21.926  1.00  0.00    -0.270 N 
ATOM     15  H   UNL A   1      32.936  22.454  21.160  1.00  0.00     0.191 HD
BRANCH  14  16
ATOM     16  N   UNL A   1      31.613  22.201  22.702  1.00  0.00    -0.299 N 
ATOM     17  H   UNL A   1      30.748  22.571  22.994  1.00  0.00     0.188 HD
BRANCH  16  18
ATOM     18  C   UNL A   1      32.046  20.905  23.030  1.00  0.00     0.055 A 
ATOM     19  C   UNL A   1      32.063  19.899  22.056  1.00  0.00     0.034 A 
ATOM     20  C   UNL A   1      32.422  20.582  24.340  1.00  0.00     0.034 A 
ATOM     21  C   UNL A   1      32.479  18.601  22.364  1.00  0.00     0.088 A 
ATOM     22  C   UNL A   1      32.835  19.286  24.665  1.00  0.00     0.088 A 
ATOM     23  C   UNL A   1      32.869  18.300  23.671  1.00  0.00     0.269 A 
BRANCH  23  24
ATOM     24  N   UNL A   1      33.303  16.939  24.008  1.00  0.00     0.062 N 
ATOM     25  O   UNL A   1      33.819  16.260  23.110  1.00  0.00    -0.258 OA
ATOM     26  O   UNL A   1      33.118  16.551  25.171  1.00  0.00    -0.258 OA
ENDBRANCH  23  24
ENDBRANCH  16  18
ENDBRANCH  14  16
ENDBRANCH  11  12
ENDBRANCH   6  11
ENDBRANCH   5   6
ENDBRANCH   2   5
BRANCH   3  27
ATOM     27  C   UNL A   1      36.372  21.175  25.537  1.00  0.00     0.116 C 
BRANCH  27  28
ATOM     28  C   UNL A   1      36.373  19.801  24.871  1.00  0.00     0.023 C 
BRANCH  28  29
ATOM     29  C   UNL A   1      37.715  19.063  24.875  1.00  0.00     0.023 C 
BRANCH  29  30
ATOM     30  C   UNL A   1      38.928  19.892  25.295  1.00  0.00     0.116 C 
BRANCH  30  31
ATOM     31  N   UNL A   1      40.083  19.078  25.642  1.00  0.00    -0.352 N 
ATOM     32  C   UNL A   1      41.307  19.431  26.163  1.00  0.00     0.251 C 
ATOM     33  H   UNL A   1      39.969  18.114  25.478  1.00  0.00     0.163 HD
ATOM     34  O   UNL A   1      42.192  18.585  26.235  1.00  0.00    -0.269 OA
BRANCH  32  35
ATOM     35  C   UNL A   1      41.588  20.815  26.625  1.00  0.00     0.039 A 
ATOM     36  C   UNL A   1      41.522  21.098  27.994  1.00  0.00     0.014 A 
ATOM     37  C   UNL A   1      41.870  21.847  25.730  1.00  0.00     0.014 A 
ATOM     38  C   UNL A   1      41.809  22.386  28.462  1.00  0.00     0.010 A 
ATOM     39  C   UNL A   1      42.208  23.119  26.195  1.00  0.00     0.010 A 
ATOM     40  C   UNL A   1      42.192  23.398  27.568  1.00  0.00    -0.014 A 
BRANCH  40  41
ATOM     41  C   UNL A   1      42.638  24.731  28.051  1.00  0.00     0.031 A 
ATOM     42  C   UNL A   1      41.649  25.830  28.326  1.00  0.00     0.074 A 
ATOM     43  C   UNL A   1      43.958  24.980  28.161  1.00  0.00     0.049 A 
ATOM     44  N   UNL A   1      41.874  27.063  28.704  1.00  0.00    -0.248 NA
ATOM     45  C   UNL A   1      40.227  25.511  28.125  1.00  0.00     0.031 C 
ATOM     46  C   UNL A   1      45.027  24.021  27.871  1.00  0.00     0.029 A 
ATOM     47  N   UNL A   1      44.626  26.120  28.532  1.00  0.00    -0.354 N 
ATOM     48  C   UNL A   1      40.627  27.672  28.777  1.00  0.00     0.074 A 
ATOM     49  C   UNL A   1      39.653  26.683  28.363  1.00  0.00     0.031 C 
ATOM     50  C   UNL A   1      46.214  24.606  28.097  1.00  0.00     0.029 A 
ATOM     51  C   UNL A   1      45.993  25.986  28.517  1.00  0.00     0.049 A 
ATOM     52  H   UNL A   1      44.170  26.954  28.786  1.00  0.00     0.167 HD
ATOM     53  C   UNL A   1      40.318  28.932  29.170  1.00  0.00     0.031 A 
ATOM     54  C   UNL A   1      46.964  26.871  28.807  1.00  0.00     0.031 A 
ATOM     55  C   UNL A   1      41.281  29.913  29.598  1.00  0.00     0.049 A 
ATOM     56  C   UNL A   1      46.595  28.260  29.242  1.00  0.00     0.074 A 
ATOM     57  C   UNL A   1      41.053  31.188  30.088  1.00  0.00     0.029 A 
ATOM     58  N   UNL A   1      42.655  29.731  29.586  1.00  0.00    -0.354 N 
ATOM     59  N   UNL A   1      45.406  28.791  29.386  1.00  0.00    -0.248 NA
ATOM     60  C   UNL A   1      47.705  29.167  29.567  1.00  0.00     0.031 C 
ATOM     61  C   UNL A   1      42.290  31.794  30.328  1.00  0.00     0.029 A 
ATOM     62  C   UNL A   1      43.287  30.880  30.032  1.00  0.00     0.049 A 
ATOM     63  H   UNL A   1      43.113  28.908  29.301  1.00  0.00     0.167 HD
ATOM     64  C   UNL A   1      45.622  30.082  29.846  1.00  0.00     0.074 A 
ATOM     65  C   UNL A   1      47.055  30.252  29.967  1.00  0.00     0.031 C 
ATOM     66  C   UNL A   1      44.712  31.041  30.146  1.00  0.00     0.031 A 
BRANCH  53  67
ATOM     67  C   UNL A   1      38.868  29.329  29.155  1.00  0.00    -0.014 A 
ATOM     68  C   UNL A   1      38.274  29.870  28.005  1.00  0.00     0.009 A 
ATOM     69  C   UNL A   1      38.071  29.104  30.290  1.00  0.00     0.009 A 
ATOM     70  C   UNL A   1      36.919  30.209  28.000  1.00  0.00     0.001 A 
ATOM     71  C   UNL A   1      36.711  29.420  30.274  1.00  0.00     0.001 A 
ATOM     72  C   UNL A   1      36.138  29.981  29.133  1.00  0.00     0.000 A 
ENDBRANCH  53  67
BRANCH  54  73
ATOM     73  C   UNL A   1      48.389  26.460  28.725  1.00  0.00    -0.014 A 
ATOM     74  C   UNL A   1      49.094  26.593  27.519  1.00  0.00     0.009 A 
ATOM     75  C   UNL A   1      49.049  25.936  29.847  1.00  0.00     0.009 A 
ATOM     76  C   UNL A   1      50.426  26.185  27.432  1.00  0.00     0.001 A 
ATOM     77  C   UNL A   1      50.388  25.554  29.763  1.00  0.00     0.001 A 
ATOM     78  C   UNL A   1      51.074  25.670  28.554  1.00  0.00     0.000 A 
ENDBRANCH  54  73
BRANCH  66  79
ATOM     79  C   UNL A   1      45.239  32.349  30.664  1.00  0.00    -0.014 A 
ATOM     80  C   UNL A   1      45.535  33.409  29.794  1.00  0.00     0.009 A 
ATOM     81  C   UNL A   1      45.416  32.529  32.044  1.00  0.00     0.009 A 
ATOM     82  C   UNL A   1      46.025  34.617  30.295  1.00  0.00     0.001 A 
ATOM     83  C   UNL A   1      45.882  33.746  32.544  1.00  0.00     0.001 A 
ATOM     84  C   UNL A   1      46.195  34.785  31.670  1.00  0.00     0.000 A 
ENDBRANCH  66  79
ENDBRANCH  40  41
ENDBRANCH  32  35
ENDBRANCH  30  31
ENDBRANCH  29  30
ENDBRANCH  28  29
ENDBRANCH  27  28
ENDBRANCH   3  27
TORSDOF 17
ENDMDL
MODEL 3
REMARK VINA RESULT:     -10.9      3.351      8.133
REMARK SMILES O=C(CC1(CC(=O)NNc2ccc([N+](=O)[O-])cc2)CCCC1)NCCCCNC(=O)c1ccc(-c2c3nc(c(-c4ccccc4)c4ccc([nH]4)c(-c4ccccc4)c4nc(c(-c5ccccc5)c5ccc2[nH]5)C=C4)C=C3)cc1
REMARK SMILES IDX 1 1 2 2 23 3 3 5 4 6 19 7 22 8 20 9 21 10 5 11 6 12 7 13
REMARK SMILES IDX 8 14 9 16 10 18 11 19 18 20 12 21 17 22 13 23 14 24 15 25
REMARK SMILES IDX 16 26 24 27 25 28 26 29 27 30 28 31 29 32 30 34 31 35 32 36
REMARK SMILES IDX 78 37 33 38 77 39 34 40 35 41 36 42 71 43 37 44 76 45 70 46
REMARK SMILES IDX 72 47 38 48 75 49 69 50 68 51 39 53 61 54 46 55 60 56 47 57
REMARK SMILES IDX 50 58 59 59 73 60 48 61 49 62 58 64 74 65 51 66 40 67 41 68
REMARK SMILES IDX 45 69 42 70 44 71 43 72 62 73 63 74 67 75 64 76 66 77 65 78
REMARK SMILES IDX 52 79 53 80 57 81 54 82 56 83 55 84
REMARK H PARENT 23 4 8 15 9 17 28 33 72 52 50 63
REMARK Flexibility Score: inf
ROOT
ATOM      1  O   UNL A   1      31.515  25.630  24.738  1.00  0.00    -0.275 OA
ATOM      2  C   UNL A   1      32.604  26.149  24.973  1.00  0.00     0.220 C 
ATOM      3  N   UNL A   1      32.765  27.212  25.828  1.00  0.00    -0.356 N 
ATOM      4  H   UNL A   1      33.675  27.486  26.084  1.00  0.00     0.163 HD
ENDROOT
BRANCH   2   5
ATOM      5  C   UNL A   1      33.869  25.704  24.249  1.00  0.00     0.107 C 
BRANCH   5   6
ATOM      6  C   UNL A   1      34.405  24.317  24.709  1.00  0.00    -0.012 C 
ATOM      7  C   UNL A   1      35.846  24.445  25.271  1.00  0.00     0.008 C 
ATOM      8  C   UNL A   1      33.707  23.782  25.972  1.00  0.00     0.008 C 
ATOM      9  C   UNL A   1      36.055  23.208  26.148  1.00  0.00     0.001 C 
ATOM     10  C   UNL A   1      34.659  22.751  26.565  1.00  0.00     0.001 C 
BRANCH   6  11
ATOM     11  C   UNL A   1      34.430  23.284  23.544  1.00  0.00     0.109 C 
BRANCH  11  12
ATOM     12  C   UNL A   1      33.296  23.377  22.541  1.00  0.00     0.238 C 
ATOM     13  O   UNL A   1      33.379  24.113  21.553  1.00  0.00    -0.273 OA
ATOM     14  N   UNL A   1      32.154  22.649  22.726  1.00  0.00    -0.270 N 
ATOM     15  H   UNL A   1      31.508  22.599  21.984  1.00  0.00     0.191 HD
BRANCH  14  16
ATOM     16  N   UNL A   1      31.853  21.977  23.903  1.00  0.00    -0.299 N 
ATOM     17  H   UNL A   1      31.409  22.406  24.670  1.00  0.00     0.188 HD
BRANCH  16  18
ATOM     18  C   UNL A   1      32.243  20.626  23.896  1.00  0.00     0.055 A 
ATOM     19  C   UNL A   1      32.195  19.884  22.709  1.00  0.00     0.034 A 
ATOM     20  C   UNL A   1      32.638  19.986  25.077  1.00  0.00     0.034 A 
ATOM     21  C   UNL A   1      32.568  18.538  22.683  1.00  0.00     0.088 A 
ATOM     22  C   UNL A   1      33.008  18.636  25.068  1.00  0.00     0.088 A 
ATOM     23  C   UNL A   1      32.977  17.918  23.866  1.00  0.00     0.269 A 
BRANCH  23  24
ATOM     24  N   UNL A   1      33.365  16.503  23.852  1.00  0.00     0.062 N 
ATOM     25  O   UNL A   1      34.122  16.121  22.949  1.00  0.00    -0.258 OA
ATOM     26  O   UNL A   1      32.903  15.775  24.743  1.00  0.00    -0.258 OA
ENDBRANCH  23  24
ENDBRANCH  16  18
ENDBRANCH  14  16
ENDBRANCH  11  12
ENDBRANCH   6  11
ENDBRANCH   5   6
ENDBRANCH   2   5
BRANCH   3  27
ATOM     27  C   UNL A   1      31.633  27.942  26.365  1.00  0.00     0.116 C 
BRANCH  27  28
ATOM     28  C   UNL A   1      31.495  29.351  25.792  1.00  0.00     0.023 C 
BRANCH  28  29
ATOM     29  C   UNL A   1      31.545  30.490  26.815  1.00  0.00     0.023 C 
BRANCH  29  30
ATOM     30  C   UNL A   1      32.680  31.496  26.635  1.00  0.00     0.116 C 
BRANCH  30  31
ATOM     31  N   UNL A   1      32.359  32.817  27.151  1.00  0.00    -0.352 N 
ATOM     32  C   UNL A   1      33.021  33.614  28.058  1.00  0.00     0.251 C 
ATOM     33  H   UNL A   1      31.531  33.208  26.790  1.00  0.00     0.163 HD
ATOM     34  O   UNL A   1      32.480  34.639  28.460  1.00  0.00    -0.269 OA
BRANCH  32  35
ATOM     35  C   UNL A   1      34.367  33.255  28.573  1.00  0.00     0.039 A 
ATOM     36  C   UNL A   1      34.465  32.541  29.773  1.00  0.00     0.014 A 
ATOM     37  C   UNL A   1      35.534  33.651  27.920  1.00  0.00     0.014 A 
ATOM     38  C   UNL A   1      35.719  32.165  30.269  1.00  0.00     0.010 A 
ATOM     39  C   UNL A   1      36.784  33.234  28.381  1.00  0.00     0.010 A 
ATOM     40  C   UNL A   1      36.888  32.477  29.556  1.00  0.00    -0.014 A 
BRANCH  40  41
ATOM     41  C   UNL A   1      38.217  31.968  29.985  1.00  0.00     0.031 A 
ATOM     42  C   UNL A   1      38.747  30.654  29.480  1.00  0.00     0.074 A 
ATOM     43  C   UNL A   1      38.914  32.656  30.910  1.00  0.00     0.049 A 
ATOM     44  N   UNL A   1      39.861  30.042  29.792  1.00  0.00    -0.248 NA
ATOM     45  C   UNL A   1      37.905  29.922  28.520  1.00  0.00     0.031 C 
ATOM     46  C   UNL A   1      38.490  33.916  31.526  1.00  0.00     0.029 A 
ATOM     47  N   UNL A   1      40.122  32.387  31.503  1.00  0.00    -0.354 N 
ATOM     48  C   UNL A   1      39.853  28.850  29.078  1.00  0.00     0.074 A 
ATOM     49  C   UNL A   1      38.603  28.806  28.350  1.00  0.00     0.031 C 
ATOM     50  C   UNL A   1      39.433  34.320  32.392  1.00  0.00     0.029 A 
ATOM     51  C   UNL A   1      40.511  33.337  32.417  1.00  0.00     0.049 A 
ATOM     52  H   UNL A   1      40.660  31.589  31.294  1.00  0.00     0.167 HD
ATOM     53  C   UNL A   1      40.806  27.888  29.020  1.00  0.00     0.031 A 
ATOM     54  C   UNL A   1      41.610  33.412  33.190  1.00  0.00     0.031 A 
ATOM     55  C   UNL A   1      42.059  27.935  29.729  1.00  0.00     0.049 A 
ATOM     56  C   UNL A   1      42.652  32.335  33.104  1.00  0.00     0.074 A 
ATOM     57  C   UNL A   1      43.118  27.044  29.669  1.00  0.00     0.029 A 
ATOM     58  N   UNL A   1      42.421  28.923  30.630  1.00  0.00    -0.354 N 
ATOM     59  N   UNL A   1      42.664  31.257  32.360  1.00  0.00    -0.248 NA
ATOM     60  C   UNL A   1      43.838  32.494  33.958  1.00  0.00     0.031 C 
ATOM     61  C   UNL A   1      44.101  27.469  30.568  1.00  0.00     0.029 A 
ATOM     62  C   UNL A   1      43.674  28.649  31.153  1.00  0.00     0.049 A 
ATOM     63  H   UNL A   1      41.869  29.705  30.864  1.00  0.00     0.167 HD
ATOM     64  C   UNL A   1      43.870  30.624  32.632  1.00  0.00     0.074 A 
ATOM     65  C   UNL A   1      44.566  31.444  33.602  1.00  0.00     0.031 C 
ATOM     66  C   UNL A   1      44.357  29.469  32.120  1.00  0.00     0.031 A 
BRANCH  53  67
ATOM     67  C   UNL A   1      40.533  26.690  28.154  1.00  0.00    -0.014 A 
ATOM     68  C   UNL A   1      39.733  25.632  28.609  1.00  0.00     0.009 A 
ATOM     69  C   UNL A   1      41.036  26.646  26.843  1.00  0.00     0.009 A 
ATOM     70  C   UNL A   1      39.467  24.538  27.782  1.00  0.00     0.001 A 
ATOM     71  C   UNL A   1      40.748  25.565  26.009  1.00  0.00     0.001 A 
ATOM     72  C   UNL A   1      39.972  24.507  26.481  1.00  0.00     0.000 A 
ENDBRANCH  53  67
BRANCH  54  73
ATOM     73  C   UNL A   1      41.798  34.574  34.096  1.00  0.00    -0.014 A 
ATOM     74  C   UNL A   1      42.407  35.746  33.623  1.00  0.00     0.009 A 
ATOM     75  C   UNL A   1      41.373  34.518  35.431  1.00  0.00     0.009 A 
ATOM     76  C   UNL A   1      42.608  36.832  34.477  1.00  0.00     0.001 A 
ATOM     77  C   UNL A   1      41.552  35.613  36.276  1.00  0.00     0.001 A 
ATOM     78  C   UNL A   1      42.177  36.767  35.802  1.00  0.00     0.000 A 
ENDBRANCH  54  73
BRANCH  66  79
ATOM     79  C   UNL A   1      45.722  29.038  32.575  1.00  0.00    -0.014 A 
ATOM     80  C   UNL A   1      46.880  29.469  31.910  1.00  0.00     0.009 A 
ATOM     81  C   UNL A   1      45.851  28.213  33.703  1.00  0.00     0.009 A 
ATOM     82  C   UNL A   1      48.140  29.057  32.349  1.00  0.00     0.001 A 
ATOM     83  C   UNL A   1      47.113  27.822  34.154  1.00  0.00     0.001 A 
ATOM     84  C   UNL A   1      48.255  28.237  33.471  1.00  0.00     0.000 A 
ENDBRANCH  66  79
ENDBRANCH  40  41
ENDBRANCH  32  35
ENDBRANCH  30  31
ENDBRANCH  29  30
ENDBRANCH  28  29
ENDBRANCH  27  28
ENDBRANCH   3  27
TORSDOF 17
ENDMDL
