MODEL 1
REMARK VINA RESULT:     -11.2      0.000      0.000
REMARK SMILES O=C(NCCCCNC(=O)[C@@H]1C[C@@H](O)CN1C(=O)c1ccccc1)c1ccc(-c2c3nc(c(-c4ccccc4)c4ccc([nH]4)c(-c4ccccc4)c4nc(c(-c5ccccc5)c5ccc2[nH]5)C=C4)C=C3)cc1
REMARK SMILES IDX 5 1 4 2 3 3 1 4 2 5 25 7 26 8 72 9 27 10 71 11 28 12 29 13
REMARK SMILES IDX 30 14 65 15 31 16 70 17 64 18 66 19 32 20 69 21 63 22 62 23
REMARK SMILES IDX 33 25 55 26 40 27 54 28 41 29 44 30 53 31 67 32 42 33 43 34
REMARK SMILES IDX 52 36 68 37 45 38 34 39 35 40 39 41 36 42 38 43 37 44 56 45
REMARK SMILES IDX 57 46 61 47 58 48 60 49 59 50 46 51 47 52 51 53 48 54 50 55
REMARK SMILES IDX 49 56 6 57 7 58 8 59 9 60 10 62 11 63 12 64 16 65 13 66
REMARK SMILES IDX 15 67 17 68 18 69 19 70 20 71 24 72 21 73 23 74 22 75 14 76
REMARK H PARENT 3 6 66 24 44 35 8 61 14 77
REMARK Flexibility Score: inf
ROOT
ATOM      1  C   UNL A   1      31.401  32.029  26.750  1.00  0.00     0.023 C 
ENDROOT
BRANCH   1   2
ATOM      2  C   UNL A   1      32.619  32.793  27.231  1.00  0.00     0.116 C 
BRANCH   2   3
ATOM      3  N   UNL A   1      32.333  34.165  27.627  1.00  0.00    -0.352 N 
ATOM      4  O   UNL A   1      32.612  36.043  28.863  1.00  0.00    -0.269 OA
ATOM      5  C   UNL A   1      33.008  34.924  28.552  1.00  0.00     0.251 C 
ATOM      6  H   UNL A   1      31.569  34.596  27.181  1.00  0.00     0.163 HD
BRANCH   5   7
ATOM      7  C   UNL A   1      34.202  34.345  29.194  1.00  0.00     0.039 A 
ATOM      8  C   UNL A   1      35.466  34.569  28.642  1.00  0.00     0.014 A 
ATOM      9  C   UNL A   1      34.046  33.515  30.308  1.00  0.00     0.014 A 
ATOM     10  C   UNL A   1      36.554  33.853  29.115  1.00  0.00     0.010 A 
ATOM     11  C   UNL A   1      35.163  32.869  30.842  1.00  0.00     0.010 A 
ATOM     12  C   UNL A   1      36.419  33.018  30.235  1.00  0.00    -0.014 A 
BRANCH  12  13
ATOM     13  C   UNL A   1      37.636  32.404  30.813  1.00  0.00     0.031 A 
ATOM     14  C   UNL A   1      38.262  32.927  32.072  1.00  0.00     0.074 A 
ATOM     15  C   UNL A   1      38.153  31.332  30.181  1.00  0.00     0.049 A 
ATOM     16  N   UNL A   1      39.322  32.484  32.701  1.00  0.00    -0.248 NA
ATOM     17  C   UNL A   1      37.630  34.093  32.708  1.00  0.00     0.031 C 
ATOM     18  C   UNL A   1      37.625  30.748  28.944  1.00  0.00     0.029 A 
ATOM     19  N   UNL A   1      39.216  30.529  30.499  1.00  0.00    -0.354 N 
ATOM     20  C   UNL A   1      39.501  33.330  33.787  1.00  0.00     0.074 A 
ATOM     21  C   UNL A   1      38.445  34.318  33.731  1.00  0.00     0.031 C 
ATOM     22  C   UNL A   1      38.330  29.650  28.640  1.00  0.00     0.029 A 
ATOM     23  C   UNL A   1      39.401  29.496  29.615  1.00  0.00     0.049 A 
ATOM     24  H   UNL A   1      39.789  30.677  31.286  1.00  0.00     0.167 HD
ATOM     25  C   UNL A   1      40.466  33.283  34.737  1.00  0.00     0.031 A 
ATOM     26  C   UNL A   1      40.345  28.541  29.574  1.00  0.00     0.031 A 
ATOM     27  C   UNL A   1      41.504  32.287  34.791  1.00  0.00     0.049 A 
ATOM     28  C   UNL A   1      41.404  28.529  30.631  1.00  0.00     0.074 A 
ATOM     29  C   UNL A   1      42.500  32.131  35.739  1.00  0.00     0.029 A 
ATOM     30  N   UNL A   1      41.683  31.281  33.854  1.00  0.00    -0.354 N 
ATOM     31  N   UNL A   1      41.541  29.320  31.667  1.00  0.00    -0.248 NA
ATOM     32  C   UNL A   1      42.445  27.501  30.508  1.00  0.00     0.031 C 
ATOM     33  C   UNL A   1      43.309  31.058  35.352  1.00  0.00     0.029 A 
ATOM     34  C   UNL A   1      42.790  30.519  34.186  1.00  0.00     0.049 A 
ATOM     35  H   UNL A   1      41.107  31.131  33.069  1.00  0.00     0.167 HD
ATOM     36  C   UNL A   1      42.684  28.887  32.321  1.00  0.00     0.074 A 
ATOM     37  C   UNL A   1      43.183  27.744  31.582  1.00  0.00     0.031 C 
ATOM     38  C   UNL A   1      43.275  29.397  33.427  1.00  0.00     0.031 A 
BRANCH  25  39
ATOM     39  C   UNL A   1      40.469  34.356  35.790  1.00  0.00    -0.014 A 
ATOM     40  C   UNL A   1      41.170  35.557  35.607  1.00  0.00     0.009 A 
ATOM     41  C   UNL A   1      39.687  34.193  36.945  1.00  0.00     0.009 A 
ATOM     42  C   UNL A   1      41.098  36.569  36.567  1.00  0.00     0.001 A 
ATOM     43  C   UNL A   1      39.602  35.214  37.894  1.00  0.00     0.001 A 
ATOM     44  C   UNL A   1      40.310  36.400  37.706  1.00  0.00     0.000 A 
ENDBRANCH  25  39
BRANCH  26  45
ATOM     45  C   UNL A   1      40.345  27.551  28.468  1.00  0.00    -0.014 A 
ATOM     46  C   UNL A   1      39.656  26.336  28.594  1.00  0.00     0.009 A 
ATOM     47  C   UNL A   1      41.021  27.830  27.269  1.00  0.00     0.009 A 
ATOM     48  C   UNL A   1      39.662  25.412  27.546  1.00  0.00     0.001 A 
ATOM     49  C   UNL A   1      40.999  26.918  26.214  1.00  0.00     0.001 A 
ATOM     50  C   UNL A   1      40.326  25.706  26.357  1.00  0.00     0.000 A 
ENDBRANCH  26  45
BRANCH  38  51
ATOM     51  C   UNL A   1      44.523  28.710  33.896  1.00  0.00    -0.014 A 
ATOM     52  C   UNL A   1      45.786  29.147  33.470  1.00  0.00     0.009 A 
ATOM     53  C   UNL A   1      44.434  27.624  34.779  1.00  0.00     0.009 A 
ATOM     54  C   UNL A   1      46.939  28.485  33.893  1.00  0.00     0.001 A 
ATOM     55  C   UNL A   1      45.590  26.980  35.219  1.00  0.00     0.001 A 
ATOM     56  C   UNL A   1      46.840  27.404  34.769  1.00  0.00     0.000 A 
ENDBRANCH  38  51
ENDBRANCH  12  13
ENDBRANCH   5   7
ENDBRANCH   2   3
ENDBRANCH   1   2
BRANCH   1  57
ATOM     57  C   UNL A   1      31.715  30.700  26.077  1.00  0.00     0.023 C 
BRANCH  57  58
ATOM     58  C   UNL A   1      33.057  30.084  26.444  1.00  0.00     0.116 C 
BRANCH  58  59
ATOM     59  N   UNL A   1      33.652  29.421  25.309  1.00  0.00    -0.354 N 
ATOM     60  C   UNL A   1      33.285  28.270  24.675  1.00  0.00     0.242 C 
ATOM     61  H   UNL A   1      34.445  29.868  24.935  1.00  0.00     0.163 HD
ATOM     62  O   UNL A   1      33.954  27.962  23.680  1.00  0.00    -0.273 OA
BRANCH  60  63
ATOM     63  C   UNL A   1      31.956  27.532  24.973  1.00  0.00     0.177 C 
ATOM     64  C   UNL A   1      32.226  26.528  26.109  1.00  0.00     0.069 C 
ATOM     65  N   UNL A   1      31.273  26.741  23.934  1.00  0.00    -0.324 N 
ATOM     66  C   UNL A   1      31.189  25.437  25.896  1.00  0.00     0.136 C 
ATOM     67  C   UNL A   1      31.042  25.367  24.377  1.00  0.00     0.152 C 
BRANCH  65  68
ATOM     68  C   UNL A   1      30.744  27.375  22.816  1.00  0.00     0.254 C 
ATOM     69  O   UNL A   1      31.094  27.087  21.674  1.00  0.00    -0.269 OA
BRANCH  68  70
ATOM     70  C   UNL A   1      29.631  28.346  22.978  1.00  0.00     0.040 A 
ATOM     71  C   UNL A   1      29.939  29.712  23.022  1.00  0.00     0.014 A 
ATOM     72  C   UNL A   1      28.307  27.936  23.143  1.00  0.00     0.014 A 
ATOM     73  C   UNL A   1      28.925  30.664  23.121  1.00  0.00     0.001 A 
ATOM     74  C   UNL A   1      27.292  28.890  23.250  1.00  0.00     0.001 A 
ATOM     75  C   UNL A   1      27.599  30.252  23.220  1.00  0.00     0.000 A 
ENDBRANCH  68  70
ENDBRANCH  65  68
BRANCH  66  76
ATOM     76  O   UNL A   1      29.955  25.814  26.505  1.00  0.00    -0.391 OA
ATOM     77  H   UNL A   1      29.308  26.031  25.816  1.00  0.00     0.211 HD
ENDBRANCH  66  76
ENDBRANCH  60  63
ENDBRANCH  58  59
ENDBRANCH  57  58
ENDBRANCH   1  57
TORSDOF 14
ENDMDL
MODEL 2
REMARK VINA RESULT:     -11.2      5.106      9.692
REMARK SMILES O=C(NCCCCNC(=O)[C@@H]1C[C@@H](O)CN1C(=O)c1ccccc1)c1ccc(-c2c3nc(c(-c4ccccc4)c4ccc([nH]4)c(-c4ccccc4)c4nc(c(-c5ccccc5)c5ccc2[nH]5)C=C4)C=C3)cc1
REMARK SMILES IDX 5 1 4 2 3 3 1 4 2 5 25 7 26 8 72 9 27 10 71 11 28 12 29 13
REMARK SMILES IDX 30 14 65 15 31 16 70 17 64 18 66 19 32 20 69 21 63 22 62 23
REMARK SMILES IDX 33 25 55 26 40 27 54 28 41 29 44 30 53 31 67 32 42 33 43 34
REMARK SMILES IDX 52 36 68 37 45 38 34 39 35 40 39 41 36 42 38 43 37 44 56 45
REMARK SMILES IDX 57 46 61 47 58 48 60 49 59 50 46 51 47 52 51 53 48 54 50 55
REMARK SMILES IDX 49 56 6 57 7 58 8 59 9 60 10 62 11 63 12 64 16 65 13 66
REMARK SMILES IDX 15 67 17 68 18 69 19 70 20 71 24 72 21 73 23 74 22 75 14 76
REMARK H PARENT 3 6 66 24 44 35 8 61 14 77
REMARK Flexibility Score: inf
ROOT
ATOM      1  C   UNL A   1      38.026  19.709  24.870  1.00  0.00     0.023 C 
ENDROOT
BRANCH   1   2
ATOM      2  C   UNL A   1      39.192  20.112  25.751  1.00  0.00     0.116 C 
BRANCH   2   3
ATOM      3  N   UNL A   1      40.261  19.125  25.798  1.00  0.00    -0.352 N 
ATOM      4  O   UNL A   1      42.406  18.435  26.041  1.00  0.00    -0.269 OA
ATOM      5  C   UNL A   1      41.579  19.337  26.126  1.00  0.00     0.251 C 
ATOM      6  H   UNL A   1      40.011  18.202  25.567  1.00  0.00     0.163 HD
BRANCH   5   7
ATOM      7  C   UNL A   1      41.985  20.691  26.547  1.00  0.00     0.039 A 
ATOM      8  C   UNL A   1      41.960  21.034  27.901  1.00  0.00     0.014 A 
ATOM      9  C   UNL A   1      42.319  21.638  25.576  1.00  0.00     0.014 A 
ATOM     10  C   UNL A   1      42.131  22.358  28.273  1.00  0.00     0.010 A 
ATOM     11  C   UNL A   1      42.585  22.952  25.964  1.00  0.00     0.010 A 
ATOM     12  C   UNL A   1      42.471  23.324  27.312  1.00  0.00    -0.014 A 
BRANCH  12  13
ATOM     13  C   UNL A   1      42.812  24.690  27.770  1.00  0.00     0.031 A 
ATOM     14  C   UNL A   1      41.753  25.706  28.082  1.00  0.00     0.074 A 
ATOM     15  C   UNL A   1      44.117  24.988  27.926  1.00  0.00     0.049 A 
ATOM     16  N   UNL A   1      41.902  26.936  28.503  1.00  0.00    -0.248 NA
ATOM     17  C   UNL A   1      40.352  25.299  27.897  1.00  0.00     0.031 C 
ATOM     18  C   UNL A   1      45.229  24.074  27.643  1.00  0.00     0.029 A 
ATOM     19  N   UNL A   1      44.731  26.124  28.383  1.00  0.00    -0.354 N 
ATOM     20  C   UNL A   1      40.620  27.461  28.606  1.00  0.00     0.074 A 
ATOM     21  C   UNL A   1      39.703  26.417  28.199  1.00  0.00     0.031 C 
ATOM     22  C   UNL A   1      46.382  24.664  27.983  1.00  0.00     0.029 A 
ATOM     23  C   UNL A   1      46.098  26.019  28.437  1.00  0.00     0.049 A 
ATOM     24  H   UNL A   1      44.239  26.935  28.646  1.00  0.00     0.167 HD
ATOM     25  C   UNL A   1      40.250  28.703  29.001  1.00  0.00     0.031 A 
ATOM     26  C   UNL A   1      47.029  26.922  28.789  1.00  0.00     0.031 A 
ATOM     27  C   UNL A   1      41.170  29.729  29.417  1.00  0.00     0.049 A 
ATOM     28  C   UNL A   1      46.585  28.290  29.205  1.00  0.00     0.074 A 
ATOM     29  C   UNL A   1      40.889  31.004  29.876  1.00  0.00     0.029 A 
ATOM     30  N   UNL A   1      42.550  29.599  29.420  1.00  0.00    -0.354 N 
ATOM     31  N   UNL A   1      45.367  28.759  29.323  1.00  0.00    -0.248 NA
ATOM     32  C   UNL A   1      47.643  29.256  29.523  1.00  0.00     0.031 C 
ATOM     33  C   UNL A   1      42.100  31.662  30.114  1.00  0.00     0.029 A 
ATOM     34  C   UNL A   1      43.135  30.780  29.844  1.00  0.00     0.049 A 
ATOM     35  H   UNL A   1      43.042  28.786  29.159  1.00  0.00     0.167 HD
ATOM     36  C   UNL A   1      45.510  30.076  29.730  1.00  0.00     0.074 A 
ATOM     37  C   UNL A   1      46.933  30.320  29.869  1.00  0.00     0.031 C 
ATOM     38  C   UNL A   1      44.551  31.004  29.958  1.00  0.00     0.031 A 
BRANCH  25  39
ATOM     39  C   UNL A   1      38.786  29.042  28.978  1.00  0.00    -0.014 A 
ATOM     40  C   UNL A   1      37.994  28.937  30.130  1.00  0.00     0.009 A 
ATOM     41  C   UNL A   1      38.215  29.557  27.803  1.00  0.00     0.009 A 
ATOM     42  C   UNL A   1      36.653  29.328  30.102  1.00  0.00     0.001 A 
ATOM     43  C   UNL A   1      36.879  29.965  27.784  1.00  0.00     0.001 A 
ATOM     44  C   UNL A   1      36.099  29.847  28.932  1.00  0.00     0.000 A 
ENDBRANCH  25  39
BRANCH  26  45
ATOM     45  C   UNL A   1      48.467  26.564  28.719  1.00  0.00    -0.014 A 
ATOM     46  C   UNL A   1      49.212  26.811  27.556  1.00  0.00     0.009 A 
ATOM     47  C   UNL A   1      49.108  25.990  29.828  1.00  0.00     0.009 A 
ATOM     48  C   UNL A   1      50.565  26.471  27.501  1.00  0.00     0.001 A 
ATOM     49  C   UNL A   1      50.467  25.679  29.780  1.00  0.00     0.001 A 
ATOM     50  C   UNL A   1      51.193  25.913  28.613  1.00  0.00     0.000 A 
ENDBRANCH  26  45
BRANCH  38  51
ATOM     51  C   UNL A   1      45.023  32.362  30.384  1.00  0.00    -0.014 A 
ATOM     52  C   UNL A   1      45.335  33.344  29.431  1.00  0.00     0.009 A 
ATOM     53  C   UNL A   1      45.145  32.665  31.747  1.00  0.00     0.009 A 
ATOM     54  C   UNL A   1      45.796  34.597  29.839  1.00  0.00     0.001 A 
ATOM     55  C   UNL A   1      45.583  33.926  32.151  1.00  0.00     0.001 A 
ATOM     56  C   UNL A   1      45.917  34.887  31.197  1.00  0.00     0.000 A 
ENDBRANCH  38  51
ENDBRANCH  12  13
ENDBRANCH   5   7
ENDBRANCH   2   3
ENDBRANCH   1   2
BRANCH   1  57
ATOM     57  C   UNL A   1      36.798  20.600  25.001  1.00  0.00     0.023 C 
BRANCH  57  58
ATOM     58  C   UNL A   1      37.079  22.046  25.380  1.00  0.00     0.116 C 
BRANCH  58  59
ATOM     59  N   UNL A   1      36.035  22.574  26.225  1.00  0.00    -0.354 N 
ATOM     60  C   UNL A   1      34.781  23.004  25.903  1.00  0.00     0.242 C 
ATOM     61  H   UNL A   1      36.263  22.632  27.180  1.00  0.00     0.163 HD
ATOM     62  O   UNL A   1      34.070  23.359  26.851  1.00  0.00    -0.273 OA
BRANCH  60  63
ATOM     63  C   UNL A   1      34.157  22.803  24.499  1.00  0.00     0.177 C 
ATOM     64  C   UNL A   1      34.402  24.091  23.692  1.00  0.00     0.069 C 
ATOM     65  N   UNL A   1      32.718  22.532  24.336  1.00  0.00    -0.324 N 
ATOM     66  C   UNL A   1      33.266  24.121  22.684  1.00  0.00     0.136 C 
ATOM     67  C   UNL A   1      32.091  23.503  23.440  1.00  0.00     0.152 C 
BRANCH  65  68
ATOM     68  C   UNL A   1      32.177  21.346  24.816  1.00  0.00     0.254 C 
ATOM     69  O   UNL A   1      31.303  21.327  25.680  1.00  0.00    -0.269 OA
BRANCH  68  70
ATOM     70  C   UNL A   1      32.565  20.054  24.192  1.00  0.00     0.040 A 
ATOM     71  C   UNL A   1      33.418  19.199  24.904  1.00  0.00     0.014 A 
ATOM     72  C   UNL A   1      32.153  19.698  22.907  1.00  0.00     0.014 A 
ATOM     73  C   UNL A   1      33.770  17.955  24.382  1.00  0.00     0.001 A 
ATOM     74  C   UNL A   1      32.511  18.453  22.382  1.00  0.00     0.001 A 
ATOM     75  C   UNL A   1      33.302  17.576  23.126  1.00  0.00     0.000 A 
ENDBRANCH  68  70
ENDBRANCH  65  68
BRANCH  66  76
ATOM     76  O   UNL A   1      33.605  23.328  21.546  1.00  0.00    -0.391 OA
ATOM     77  H   UNL A   1      33.850  22.436  21.836  1.00  0.00     0.211 HD
ENDBRANCH  66  76
ENDBRANCH  60  63
ENDBRANCH  58  59
ENDBRANCH  57  58
ENDBRANCH   1  57
TORSDOF 14
ENDMDL
MODEL 3
REMARK VINA RESULT:     -11.2      0.327      6.089
REMARK SMILES O=C(NCCCCNC(=O)[C@@H]1C[C@@H](O)CN1C(=O)c1ccccc1)c1ccc(-c2c3nc(c(-c4ccccc4)c4ccc([nH]4)c(-c4ccccc4)c4nc(c(-c5ccccc5)c5ccc2[nH]5)C=C4)C=C3)cc1
REMARK SMILES IDX 5 1 4 2 3 3 1 4 2 5 25 7 26 8 72 9 27 10 71 11 28 12 29 13
REMARK SMILES IDX 30 14 65 15 31 16 70 17 64 18 66 19 32 20 69 21 63 22 62 23
REMARK SMILES IDX 33 25 55 26 40 27 54 28 41 29 44 30 53 31 67 32 42 33 43 34
REMARK SMILES IDX 52 36 68 37 45 38 34 39 35 40 39 41 36 42 38 43 37 44 56 45
REMARK SMILES IDX 57 46 61 47 58 48 60 49 59 50 46 51 47 52 51 53 48 54 50 55
REMARK SMILES IDX 49 56 6 57 7 58 8 59 9 60 10 62 11 63 12 64 16 65 13 66
REMARK SMILES IDX 15 67 17 68 18 69 19 70 20 71 24 72 21 73 23 74 22 75 14 76
REMARK H PARENT 3 6 66 24 44 35 8 61 14 77
REMARK Flexibility Score: inf
ROOT
ATOM      1  C   UNL A   1      31.395  32.117  26.642  1.00  0.00     0.023 C 
ENDROOT
BRANCH   1   2
ATOM      2  C   UNL A   1      32.595  32.812  27.256  1.00  0.00     0.116 C 
BRANCH   2   3
ATOM      3  N   UNL A   1      32.344  34.198  27.624  1.00  0.00    -0.352 N 
ATOM      4  O   UNL A   1      32.666  36.090  28.829  1.00  0.00    -0.269 OA
ATOM      5  C   UNL A   1      33.033  34.955  28.542  1.00  0.00     0.251 C 
ATOM      6  H   UNL A   1      31.596  34.642  27.164  1.00  0.00     0.163 HD
BRANCH   5   7
ATOM      7  C   UNL A   1      34.205  34.354  29.204  1.00  0.00     0.039 A 
ATOM      8  C   UNL A   1      35.479  34.539  28.663  1.00  0.00     0.014 A 
ATOM      9  C   UNL A   1      34.016  33.543  30.326  1.00  0.00     0.014 A 
ATOM     10  C   UNL A   1      36.544  33.802  29.156  1.00  0.00     0.010 A 
ATOM     11  C   UNL A   1      35.110  32.876  30.881  1.00  0.00     0.010 A 
ATOM     12  C   UNL A   1      36.376  32.985  30.286  1.00  0.00    -0.014 A 
BRANCH  12  13
ATOM     13  C   UNL A   1      37.571  32.348  30.885  1.00  0.00     0.031 A 
ATOM     14  C   UNL A   1      38.248  31.176  30.239  1.00  0.00     0.074 A 
ATOM     15  C   UNL A   1      38.052  32.877  32.027  1.00  0.00     0.049 A 
ATOM     16  N   UNL A   1      39.309  30.523  30.643  1.00  0.00    -0.248 NA
ATOM     17  C   UNL A   1      37.668  30.665  28.988  1.00  0.00     0.031 C 
ATOM     18  C   UNL A   1      37.462  34.014  32.743  1.00  0.00     0.029 A 
ATOM     19  N   UNL A   1      39.154  32.552  32.773  1.00  0.00    -0.354 N 
ATOM     20  C   UNL A   1      39.507  29.509  29.715  1.00  0.00     0.074 A 
ATOM     21  C   UNL A   1      38.455  29.628  28.728  1.00  0.00     0.031 C 
ATOM     22  C   UNL A   1      38.238  34.325  33.790  1.00  0.00     0.029 A 
ATOM     23  C   UNL A   1      39.333  33.368  33.862  1.00  0.00     0.049 A 
ATOM     24  H   UNL A   1      39.758  31.808  32.549  1.00  0.00     0.167 HD
ATOM     25  C   UNL A   1      40.479  28.565  29.697  1.00  0.00     0.031 A 
ATOM     26  C   UNL A   1      40.264  33.337  34.831  1.00  0.00     0.031 A 
ATOM     27  C   UNL A   1      41.530  28.465  30.677  1.00  0.00     0.049 A 
ATOM     28  C   UNL A   1      41.313  32.270  34.789  1.00  0.00     0.074 A 
ATOM     29  C   UNL A   1      42.585  27.570  30.720  1.00  0.00     0.029 A 
ATOM     30  N   UNL A   1      41.655  29.284  31.788  1.00  0.00    -0.354 N 
ATOM     31  N   UNL A   1      41.502  31.338  33.888  1.00  0.00    -0.248 NA
ATOM     32  C   UNL A   1      42.270  32.245  35.902  1.00  0.00     0.031 C 
ATOM     33  C   UNL A   1      43.323  27.819  31.881  1.00  0.00     0.029 A 
ATOM     34  C   UNL A   1      42.753  28.897  32.538  1.00  0.00     0.049 A 
ATOM     35  H   UNL A   1      41.053  30.031  32.010  1.00  0.00     0.167 HD
ATOM     36  C   UNL A   1      42.599  30.612  34.324  1.00  0.00     0.074 A 
ATOM     37  C   UNL A   1      43.053  31.234  35.552  1.00  0.00     0.031 C 
ATOM     38  C   UNL A   1      43.174  29.521  33.764  1.00  0.00     0.031 A 
BRANCH  25  39
ATOM     39  C   UNL A   1      40.444  27.539  28.600  1.00  0.00    -0.014 A 
ATOM     40  C   UNL A   1      39.696  26.360  28.725  1.00  0.00     0.009 A 
ATOM     41  C   UNL A   1      41.104  27.801  27.388  1.00  0.00     0.009 A 
ATOM     42  C   UNL A   1      39.619  25.456  27.663  1.00  0.00     0.001 A 
ATOM     43  C   UNL A   1      41.010  26.905  26.321  1.00  0.00     0.001 A 
ATOM     44  C   UNL A   1      40.271  25.732  26.461  1.00  0.00     0.000 A 
ENDBRANCH  25  39
BRANCH  26  45
ATOM     45  C   UNL A   1      40.208  34.324  35.938  1.00  0.00    -0.014 A 
ATOM     46  C   UNL A   1      40.864  35.559  35.830  1.00  0.00     0.009 A 
ATOM     47  C   UNL A   1      39.478  34.040  37.103  1.00  0.00     0.009 A 
ATOM     48  C   UNL A   1      40.804  36.481  36.877  1.00  0.00     0.001 A 
ATOM     49  C   UNL A   1      39.396  34.975  38.135  1.00  0.00     0.001 A 
ATOM     50  C   UNL A   1      40.066  36.193  38.024  1.00  0.00     0.000 A 
ENDBRANCH  26  45
BRANCH  38  51
ATOM     51  C   UNL A   1      44.356  28.944  34.483  1.00  0.00    -0.014 A 
ATOM     52  C   UNL A   1      44.195  27.904  35.411  1.00  0.00     0.009 A 
ATOM     53  C   UNL A   1      45.643  29.438  34.223  1.00  0.00     0.009 A 
ATOM     54  C   UNL A   1      45.300  27.392  36.093  1.00  0.00     0.001 A 
ATOM     55  C   UNL A   1      46.748  28.907  34.888  1.00  0.00     0.001 A 
ATOM     56  C   UNL A   1      46.574  27.892  35.828  1.00  0.00     0.000 A 
ENDBRANCH  38  51
ENDBRANCH  12  13
ENDBRANCH   5   7
ENDBRANCH   2   3
ENDBRANCH   1   2
BRANCH   1  57
ATOM     57  C   UNL A   1      31.679  30.715  26.118  1.00  0.00     0.023 C 
BRANCH  57  58
ATOM     58  C   UNL A   1      33.043  30.147  26.479  1.00  0.00     0.116 C 
BRANCH  58  59
ATOM     59  N   UNL A   1      33.642  29.479  25.349  1.00  0.00    -0.354 N 
ATOM     60  C   UNL A   1      33.277  28.325  24.718  1.00  0.00     0.242 C 
ATOM     61  H   UNL A   1      34.437  29.925  24.975  1.00  0.00     0.163 HD
ATOM     62  O   UNL A   1      33.950  28.013  23.728  1.00  0.00    -0.273 OA
BRANCH  60  63
ATOM     63  C   UNL A   1      31.947  27.589  25.015  1.00  0.00     0.177 C 
ATOM     64  C   UNL A   1      32.217  26.577  26.143  1.00  0.00     0.069 C 
ATOM     65  N   UNL A   1      31.259  26.807  23.972  1.00  0.00    -0.324 N 
ATOM     66  C   UNL A   1      31.177  25.490  25.925  1.00  0.00     0.136 C 
ATOM     67  C   UNL A   1      31.026  25.430  24.406  1.00  0.00     0.152 C 
BRANCH  65  68
ATOM     68  C   UNL A   1      30.730  27.450  22.860  1.00  0.00     0.254 C 
ATOM     69  O   UNL A   1      31.086  27.177  21.715  1.00  0.00    -0.269 OA
BRANCH  68  70
ATOM     70  C   UNL A   1      29.609  28.410  23.029  1.00  0.00     0.040 A 
ATOM     71  C   UNL A   1      29.913  29.770  23.180  1.00  0.00     0.014 A 
ATOM     72  C   UNL A   1      28.279  27.993  23.097  1.00  0.00     0.014 A 
ATOM     73  C   UNL A   1      28.894  30.716  23.291  1.00  0.00     0.001 A 
ATOM     74  C   UNL A   1      27.258  28.941  23.214  1.00  0.00     0.001 A 
ATOM     75  C   UNL A   1      27.565  30.301  23.293  1.00  0.00     0.000 A 
ENDBRANCH  68  70
ENDBRANCH  65  68
BRANCH  66  76
ATOM     76  O   UNL A   1      29.945  25.866  26.539  1.00  0.00    -0.391 OA
ATOM     77  H   UNL A   1      30.035  25.812  27.503  1.00  0.00     0.211 HD
ENDBRANCH  66  76
ENDBRANCH  60  63
ENDBRANCH  58  59
ENDBRANCH  57  58
ENDBRANCH   1  57
TORSDOF 14
ENDMDL
