MODEL 1
REMARK VINA RESULT:     -12.1      0.000      0.000
REMARK SMILES Cc1cc(N2CCCC2)nc2sc3c(=O)n(CC(=O)NCCCCNC(=O)c4ccc(-c5c6nc(c(-c7ccccc7)c7ccc([nH]7)c(-c7ccccc7)c7nc(c(-c8ccccc8)c8ccc5[nH]8)C=C7)C=C6)cc4)cnc3c12
REMARK SMILES IDX 22 1 21 2 20 3 18 4 19 5 17 7 16 8 1 9 2 10 3 11 79 12 4 13
REMARK SMILES IDX 11 14 78 15 10 16 12 17 13 18 77 19 14 20 76 21 15 22 5 23
REMARK SMILES IDX 6 24 9 25 7 26 8 27 23 28 24 29 25 30 26 31 27 33 28 34
REMARK SMILES IDX 29 35 75 36 30 37 74 38 31 39 32 40 33 41 68 42 34 43 73 44
REMARK SMILES IDX 67 45 69 46 35 47 72 48 66 49 65 50 36 52 58 53 43 54 57 55
REMARK SMILES IDX 44 56 47 57 56 58 70 59 45 60 46 61 55 63 71 64 48 65 37 66
REMARK SMILES IDX 38 67 42 68 39 69 41 70 40 71 59 72 60 73 64 74 61 75 63 76
REMARK SMILES IDX 62 77 49 78 50 79 54 80 51 81 53 82 52 83
REMARK H PARENT 20 6 25 32 69 51 47 62
REMARK Flexibility Score: inf
ROOT
ATOM      1  C   UNL A   1      36.509  20.947  25.388  1.00  0.00     0.023 C 
ENDROOT
BRANCH   1   2
ATOM      2  C   UNL A   1      35.441  21.489  24.436  1.00  0.00     0.116 C 
BRANCH   2   3
ATOM      3  N   UNL A   1      34.177  20.797  24.607  1.00  0.00    -0.355 N 
ATOM      4  C   UNL A   1      33.162  21.014  25.488  1.00  0.00     0.240 C 
ATOM      5  O   UNL A   1      32.172  20.280  25.411  1.00  0.00    -0.273 OA
ATOM      6  H   UNL A   1      34.030  20.049  23.984  1.00  0.00     0.163 HD
BRANCH   4   7
ATOM      7  C   UNL A   1      33.201  22.143  26.519  1.00  0.00     0.226 C 
BRANCH   7   8
ATOM      8  N   UNL A   1      32.821  23.432  25.963  1.00  0.00    -0.288 N 
ATOM      9  C   UNL A   1      34.022  28.177  23.398  1.00  0.00     0.045 C 
ATOM     10  C   UNL A   1      32.536  28.122  23.601  1.00  0.00    -0.035 A 
ATOM     11  C   UNL A   1      31.731  29.161  23.110  1.00  0.00     0.051 A 
ATOM     12  C   UNL A   1      31.874  27.091  24.305  1.00  0.00     0.041 A 
ATOM     13  C   UNL A   1      30.357  29.196  23.342  1.00  0.00     0.130 A 
ATOM     14  C   UNL A   1      30.496  27.227  24.475  1.00  0.00     0.128 A 
ATOM     15  C   UNL A   1      32.310  25.881  24.921  1.00  0.00     0.098 A 
ATOM     16  N   UNL A   1      29.727  28.252  24.058  1.00  0.00    -0.220 NA
ATOM     17  S   UNL A   1      29.792  25.905  25.304  1.00  0.00    -0.108 S 
ATOM     18  C   UNL A   1      31.291  25.136  25.448  1.00  0.00     0.121 A 
ATOM     19  N   UNL A   1      33.647  25.456  24.974  1.00  0.00    -0.236 NA
ATOM     20  C   UNL A   1      31.497  23.849  26.038  1.00  0.00     0.271 A 
ATOM     21  C   UNL A   1      33.811  24.279  25.492  1.00  0.00     0.203 A 
ATOM     22  O   UNL A   1      30.611  23.168  26.561  1.00  0.00    -0.268 OA
BRANCH  13  23
ATOM     23  N   UNL A   1      29.614  30.249  22.882  1.00  0.00    -0.357 N 
ATOM     24  C   UNL A   1      28.899  31.201  23.705  1.00  0.00     0.118 C 
ATOM     25  C   UNL A   1      29.272  30.342  21.474  1.00  0.00     0.118 C 
ATOM     26  C   UNL A   1      27.671  31.509  22.859  1.00  0.00     0.023 C 
ATOM     27  C   UNL A   1      28.205  31.442  21.432  1.00  0.00     0.023 C 
ENDBRANCH  13  23
ENDBRANCH   7   8
ENDBRANCH   4   7
ENDBRANCH   2   3
ENDBRANCH   1   2
BRANCH   1  28
ATOM     28  C   UNL A   1      37.965  21.187  24.935  1.00  0.00     0.023 C 
BRANCH  28  29
ATOM     29  C   UNL A   1      38.817  22.090  25.847  1.00  0.00     0.116 C 
BRANCH  29  30
ATOM     30  N   UNL A   1      39.754  21.305  26.629  1.00  0.00    -0.352 N 
ATOM     31  C   UNL A   1      41.002  21.585  27.113  1.00  0.00     0.251 C 
ATOM     32  H   UNL A   1      39.431  20.403  26.854  1.00  0.00     0.163 HD
ATOM     33  O   UNL A   1      41.702  20.643  27.485  1.00  0.00    -0.269 OA
BRANCH  31  34
ATOM     34  C   UNL A   1      41.541  22.957  27.244  1.00  0.00     0.039 A 
ATOM     35  C   UNL A   1      41.063  23.736  28.306  1.00  0.00     0.014 A 
ATOM     36  C   UNL A   1      42.319  23.553  26.250  1.00  0.00     0.014 A 
ATOM     37  C   UNL A   1      41.357  25.100  28.376  1.00  0.00     0.010 A 
ATOM     38  C   UNL A   1      42.607  24.924  26.320  1.00  0.00     0.010 A 
ATOM     39  C   UNL A   1      42.124  25.713  27.378  1.00  0.00    -0.014 A 
BRANCH  39  40
ATOM     40  C   UNL A   1      42.462  27.150  27.529  1.00  0.00     0.031 A 
ATOM     41  C   UNL A   1      41.310  28.096  27.574  1.00  0.00     0.074 A 
ATOM     42  C   UNL A   1      43.633  27.577  28.056  1.00  0.00     0.049 A 
ATOM     43  N   UNL A   1      40.632  28.316  28.663  1.00  0.00    -0.248 NA
ATOM     44  C   UNL A   1      40.702  28.668  26.374  1.00  0.00     0.031 C 
ATOM     45  C   UNL A   1      44.412  26.809  29.036  1.00  0.00     0.029 A 
ATOM     46  N   UNL A   1      44.242  28.813  28.039  1.00  0.00    -0.354 N 
ATOM     47  C   UNL A   1      39.486  29.000  28.303  1.00  0.00     0.074 A 
ATOM     48  C   UNL A   1      39.582  29.215  26.875  1.00  0.00     0.031 C 
ATOM     49  C   UNL A   1      45.272  27.643  29.657  1.00  0.00     0.029 A 
ATOM     50  C   UNL A   1      45.229  28.955  29.017  1.00  0.00     0.049 A 
ATOM     51  H   UNL A   1      44.005  29.525  27.402  1.00  0.00     0.167 HD
ATOM     52  C   UNL A   1      38.515  29.332  29.194  1.00  0.00     0.031 A 
ATOM     53  C   UNL A   1      45.560  30.121  29.638  1.00  0.00     0.031 A 
ATOM     54  C   UNL A   1      38.752  28.936  30.549  1.00  0.00     0.049 A 
ATOM     55  C   UNL A   1      44.303  30.398  30.427  1.00  0.00     0.074 A 
ATOM     56  C   UNL A   1      38.431  27.874  31.368  1.00  0.00     0.029 A 
ATOM     57  N   UNL A   1      39.576  29.724  31.317  1.00  0.00    -0.354 N 
ATOM     58  N   UNL A   1      43.936  29.833  31.545  1.00  0.00    -0.248 NA
ATOM     59  C   UNL A   1      43.242  31.133  29.733  1.00  0.00     0.031 C 
ATOM     60  C   UNL A   1      39.451  27.849  32.373  1.00  0.00     0.029 A 
ATOM     61  C   UNL A   1      40.345  28.874  32.070  1.00  0.00     0.049 A 
ATOM     62  H   UNL A   1      39.608  30.707  31.324  1.00  0.00     0.167 HD
ATOM     63  C   UNL A   1      42.541  29.883  31.541  1.00  0.00     0.074 A 
ATOM     64  C   UNL A   1      42.182  30.710  30.406  1.00  0.00     0.031 C 
ATOM     65  C   UNL A   1      41.747  29.108  32.336  1.00  0.00     0.031 A 
BRANCH  52  66
ATOM     66  C   UNL A   1      37.334  30.157  28.872  1.00  0.00    -0.014 A 
ATOM     67  C   UNL A   1      36.242  29.536  28.245  1.00  0.00     0.009 A 
ATOM     68  C   UNL A   1      37.361  31.550  28.983  1.00  0.00     0.009 A 
ATOM     69  C   UNL A   1      35.211  30.300  27.702  1.00  0.00     0.001 A 
ATOM     70  C   UNL A   1      36.319  32.313  28.446  1.00  0.00     0.001 A 
ATOM     71  C   UNL A   1      35.254  31.689  27.795  1.00  0.00     0.000 A 
ENDBRANCH  52  66
BRANCH  53  72
ATOM     72  C   UNL A   1      46.192  31.192  28.794  1.00  0.00    -0.014 A 
ATOM     73  C   UNL A   1      46.859  30.829  27.607  1.00  0.00     0.009 A 
ATOM     74  C   UNL A   1      46.197  32.556  29.134  1.00  0.00     0.009 A 
ATOM     75  C   UNL A   1      47.395  31.790  26.744  1.00  0.00     0.001 A 
ATOM     76  C   UNL A   1      46.705  33.523  28.258  1.00  0.00     0.001 A 
ATOM     77  C   UNL A   1      47.289  33.142  27.055  1.00  0.00     0.000 A 
ENDBRANCH  53  72
BRANCH  65  78
ATOM     78  C   UNL A   1      42.430  28.278  33.372  1.00  0.00    -0.014 A 
ATOM     79  C   UNL A   1      42.308  28.604  34.728  1.00  0.00     0.009 A 
ATOM     80  C   UNL A   1      43.119  27.108  33.013  1.00  0.00     0.009 A 
ATOM     81  C   UNL A   1      42.829  27.755  35.707  1.00  0.00     0.001 A 
ATOM     82  C   UNL A   1      43.628  26.253  33.993  1.00  0.00     0.001 A 
ATOM     83  C   UNL A   1      43.475  26.574  35.340  1.00  0.00     0.000 A 
ENDBRANCH  65  78
ENDBRANCH  39  40
ENDBRANCH  31  34
ENDBRANCH  29  30
ENDBRANCH  28  29
ENDBRANCH   1  28
TORSDOF 13
ENDMDL
MODEL 2
REMARK VINA RESULT:     -11.7      5.336      9.317
REMARK SMILES Cc1cc(N2CCCC2)nc2sc3c(=O)n(CC(=O)NCCCCNC(=O)c4ccc(-c5c6nc(c(-c7ccccc7)c7ccc([nH]7)c(-c7ccccc7)c7nc(c(-c8ccccc8)c8ccc5[nH]8)C=C7)C=C6)cc4)cnc3c12
REMARK SMILES IDX 22 1 21 2 20 3 18 4 19 5 17 7 16 8 1 9 2 10 3 11 79 12 4 13
REMARK SMILES IDX 11 14 78 15 10 16 12 17 13 18 77 19 14 20 76 21 15 22 5 23
REMARK SMILES IDX 6 24 9 25 7 26 8 27 23 28 24 29 25 30 26 31 27 33 28 34
REMARK SMILES IDX 29 35 75 36 30 37 74 38 31 39 32 40 33 41 68 42 34 43 73 44
REMARK SMILES IDX 67 45 69 46 35 47 72 48 66 49 65 50 36 52 58 53 43 54 57 55
REMARK SMILES IDX 44 56 47 57 56 58 70 59 45 60 46 61 55 63 71 64 48 65 37 66
REMARK SMILES IDX 38 67 42 68 39 69 41 70 40 71 59 72 60 73 64 74 61 75 63 76
REMARK SMILES IDX 62 77 49 78 50 79 54 80 51 81 53 82 52 83
REMARK H PARENT 20 6 25 32 69 51 47 62
REMARK Flexibility Score: inf
ROOT
ATOM      1  C   UNL A   1      41.919  26.796  35.173  1.00  0.00     0.023 C 
ENDROOT
BRANCH   1   2
ATOM      2  C   UNL A   1      42.291  28.146  35.789  1.00  0.00     0.116 C 
BRANCH   2   3
ATOM      3  N   UNL A   1      43.341  28.803  35.032  1.00  0.00    -0.355 N 
ATOM      4  C   UNL A   1      43.556  30.123  34.779  1.00  0.00     0.240 C 
ATOM      5  O   UNL A   1      44.549  30.422  34.110  1.00  0.00    -0.273 OA
ATOM      6  H   UNL A   1      44.006  28.193  34.636  1.00  0.00     0.163 HD
BRANCH   4   7
ATOM      7  C   UNL A   1      42.641  31.220  35.325  1.00  0.00     0.226 C 
BRANCH   7   8
ATOM      8  N   UNL A   1      41.607  31.617  34.382  1.00  0.00    -0.288 N 
ATOM      9  C   UNL A   1      39.929  34.202  29.795  1.00  0.00     0.045 C 
ATOM     10  C   UNL A   1      38.750  33.477  30.377  1.00  0.00    -0.035 A 
ATOM     11  C   UNL A   1      37.517  33.510  29.710  1.00  0.00     0.051 A 
ATOM     12  C   UNL A   1      38.783  32.775  31.604  1.00  0.00     0.041 A 
ATOM     13  C   UNL A   1      36.375  32.921  30.248  1.00  0.00     0.130 A 
ATOM     14  C   UNL A   1      37.581  32.222  32.046  1.00  0.00     0.128 A 
ATOM     15  C   UNL A   1      39.813  32.492  32.550  1.00  0.00     0.098 A 
ATOM     16  N   UNL A   1      36.381  32.303  31.439  1.00  0.00    -0.220 NA
ATOM     17  S   UNL A   1      37.745  31.364  33.519  1.00  0.00    -0.108 S 
ATOM     18  C   UNL A   1      39.399  31.708  33.591  1.00  0.00     0.121 A 
ATOM     19  N   UNL A   1      41.139  32.939  32.436  1.00  0.00    -0.236 NA
ATOM     20  C   UNL A   1      40.289  31.236  34.607  1.00  0.00     0.271 A 
ATOM     21  C   UNL A   1      41.934  32.484  33.352  1.00  0.00     0.203 A 
ATOM     22  O   UNL A   1      39.945  30.564  35.583  1.00  0.00    -0.268 OA
BRANCH  13  23
ATOM     23  N   UNL A   1      35.182  33.014  29.585  1.00  0.00    -0.357 N 
ATOM     24  C   UNL A   1      34.520  31.935  28.882  1.00  0.00     0.118 C 
ATOM     25  C   UNL A   1      34.595  34.314  29.316  1.00  0.00     0.118 C 
ATOM     26  C   UNL A   1      33.864  32.658  27.713  1.00  0.00     0.023 C 
ATOM     27  C   UNL A   1      33.478  34.007  28.311  1.00  0.00     0.023 C 
ENDBRANCH  13  23
ENDBRANCH   7   8
ENDBRANCH   4   7
ENDBRANCH   2   3
ENDBRANCH   1   2
BRANCH   1  28
ATOM     28  C   UNL A   1      41.552  25.696  36.192  1.00  0.00     0.023 C 
BRANCH  28  29
ATOM     29  C   UNL A   1      41.755  24.243  35.722  1.00  0.00     0.116 C 
BRANCH  29  30
ATOM     30  N   UNL A   1      43.052  23.739  36.132  1.00  0.00    -0.352 N 
ATOM     31  C   UNL A   1      44.220  23.555  35.447  1.00  0.00     0.251 C 
ATOM     32  H   UNL A   1      43.100  23.482  37.081  1.00  0.00     0.163 HD
ATOM     33  O   UNL A   1      45.079  22.833  35.953  1.00  0.00    -0.269 OA
BRANCH  31  34
ATOM     34  C   UNL A   1      44.520  24.201  34.150  1.00  0.00     0.039 A 
ATOM     35  C   UNL A   1      45.031  25.505  34.185  1.00  0.00     0.014 A 
ATOM     36  C   UNL A   1      44.117  23.654  32.930  1.00  0.00     0.014 A 
ATOM     37  C   UNL A   1      45.139  26.260  33.015  1.00  0.00     0.010 A 
ATOM     38  C   UNL A   1      44.221  24.416  31.757  1.00  0.00     0.010 A 
ATOM     39  C   UNL A   1      44.725  25.728  31.787  1.00  0.00    -0.014 A 
BRANCH  39  40
ATOM     40  C   UNL A   1      44.919  26.543  30.562  1.00  0.00     0.031 A 
ATOM     41  C   UNL A   1      44.965  25.792  29.273  1.00  0.00     0.074 A 
ATOM     42  C   UNL A   1      44.613  27.859  30.500  1.00  0.00     0.049 A 
ATOM     43  N   UNL A   1      43.887  25.417  28.648  1.00  0.00    -0.248 NA
ATOM     44  C   UNL A   1      46.194  25.217  28.731  1.00  0.00     0.031 C 
ATOM     45  C   UNL A   1      43.572  28.492  31.321  1.00  0.00     0.029 A 
ATOM     46  N   UNL A   1      44.953  28.831  29.584  1.00  0.00    -0.354 N 
ATOM     47  C   UNL A   1      44.271  24.518  27.670  1.00  0.00     0.074 A 
ATOM     48  C   UNL A   1      45.715  24.442  27.744  1.00  0.00     0.031 C 
ATOM     49  C   UNL A   1      43.231  29.670  30.758  1.00  0.00     0.029 A 
ATOM     50  C   UNL A   1      44.130  29.957  29.643  1.00  0.00     0.049 A 
ATOM     51  H   UNL A   1      45.701  28.741  28.951  1.00  0.00     0.167 HD
ATOM     52  C   UNL A   1      43.381  23.874  26.870  1.00  0.00     0.031 A 
ATOM     53  C   UNL A   1      43.808  30.754  28.586  1.00  0.00     0.031 A 
ATOM     54  C   UNL A   1      42.003  24.190  27.093  1.00  0.00     0.049 A 
ATOM     55  C   UNL A   1      42.977  29.809  27.752  1.00  0.00     0.074 A 
ATOM     56  C   UNL A   1      40.948  23.677  27.818  1.00  0.00     0.029 A 
ATOM     57  N   UNL A   1      41.506  25.343  26.535  1.00  0.00    -0.354 N 
ATOM     58  N   UNL A   1      41.734  29.467  27.954  1.00  0.00    -0.248 NA
ATOM     59  C   UNL A   1      43.705  28.951  26.813  1.00  0.00     0.031 C 
ATOM     60  C   UNL A   1      40.066  24.782  28.038  1.00  0.00     0.029 A 
ATOM     61  C   UNL A   1      40.667  25.902  27.465  1.00  0.00     0.049 A 
ATOM     62  H   UNL A   1      41.712  25.699  25.642  1.00  0.00     0.167 HD
ATOM     63  C   UNL A   1      41.612  28.188  27.411  1.00  0.00     0.074 A 
ATOM     64  C   UNL A   1      42.857  27.938  26.711  1.00  0.00     0.031 C 
ATOM     65  C   UNL A   1      40.596  27.326  27.707  1.00  0.00     0.031 A 
BRANCH  52  66
ATOM     66  C   UNL A   1      43.755  22.997  25.744  1.00  0.00    -0.014 A 
ATOM     67  C   UNL A   1      43.770  21.610  25.960  1.00  0.00     0.009 A 
ATOM     68  C   UNL A   1      44.285  23.513  24.557  1.00  0.00     0.009 A 
ATOM     69  C   UNL A   1      44.343  20.754  25.021  1.00  0.00     0.001 A 
ATOM     70  C   UNL A   1      44.849  22.650  23.613  1.00  0.00     0.001 A 
ATOM     71  C   UNL A   1      44.889  21.275  23.851  1.00  0.00     0.000 A 
ENDBRANCH  52  66
BRANCH  53  72
ATOM     72  C   UNL A   1      44.919  31.555  27.968  1.00  0.00    -0.014 A 
ATOM     73  C   UNL A   1      44.619  32.467  26.936  1.00  0.00     0.009 A 
ATOM     74  C   UNL A   1      46.271  31.427  28.330  1.00  0.00     0.009 A 
ATOM     75  C   UNL A   1      45.600  33.295  26.381  1.00  0.00     0.001 A 
ATOM     76  C   UNL A   1      47.251  32.275  27.798  1.00  0.00     0.001 A 
ATOM     77  C   UNL A   1      46.912  33.220  26.836  1.00  0.00     0.000 A 
ENDBRANCH  53  72
BRANCH  65  78
ATOM     78  C   UNL A   1      39.478  27.858  28.541  1.00  0.00    -0.014 A 
ATOM     79  C   UNL A   1      39.445  27.608  29.918  1.00  0.00     0.009 A 
ATOM     80  C   UNL A   1      38.500  28.695  27.978  1.00  0.00     0.009 A 
ATOM     81  C   UNL A   1      38.479  28.216  30.722  1.00  0.00     0.001 A 
ATOM     82  C   UNL A   1      37.543  29.313  28.785  1.00  0.00     0.001 A 
ATOM     83  C   UNL A   1      37.539  29.080  30.158  1.00  0.00     0.000 A 
ENDBRANCH  65  78
ENDBRANCH  39  40
ENDBRANCH  31  34
ENDBRANCH  29  30
ENDBRANCH  28  29
ENDBRANCH   1  28
TORSDOF 13
ENDMDL
MODEL 3
REMARK VINA RESULT:     -11.4      8.145     14.985
REMARK SMILES Cc1cc(N2CCCC2)nc2sc3c(=O)n(CC(=O)NCCCCNC(=O)c4ccc(-c5c6nc(c(-c7ccccc7)c7ccc([nH]7)c(-c7ccccc7)c7nc(c(-c8ccccc8)c8ccc5[nH]8)C=C7)C=C6)cc4)cnc3c12
REMARK SMILES IDX 22 1 21 2 20 3 18 4 19 5 17 7 16 8 1 9 2 10 3 11 79 12 4 13
REMARK SMILES IDX 11 14 78 15 10 16 12 17 13 18 77 19 14 20 76 21 15 22 5 23
REMARK SMILES IDX 6 24 9 25 7 26 8 27 23 28 24 29 25 30 26 31 27 33 28 34
REMARK SMILES IDX 29 35 75 36 30 37 74 38 31 39 32 40 33 41 68 42 34 43 73 44
REMARK SMILES IDX 67 45 69 46 35 47 72 48 66 49 65 50 36 52 58 53 43 54 57 55
REMARK SMILES IDX 44 56 47 57 56 58 70 59 45 60 46 61 55 63 71 64 48 65 37 66
REMARK SMILES IDX 38 67 42 68 39 69 41 70 40 71 59 72 60 73 64 74 61 75 63 76
REMARK SMILES IDX 62 77 49 78 50 79 54 80 51 81 53 82 52 83
REMARK H PARENT 20 6 25 32 69 51 47 62
REMARK Flexibility Score: inf
ROOT
ATOM      1  C   UNL A   1      48.729  21.734  35.731  1.00  0.00     0.023 C 
ENDROOT
BRANCH   1   2
ATOM      2  C   UNL A   1      48.658  20.208  35.796  1.00  0.00     0.116 C 
BRANCH   2   3
ATOM      3  N   UNL A   1      49.647  19.669  36.712  1.00  0.00    -0.355 N 
ATOM      4  C   UNL A   1      49.718  19.725  38.070  1.00  0.00     0.240 C 
ATOM      5  O   UNL A   1      50.671  19.162  38.616  1.00  0.00    -0.273 OA
ATOM      6  H   UNL A   1      50.387  19.185  36.280  1.00  0.00     0.163 HD
BRANCH   4   7
ATOM      7  C   UNL A   1      48.649  20.418  38.918  1.00  0.00     0.226 C 
BRANCH   7   8
ATOM      8  N   UNL A   1      47.612  19.508  39.376  1.00  0.00    -0.288 N 
ATOM      9  C   UNL A   1      43.142  16.376  38.505  1.00  0.00     0.045 C 
ATOM     10  C   UNL A   1      43.580  16.176  39.927  1.00  0.00    -0.035 A 
ATOM     11  C   UNL A   1      42.889  15.268  40.743  1.00  0.00     0.051 A 
ATOM     12  C   UNL A   1      44.642  16.885  40.533  1.00  0.00     0.041 A 
ATOM     13  C   UNL A   1      43.205  15.104  42.091  1.00  0.00     0.130 A 
ATOM     14  C   UNL A   1      44.872  16.641  41.887  1.00  0.00     0.128 A 
ATOM     15  C   UNL A   1      45.580  17.850  40.059  1.00  0.00     0.098 A 
ATOM     16  N   UNL A   1      44.174  15.814  42.690  1.00  0.00    -0.220 NA
ATOM     17  S   UNL A   1      46.203  17.521  42.507  1.00  0.00    -0.108 S 
ATOM     18  C   UNL A   1      46.495  18.232  41.000  1.00  0.00     0.121 A 
ATOM     19  N   UNL A   1      45.603  18.356  38.749  1.00  0.00    -0.236 NA
ATOM     20  C   UNL A   1      47.574  19.127  40.713  1.00  0.00     0.271 A 
ATOM     21  C   UNL A   1      46.599  19.146  38.502  1.00  0.00     0.203 A 
ATOM     22  O   UNL A   1      48.392  19.528  41.545  1.00  0.00    -0.268 OA
BRANCH  13  23
ATOM     23  N   UNL A   1      42.479  14.239  42.862  1.00  0.00    -0.357 N 
ATOM     24  C   UNL A   1      42.734  13.929  44.252  1.00  0.00     0.118 C 
ATOM     25  C   UNL A   1      41.515  13.345  42.246  1.00  0.00     0.118 C 
ATOM     26  C   UNL A   1      42.340  12.461  44.340  1.00  0.00     0.023 C 
ATOM     27  C   UNL A   1      41.169  12.357  43.366  1.00  0.00     0.023 C 
ENDBRANCH  13  23
ENDBRANCH   7   8
ENDBRANCH   4   7
ENDBRANCH   2   3
ENDBRANCH   1   2
BRANCH   1  28
ATOM     28  C   UNL A   1      47.711  22.392  34.774  1.00  0.00     0.023 C 
BRANCH  28  29
ATOM     29  C   UNL A   1      46.487  21.537  34.396  1.00  0.00     0.116 C 
BRANCH  29  30
ATOM     30  N   UNL A   1      45.309  21.963  35.128  1.00  0.00    -0.352 N 
ATOM     31  C   UNL A   1      44.564  23.108  35.078  1.00  0.00     0.251 C 
ATOM     32  H   UNL A   1      44.984  21.303  35.783  1.00  0.00     0.163 HD
ATOM     33  O   UNL A   1      43.799  23.341  36.014  1.00  0.00    -0.269 OA
BRANCH  31  34
ATOM     34  C   UNL A   1      44.604  24.062  33.948  1.00  0.00     0.039 A 
ATOM     35  C   UNL A   1      44.141  23.608  32.707  1.00  0.00     0.014 A 
ATOM     36  C   UNL A   1      45.269  25.287  34.027  1.00  0.00     0.014 A 
ATOM     37  C   UNL A   1      44.340  24.367  31.551  1.00  0.00     0.010 A 
ATOM     38  C   UNL A   1      45.474  26.045  32.864  1.00  0.00     0.010 A 
ATOM     39  C   UNL A   1      45.019  25.590  31.614  1.00  0.00    -0.014 A 
BRANCH  39  40
ATOM     40  C   UNL A   1      45.150  26.391  30.371  1.00  0.00     0.031 A 
ATOM     41  C   UNL A   1      45.152  25.623  29.092  1.00  0.00     0.074 A 
ATOM     42  C   UNL A   1      44.825  27.702  30.304  1.00  0.00     0.049 A 
ATOM     43  N   UNL A   1      44.053  25.226  28.517  1.00  0.00    -0.248 NA
ATOM     44  C   UNL A   1      46.364  25.055  28.505  1.00  0.00     0.031 C 
ATOM     45  C   UNL A   1      43.812  28.333  31.160  1.00  0.00     0.029 A 
ATOM     46  N   UNL A   1      45.114  28.665  29.362  1.00  0.00    -0.354 N 
ATOM     47  C   UNL A   1      44.407  24.318  27.537  1.00  0.00     0.074 A 
ATOM     48  C   UNL A   1      45.854  24.260  27.551  1.00  0.00     0.031 C 
ATOM     49  C   UNL A   1      43.432  29.499  30.596  1.00  0.00     0.029 A 
ATOM     50  C   UNL A   1      44.280  29.782  29.440  1.00  0.00     0.049 A 
ATOM     51  H   UNL A   1      45.836  28.575  28.699  1.00  0.00     0.167 HD
ATOM     52  C   UNL A   1      43.493  23.652  26.784  1.00  0.00     0.031 A 
ATOM     53  C   UNL A   1      43.903  30.560  28.388  1.00  0.00     0.031 A 
ATOM     54  C   UNL A   1      42.121  23.954  27.060  1.00  0.00     0.049 A 
ATOM     55  C   UNL A   1      43.050  29.593  27.602  1.00  0.00     0.074 A 
ATOM     56  C   UNL A   1      41.105  23.437  27.836  1.00  0.00     0.029 A 
ATOM     57  N   UNL A   1      41.586  25.093  26.509  1.00  0.00    -0.354 N 
ATOM     58  N   UNL A   1      41.821  29.238  27.861  1.00  0.00    -0.248 NA
ATOM     59  C   UNL A   1      43.748  28.731  26.645  1.00  0.00     0.031 C 
ATOM     60  C   UNL A   1      40.218  24.535  28.079  1.00  0.00     0.029 A 
ATOM     61  C   UNL A   1      40.780  25.654  27.466  1.00  0.00     0.049 A 
ATOM     62  H   UNL A   1      41.750  25.438  25.603  1.00  0.00     0.167 HD
ATOM     63  C   UNL A   1      41.692  27.950  27.340  1.00  0.00     0.074 A 
ATOM     64  C   UNL A   1      42.910  27.707  26.592  1.00  0.00     0.031 C 
ATOM     65  C   UNL A   1      40.701  27.080  27.691  1.00  0.00     0.031 A 
BRANCH  52  66
ATOM     66  C   UNL A   1      43.830  22.763  25.655  1.00  0.00    -0.014 A 
ATOM     67  C   UNL A   1      43.853  21.379  25.884  1.00  0.00     0.009 A 
ATOM     68  C   UNL A   1      44.321  23.267  24.446  1.00  0.00     0.009 A 
ATOM     69  C   UNL A   1      44.395  20.514  24.935  1.00  0.00     0.001 A 
ATOM     70  C   UNL A   1      44.855  22.395  23.493  1.00  0.00     0.001 A 
ATOM     71  C   UNL A   1      44.903  21.023  23.743  1.00  0.00     0.000 A 
ENDBRANCH  52  66
BRANCH  53  72
ATOM     72  C   UNL A   1      44.977  31.366  27.712  1.00  0.00    -0.014 A 
ATOM     73  C   UNL A   1      44.608  32.388  26.814  1.00  0.00     0.009 A 
ATOM     74  C   UNL A   1      46.352  31.140  27.889  1.00  0.00     0.009 A 
ATOM     75  C   UNL A   1      45.563  33.220  26.220  1.00  0.00     0.001 A 
ATOM     76  C   UNL A   1      47.309  31.990  27.320  1.00  0.00     0.001 A 
ATOM     77  C   UNL A   1      46.913  33.040  26.499  1.00  0.00     0.000 A 
ENDBRANCH  53  72
BRANCH  65  78
ATOM     78  C   UNL A   1      39.612  27.610  28.565  1.00  0.00    -0.014 A 
ATOM     79  C   UNL A   1      39.687  27.458  29.954  1.00  0.00     0.009 A 
ATOM     80  C   UNL A   1      38.552  28.351  28.017  1.00  0.00     0.009 A 
ATOM     81  C   UNL A   1      38.743  28.070  30.782  1.00  0.00     0.001 A 
ATOM     82  C   UNL A   1      37.616  28.973  28.846  1.00  0.00     0.001 A 
ATOM     83  C   UNL A   1      37.719  28.839  30.229  1.00  0.00     0.000 A 
ENDBRANCH  65  78
ENDBRANCH  39  40
ENDBRANCH  31  34
ENDBRANCH  29  30
ENDBRANCH  28  29
ENDBRANCH   1  28
TORSDOF 13
ENDMDL
