MODEL 1
REMARK VINA RESULT:     -11.3      0.000      0.000
REMARK SMILES C[C@H](Nc1ncccc1C(=O)NCCCCNC(=O)c1ccc(-c2c3nc(c(-c4ccccc4)c4ccc([nH]4)c(-c4ccccc4)c4nc(c(-c5ccccc5)c5ccc2[nH]5)C=C4)C=C3)cc1)c1ccc(Cl)cc1
REMARK SMILES IDX 14 1 13 2 12 3 10 4 11 5 9 7 4 8 5 9 6 10 8 11 7 12 3 13
REMARK SMILES IDX 2 15 1 16 68 17 69 18 74 19 70 20 73 21 71 22 72 23 15 24
REMARK SMILES IDX 16 25 17 26 18 27 19 29 20 30 21 31 67 32 22 33 66 34 23 35
REMARK SMILES IDX 24 36 25 37 60 38 26 39 65 40 59 41 61 42 27 43 64 44 58 45
REMARK SMILES IDX 57 46 28 48 50 49 35 50 49 51 36 52 39 53 48 54 62 55 37 56
REMARK SMILES IDX 38 57 47 59 63 60 40 61 29 62 30 63 34 64 31 65 33 66 32 67
REMARK SMILES IDX 51 68 52 69 56 70 53 71 55 72 54 73 41 74 42 75 46 76 43 77
REMARK SMILES IDX 45 78 44 79
REMARK H PARENT 12 6 3 14 17 28 61 47 39 58
REMARK Flexibility Score: inf
ROOT
ATOM      1  C   UNL A   1      37.106  21.812  24.425  1.00  0.00     0.023 C 
ENDROOT
BRANCH   1   2
ATOM      2  C   UNL A   1      37.164  22.895  25.498  1.00  0.00     0.116 C 
BRANCH   2   3
ATOM      3  N   UNL A   1      36.015  22.854  26.374  1.00  0.00    -0.352 N 
ATOM      4  C   UNL A   1      34.752  23.392  26.389  1.00  0.00     0.255 C 
ATOM      5  O   UNL A   1      34.020  22.846  27.216  1.00  0.00    -0.269 OA
ATOM      6  H   UNL A   1      36.181  22.293  27.167  1.00  0.00     0.163 HD
BRANCH   4   7
ATOM      7  C   UNL A   1      34.221  24.464  25.482  1.00  0.00     0.082 A 
ATOM      8  C   UNL A   1      34.051  24.209  24.104  1.00  0.00     0.139 A 
ATOM      9  N   UNL A   1      33.842  25.196  23.192  1.00  0.00    -0.239 NA
ATOM     10  C   UNL A   1      33.707  26.459  23.635  1.00  0.00     0.113 A 
ATOM     11  C   UNL A   1      33.981  25.780  25.896  1.00  0.00     0.019 A 
ATOM     12  C   UNL A   1      33.729  26.791  24.969  1.00  0.00     0.021 A 
BRANCH   8  13
ATOM     13  N   UNL A   1      33.930  22.951  23.523  1.00  0.00    -0.363 N 
ATOM     14  H   UNL A   1      34.585  22.602  22.876  1.00  0.00     0.162 HD
BRANCH  13  15
ATOM     15  C   UNL A   1      32.752  22.181  23.946  1.00  0.00     0.108 C 
ATOM     16  C   UNL A   1      31.558  22.568  23.062  1.00  0.00     0.036 C 
BRANCH  15  17
ATOM     17  C   UNL A   1      32.966  20.676  23.880  1.00  0.00    -0.026 A 
ATOM     18  C   UNL A   1      32.195  19.840  23.060  1.00  0.00     0.007 A 
ATOM     19  C   UNL A   1      33.962  20.091  24.682  1.00  0.00     0.007 A 
ATOM     20  C   UNL A   1      32.441  18.466  23.003  1.00  0.00     0.021 A 
ATOM     21  C   UNL A   1      34.200  18.714  24.639  1.00  0.00     0.021 A 
ATOM     22  C   UNL A   1      33.443  17.910  23.791  1.00  0.00     0.041 A 
ATOM     23  Cl  UNL A   1      33.758  16.219  23.713  1.00  0.00    -0.084 Cl
ENDBRANCH  15  17
ENDBRANCH  13  15
ENDBRANCH   8  13
ENDBRANCH   4   7
ENDBRANCH   2   3
ENDBRANCH   1   2
BRANCH   1  24
ATOM     24  C   UNL A   1      37.777  20.490  24.824  1.00  0.00     0.023 C 
BRANCH  24  25
ATOM     25  C   UNL A   1      38.858  20.591  25.899  1.00  0.00     0.116 C 
BRANCH  25  26
ATOM     26  N   UNL A   1      39.878  19.558  25.803  1.00  0.00    -0.352 N 
ATOM     27  C   UNL A   1      41.220  19.652  26.092  1.00  0.00     0.251 C 
ATOM     28  H   UNL A   1      39.568  18.678  25.490  1.00  0.00     0.163 HD
ATOM     29  O   UNL A   1      41.971  18.706  25.891  1.00  0.00    -0.269 OA
BRANCH  27  30
ATOM     30  C   UNL A   1      41.752  20.928  26.607  1.00  0.00     0.039 A 
ATOM     31  C   UNL A   1      42.204  21.884  25.693  1.00  0.00     0.014 A 
ATOM     32  C   UNL A   1      41.749  21.198  27.977  1.00  0.00     0.014 A 
ATOM     33  C   UNL A   1      42.581  23.147  26.150  1.00  0.00     0.010 A 
ATOM     34  C   UNL A   1      42.069  22.476  28.424  1.00  0.00     0.010 A 
ATOM     35  C   UNL A   1      42.475  23.465  27.514  1.00  0.00    -0.014 A 
BRANCH  35  36
ATOM     36  C   UNL A   1      42.760  24.832  28.013  1.00  0.00     0.031 A 
ATOM     37  C   UNL A   1      44.154  25.209  28.424  1.00  0.00     0.074 A 
ATOM     38  C   UNL A   1      41.747  25.704  28.176  1.00  0.00     0.049 A 
ATOM     39  N   UNL A   1      44.582  26.319  28.967  1.00  0.00    -0.248 NA
ATOM     40  C   UNL A   1      45.199  24.194  28.219  1.00  0.00     0.031 C 
ATOM     41  C   UNL A   1      40.344  25.449  27.845  1.00  0.00     0.029 A 
ATOM     42  N   UNL A   1      41.744  26.982  28.673  1.00  0.00    -0.354 N 
ATOM     43  C   UNL A   1      45.940  26.128  29.191  1.00  0.00     0.074 A 
ATOM     44  C   UNL A   1      46.254  24.782  28.761  1.00  0.00     0.031 C 
ATOM     45  C   UNL A   1      39.620  26.547  28.124  1.00  0.00     0.029 A 
ATOM     46  C   UNL A   1      40.500  27.564  28.689  1.00  0.00     0.049 A 
ATOM     47  H   UNL A   1      42.557  27.440  28.988  1.00  0.00     0.167 HD
ATOM     48  C   UNL A   1      46.847  26.999  29.693  1.00  0.00     0.031 A 
ATOM     49  C   UNL A   1      40.109  28.778  29.117  1.00  0.00     0.031 A 
ATOM     50  C   UNL A   1      46.538  28.339  30.111  1.00  0.00     0.049 A 
ATOM     51  C   UNL A   1      41.131  29.719  29.691  1.00  0.00     0.074 A 
ATOM     52  C   UNL A   1      47.396  29.316  30.583  1.00  0.00     0.029 A 
ATOM     53  N   UNL A   1      45.265  28.889  30.110  1.00  0.00    -0.354 N 
ATOM     54  N   UNL A   1      42.422  29.546  29.842  1.00  0.00    -0.248 NA
ATOM     55  C   UNL A   1      40.640  31.026  30.149  1.00  0.00     0.031 C 
ATOM     56  C   UNL A   1      46.636  30.446  30.905  1.00  0.00     0.029 A 
ATOM     57  C   UNL A   1      45.312  30.187  30.591  1.00  0.00     0.049 A 
ATOM     58  H   UNL A   1      44.449  28.426  29.813  1.00  0.00     0.167 HD
ATOM     59  C   UNL A   1      42.901  30.731  30.382  1.00  0.00     0.074 A 
ATOM     60  C   UNL A   1      41.765  31.617  30.526  1.00  0.00     0.031 C 
ATOM     61  C   UNL A   1      44.172  31.057  30.725  1.00  0.00     0.031 A 
BRANCH  48  62
ATOM     62  C   UNL A   1      48.262  26.511  29.826  1.00  0.00    -0.014 A 
ATOM     63  C   UNL A   1      48.698  25.855  30.989  1.00  0.00     0.009 A 
ATOM     64  C   UNL A   1      49.169  26.702  28.773  1.00  0.00     0.009 A 
ATOM     65  C   UNL A   1      50.026  25.442  31.112  1.00  0.00     0.001 A 
ATOM     66  C   UNL A   1      50.489  26.262  28.888  1.00  0.00     0.001 A 
ATOM     67  C   UNL A   1      50.920  25.644  30.061  1.00  0.00     0.000 A 
ENDBRANCH  48  62
BRANCH  49  68
ATOM     68  C   UNL A   1      38.688  29.190  28.994  1.00  0.00    -0.014 A 
ATOM     69  C   UNL A   1      37.826  29.078  30.095  1.00  0.00     0.009 A 
ATOM     70  C   UNL A   1      38.187  29.694  27.785  1.00  0.00     0.009 A 
ATOM     71  C   UNL A   1      36.482  29.442  29.981  1.00  0.00     0.001 A 
ATOM     72  C   UNL A   1      36.849  30.080  27.681  1.00  0.00     0.001 A 
ATOM     73  C   UNL A   1      35.996  29.946  28.775  1.00  0.00     0.000 A 
ENDBRANCH  49  68
BRANCH  61  74
ATOM     74  C   UNL A   1      44.405  32.445  31.248  1.00  0.00    -0.014 A 
ATOM     75  C   UNL A   1      44.357  32.723  32.622  1.00  0.00     0.009 A 
ATOM     76  C   UNL A   1      44.713  33.479  30.351  1.00  0.00     0.009 A 
ATOM     77  C   UNL A   1      44.586  34.021  33.085  1.00  0.00     0.001 A 
ATOM     78  C   UNL A   1      44.965  34.769  30.819  1.00  0.00     0.001 A 
ATOM     79  C   UNL A   1      44.894  35.040  32.184  1.00  0.00     0.000 A 
ENDBRANCH  61  74
ENDBRANCH  35  36
ENDBRANCH  27  30
ENDBRANCH  25  26
ENDBRANCH  24  25
ENDBRANCH   1  24
TORSDOF 14
ENDMDL
MODEL 2
REMARK VINA RESULT:     -11.2      0.811      6.028
REMARK SMILES C[C@H](Nc1ncccc1C(=O)NCCCCNC(=O)c1ccc(-c2c3nc(c(-c4ccccc4)c4ccc([nH]4)c(-c4ccccc4)c4nc(c(-c5ccccc5)c5ccc2[nH]5)C=C4)C=C3)cc1)c1ccc(Cl)cc1
REMARK SMILES IDX 14 1 13 2 12 3 10 4 11 5 9 7 4 8 5 9 6 10 8 11 7 12 3 13
REMARK SMILES IDX 2 15 1 16 68 17 69 18 74 19 70 20 73 21 71 22 72 23 15 24
REMARK SMILES IDX 16 25 17 26 18 27 19 29 20 30 21 31 67 32 22 33 66 34 23 35
REMARK SMILES IDX 24 36 25 37 60 38 26 39 65 40 59 41 61 42 27 43 64 44 58 45
REMARK SMILES IDX 57 46 28 48 50 49 35 50 49 51 36 52 39 53 48 54 62 55 37 56
REMARK SMILES IDX 38 57 47 59 63 60 40 61 29 62 30 63 34 64 31 65 33 66 32 67
REMARK SMILES IDX 51 68 52 69 56 70 53 71 55 72 54 73 41 74 42 75 46 76 43 77
REMARK SMILES IDX 45 78 44 79
REMARK H PARENT 12 6 3 14 17 28 61 47 39 58
REMARK Flexibility Score: inf
ROOT
ATOM      1  C   UNL A   1      37.188  21.841  24.375  1.00  0.00     0.023 C 
ENDROOT
BRANCH   1   2
ATOM      2  C   UNL A   1      37.205  23.033  25.327  1.00  0.00     0.116 C 
BRANCH   2   3
ATOM      3  N   UNL A   1      36.108  22.992  26.268  1.00  0.00    -0.352 N 
ATOM      4  C   UNL A   1      34.847  23.526  26.354  1.00  0.00     0.255 C 
ATOM      5  O   UNL A   1      34.166  22.983  27.224  1.00  0.00    -0.269 OA
ATOM      6  H   UNL A   1      36.322  22.436  27.053  1.00  0.00     0.163 HD
BRANCH   4   7
ATOM      7  C   UNL A   1      34.260  24.592  25.474  1.00  0.00     0.082 A 
ATOM      8  C   UNL A   1      34.024  24.335  24.106  1.00  0.00     0.139 A 
ATOM      9  N   UNL A   1      33.760  25.318  23.205  1.00  0.00    -0.239 NA
ATOM     10  C   UNL A   1      33.634  26.580  23.653  1.00  0.00     0.113 A 
ATOM     11  C   UNL A   1      34.027  25.906  25.898  1.00  0.00     0.019 A 
ATOM     12  C   UNL A   1      33.720  26.914  24.984  1.00  0.00     0.021 A 
BRANCH   8  13
ATOM     13  N   UNL A   1      33.888  23.074  23.532  1.00  0.00    -0.363 N 
ATOM     14  H   UNL A   1      34.510  22.734  22.849  1.00  0.00     0.162 HD
BRANCH  13  15
ATOM     15  C   UNL A   1      32.745  22.289  24.021  1.00  0.00     0.108 C 
ATOM     16  C   UNL A   1      31.495  22.671  23.218  1.00  0.00     0.036 C 
BRANCH  15  17
ATOM     17  C   UNL A   1      32.969  20.787  23.928  1.00  0.00    -0.026 A 
ATOM     18  C   UNL A   1      32.207  19.962  23.088  1.00  0.00     0.007 A 
ATOM     19  C   UNL A   1      33.966  20.192  24.723  1.00  0.00     0.007 A 
ATOM     20  C   UNL A   1      32.462  18.590  23.007  1.00  0.00     0.021 A 
ATOM     21  C   UNL A   1      34.213  18.818  24.655  1.00  0.00     0.021 A 
ATOM     22  C   UNL A   1      33.465  18.026  23.788  1.00  0.00     0.041 A 
ATOM     23  Cl  UNL A   1      33.790  16.339  23.680  1.00  0.00    -0.084 Cl
ENDBRANCH  15  17
ENDBRANCH  13  15
ENDBRANCH   8  13
ENDBRANCH   4   7
ENDBRANCH   2   3
ENDBRANCH   1   2
BRANCH   1  24
ATOM     24  C   UNL A   1      37.774  20.551  24.966  1.00  0.00     0.023 C 
BRANCH  24  25
ATOM     25  C   UNL A   1      39.005  20.727  25.855  1.00  0.00     0.116 C 
BRANCH  25  26
ATOM     26  N   UNL A   1      39.930  19.605  25.802  1.00  0.00    -0.352 N 
ATOM     27  C   UNL A   1      41.273  19.590  26.099  1.00  0.00     0.251 C 
ATOM     28  H   UNL A   1      39.545  18.745  25.516  1.00  0.00     0.163 HD
ATOM     29  O   UNL A   1      41.939  18.576  25.935  1.00  0.00    -0.269 OA
BRANCH  27  30
ATOM     30  C   UNL A   1      41.914  20.831  26.574  1.00  0.00     0.039 A 
ATOM     31  C   UNL A   1      42.385  21.748  25.631  1.00  0.00     0.014 A 
ATOM     32  C   UNL A   1      41.994  21.111  27.940  1.00  0.00     0.014 A 
ATOM     33  C   UNL A   1      42.867  22.986  26.056  1.00  0.00     0.010 A 
ATOM     34  C   UNL A   1      42.419  22.367  28.359  1.00  0.00     0.010 A 
ATOM     35  C   UNL A   1      42.847  23.320  27.420  1.00  0.00    -0.014 A 
BRANCH  35  36
ATOM     36  C   UNL A   1      43.246  24.668  27.891  1.00  0.00     0.031 A 
ATOM     37  C   UNL A   1      42.200  25.706  28.180  1.00  0.00     0.074 A 
ATOM     38  C   UNL A   1      44.553  24.983  27.975  1.00  0.00     0.049 A 
ATOM     39  N   UNL A   1      42.354  26.962  28.511  1.00  0.00    -0.248 NA
ATOM     40  C   UNL A   1      40.798  25.280  28.057  1.00  0.00     0.031 C 
ATOM     41  C   UNL A   1      45.666  24.075  27.691  1.00  0.00     0.029 A 
ATOM     42  N   UNL A   1      45.165  26.161  28.316  1.00  0.00    -0.354 N 
ATOM     43  C   UNL A   1      41.070  27.483  28.612  1.00  0.00     0.074 A 
ATOM     44  C   UNL A   1      40.153  26.417  28.269  1.00  0.00     0.031 C 
ATOM     45  C   UNL A   1      46.825  24.723  27.895  1.00  0.00     0.029 A 
ATOM     46  C   UNL A   1      46.537  26.099  28.284  1.00  0.00     0.049 A 
ATOM     47  H   UNL A   1      44.669  26.976  28.561  1.00  0.00     0.167 HD
ATOM     48  C   UNL A   1      40.688  28.730  28.974  1.00  0.00     0.031 A 
ATOM     49  C   UNL A   1      47.460  27.046  28.532  1.00  0.00     0.031 A 
ATOM     50  C   UNL A   1      41.597  29.787  29.325  1.00  0.00     0.049 A 
ATOM     51  C   UNL A   1      47.010  28.429  28.910  1.00  0.00     0.074 A 
ATOM     52  C   UNL A   1      41.307  31.069  29.757  1.00  0.00     0.029 A 
ATOM     53  N   UNL A   1      42.979  29.682  29.280  1.00  0.00    -0.354 N 
ATOM     54  N   UNL A   1      45.792  28.891  29.059  1.00  0.00    -0.248 NA
ATOM     55  C   UNL A   1      48.066  29.420  29.161  1.00  0.00     0.031 C 
ATOM     56  C   UNL A   1      42.515  31.753  29.935  1.00  0.00     0.029 A 
ATOM     57  C   UNL A   1      43.556  30.882  29.658  1.00  0.00     0.049 A 
ATOM     58  H   UNL A   1      43.476  28.874  29.017  1.00  0.00     0.167 HD
ATOM     59  C   UNL A   1      45.935  30.215  29.449  1.00  0.00     0.074 A 
ATOM     60  C   UNL A   1      47.357  30.481  29.522  1.00  0.00     0.031 C 
ATOM     61  C   UNL A   1      44.973  31.129  29.728  1.00  0.00     0.031 A 
BRANCH  48  62
ATOM     62  C   UNL A   1      39.212  29.014  28.992  1.00  0.00    -0.014 A 
ATOM     63  C   UNL A   1      38.551  29.499  27.852  1.00  0.00     0.009 A 
ATOM     64  C   UNL A   1      38.472  28.788  30.162  1.00  0.00     0.009 A 
ATOM     65  C   UNL A   1      37.187  29.794  27.897  1.00  0.00     0.001 A 
ATOM     66  C   UNL A   1      37.102  29.057  30.195  1.00  0.00     0.001 A 
ATOM     67  C   UNL A   1      36.463  29.571  29.067  1.00  0.00     0.000 A 
ENDBRANCH  48  62
BRANCH  49  68
ATOM     68  C   UNL A   1      48.905  26.715  28.461  1.00  0.00    -0.014 A 
ATOM     69  C   UNL A   1      49.583  26.782  27.235  1.00  0.00     0.009 A 
ATOM     70  C   UNL A   1      49.613  26.331  29.610  1.00  0.00     0.009 A 
ATOM     71  C   UNL A   1      50.937  26.450  27.155  1.00  0.00     0.001 A 
ATOM     72  C   UNL A   1      50.973  26.023  29.532  1.00  0.00     0.001 A 
ATOM     73  C   UNL A   1      51.631  26.074  28.304  1.00  0.00     0.000 A 
ENDBRANCH  49  68
BRANCH  61  74
ATOM     74  C   UNL A   1      45.429  32.487  30.177  1.00  0.00    -0.014 A 
ATOM     75  C   UNL A   1      45.624  33.531  29.260  1.00  0.00     0.009 A 
ATOM     76  C   UNL A   1      45.629  32.732  31.544  1.00  0.00     0.009 A 
ATOM     77  C   UNL A   1      46.039  34.788  29.704  1.00  0.00     0.001 A 
ATOM     78  C   UNL A   1      46.020  33.997  31.987  1.00  0.00     0.001 A 
ATOM     79  C   UNL A   1      46.232  35.021  31.065  1.00  0.00     0.000 A 
ENDBRANCH  61  74
ENDBRANCH  35  36
ENDBRANCH  27  30
ENDBRANCH  25  26
ENDBRANCH  24  25
ENDBRANCH   1  24
TORSDOF 14
ENDMDL
MODEL 3
REMARK VINA RESULT:     -11.1      4.615      9.449
REMARK SMILES C[C@H](Nc1ncccc1C(=O)NCCCCNC(=O)c1ccc(-c2c3nc(c(-c4ccccc4)c4ccc([nH]4)c(-c4ccccc4)c4nc(c(-c5ccccc5)c5ccc2[nH]5)C=C4)C=C3)cc1)c1ccc(Cl)cc1
REMARK SMILES IDX 14 1 13 2 12 3 10 4 11 5 9 7 4 8 5 9 6 10 8 11 7 12 3 13
REMARK SMILES IDX 2 15 1 16 68 17 69 18 74 19 70 20 73 21 71 22 72 23 15 24
REMARK SMILES IDX 16 25 17 26 18 27 19 29 20 30 21 31 67 32 22 33 66 34 23 35
REMARK SMILES IDX 24 36 25 37 60 38 26 39 65 40 59 41 61 42 27 43 64 44 58 45
REMARK SMILES IDX 57 46 28 48 50 49 35 50 49 51 36 52 39 53 48 54 62 55 37 56
REMARK SMILES IDX 38 57 47 59 63 60 40 61 29 62 30 63 34 64 31 65 33 66 32 67
REMARK SMILES IDX 51 68 52 69 56 70 53 71 55 72 54 73 41 74 42 75 46 76 43 77
REMARK SMILES IDX 45 78 44 79
REMARK H PARENT 12 6 3 14 17 28 61 47 39 58
REMARK Flexibility Score: inf
ROOT
ATOM      1  C   UNL A   1      31.862  30.251  26.726  1.00  0.00     0.023 C 
ENDROOT
BRANCH   1   2
ATOM      2  C   UNL A   1      33.313  29.789  26.640  1.00  0.00     0.116 C 
BRANCH   2   3
ATOM      3  N   UNL A   1      33.657  29.322  25.316  1.00  0.00    -0.352 N 
ATOM      4  C   UNL A   1      33.526  28.157  24.604  1.00  0.00     0.255 C 
ATOM      5  O   UNL A   1      33.723  28.318  23.399  1.00  0.00    -0.269 OA
ATOM      6  H   UNL A   1      34.101  30.025  24.786  1.00  0.00     0.163 HD
BRANCH   4   7
ATOM      7  C   UNL A   1      33.113  26.816  25.141  1.00  0.00     0.082 A 
ATOM      8  C   UNL A   1      31.787  26.603  25.578  1.00  0.00     0.139 A 
ATOM      9  N   UNL A   1      31.419  25.524  26.318  1.00  0.00    -0.239 NA
ATOM     10  C   UNL A   1      32.340  24.577  26.572  1.00  0.00     0.113 A 
ATOM     11  C   UNL A   1      34.005  25.759  25.355  1.00  0.00     0.019 A 
ATOM     12  C   UNL A   1      33.624  24.632  26.083  1.00  0.00     0.021 A 
BRANCH   8  13
ATOM     13  N   UNL A   1      30.681  27.360  25.204  1.00  0.00    -0.363 N 
ATOM     14  H   UNL A   1      30.316  28.078  25.770  1.00  0.00     0.162 HD
BRANCH  13  15
ATOM     15  C   UNL A   1      30.098  27.007  23.902  1.00  0.00     0.108 C 
ATOM     16  C   UNL A   1      28.938  26.028  24.122  1.00  0.00     0.036 C 
BRANCH  15  17
ATOM     17  C   UNL A   1      29.601  28.216  23.123  1.00  0.00    -0.026 A 
ATOM     18  C   UNL A   1      30.465  29.064  22.414  1.00  0.00     0.007 A 
ATOM     19  C   UNL A   1      28.225  28.512  23.121  1.00  0.00     0.007 A 
ATOM     20  C   UNL A   1      29.968  30.147  21.685  1.00  0.00     0.021 A 
ATOM     21  C   UNL A   1      27.728  29.604  22.406  1.00  0.00     0.021 A 
ATOM     22  C   UNL A   1      28.602  30.411  21.683  1.00  0.00     0.041 A 
ATOM     23  Cl  UNL A   1      27.985  31.737  20.775  1.00  0.00    -0.084 Cl
ENDBRANCH  15  17
ENDBRANCH  13  15
ENDBRANCH   8  13
ENDBRANCH   4   7
ENDBRANCH   2   3
ENDBRANCH   1   2
BRANCH   1  24
ATOM     24  C   UNL A   1      31.683  31.776  26.741  1.00  0.00     0.023 C 
BRANCH  24  25
ATOM     25  C   UNL A   1      32.873  32.579  27.267  1.00  0.00     0.116 C 
BRANCH  25  26
ATOM     26  N   UNL A   1      32.523  33.920  27.712  1.00  0.00    -0.352 N 
ATOM     27  C   UNL A   1      33.172  34.711  28.631  1.00  0.00     0.251 C 
ATOM     28  H   UNL A   1      31.719  34.311  27.302  1.00  0.00     0.163 HD
ATOM     29  O   UNL A   1      32.712  35.798  28.956  1.00  0.00    -0.269 OA
BRANCH  27  30
ATOM     30  C   UNL A   1      34.410  34.210  29.258  1.00  0.00     0.039 A 
ATOM     31  C   UNL A   1      34.315  33.499  30.458  1.00  0.00     0.014 A 
ATOM     32  C   UNL A   1      35.646  34.392  28.635  1.00  0.00     0.014 A 
ATOM     33  C   UNL A   1      35.455  32.899  30.993  1.00  0.00     0.010 A 
ATOM     34  C   UNL A   1      36.770  33.745  29.138  1.00  0.00     0.010 A 
ATOM     35  C   UNL A   1      36.682  32.982  30.314  1.00  0.00    -0.014 A 
BRANCH  35  36
ATOM     36  C   UNL A   1      37.884  32.262  30.799  1.00  0.00     0.031 A 
ATOM     37  C   UNL A   1      38.695  32.825  31.929  1.00  0.00     0.074 A 
ATOM     38  C   UNL A   1      38.291  31.147  30.163  1.00  0.00     0.049 A 
ATOM     39  N   UNL A   1      39.822  32.392  32.432  1.00  0.00    -0.248 NA
ATOM     40  C   UNL A   1      38.182  34.050  32.562  1.00  0.00     0.031 C 
ATOM     41  C   UNL A   1      37.609  30.516  29.031  1.00  0.00     0.029 A 
ATOM     42  N   UNL A   1      39.387  30.350  30.376  1.00  0.00    -0.354 N 
ATOM     43  C   UNL A   1      40.166  33.303  33.422  1.00  0.00     0.074 A 
ATOM     44  C   UNL A   1      39.149  34.333  33.422  1.00  0.00     0.031 C 
ATOM     45  C   UNL A   1      38.289  29.416  28.667  1.00  0.00     0.029 A 
ATOM     46  C   UNL A   1      39.472  29.288  29.510  1.00  0.00     0.049 A 
ATOM     47  H   UNL A   1      40.051  30.524  31.082  1.00  0.00     0.167 HD
ATOM     48  C   UNL A   1      41.224  33.277  34.267  1.00  0.00     0.031 A 
ATOM     49  C   UNL A   1      40.402  28.321  29.403  1.00  0.00     0.031 A 
ATOM     50  C   UNL A   1      42.230  32.250  34.274  1.00  0.00     0.049 A 
ATOM     51  C   UNL A   1      41.578  28.327  30.338  1.00  0.00     0.074 A 
ATOM     52  C   UNL A   1      43.311  32.106  35.126  1.00  0.00     0.029 A 
ATOM     53  N   UNL A   1      42.278  31.190  33.382  1.00  0.00    -0.354 N 
ATOM     54  N   UNL A   1      41.859  29.162  31.308  1.00  0.00    -0.248 NA
ATOM     55  C   UNL A   1      42.564  27.249  30.164  1.00  0.00     0.031 C 
ATOM     56  C   UNL A   1      44.036  30.979  34.723  1.00  0.00     0.029 A 
ATOM     57  C   UNL A   1      43.381  30.398  33.650  1.00  0.00     0.049 A 
ATOM     58  H   UNL A   1      41.626  31.026  32.663  1.00  0.00     0.167 HD
ATOM     59  C   UNL A   1      43.035  28.696  31.880  1.00  0.00     0.074 A 
ATOM     60  C   UNL A   1      43.410  27.500  31.153  1.00  0.00     0.031 C 
ATOM     61  C   UNL A   1      43.739  29.210  32.918  1.00  0.00     0.031 A 
BRANCH  48  62
ATOM     62  C   UNL A   1      41.345  34.411  35.246  1.00  0.00    -0.014 A 
ATOM     63  C   UNL A   1      40.749  34.341  36.516  1.00  0.00     0.009 A 
ATOM     64  C   UNL A   1      42.067  35.561  34.896  1.00  0.00     0.009 A 
ATOM     65  C   UNL A   1      40.838  35.419  37.399  1.00  0.00     0.001 A 
ATOM     66  C   UNL A   1      42.178  36.627  35.793  1.00  0.00     0.001 A 
ATOM     67  C   UNL A   1      41.554  36.559  37.038  1.00  0.00     0.000 A 
ENDBRANCH  48  62
BRANCH  49  68
ATOM     68  C   UNL A   1      40.247  27.247  28.390  1.00  0.00    -0.014 A 
ATOM     69  C   UNL A   1      39.504  26.096  28.694  1.00  0.00     0.009 A 
ATOM     70  C   UNL A   1      40.836  27.362  27.122  1.00  0.00     0.009 A 
ATOM     71  C   UNL A   1      39.372  25.070  27.755  1.00  0.00     0.001 A 
ATOM     72  C   UNL A   1      40.682  26.345  26.177  1.00  0.00     0.001 A 
ATOM     73  C   UNL A   1      39.958  25.198  26.497  1.00  0.00     0.000 A 
ENDBRANCH  49  68
BRANCH  61  74
ATOM     74  C   UNL A   1      44.961  28.456  33.356  1.00  0.00    -0.014 A 
ATOM     75  C   UNL A   1      46.229  28.760  32.837  1.00  0.00     0.009 A 
ATOM     76  C   UNL A   1      44.844  27.453  34.330  1.00  0.00     0.009 A 
ATOM     77  C   UNL A   1      47.353  28.051  33.267  1.00  0.00     0.001 A 
ATOM     78  C   UNL A   1      45.973  26.764  34.776  1.00  0.00     0.001 A 
ATOM     79  C   UNL A   1      47.224  27.058  34.238  1.00  0.00     0.000 A 
ENDBRANCH  61  74
ENDBRANCH  35  36
ENDBRANCH  27  30
ENDBRANCH  25  26
ENDBRANCH  24  25
ENDBRANCH   1  24
TORSDOF 14
ENDMDL
