MODEL 1
REMARK VINA RESULT:     -12.3      0.000      0.000
REMARK SMILES O=C(NCCCCNC(=O)[C@@H]1CC2(CC[NH2+]CC2)C[N@H+]1Cc1cccc2nonc12)c1ccc(-c2c3nc(c(-c4ccccc4)c4ccc([nH]4)c(-c4ccccc4)c4nc(c(-c5ccccc5)c5ccc2[nH]5)C=C4)C=C3)cc1
REMARK SMILES IDX 5 1 4 2 3 3 1 4 2 5 31 7 32 8 78 9 33 10 77 11 34 12 35 13
REMARK SMILES IDX 36 14 71 15 37 16 76 17 70 18 72 19 38 20 75 21 69 22 68 23
REMARK SMILES IDX 39 25 61 26 46 27 60 28 47 29 50 30 59 31 73 32 48 33 49 34
REMARK SMILES IDX 58 36 74 37 51 38 40 39 41 40 45 41 42 42 44 43 43 44 62 45
REMARK SMILES IDX 63 46 67 47 64 48 66 49 65 50 52 51 53 52 57 53 54 54 56 55
REMARK SMILES IDX 55 56 6 57 7 58 8 59 9 60 10 62 11 63 12 64 20 65 13 66
REMARK SMILES IDX 19 67 14 69 18 70 15 71 17 72 16 73 21 76 22 77 23 78 30 79
REMARK SMILES IDX 24 80 26 81 29 82 25 83 27 84 28 85
REMARK H PARENT 3 6 72 24 50 35 8 61 20 68 16 74 16 75
REMARK Flexibility Score: inf
ROOT
ATOM      1  C   UNL A   1      33.937  30.100  26.835  1.00  0.00     0.023 C 
ENDROOT
BRANCH   1   2
ATOM      2  C   UNL A   1      33.395  31.068  27.881  1.00  0.00     0.116 C 
BRANCH   2   3
ATOM      3  N   UNL A   1      33.802  32.444  27.631  1.00  0.00    -0.352 N 
ATOM      4  O   UNL A   1      34.968  34.342  27.976  1.00  0.00    -0.269 OA
ATOM      5  C   UNL A   1      34.889  33.119  28.112  1.00  0.00     0.251 C 
ATOM      6  H   UNL A   1      33.214  32.958  27.032  1.00  0.00     0.163 HD
BRANCH   5   7
ATOM      7  C   UNL A   1      35.961  32.385  28.805  1.00  0.00     0.039 A 
ATOM      8  C   UNL A   1      36.014  32.435  30.199  1.00  0.00     0.014 A 
ATOM      9  C   UNL A   1      36.926  31.678  28.078  1.00  0.00     0.014 A 
ATOM     10  C   UNL A   1      37.008  31.729  30.867  1.00  0.00     0.010 A 
ATOM     11  C   UNL A   1      37.898  30.947  28.745  1.00  0.00     0.010 A 
ATOM     12  C   UNL A   1      37.937  30.970  30.142  1.00  0.00    -0.014 A 
BRANCH  12  13
ATOM     13  C   UNL A   1      38.972  30.242  30.889  1.00  0.00     0.031 A 
ATOM     14  C   UNL A   1      39.261  28.844  30.441  1.00  0.00     0.074 A 
ATOM     15  C   UNL A   1      39.979  30.938  31.454  1.00  0.00     0.049 A 
ATOM     16  N   UNL A   1      40.015  28.558  29.418  1.00  0.00    -0.248 NA
ATOM     17  C   UNL A   1      38.539  27.693  30.984  1.00  0.00     0.031 C 
ATOM     18  C   UNL A   1      40.498  32.207  30.920  1.00  0.00     0.029 A 
ATOM     19  N   UNL A   1      40.884  30.581  32.417  1.00  0.00    -0.354 N 
ATOM     20  C   UNL A   1      39.842  27.213  29.145  1.00  0.00     0.074 A 
ATOM     21  C   UNL A   1      38.927  26.716  30.151  1.00  0.00     0.031 C 
ATOM     22  C   UNL A   1      41.732  32.412  31.419  1.00  0.00     0.029 A 
ATOM     23  C   UNL A   1      42.006  31.401  32.430  1.00  0.00     0.049 A 
ATOM     24  H   UNL A   1      40.756  29.824  33.034  1.00  0.00     0.167 HD
ATOM     25  C   UNL A   1      40.440  26.568  28.108  1.00  0.00     0.031 A 
ATOM     26  C   UNL A   1      43.238  31.023  32.859  1.00  0.00     0.031 A 
ATOM     27  C   UNL A   1      41.327  27.354  27.306  1.00  0.00     0.049 A 
ATOM     28  C   UNL A   1      43.668  30.127  31.721  1.00  0.00     0.074 A 
ATOM     29  C   UNL A   1      41.268  28.068  26.128  1.00  0.00     0.029 A 
ATOM     30  N   UNL A   1      42.611  27.543  27.754  1.00  0.00    -0.354 N 
ATOM     31  N   UNL A   1      44.154  30.504  30.567  1.00  0.00    -0.248 NA
ATOM     32  C   UNL A   1      43.200  28.738  31.756  1.00  0.00     0.031 C 
ATOM     33  C   UNL A   1      42.357  28.995  26.186  1.00  0.00     0.029 A 
ATOM     34  C   UNL A   1      42.970  28.824  27.426  1.00  0.00     0.049 A 
ATOM     35  H   UNL A   1      43.170  26.882  28.224  1.00  0.00     0.167 HD
ATOM     36  C   UNL A   1      43.776  29.510  29.660  1.00  0.00     0.074 A 
ATOM     37  C   UNL A   1      43.210  28.445  30.464  1.00  0.00     0.031 C 
ATOM     38  C   UNL A   1      43.759  29.667  28.302  1.00  0.00     0.031 A 
BRANCH  25  39
ATOM     39  C   UNL A   1      40.301  25.119  27.847  1.00  0.00    -0.014 A 
ATOM     40  C   UNL A   1      39.254  24.608  27.073  1.00  0.00     0.009 A 
ATOM     41  C   UNL A   1      41.330  24.258  28.258  1.00  0.00     0.009 A 
ATOM     42  C   UNL A   1      39.250  23.259  26.704  1.00  0.00     0.001 A 
ATOM     43  C   UNL A   1      41.328  22.915  27.884  1.00  0.00     0.001 A 
ATOM     44  C   UNL A   1      40.291  22.418  27.101  1.00  0.00     0.000 A 
ENDBRANCH  25  39
BRANCH  26  45
ATOM     45  C   UNL A   1      43.254  30.610  34.302  1.00  0.00    -0.014 A 
ATOM     46  C   UNL A   1      42.324  31.001  35.272  1.00  0.00     0.009 A 
ATOM     47  C   UNL A   1      44.316  29.778  34.727  1.00  0.00     0.009 A 
ATOM     48  C   UNL A   1      42.526  30.700  36.627  1.00  0.00     0.001 A 
ATOM     49  C   UNL A   1      44.505  29.455  36.073  1.00  0.00     0.001 A 
ATOM     50  C   UNL A   1      43.624  29.943  37.028  1.00  0.00     0.000 A 
ENDBRANCH  26  45
BRANCH  38  51
ATOM     51  C   UNL A   1      44.395  30.898  27.742  1.00  0.00    -0.014 A 
ATOM     52  C   UNL A   1      43.756  32.145  27.830  1.00  0.00     0.009 A 
ATOM     53  C   UNL A   1      45.588  30.803  27.013  1.00  0.00     0.009 A 
ATOM     54  C   UNL A   1      44.260  33.256  27.152  1.00  0.00     0.001 A 
ATOM     55  C   UNL A   1      46.104  31.920  26.352  1.00  0.00     0.001 A 
ATOM     56  C   UNL A   1      45.431  33.140  26.406  1.00  0.00     0.000 A 
ENDBRANCH  38  51
ENDBRANCH  12  13
ENDBRANCH   5   7
ENDBRANCH   2   3
ENDBRANCH   1   2
BRANCH   1  57
ATOM     57  C   UNL A   1      33.594  28.641  27.083  1.00  0.00     0.023 C 
BRANCH  57  58
ATOM     58  C   UNL A   1      32.343  28.375  27.893  1.00  0.00     0.116 C 
BRANCH  58  59
ATOM     59  N   UNL A   1      31.272  27.645  27.251  1.00  0.00    -0.351 N 
ATOM     60  C   UNL A   1      31.062  27.444  25.906  1.00  0.00     0.278 C 
ATOM     61  H   UNL A   1      30.608  27.239  27.854  1.00  0.00     0.163 HD
ATOM     62  O   UNL A   1      30.445  26.419  25.589  1.00  0.00    -0.268 OA
BRANCH  60  63
ATOM     63  C   UNL A   1      31.536  28.428  24.793  1.00  0.00     0.275 C 
ATOM     64  C   UNL A   1      30.496  29.469  24.307  1.00  0.00     0.089 C 
ATOM     65  N   UNL A   1      32.012  27.711  23.591  1.00  0.00    -0.320 N 
ATOM     66  C   UNL A   1      30.104  29.040  22.880  1.00  0.00     0.036 C 
ATOM     67  C   UNL A   1      31.432  28.369  22.427  1.00  0.00     0.270 C 
ATOM     68  H   UNL A   1      31.689  26.744  23.606  1.00  0.00     0.349 HD
ATOM     69  C   UNL A   1      29.806  30.169  21.868  1.00  0.00     0.074 C 
ATOM     70  C   UNL A   1      28.862  28.117  22.974  1.00  0.00     0.074 C 
ATOM     71  C   UNL A   1      28.406  30.769  21.948  1.00  0.00     0.261 C 
ATOM     72  C   UNL A   1      27.514  28.836  23.000  1.00  0.00     0.261 C 
ATOM     73  N   UNL A   1      27.373  29.741  21.874  1.00  0.00    -0.346 N 
ATOM     74  H   UNL A   1      27.472  29.220  21.004  1.00  0.00     0.346 HD
ATOM     75  H   UNL A   1      26.453  30.180  21.903  1.00  0.00     0.346 HD
BRANCH  65  76
ATOM     76  C   UNL A   1      33.471  27.533  23.552  1.00  0.00     0.302 C 
BRANCH  76  77
ATOM     77  C   UNL A   1      33.852  26.112  23.878  1.00  0.00     0.038 A 
ATOM     78  C   UNL A   1      34.440  25.777  25.128  1.00  0.00     0.012 A 
ATOM     79  C   UNL A   1      33.790  25.017  22.984  1.00  0.00     0.144 A 
ATOM     80  C   UNL A   1      34.980  24.499  25.439  1.00  0.00     0.003 A 
ATOM     81  C   UNL A   1      34.369  23.714  23.296  1.00  0.00     0.135 A 
ATOM     82  N   UNL A   1      33.258  24.946  21.756  1.00  0.00    -0.049 NA
ATOM     83  C   UNL A   1      34.996  23.433  24.523  1.00  0.00     0.034 A 
ATOM     84  N   UNL A   1      34.210  22.913  22.235  1.00  0.00    -0.050 NA
ATOM     85  O   UNL A   1      33.530  23.670  21.295  1.00  0.00    -0.243 OA
ENDBRANCH  76  77
ENDBRANCH  65  76
ENDBRANCH  60  63
ENDBRANCH  58  59
ENDBRANCH  57  58
ENDBRANCH   1  57
TORSDOF 13
ENDMDL
MODEL 2
REMARK VINA RESULT:     -12.3      2.597      6.936
REMARK SMILES O=C(NCCCCNC(=O)[C@@H]1CC2(CC[NH2+]CC2)C[N@H+]1Cc1cccc2nonc12)c1ccc(-c2c3nc(c(-c4ccccc4)c4ccc([nH]4)c(-c4ccccc4)c4nc(c(-c5ccccc5)c5ccc2[nH]5)C=C4)C=C3)cc1
REMARK SMILES IDX 5 1 4 2 3 3 1 4 2 5 31 7 32 8 78 9 33 10 77 11 34 12 35 13
REMARK SMILES IDX 36 14 71 15 37 16 76 17 70 18 72 19 38 20 75 21 69 22 68 23
REMARK SMILES IDX 39 25 61 26 46 27 60 28 47 29 50 30 59 31 73 32 48 33 49 34
REMARK SMILES IDX 58 36 74 37 51 38 40 39 41 40 45 41 42 42 44 43 43 44 62 45
REMARK SMILES IDX 63 46 67 47 64 48 66 49 65 50 52 51 53 52 57 53 54 54 56 55
REMARK SMILES IDX 55 56 6 57 7 58 8 59 9 60 10 62 11 63 12 64 20 65 13 66
REMARK SMILES IDX 19 67 14 69 18 70 15 71 17 72 16 73 21 76 22 77 23 78 30 79
REMARK SMILES IDX 24 80 26 81 29 82 25 83 27 84 28 85
REMARK H PARENT 3 6 72 24 50 35 8 61 20 68 16 74 16 75
REMARK Flexibility Score: inf
ROOT
ATOM      1  C   UNL A   1      36.941  21.894  24.303  1.00  0.00     0.023 C 
ENDROOT
BRANCH   1   2
ATOM      2  C   UNL A   1      37.864  22.453  25.380  1.00  0.00     0.116 C 
BRANCH   2   3
ATOM      3  N   UNL A   1      38.704  21.426  25.982  1.00  0.00    -0.352 N 
ATOM      4  O   UNL A   1      40.608  20.547  26.810  1.00  0.00    -0.269 OA
ATOM      5  C   UNL A   1      39.944  21.552  26.543  1.00  0.00     0.251 C 
ATOM      6  H   UNL A   1      38.327  20.517  25.985  1.00  0.00     0.163 HD
BRANCH   5   7
ATOM      7  C   UNL A   1      40.492  22.891  26.817  1.00  0.00     0.039 A 
ATOM      8  C   UNL A   1      41.634  23.301  26.127  1.00  0.00     0.014 A 
ATOM      9  C   UNL A   1      39.900  23.721  27.776  1.00  0.00     0.014 A 
ATOM     10  C   UNL A   1      42.150  24.570  26.361  1.00  0.00     0.010 A 
ATOM     11  C   UNL A   1      40.395  25.000  27.985  1.00  0.00     0.010 A 
ATOM     12  C   UNL A   1      41.520  25.427  27.275  1.00  0.00    -0.014 A 
BRANCH  12  13
ATOM     13  C   UNL A   1      42.101  26.759  27.493  1.00  0.00     0.031 A 
ATOM     14  C   UNL A   1      41.138  27.895  27.622  1.00  0.00     0.074 A 
ATOM     15  C   UNL A   1      43.277  26.858  28.146  1.00  0.00     0.049 A 
ATOM     16  N   UNL A   1      40.490  28.167  28.720  1.00  0.00    -0.248 NA
ATOM     17  C   UNL A   1      40.680  28.658  26.461  1.00  0.00     0.031 C 
ATOM     18  C   UNL A   1      43.726  25.904  29.172  1.00  0.00     0.029 A 
ATOM     19  N   UNL A   1      44.168  27.893  28.233  1.00  0.00    -0.354 N 
ATOM     20  C   UNL A   1      39.513  29.093  28.400  1.00  0.00     0.074 A 
ATOM     21  C   UNL A   1      39.679  29.377  26.990  1.00  0.00     0.031 C 
ATOM     22  C   UNL A   1      44.680  26.492  29.919  1.00  0.00     0.029 A 
ATOM     23  C   UNL A   1      45.029  27.771  29.318  1.00  0.00     0.049 A 
ATOM     24  H   UNL A   1      44.196  28.645  27.597  1.00  0.00     0.167 HD
ATOM     25  C   UNL A   1      38.609  29.578  29.292  1.00  0.00     0.031 A 
ATOM     26  C   UNL A   1      45.624  28.811  29.956  1.00  0.00     0.031 A 
ATOM     27  C   UNL A   1      38.740  29.110  30.638  1.00  0.00     0.049 A 
ATOM     28  C   UNL A   1      44.448  29.387  30.709  1.00  0.00     0.074 A 
ATOM     29  C   UNL A   1      38.189  28.125  31.429  1.00  0.00     0.029 A 
ATOM     30  N   UNL A   1      39.665  29.720  31.449  1.00  0.00    -0.354 N 
ATOM     31  N   UNL A   1      43.944  28.946  31.833  1.00  0.00    -0.248 NA
ATOM     32  C   UNL A   1      43.573  30.304  29.973  1.00  0.00     0.031 C 
ATOM     33  C   UNL A   1      39.127  27.913  32.488  1.00  0.00     0.029 A 
ATOM     34  C   UNL A   1      40.218  28.743  32.236  1.00  0.00     0.049 A 
ATOM     35  H   UNL A   1      39.890  30.679  31.462  1.00  0.00     0.167 HD
ATOM     36  C   UNL A   1      42.589  29.285  31.794  1.00  0.00     0.074 A 
ATOM     37  C   UNL A   1      42.435  30.136  30.631  1.00  0.00     0.031 C 
ATOM     38  C   UNL A   1      41.626  28.717  32.579  1.00  0.00     0.031 A 
BRANCH  25  39
ATOM     39  C   UNL A   1      37.599  30.609  28.966  1.00  0.00    -0.014 A 
ATOM     40  C   UNL A   1      37.850  31.971  29.158  1.00  0.00     0.009 A 
ATOM     41  C   UNL A   1      36.424  30.216  28.306  1.00  0.00     0.009 A 
ATOM     42  C   UNL A   1      36.945  32.924  28.679  1.00  0.00     0.001 A 
ATOM     43  C   UNL A   1      35.526  31.167  27.824  1.00  0.00     0.001 A 
ATOM     44  C   UNL A   1      35.790  32.522  28.005  1.00  0.00     0.000 A 
ENDBRANCH  25  39
BRANCH  26  45
ATOM     45  C   UNL A   1      46.519  29.615  29.058  1.00  0.00    -0.014 A 
ATOM     46  C   UNL A   1      46.573  31.013  29.002  1.00  0.00     0.009 A 
ATOM     47  C   UNL A   1      47.358  28.902  28.171  1.00  0.00     0.009 A 
ATOM     48  C   UNL A   1      47.317  31.665  28.009  1.00  0.00     0.001 A 
ATOM     49  C   UNL A   1      48.120  29.551  27.197  1.00  0.00     0.001 A 
ATOM     50  C   UNL A   1      48.076  30.935  27.097  1.00  0.00     0.000 A 
ENDBRANCH  26  45
BRANCH  38  51
ATOM     51  C   UNL A   1      42.080  27.842  33.703  1.00  0.00    -0.014 A 
ATOM     52  C   UNL A   1      42.828  26.680  33.456  1.00  0.00     0.009 A 
ATOM     53  C   UNL A   1      41.661  28.107  35.014  1.00  0.00     0.009 A 
ATOM     54  C   UNL A   1      43.096  25.771  34.482  1.00  0.00     0.001 A 
ATOM     55  C   UNL A   1      41.947  27.208  36.044  1.00  0.00     0.001 A 
ATOM     56  C   UNL A   1      42.647  26.033  35.774  1.00  0.00     0.000 A 
ENDBRANCH  38  51
ENDBRANCH  12  13
ENDBRANCH   5   7
ENDBRANCH   2   3
ENDBRANCH   1   2
BRANCH   1  57
ATOM     57  C   UNL A   1      36.369  22.934  23.354  1.00  0.00     0.023 C 
BRANCH  57  58
ATOM     58  C   UNL A   1      34.989  23.459  23.690  1.00  0.00     0.116 C 
BRANCH  58  59
ATOM     59  N   UNL A   1      34.906  24.706  24.418  1.00  0.00    -0.351 N 
ATOM     60  C   UNL A   1      33.782  25.433  24.739  1.00  0.00     0.278 C 
ATOM     61  H   UNL A   1      35.762  25.083  24.724  1.00  0.00     0.163 HD
ATOM     62  O   UNL A   1      33.852  26.139  25.754  1.00  0.00    -0.268 OA
BRANCH  60  63
ATOM     63  C   UNL A   1      32.469  25.425  23.900  1.00  0.00     0.275 C 
ATOM     64  C   UNL A   1      32.073  26.764  23.229  1.00  0.00     0.089 C 
ATOM     65  N   UNL A   1      31.306  24.992  24.702  1.00  0.00    -0.320 N 
ATOM     66  C   UNL A   1      30.834  27.270  23.994  1.00  0.00     0.036 C 
ATOM     67  C   UNL A   1      30.210  25.911  24.421  1.00  0.00     0.270 C 
ATOM     68  H   UNL A   1      31.523  25.048  25.697  1.00  0.00     0.349 HD
ATOM     69  C   UNL A   1      29.760  28.016  23.170  1.00  0.00     0.074 C 
ATOM     70  C   UNL A   1      31.315  28.198  25.139  1.00  0.00     0.074 C 
ATOM     71  C   UNL A   1      30.049  29.488  22.898  1.00  0.00     0.261 C 
ATOM     72  C   UNL A   1      31.524  29.660  24.751  1.00  0.00     0.261 C 
ATOM     73  N   UNL A   1      30.338  30.219  24.127  1.00  0.00    -0.346 N 
ATOM     74  H   UNL A   1      29.548  30.138  24.766  1.00  0.00     0.346 HD
ATOM     75  H   UNL A   1      30.499  31.202  23.910  1.00  0.00     0.346 HD
BRANCH  65  76
ATOM     76  C   UNL A   1      30.985  23.565  24.551  1.00  0.00     0.302 C 
BRANCH  76  77
ATOM     77  C   UNL A   1      31.818  22.721  25.481  1.00  0.00     0.038 A 
ATOM     78  C   UNL A   1      32.109  23.153  26.803  1.00  0.00     0.012 A 
ATOM     79  C   UNL A   1      32.480  21.519  25.133  1.00  0.00     0.144 A 
ATOM     80  C   UNL A   1      33.024  22.499  27.673  1.00  0.00     0.003 A 
ATOM     81  C   UNL A   1      33.439  20.865  26.018  1.00  0.00     0.135 A 
ATOM     82  N   UNL A   1      32.402  20.797  24.007  1.00  0.00    -0.049 NA
ATOM     83  C   UNL A   1      33.747  21.353  27.300  1.00  0.00     0.034 A 
ATOM     84  N   UNL A   1      33.940  19.797  25.386  1.00  0.00    -0.050 NA
ATOM     85  O   UNL A   1      33.304  19.759  24.156  1.00  0.00    -0.243 OA
ENDBRANCH  76  77
ENDBRANCH  65  76
ENDBRANCH  60  63
ENDBRANCH  58  59
ENDBRANCH  57  58
ENDBRANCH   1  57
TORSDOF 13
ENDMDL
MODEL 3
REMARK VINA RESULT:     -12.0      1.358      1.827
REMARK SMILES O=C(NCCCCNC(=O)[C@@H]1CC2(CC[NH2+]CC2)C[N@H+]1Cc1cccc2nonc12)c1ccc(-c2c3nc(c(-c4ccccc4)c4ccc([nH]4)c(-c4ccccc4)c4nc(c(-c5ccccc5)c5ccc2[nH]5)C=C4)C=C3)cc1
REMARK SMILES IDX 5 1 4 2 3 3 1 4 2 5 31 7 32 8 78 9 33 10 77 11 34 12 35 13
REMARK SMILES IDX 36 14 71 15 37 16 76 17 70 18 72 19 38 20 75 21 69 22 68 23
REMARK SMILES IDX 39 25 61 26 46 27 60 28 47 29 50 30 59 31 73 32 48 33 49 34
REMARK SMILES IDX 58 36 74 37 51 38 40 39 41 40 45 41 42 42 44 43 43 44 62 45
REMARK SMILES IDX 63 46 67 47 64 48 66 49 65 50 52 51 53 52 57 53 54 54 56 55
REMARK SMILES IDX 55 56 6 57 7 58 8 59 9 60 10 62 11 63 12 64 20 65 13 66
REMARK SMILES IDX 19 67 14 69 18 70 15 71 17 72 16 73 21 76 22 77 23 78 30 79
REMARK SMILES IDX 24 80 26 81 29 82 25 83 27 84 28 85
REMARK H PARENT 3 6 72 24 50 35 8 61 20 68 16 74 16 75
REMARK Flexibility Score: inf
ROOT
ATOM      1  C   UNL A   1      32.396  30.877  26.845  1.00  0.00     0.023 C 
ENDROOT
BRANCH   1   2
ATOM      2  C   UNL A   1      33.635  31.223  27.663  1.00  0.00     0.116 C 
BRANCH   2   3
ATOM      3  N   UNL A   1      33.884  32.657  27.718  1.00  0.00    -0.352 N 
ATOM      4  O   UNL A   1      34.767  34.565  28.533  1.00  0.00    -0.269 OA
ATOM      5  C   UNL A   1      34.832  33.337  28.431  1.00  0.00     0.251 C 
ATOM      6  H   UNL A   1      33.290  33.213  27.165  1.00  0.00     0.163 HD
BRANCH   5   7
ATOM      7  C   UNL A   1      35.925  32.600  29.087  1.00  0.00     0.039 A 
ATOM      8  C   UNL A   1      35.921  32.497  30.480  1.00  0.00     0.014 A 
ATOM      9  C   UNL A   1      36.964  32.045  28.333  1.00  0.00     0.014 A 
ATOM     10  C   UNL A   1      36.935  31.786  31.111  1.00  0.00     0.010 A 
ATOM     11  C   UNL A   1      37.958  31.308  28.960  1.00  0.00     0.010 A 
ATOM     12  C   UNL A   1      37.942  31.175  30.351  1.00  0.00    -0.014 A 
BRANCH  12  13
ATOM     13  C   UNL A   1      38.995  30.436  31.060  1.00  0.00     0.031 A 
ATOM     14  C   UNL A   1      39.272  29.045  30.585  1.00  0.00     0.074 A 
ATOM     15  C   UNL A   1      40.017  31.124  31.610  1.00  0.00     0.049 A 
ATOM     16  N   UNL A   1      40.000  28.774  29.539  1.00  0.00    -0.248 NA
ATOM     17  C   UNL A   1      38.564  27.886  31.129  1.00  0.00     0.031 C 
ATOM     18  C   UNL A   1      40.522  32.400  31.081  1.00  0.00     0.029 A 
ATOM     19  N   UNL A   1      40.946  30.753  32.544  1.00  0.00    -0.354 N 
ATOM     20  C   UNL A   1      39.819  27.433  29.250  1.00  0.00     0.074 A 
ATOM     21  C   UNL A   1      38.930  26.921  30.272  1.00  0.00     0.031 C 
ATOM     22  C   UNL A   1      41.769  32.598  31.551  1.00  0.00     0.029 A 
ATOM     23  C   UNL A   1      42.069  31.572  32.540  1.00  0.00     0.049 A 
ATOM     24  H   UNL A   1      40.833  29.986  33.153  1.00  0.00     0.167 HD
ATOM     25  C   UNL A   1      40.390  26.804  28.189  1.00  0.00     0.031 A 
ATOM     26  C   UNL A   1      43.311  31.188  32.932  1.00  0.00     0.031 A 
ATOM     27  C   UNL A   1      41.257  27.601  27.376  1.00  0.00     0.049 A 
ATOM     28  C   UNL A   1      43.711  30.308  31.770  1.00  0.00     0.074 A 
ATOM     29  C   UNL A   1      41.168  28.332  26.211  1.00  0.00     0.029 A 
ATOM     30  N   UNL A   1      42.552  27.783  27.794  1.00  0.00    -0.354 N 
ATOM     31  N   UNL A   1      44.167  30.703  30.609  1.00  0.00    -0.248 NA
ATOM     32  C   UNL A   1      43.244  28.920  31.797  1.00  0.00     0.031 C 
ATOM     33  C   UNL A   1      42.258  29.258  26.254  1.00  0.00     0.029 A 
ATOM     34  C   UNL A   1      42.902  29.069  27.476  1.00  0.00     0.049 A 
ATOM     35  H   UNL A   1      43.122  27.115  28.240  1.00  0.00     0.167 HD
ATOM     36  C   UNL A   1      43.766  29.722  29.698  1.00  0.00     0.074 A 
ATOM     37  C   UNL A   1      43.220  28.646  30.500  1.00  0.00     0.031 C 
ATOM     38  C   UNL A   1      43.714  29.899  28.344  1.00  0.00     0.031 A 
BRANCH  25  39
ATOM     39  C   UNL A   1      40.243  25.359  27.910  1.00  0.00    -0.014 A 
ATOM     40  C   UNL A   1      39.186  24.861  27.143  1.00  0.00     0.009 A 
ATOM     41  C   UNL A   1      41.275  24.489  28.298  1.00  0.00     0.009 A 
ATOM     42  C   UNL A   1      39.174  23.517  26.755  1.00  0.00     0.001 A 
ATOM     43  C   UNL A   1      41.265  23.151  27.906  1.00  0.00     0.001 A 
ATOM     44  C   UNL A   1      40.217  22.667  27.129  1.00  0.00     0.000 A 
ENDBRANCH  25  39
BRANCH  26  45
ATOM     45  C   UNL A   1      43.364  30.754  34.368  1.00  0.00    -0.014 A 
ATOM     46  C   UNL A   1      42.341  30.921  35.308  1.00  0.00     0.009 A 
ATOM     47  C   UNL A   1      44.560  30.149  34.819  1.00  0.00     0.009 A 
ATOM     48  C   UNL A   1      42.555  30.637  36.664  1.00  0.00     0.001 A 
ATOM     49  C   UNL A   1      44.767  29.841  36.166  1.00  0.00     0.001 A 
ATOM     50  C   UNL A   1      43.772  30.114  37.095  1.00  0.00     0.000 A 
ENDBRANCH  26  45
BRANCH  38  51
ATOM     51  C   UNL A   1      44.336  31.138  27.785  1.00  0.00    -0.014 A 
ATOM     52  C   UNL A   1      43.626  32.349  27.749  1.00  0.00     0.009 A 
ATOM     53  C   UNL A   1      45.598  31.079  27.179  1.00  0.00     0.009 A 
ATOM     54  C   UNL A   1      44.136  33.456  27.068  1.00  0.00     0.001 A 
ATOM     55  C   UNL A   1      46.117  32.193  26.515  1.00  0.00     0.001 A 
ATOM     56  C   UNL A   1      45.378  33.374  26.444  1.00  0.00     0.000 A 
ENDBRANCH  38  51
ENDBRANCH  12  13
ENDBRANCH   5   7
ENDBRANCH   2   3
ENDBRANCH   1   2
BRANCH   1  57
ATOM     57  C   UNL A   1      31.845  29.482  27.087  1.00  0.00     0.023 C 
BRANCH  57  58
ATOM     58  C   UNL A   1      31.828  28.553  25.891  1.00  0.00     0.116 C 
BRANCH  58  59
ATOM     59  N   UNL A   1      32.927  28.645  24.956  1.00  0.00    -0.351 N 
ATOM     60  C   UNL A   1      32.873  28.801  23.589  1.00  0.00     0.278 C 
ATOM     61  H   UNL A   1      33.829  28.588  25.345  1.00  0.00     0.163 HD
ATOM     62  O   UNL A   1      33.843  29.360  23.059  1.00  0.00    -0.268 OA
BRANCH  60  63
ATOM     63  C   UNL A   1      31.692  28.308  22.700  1.00  0.00     0.275 C 
ATOM     64  C   UNL A   1      30.787  29.406  22.088  1.00  0.00     0.089 C 
ATOM     65  N   UNL A   1      30.801  27.383  23.432  1.00  0.00    -0.320 N 
ATOM     66  C   UNL A   1      29.440  29.306  22.830  1.00  0.00     0.036 C 
ATOM     67  C   UNL A   1      29.427  27.786  23.158  1.00  0.00     0.270 C 
ATOM     68  H   UNL A   1      30.963  27.459  24.436  1.00  0.00     0.349 HD
ATOM     69  C   UNL A   1      28.165  29.596  22.006  1.00  0.00     0.074 C 
ATOM     70  C   UNL A   1      29.479  30.273  24.041  1.00  0.00     0.074 C 
ATOM     71  C   UNL A   1      27.823  31.071  21.825  1.00  0.00     0.261 C 
ATOM     72  C   UNL A   1      29.071  31.714  23.740  1.00  0.00     0.261 C 
ATOM     73  N   UNL A   1      27.768  31.775  23.102  1.00  0.00    -0.346 N 
ATOM     74  H   UNL A   1      27.073  31.334  23.704  1.00  0.00     0.346 HD
ATOM     75  H   UNL A   1      27.511  32.749  22.944  1.00  0.00     0.346 HD
BRANCH  65  76
ATOM     76  C   UNL A   1      31.101  25.964  23.192  1.00  0.00     0.302 C 
BRANCH  76  77
ATOM     77  C   UNL A   1      31.922  25.386  24.316  1.00  0.00     0.038 A 
ATOM     78  C   UNL A   1      33.333  25.258  24.206  1.00  0.00     0.012 A 
ATOM     79  C   UNL A   1      31.405  24.818  25.505  1.00  0.00     0.144 A 
ATOM     80  C   UNL A   1      34.148  24.570  25.146  1.00  0.00     0.003 A 
ATOM     81  C   UNL A   1      32.240  24.088  26.455  1.00  0.00     0.135 A 
ATOM     82  N   UNL A   1      30.148  24.800  25.967  1.00  0.00    -0.049 NA
ATOM     83  C   UNL A   1      33.627  23.931  26.285  1.00  0.00     0.034 A 
ATOM     84  N   UNL A   1      31.458  23.618  27.434  1.00  0.00    -0.050 NA
ATOM     85  O   UNL A   1      30.179  24.054  27.132  1.00  0.00    -0.243 OA
ENDBRANCH  76  77
ENDBRANCH  65  76
ENDBRANCH  60  63
ENDBRANCH  58  59
ENDBRANCH  57  58
ENDBRANCH   1  57
TORSDOF 13
ENDMDL
