MODEL 1
REMARK VINA RESULT:     -12.9      0.000      0.000
REMARK SMILES NS(=O)(=O)c1ccc(-n2nc(C(F)F)cc2-c2ccc(C(=O)NCCCCNC(=O)c3ccc(-c4c5nc(c(-c6ccccc6)c6ccc([nH]6)c(-c6ccccc6)c6nc(c(-c7ccccc7)c7ccc4[nH]7)C=C6)C=C5)cc3)cc2)cc1
REMARK SMILES IDX 24 1 23 2 21 3 22 4 20 6 17 7 18 8 80 9 19 10 79 11 16 12
REMARK SMILES IDX 9 13 10 14 11 15 15 16 8 17 5 18 6 19 82 20 7 21 81 22 2 23
REMARK SMILES IDX 3 24 4 25 1 26 12 29 13 30 14 31 25 32 26 33 27 34 28 35
REMARK SMILES IDX 29 36 30 38 31 39 32 40 78 41 33 42 77 43 34 44 35 45 36 46
REMARK SMILES IDX 71 47 37 48 76 49 70 50 72 51 38 52 75 53 69 54 68 55 39 57
REMARK SMILES IDX 61 58 46 59 60 60 47 61 50 62 59 63 73 64 48 65 49 66 58 68
REMARK SMILES IDX 74 69 51 70 40 71 41 72 45 73 42 74 44 75 43 76 62 77 63 78
REMARK SMILES IDX 67 79 64 80 66 81 65 82 52 83 53 84 57 85 54 86 56 87 55 88
REMARK H PARENT 23 5 1 27 1 28 28 37 72 56 50 67
REMARK Flexibility Score: inf
ROOT
ATOM      1  C   UNL A   1      35.887  29.708  28.834  1.00  0.00     0.116 C 
ENDROOT
BRANCH   1   2
ATOM      2  N   UNL A   1      34.857  30.627  28.389  1.00  0.00    -0.352 N 
ATOM      3  C   UNL A   1      33.780  30.477  27.552  1.00  0.00     0.251 C 
ATOM      4  O   UNL A   1      33.052  31.457  27.385  1.00  0.00    -0.269 OA
ATOM      5  H   UNL A   1      34.949  31.534  28.759  1.00  0.00     0.163 HD
BRANCH   3   6
ATOM      6  C   UNL A   1      33.429  29.190  26.890  1.00  0.00     0.039 A 
ATOM      7  C   UNL A   1      32.692  26.712  25.783  1.00  0.00     0.000 A 
ATOM      8  C   UNL A   1      31.948  27.258  26.834  1.00  0.00     0.011 A 
ATOM      9  C   UNL A   1      33.790  27.408  25.281  1.00  0.00     0.011 A 
ATOM     10  C   UNL A   1      32.323  28.485  27.390  1.00  0.00     0.014 A 
ATOM     11  C   UNL A   1      34.114  28.661  25.794  1.00  0.00     0.014 A 
BRANCH   7  12
ATOM     12  C   UNL A   1      32.275  25.491  25.114  1.00  0.00     0.075 A 
ATOM     13  N   UNL A   1      31.229  25.415  24.204  1.00  0.00    -0.233 N 
ATOM     14  N   UNL A   1      30.953  24.132  23.865  1.00  0.00    -0.166 NA
ATOM     15  C   UNL A   1      31.979  23.419  24.366  1.00  0.00     0.129 A 
ATOM     16  C   UNL A   1      32.795  24.219  25.199  1.00  0.00     0.060 A 
BRANCH  13  17
ATOM     17  C   UNL A   1      30.504  26.500  23.642  1.00  0.00     0.065 A 
ATOM     18  C   UNL A   1      29.153  28.758  22.731  1.00  0.00     0.082 A 
ATOM     19  C   UNL A   1      30.492  28.576  22.384  1.00  0.00     0.024 A 
ATOM     20  C   UNL A   1      28.475  27.799  23.496  1.00  0.00     0.024 A 
ATOM     21  C   UNL A   1      31.166  27.448  22.843  1.00  0.00     0.030 A 
ATOM     22  C   UNL A   1      29.144  26.650  23.931  1.00  0.00     0.030 A 
BRANCH  18  23
ATOM     23  S   UNL A   1      28.320  30.226  22.210  1.00  0.00     0.238 S 
ATOM     24  O   UNL A   1      27.312  30.574  23.180  1.00  0.00    -0.207 OA
ATOM     25  O   UNL A   1      28.048  30.119  20.794  1.00  0.00    -0.207 OA
BRANCH  23  26
ATOM     26  N   UNL A   1      29.505  31.412  22.366  1.00  0.00    -0.225 NA
ATOM     27  H   UNL A   1      29.347  31.940  23.224  1.00  0.00     0.137 HD
ATOM     28  H   UNL A   1      29.462  32.043  21.566  1.00  0.00     0.137 HD
ENDBRANCH  23  26
ENDBRANCH  18  23
ENDBRANCH  13  17
BRANCH  15  29
ATOM     29  C   UNL A   1      32.203  21.969  24.049  1.00  0.00     0.393 C 
ATOM     30  F   UNL A   1      31.611  21.139  24.948  1.00  0.00    -0.203 F 
ATOM     31  F   UNL A   1      31.706  21.643  22.824  1.00  0.00    -0.203 F 
ENDBRANCH  15  29
ENDBRANCH   7  12
ENDBRANCH   3   6
ENDBRANCH   1   2
BRANCH   1  32
ATOM     32  C   UNL A   1      37.171  30.455  29.210  1.00  0.00     0.023 C 
BRANCH  32  33
ATOM     33  C   UNL A   1      36.971  31.938  29.551  1.00  0.00     0.023 C 
BRANCH  33  34
ATOM     34  C   UNL A   1      37.998  32.877  28.928  1.00  0.00     0.116 C 
BRANCH  34  35
ATOM     35  N   UNL A   1      38.607  33.772  29.906  1.00  0.00    -0.352 N 
ATOM     36  C   UNL A   1      39.345  33.438  31.023  1.00  0.00     0.251 C 
ATOM     37  H   UNL A   1      38.476  34.736  29.751  1.00  0.00     0.163 HD
ATOM     38  O   UNL A   1      39.434  34.208  31.971  1.00  0.00    -0.269 OA
BRANCH  36  39
ATOM     39  C   UNL A   1      40.046  32.142  31.056  1.00  0.00     0.039 A 
ATOM     40  C   UNL A   1      39.587  31.096  31.859  1.00  0.00     0.014 A 
ATOM     41  C   UNL A   1      41.180  31.982  30.259  1.00  0.00     0.014 A 
ATOM     42  C   UNL A   1      40.227  29.861  31.783  1.00  0.00     0.010 A 
ATOM     43  C   UNL A   1      41.743  30.737  30.099  1.00  0.00     0.010 A 
ATOM     44  C   UNL A   1      41.288  29.678  30.877  1.00  0.00    -0.014 A 
BRANCH  44  45
ATOM     45  C   UNL A   1      41.784  28.333  30.587  1.00  0.00     0.031 A 
ATOM     46  C   UNL A   1      42.622  27.778  31.682  1.00  0.00     0.074 A 
ATOM     47  C   UNL A   1      41.375  27.571  29.547  1.00  0.00     0.049 A 
ATOM     48  N   UNL A   1      43.902  27.624  31.674  1.00  0.00    -0.248 NA
ATOM     49  C   UNL A   1      42.003  27.531  32.997  1.00  0.00     0.031 C 
ATOM     50  C   UNL A   1      40.337  27.895  28.562  1.00  0.00     0.029 A 
ATOM     51  N   UNL A   1      41.724  26.295  29.203  1.00  0.00    -0.354 N 
ATOM     52  C   UNL A   1      44.216  27.014  32.884  1.00  0.00     0.074 A 
ATOM     53  C   UNL A   1      43.064  27.187  33.730  1.00  0.00     0.031 C 
ATOM     54  C   UNL A   1      39.983  26.777  27.887  1.00  0.00     0.029 A 
ATOM     55  C   UNL A   1      40.881  25.702  28.265  1.00  0.00     0.049 A 
ATOM     56  H   UNL A   1      42.506  25.834  29.586  1.00  0.00     0.167 HD
ATOM     57  C   UNL A   1      45.249  26.129  32.952  1.00  0.00     0.031 A 
ATOM     58  C   UNL A   1      40.922  24.424  27.810  1.00  0.00     0.031 A 
ATOM     59  C   UNL A   1      46.049  26.188  31.753  1.00  0.00     0.049 A 
ATOM     60  C   UNL A   1      42.290  23.923  28.039  1.00  0.00     0.074 A 
ATOM     61  C   UNL A   1      46.940  27.065  31.175  1.00  0.00     0.029 A 
ATOM     62  N   UNL A   1      45.602  25.348  30.767  1.00  0.00    -0.354 N 
ATOM     63  N   UNL A   1      43.321  24.369  27.386  1.00  0.00    -0.248 NA
ATOM     64  C   UNL A   1      42.590  23.150  29.237  1.00  0.00     0.031 C 
ATOM     65  C   UNL A   1      46.849  26.844  29.768  1.00  0.00     0.029 A 
ATOM     66  C   UNL A   1      45.959  25.799  29.529  1.00  0.00     0.049 A 
ATOM     67  H   UNL A   1      45.087  24.524  30.931  1.00  0.00     0.167 HD
ATOM     68  C   UNL A   1      44.335  24.357  28.321  1.00  0.00     0.074 A 
ATOM     69  C   UNL A   1      43.893  23.423  29.350  1.00  0.00     0.031 C 
ATOM     70  C   UNL A   1      45.268  25.351  28.339  1.00  0.00     0.031 A 
BRANCH  57  71
ATOM     71  C   UNL A   1      45.210  24.848  33.768  1.00  0.00    -0.014 A 
ATOM     72  C   UNL A   1      44.485  23.756  33.249  1.00  0.00     0.009 A 
ATOM     73  C   UNL A   1      45.565  24.771  35.127  1.00  0.00     0.009 A 
ATOM     74  C   UNL A   1      44.071  22.695  34.064  1.00  0.00     0.001 A 
ATOM     75  C   UNL A   1      45.181  23.698  35.937  1.00  0.00     0.001 A 
ATOM     76  C   UNL A   1      44.411  22.672  35.412  1.00  0.00     0.000 A 
ENDBRANCH  57  71
BRANCH  58  77
ATOM     77  C   UNL A   1      39.876  23.533  27.270  1.00  0.00    -0.014 A 
ATOM     78  C   UNL A   1      38.680  24.062  26.749  1.00  0.00     0.009 A 
ATOM     79  C   UNL A   1      40.184  22.195  26.971  1.00  0.00     0.009 A 
ATOM     80  C   UNL A   1      37.858  23.302  25.908  1.00  0.00     0.001 A 
ATOM     81  C   UNL A   1      39.362  21.436  26.129  1.00  0.00     0.001 A 
ATOM     82  C   UNL A   1      38.211  21.995  25.580  1.00  0.00     0.000 A 
ENDBRANCH  58  77
BRANCH  70  83
ATOM     83  C   UNL A   1      45.457  26.141  27.075  1.00  0.00    -0.014 A 
ATOM     84  C   UNL A   1      44.727  27.298  26.755  1.00  0.00     0.009 A 
ATOM     85  C   UNL A   1      46.469  25.722  26.200  1.00  0.00     0.009 A 
ATOM     86  C   UNL A   1      44.987  27.996  25.571  1.00  0.00     0.001 A 
ATOM     87  C   UNL A   1      46.743  26.431  25.031  1.00  0.00     0.001 A 
ATOM     88  C   UNL A   1      45.997  27.563  24.713  1.00  0.00     0.000 A 
ENDBRANCH  70  83
ENDBRANCH  44  45
ENDBRANCH  36  39
ENDBRANCH  34  35
ENDBRANCH  33  34
ENDBRANCH  32  33
ENDBRANCH   1  32
TORSDOF 16
ENDMDL
MODEL 2
REMARK VINA RESULT:     -12.5      4.182      9.041
REMARK SMILES NS(=O)(=O)c1ccc(-n2nc(C(F)F)cc2-c2ccc(C(=O)NCCCCNC(=O)c3ccc(-c4c5nc(c(-c6ccccc6)c6ccc([nH]6)c(-c6ccccc6)c6nc(c(-c7ccccc7)c7ccc4[nH]7)C=C6)C=C5)cc3)cc2)cc1
REMARK SMILES IDX 24 1 23 2 21 3 22 4 20 6 17 7 18 8 80 9 19 10 79 11 16 12
REMARK SMILES IDX 9 13 10 14 11 15 15 16 8 17 5 18 6 19 82 20 7 21 81 22 2 23
REMARK SMILES IDX 3 24 4 25 1 26 12 29 13 30 14 31 25 32 26 33 27 34 28 35
REMARK SMILES IDX 29 36 30 38 31 39 32 40 78 41 33 42 77 43 34 44 35 45 36 46
REMARK SMILES IDX 71 47 37 48 76 49 70 50 72 51 38 52 75 53 69 54 68 55 39 57
REMARK SMILES IDX 61 58 46 59 60 60 47 61 50 62 59 63 73 64 48 65 49 66 58 68
REMARK SMILES IDX 74 69 51 70 40 71 41 72 45 73 42 74 44 75 43 76 62 77 63 78
REMARK SMILES IDX 67 79 64 80 66 81 65 82 52 83 53 84 57 85 54 86 56 87 55 88
REMARK H PARENT 23 5 1 27 1 28 28 37 72 56 50 67
REMARK Flexibility Score: inf
ROOT
ATOM      1  C   UNL A   1      39.737  24.572  26.658  1.00  0.00     0.116 C 
ENDROOT
BRANCH   1   2
ATOM      2  N   UNL A   1      39.598  23.186  26.253  1.00  0.00    -0.352 N 
ATOM      3  C   UNL A   1      38.562  22.486  25.688  1.00  0.00     0.251 C 
ATOM      4  O   UNL A   1      38.757  21.298  25.426  1.00  0.00    -0.269 OA
ATOM      5  H   UNL A   1      40.402  22.643  26.416  1.00  0.00     0.163 HD
BRANCH   3   6
ATOM      6  C   UNL A   1      37.253  23.102  25.333  1.00  0.00     0.039 A 
ATOM      7  C   UNL A   1      34.840  24.287  24.510  1.00  0.00     0.000 A 
ATOM      8  C   UNL A   1      35.665  23.657  23.573  1.00  0.00     0.011 A 
ATOM      9  C   UNL A   1      35.213  24.313  25.851  1.00  0.00     0.011 A 
ATOM     10  C   UNL A   1      36.870  23.078  23.983  1.00  0.00     0.014 A 
ATOM     11  C   UNL A   1      36.380  23.673  26.261  1.00  0.00     0.014 A 
BRANCH   7  12
ATOM     12  C   UNL A   1      33.535  24.811  24.138  1.00  0.00     0.075 A 
ATOM     13  N   UNL A   1      32.470  24.028  23.714  1.00  0.00    -0.233 N 
ATOM     14  N   UNL A   1      31.435  24.788  23.276  1.00  0.00    -0.166 NA
ATOM     15  C   UNL A   1      31.749  26.041  23.654  1.00  0.00     0.129 A 
ATOM     16  C   UNL A   1      33.074  26.108  24.143  1.00  0.00     0.060 A 
BRANCH  13  17
ATOM     17  C   UNL A   1      32.393  22.610  23.724  1.00  0.00     0.065 A 
ATOM     18  C   UNL A   1      32.485  19.828  23.736  1.00  0.00     0.082 A 
ATOM     19  C   UNL A   1      32.536  20.519  24.947  1.00  0.00     0.024 A 
ATOM     20  C   UNL A   1      32.348  20.516  22.524  1.00  0.00     0.024 A 
ATOM     21  C   UNL A   1      32.492  21.910  24.938  1.00  0.00     0.030 A 
ATOM     22  C   UNL A   1      32.274  21.914  22.518  1.00  0.00     0.030 A 
BRANCH  18  23
ATOM     23  S   UNL A   1      32.615  18.065  23.745  1.00  0.00     0.238 S 
ATOM     24  O   UNL A   1      31.767  17.528  24.780  1.00  0.00    -0.207 OA
ATOM     25  O   UNL A   1      34.009  17.710  23.606  1.00  0.00    -0.207 OA
BRANCH  23  26
ATOM     26  N   UNL A   1      31.877  17.622  22.299  1.00  0.00    -0.225 NA
ATOM     27  H   UNL A   1      32.577  17.578  21.558  1.00  0.00     0.137 HD
ATOM     28  H   UNL A   1      31.167  18.312  22.053  1.00  0.00     0.137 HD
ENDBRANCH  23  26
ENDBRANCH  18  23
ENDBRANCH  13  17
BRANCH  15  29
ATOM     29  C   UNL A   1      30.787  27.190  23.563  1.00  0.00     0.393 C 
ATOM     30  F   UNL A   1      30.111  27.215  22.384  1.00  0.00    -0.203 F 
ATOM     31  F   UNL A   1      29.853  27.140  24.553  1.00  0.00    -0.203 F 
ENDBRANCH  15  29
ENDBRANCH   7  12
ENDBRANCH   3   6
ENDBRANCH   1   2
BRANCH   1  32
ATOM     32  C   UNL A   1      40.883  24.743  27.661  1.00  0.00     0.023 C 
BRANCH  32  33
ATOM     33  C   UNL A   1      41.784  23.510  27.818  1.00  0.00     0.023 C 
BRANCH  33  34
ATOM     34  C   UNL A   1      42.368  23.324  29.214  1.00  0.00     0.116 C 
BRANCH  34  35
ATOM     35  N   UNL A   1      43.828  23.368  29.223  1.00  0.00    -0.352 N 
ATOM     36  C   UNL A   1      44.650  24.415  28.862  1.00  0.00     0.251 C 
ATOM     37  H   UNL A   1      44.282  22.548  29.525  1.00  0.00     0.163 HD
ATOM     38  O   UNL A   1      45.804  24.212  28.505  1.00  0.00    -0.269 OA
BRANCH  36  39
ATOM     39  C   UNL A   1      44.128  25.791  28.928  1.00  0.00     0.039 A 
ATOM     40  C   UNL A   1      43.961  26.554  27.770  1.00  0.00     0.014 A 
ATOM     41  C   UNL A   1      43.798  26.315  30.178  1.00  0.00     0.014 A 
ATOM     42  C   UNL A   1      43.373  27.813  27.875  1.00  0.00     0.010 A 
ATOM     43  C   UNL A   1      43.120  27.509  30.272  1.00  0.00     0.010 A 
ATOM     44  C   UNL A   1      42.927  28.274  29.127  1.00  0.00    -0.014 A 
BRANCH  44  45
ATOM     45  C   UNL A   1      42.071  29.457  29.213  1.00  0.00     0.031 A 
ATOM     46  C   UNL A   1      42.820  30.727  29.017  1.00  0.00     0.074 A 
ATOM     47  C   UNL A   1      40.720  29.427  29.253  1.00  0.00     0.049 A 
ATOM     48  N   UNL A   1      43.122  31.593  29.923  1.00  0.00    -0.248 NA
ATOM     49  C   UNL A   1      43.460  30.982  27.714  1.00  0.00     0.031 C 
ATOM     50  C   UNL A   1      39.854  28.246  29.158  1.00  0.00     0.029 A 
ATOM     51  N   UNL A   1      39.819  30.455  29.284  1.00  0.00    -0.354 N 
ATOM     52  C   UNL A   1      43.761  32.631  29.253  1.00  0.00     0.074 A 
ATOM     53  C   UNL A   1      44.134  32.107  27.965  1.00  0.00     0.031 C 
ATOM     54  C   UNL A   1      38.581  28.631  28.910  1.00  0.00     0.029 A 
ATOM     55  C   UNL A   1      38.508  30.077  29.000  1.00  0.00     0.049 A 
ATOM     56  H   UNL A   1      40.075  31.383  29.490  1.00  0.00     0.167 HD
ATOM     57  C   UNL A   1      43.610  33.914  29.686  1.00  0.00     0.031 A 
ATOM     58  C   UNL A   1      37.428  30.888  28.864  1.00  0.00     0.031 A 
ATOM     59  C   UNL A   1      43.002  33.942  30.994  1.00  0.00     0.049 A 
ATOM     60  C   UNL A   1      37.728  32.140  29.581  1.00  0.00     0.074 A 
ATOM     61  C   UNL A   1      43.368  33.631  32.284  1.00  0.00     0.029 A 
ATOM     62  N   UNL A   1      41.633  33.964  30.948  1.00  0.00    -0.354 N 
ATOM     63  N   UNL A   1      37.827  32.203  30.876  1.00  0.00    -0.248 NA
ATOM     64  C   UNL A   1      38.257  33.286  28.854  1.00  0.00     0.031 C 
ATOM     65  C   UNL A   1      42.161  33.268  32.956  1.00  0.00     0.029 A 
ATOM     66  C   UNL A   1      41.088  33.429  32.081  1.00  0.00     0.049 A 
ATOM     67  H   UNL A   1      41.108  34.320  30.195  1.00  0.00     0.167 HD
ATOM     68  C   UNL A   1      38.831  33.124  31.086  1.00  0.00     0.074 A 
ATOM     69  C   UNL A   1      38.909  33.893  29.850  1.00  0.00     0.031 C 
ATOM     70  C   UNL A   1      39.723  32.952  32.103  1.00  0.00     0.031 A 
BRANCH  57  71
ATOM     71  C   UNL A   1      43.449  35.104  28.756  1.00  0.00    -0.014 A 
ATOM     72  C   UNL A   1      44.155  36.285  29.064  1.00  0.00     0.009 A 
ATOM     73  C   UNL A   1      42.419  35.225  27.805  1.00  0.00     0.009 A 
ATOM     74  C   UNL A   1      43.794  37.522  28.516  1.00  0.00     0.001 A 
ATOM     75  C   UNL A   1      42.076  36.453  27.230  1.00  0.00     0.001 A 
ATOM     76  C   UNL A   1      42.746  37.607  27.606  1.00  0.00     0.000 A 
ENDBRANCH  57  71
BRANCH  58  77
ATOM     77  C   UNL A   1      36.172  30.743  28.098  1.00  0.00    -0.014 A 
ATOM     78  C   UNL A   1      35.736  29.476  27.668  1.00  0.00     0.009 A 
ATOM     79  C   UNL A   1      35.247  31.799  28.070  1.00  0.00     0.009 A 
ATOM     80  C   UNL A   1      34.406  29.260  27.287  1.00  0.00     0.001 A 
ATOM     81  C   UNL A   1      33.916  31.582  27.689  1.00  0.00     0.001 A 
ATOM     82  C   UNL A   1      33.491  30.309  27.318  1.00  0.00     0.000 A 
ENDBRANCH  58  77
BRANCH  70  83
ATOM     83  C   UNL A   1      39.307  32.060  33.239  1.00  0.00    -0.014 A 
ATOM     84  C   UNL A   1      39.642  30.699  33.333  1.00  0.00     0.009 A 
ATOM     85  C   UNL A   1      38.595  32.650  34.293  1.00  0.00     0.009 A 
ATOM     86  C   UNL A   1      39.243  29.945  34.441  1.00  0.00     0.001 A 
ATOM     87  C   UNL A   1      38.218  31.903  35.408  1.00  0.00     0.001 A 
ATOM     88  C   UNL A   1      38.535  30.550  35.479  1.00  0.00     0.000 A 
ENDBRANCH  70  83
ENDBRANCH  44  45
ENDBRANCH  36  39
ENDBRANCH  34  35
ENDBRANCH  33  34
ENDBRANCH  32  33
ENDBRANCH   1  32
TORSDOF 16
ENDMDL
MODEL 3
REMARK VINA RESULT:     -12.4      4.565      7.114
REMARK SMILES NS(=O)(=O)c1ccc(-n2nc(C(F)F)cc2-c2ccc(C(=O)NCCCCNC(=O)c3ccc(-c4c5nc(c(-c6ccccc6)c6ccc([nH]6)c(-c6ccccc6)c6nc(c(-c7ccccc7)c7ccc4[nH]7)C=C6)C=C5)cc3)cc2)cc1
REMARK SMILES IDX 24 1 23 2 21 3 22 4 20 6 17 7 18 8 80 9 19 10 79 11 16 12
REMARK SMILES IDX 9 13 10 14 11 15 15 16 8 17 5 18 6 19 82 20 7 21 81 22 2 23
REMARK SMILES IDX 3 24 4 25 1 26 12 29 13 30 14 31 25 32 26 33 27 34 28 35
REMARK SMILES IDX 29 36 30 38 31 39 32 40 78 41 33 42 77 43 34 44 35 45 36 46
REMARK SMILES IDX 71 47 37 48 76 49 70 50 72 51 38 52 75 53 69 54 68 55 39 57
REMARK SMILES IDX 61 58 46 59 60 60 47 61 50 62 59 63 73 64 48 65 49 66 58 68
REMARK SMILES IDX 74 69 51 70 40 71 41 72 45 73 42 74 44 75 43 76 62 77 63 78
REMARK SMILES IDX 67 79 64 80 66 81 65 82 52 83 53 84 57 85 54 86 56 87 55 88
REMARK H PARENT 23 5 1 27 1 28 28 37 72 56 50 67
REMARK Flexibility Score: inf
ROOT
ATOM      1  C   UNL A   1      34.833  33.018  27.822  1.00  0.00     0.116 C 
ENDROOT
BRANCH   1   2
ATOM      2  N   UNL A   1      35.378  31.708  28.124  1.00  0.00    -0.352 N 
ATOM      3  C   UNL A   1      35.009  30.442  27.745  1.00  0.00     0.251 C 
ATOM      4  O   UNL A   1      35.699  29.506  28.151  1.00  0.00    -0.269 OA
ATOM      5  H   UNL A   1      36.163  31.732  28.716  1.00  0.00     0.163 HD
BRANCH   3   6
ATOM      6  C   UNL A   1      33.861  30.159  26.838  1.00  0.00     0.039 A 
ATOM      7  C   UNL A   1      31.807  29.595  25.003  1.00  0.00     0.000 A 
ATOM      8  C   UNL A   1      33.079  29.041  24.821  1.00  0.00     0.011 A 
ATOM      9  C   UNL A   1      31.562  30.415  26.102  1.00  0.00     0.011 A 
ATOM     10  C   UNL A   1      34.101  29.332  25.729  1.00  0.00     0.014 A 
ATOM     11  C   UNL A   1      32.567  30.642  27.038  1.00  0.00     0.014 A 
BRANCH   7  12
ATOM     12  C   UNL A   1      30.695  29.236  24.138  1.00  0.00     0.075 A 
ATOM     13  N   UNL A   1      30.312  27.931  23.856  1.00  0.00    -0.233 N 
ATOM     14  N   UNL A   1      29.356  27.887  22.896  1.00  0.00    -0.166 NA
ATOM     15  C   UNL A   1      28.960  29.166  22.751  1.00  0.00     0.129 A 
ATOM     16  C   UNL A   1      29.808  30.045  23.464  1.00  0.00     0.060 A 
BRANCH  13  17
ATOM     17  C   UNL A   1      30.802  26.745  24.466  1.00  0.00     0.065 A 
ATOM     18  C   UNL A   1      31.555  24.316  25.597  1.00  0.00     0.082 A 
ATOM     19  C   UNL A   1      31.832  24.558  24.252  1.00  0.00     0.024 A 
ATOM     20  C   UNL A   1      30.941  25.294  26.390  1.00  0.00     0.024 A 
ATOM     21  C   UNL A   1      31.452  25.773  23.688  1.00  0.00     0.030 A 
ATOM     22  C   UNL A   1      30.587  26.528  25.830  1.00  0.00     0.030 A 
BRANCH  18  23
ATOM     23  S   UNL A   1      31.971  22.746  26.292  1.00  0.00     0.238 S 
ATOM     24  O   UNL A   1      32.151  22.885  27.716  1.00  0.00    -0.207 OA
ATOM     25  O   UNL A   1      32.946  22.111  25.434  1.00  0.00    -0.207 OA
BRANCH  23  26
ATOM     26  N   UNL A   1      30.550  21.861  26.114  1.00  0.00    -0.225 NA
ATOM     27  H   UNL A   1      30.742  21.014  25.579  1.00  0.00     0.137 HD
ATOM     28  H   UNL A   1      29.859  22.425  25.620  1.00  0.00     0.137 HD
ENDBRANCH  23  26
ENDBRANCH  18  23
ENDBRANCH  13  17
BRANCH  15  29
ATOM     29  C   UNL A   1      27.763  29.567  21.939  1.00  0.00     0.393 C 
ATOM     30  F   UNL A   1      26.907  30.368  22.627  1.00  0.00    -0.203 F 
ATOM     31  F   UNL A   1      28.125  30.248  20.817  1.00  0.00    -0.203 F 
ENDBRANCH  15  29
ENDBRANCH   7  12
ENDBRANCH   3   6
ENDBRANCH   1   2
BRANCH   1  32
ATOM     32  C   UNL A   1      34.591  33.826  29.102  1.00  0.00     0.023 C 
BRANCH  32  33
ATOM     33  C   UNL A   1      33.295  34.647  29.103  1.00  0.00     0.023 C 
BRANCH  33  34
ATOM     34  C   UNL A   1      33.385  35.974  29.848  1.00  0.00     0.116 C 
BRANCH  34  35
ATOM     35  N   UNL A   1      32.595  35.984  31.076  1.00  0.00    -0.352 N 
ATOM     36  C   UNL A   1      32.742  35.183  32.190  1.00  0.00     0.251 C 
ATOM     37  H   UNL A   1      31.866  36.645  31.115  1.00  0.00     0.163 HD
ATOM     38  O   UNL A   1      31.801  34.983  32.947  1.00  0.00    -0.269 OA
BRANCH  36  39
ATOM     39  C   UNL A   1      34.058  34.582  32.470  1.00  0.00     0.039 A 
ATOM     40  C   UNL A   1      34.206  33.200  32.593  1.00  0.00     0.014 A 
ATOM     41  C   UNL A   1      35.158  35.430  32.605  1.00  0.00     0.014 A 
ATOM     42  C   UNL A   1      35.485  32.674  32.762  1.00  0.00     0.010 A 
ATOM     43  C   UNL A   1      36.430  34.909  32.661  1.00  0.00     0.010 A 
ATOM     44  C   UNL A   1      36.599  33.533  32.766  1.00  0.00    -0.014 A 
BRANCH  44  45
ATOM     45  C   UNL A   1      37.952  32.984  32.666  1.00  0.00     0.031 A 
ATOM     46  C   UNL A   1      38.695  33.043  33.951  1.00  0.00     0.074 A 
ATOM     47  C   UNL A   1      38.427  32.302  31.599  1.00  0.00     0.049 A 
ATOM     48  N   UNL A   1      39.665  33.840  34.247  1.00  0.00    -0.248 NA
ATOM     49  C   UNL A   1      38.199  32.260  35.098  1.00  0.00     0.031 C 
ATOM     50  C   UNL A   1      37.693  31.926  30.385  1.00  0.00     0.029 A 
ATOM     51  N   UNL A   1      39.642  31.705  31.409  1.00  0.00    -0.354 N 
ATOM     52  C   UNL A   1      40.074  33.477  35.526  1.00  0.00     0.074 A 
ATOM     53  C   UNL A   1      39.012  32.673  36.073  1.00  0.00     0.031 C 
ATOM     54  C   UNL A   1      38.388  30.987  29.703  1.00  0.00     0.029 A 
ATOM     55  C   UNL A   1      39.686  30.822  30.332  1.00  0.00     0.049 A 
ATOM     56  H   UNL A   1      40.420  31.884  31.984  1.00  0.00     0.167 HD
ATOM     57  C   UNL A   1      41.387  33.579  35.875  1.00  0.00     0.031 A 
ATOM     58  C   UNL A   1      40.717  30.020  29.964  1.00  0.00     0.031 A 
ATOM     59  C   UNL A   1      42.116  34.344  34.893  1.00  0.00     0.049 A 
ATOM     60  C   UNL A   1      41.947  30.605  30.528  1.00  0.00     0.074 A 
ATOM     61  C   UNL A   1      42.198  35.659  34.494  1.00  0.00     0.029 A 
ATOM     62  N   UNL A   1      42.611  33.573  33.873  1.00  0.00    -0.354 N 
ATOM     63  N   UNL A   1      42.447  31.730  30.109  1.00  0.00    -0.248 NA
ATOM     64  C   UNL A   1      42.467  30.121  31.799  1.00  0.00     0.031 C 
ATOM     65  C   UNL A   1      42.572  35.627  33.116  1.00  0.00     0.029 A 
ATOM     66  C   UNL A   1      42.771  34.303  32.730  1.00  0.00     0.049 A 
ATOM     67  H   UNL A   1      42.824  32.615  33.954  1.00  0.00     0.167 HD
ATOM     68  C   UNL A   1      42.952  32.313  31.253  1.00  0.00     0.074 A 
ATOM     69  C   UNL A   1      43.122  31.215  32.197  1.00  0.00     0.031 C 
ATOM     70  C   UNL A   1      42.862  33.661  31.437  1.00  0.00     0.031 A 
BRANCH  57  71
ATOM     71  C   UNL A   1      42.116  32.552  36.723  1.00  0.00    -0.014 A 
ATOM     72  C   UNL A   1      42.920  33.019  37.782  1.00  0.00     0.009 A 
ATOM     73  C   UNL A   1      42.306  31.211  36.342  1.00  0.00     0.009 A 
ATOM     74  C   UNL A   1      43.909  32.217  38.365  1.00  0.00     0.001 A 
ATOM     75  C   UNL A   1      43.271  30.396  36.942  1.00  0.00     0.001 A 
ATOM     76  C   UNL A   1      44.092  30.907  37.935  1.00  0.00     0.000 A 
ENDBRANCH  57  71
BRANCH  58  77
ATOM     77  C   UNL A   1      40.760  28.733  29.240  1.00  0.00    -0.014 A 
ATOM     78  C   UNL A   1      40.036  27.621  29.710  1.00  0.00     0.009 A 
ATOM     79  C   UNL A   1      41.248  28.689  27.924  1.00  0.00     0.009 A 
ATOM     80  C   UNL A   1      39.756  26.534  28.872  1.00  0.00     0.001 A 
ATOM     81  C   UNL A   1      40.966  27.602  27.086  1.00  0.00     0.001 A 
ATOM     82  C   UNL A   1      40.203  26.534  27.553  1.00  0.00     0.000 A 
ENDBRANCH  58  77
BRANCH  70  83
ATOM     83  C   UNL A   1      42.671  34.511  30.213  1.00  0.00    -0.014 A 
ATOM     84  C   UNL A   1      41.419  34.814  29.654  1.00  0.00     0.009 A 
ATOM     85  C   UNL A   1      43.817  35.082  29.641  1.00  0.00     0.009 A 
ATOM     86  C   UNL A   1      41.325  35.642  28.530  1.00  0.00     0.001 A 
ATOM     87  C   UNL A   1      43.720  35.926  28.536  1.00  0.00     0.001 A 
ATOM     88  C   UNL A   1      42.476  36.200  27.975  1.00  0.00     0.000 A 
ENDBRANCH  70  83
ENDBRANCH  44  45
ENDBRANCH  36  39
ENDBRANCH  34  35
ENDBRANCH  33  34
ENDBRANCH  32  33
ENDBRANCH   1  32
TORSDOF 16
ENDMDL
