MODEL 1
REMARK VINA RESULT:     -11.3      0.000      0.000
REMARK SMILES O=Cc1cn(-c2ccc(Cl)cc2)nc1C(=O)NCCCCNC(=O)c1ccc(-c2c3nc(c(-c4ccccc4)c4ccc([nH]4)c(-c4ccccc4)c4nc(c(-c5ccccc5)c5ccc2[nH]5)C=C4)C=C3)cc1
REMARK SMILES IDX 20 1 19 2 18 3 17 4 15 5 16 6 14 8 3 9 4 10 5 11 13 12 2 13
REMARK SMILES IDX 1 14 6 15 7 16 12 17 8 18 11 19 9 20 10 21 21 22 22 23 23 24
REMARK SMILES IDX 24 26 25 27 26 28 72 29 27 30 71 31 28 32 29 33 30 34 65 35
REMARK SMILES IDX 31 36 70 37 64 38 66 39 32 40 69 41 63 42 62 43 33 45 55 46
REMARK SMILES IDX 40 47 54 48 41 49 44 50 53 51 67 52 42 53 43 54 52 56 68 57
REMARK SMILES IDX 45 58 34 59 35 60 39 61 36 62 38 63 37 64 56 65 57 66 61 67
REMARK SMILES IDX 58 68 60 69 59 70 46 71 47 72 51 73 48 74 50 75 49 76
REMARK H PARENT 17 7 22 25 66 44 44 55
REMARK Flexibility Score: inf
ROOT
ATOM      1  C   UNL A   1      33.823  29.055  27.030  1.00  0.00     0.023 C 
ENDROOT
BRANCH   1   2
ATOM      2  C   UNL A   1      33.456  27.659  26.525  1.00  0.00     0.023 C 
BRANCH   2   3
ATOM      3  C   UNL A   1      32.034  27.398  26.033  1.00  0.00     0.116 C 
BRANCH   3   4
ATOM      4  N   UNL A   1      31.331  26.286  26.637  1.00  0.00    -0.351 N 
ATOM      5  C   UNL A   1      31.503  24.919  26.505  1.00  0.00     0.272 C 
ATOM      6  O   UNL A   1      30.729  24.218  27.164  1.00  0.00    -0.267 OA
ATOM      7  H   UNL A   1      30.605  26.549  27.247  1.00  0.00     0.163 HD
BRANCH   5   8
ATOM      8  C   UNL A   1      32.548  24.314  25.636  1.00  0.00     0.161 A 
ATOM      9  C   UNL A   1      32.637  24.193  24.214  1.00  0.00     0.066 A 
ATOM     10  C   UNL A   1      33.839  23.571  23.979  1.00  0.00     0.127 A 
ATOM     11  N   UNL A   1      34.474  23.458  25.183  1.00  0.00    -0.239 N 
ATOM     12  N   UNL A   1      33.656  23.778  26.208  1.00  0.00    -0.162 NA
BRANCH   9  13
ATOM     13  C   UNL A   1      31.759  24.597  23.145  1.00  0.00     0.264 C 
ATOM     14  O   UNL A   1      31.287  25.726  23.064  1.00  0.00    -0.298 OA
ENDBRANCH   9  13
BRANCH  11  15
ATOM     15  C   UNL A   1      35.828  23.080  25.355  1.00  0.00     0.065 A 
ATOM     16  C   UNL A   1      36.211  21.762  25.052  1.00  0.00     0.030 A 
ATOM     17  C   UNL A   1      36.767  23.989  25.848  1.00  0.00     0.030 A 
ATOM     18  C   UNL A   1      37.525  21.347  25.268  1.00  0.00     0.023 A 
ATOM     19  C   UNL A   1      38.073  23.552  26.108  1.00  0.00     0.023 A 
ATOM     20  C   UNL A   1      38.444  22.236  25.818  1.00  0.00     0.041 A 
ATOM     21  Cl  UNL A   1      40.044  21.699  26.148  1.00  0.00    -0.084 Cl
ENDBRANCH  11  15
ENDBRANCH   5   8
ENDBRANCH   3   4
ENDBRANCH   2   3
ENDBRANCH   1   2
BRANCH   1  22
ATOM     22  C   UNL A   1      35.252  29.230  27.516  1.00  0.00     0.116 C 
BRANCH  22  23
ATOM     23  N   UNL A   1      35.385  29.765  28.874  1.00  0.00    -0.352 N 
ATOM     24  C   UNL A   1      36.407  29.509  29.787  1.00  0.00     0.251 C 
ATOM     25  H   UNL A   1      34.672  30.374  29.175  1.00  0.00     0.163 HD
ATOM     26  O   UNL A   1      36.264  29.703  30.979  1.00  0.00    -0.269 OA
BRANCH  24  27
ATOM     27  C   UNL A   1      37.691  29.006  29.257  1.00  0.00     0.039 A 
ATOM     28  C   UNL A   1      38.310  29.540  28.124  1.00  0.00     0.014 A 
ATOM     29  C   UNL A   1      38.302  27.999  29.991  1.00  0.00     0.014 A 
ATOM     30  C   UNL A   1      39.595  29.100  27.797  1.00  0.00     0.010 A 
ATOM     31  C   UNL A   1      39.632  27.753  29.814  1.00  0.00     0.010 A 
ATOM     32  C   UNL A   1      40.254  28.218  28.666  1.00  0.00    -0.014 A 
BRANCH  32  33
ATOM     33  C   UNL A   1      41.636  27.807  28.467  1.00  0.00     0.031 A 
ATOM     34  C   UNL A   1      41.801  26.517  27.754  1.00  0.00     0.074 A 
ATOM     35  C   UNL A   1      42.678  28.646  28.668  1.00  0.00     0.049 A 
ATOM     36  N   UNL A   1      42.238  25.405  28.239  1.00  0.00    -0.248 NA
ATOM     37  C   UNL A   1      41.296  26.410  26.374  1.00  0.00     0.031 C 
ATOM     38  C   UNL A   1      42.658  30.069  29.037  1.00  0.00     0.029 A 
ATOM     39  N   UNL A   1      44.000  28.423  28.451  1.00  0.00    -0.354 N 
ATOM     40  C   UNL A   1      42.266  24.509  27.177  1.00  0.00     0.074 A 
ATOM     41  C   UNL A   1      41.499  25.116  26.119  1.00  0.00     0.031 C 
ATOM     42  C   UNL A   1      43.863  30.626  28.773  1.00  0.00     0.029 A 
ATOM     43  C   UNL A   1      44.783  29.571  28.396  1.00  0.00     0.049 A 
ATOM     44  H   UNL A   1      44.375  27.520  28.341  1.00  0.00     0.167 HD
ATOM     45  C   UNL A   1      43.144  23.466  27.160  1.00  0.00     0.031 A 
ATOM     46  C   UNL A   1      46.090  29.641  28.038  1.00  0.00     0.031 A 
ATOM     47  C   UNL A   1      43.741  23.257  28.457  1.00  0.00     0.049 A 
ATOM     48  C   UNL A   1      46.648  28.276  28.170  1.00  0.00     0.074 A 
ATOM     49  C   UNL A   1      43.254  22.997  29.722  1.00  0.00     0.029 A 
ATOM     50  N   UNL A   1      45.019  23.735  28.640  1.00  0.00    -0.354 N 
ATOM     51  N   UNL A   1      46.797  27.672  29.314  1.00  0.00    -0.248 NA
ATOM     52  C   UNL A   1      46.602  27.408  27.005  1.00  0.00     0.031 C 
ATOM     53  C   UNL A   1      44.052  23.800  30.592  1.00  0.00     0.029 A 
ATOM     54  C   UNL A   1      45.030  24.431  29.821  1.00  0.00     0.049 A 
ATOM     55  H   UNL A   1      45.783  23.602  28.035  1.00  0.00     0.167 HD
ATOM     56  C   UNL A   1      46.405  26.365  29.072  1.00  0.00     0.074 A 
ATOM     57  C   UNL A   1      46.392  26.236  27.613  1.00  0.00     0.031 C 
ATOM     58  C   UNL A   1      45.844  25.602  30.057  1.00  0.00     0.031 A 
BRANCH  45  59
ATOM     59  C   UNL A   1      43.783  22.929  25.901  1.00  0.00    -0.014 A 
ATOM     60  C   UNL A   1      43.852  21.535  25.726  1.00  0.00     0.009 A 
ATOM     61  C   UNL A   1      44.566  23.712  25.031  1.00  0.00     0.009 A 
ATOM     62  C   UNL A   1      44.725  20.958  24.796  1.00  0.00     0.001 A 
ATOM     63  C   UNL A   1      45.407  23.142  24.072  1.00  0.00     0.001 A 
ATOM     64  C   UNL A   1      45.510  21.762  23.977  1.00  0.00     0.000 A 
ENDBRANCH  45  59
BRANCH  46  65
ATOM     65  C   UNL A   1      46.834  30.720  27.352  1.00  0.00    -0.014 A 
ATOM     66  C   UNL A   1      46.149  31.823  26.815  1.00  0.00     0.009 A 
ATOM     67  C   UNL A   1      48.230  30.820  27.490  1.00  0.00     0.009 A 
ATOM     68  C   UNL A   1      46.828  33.004  26.487  1.00  0.00     0.001 A 
ATOM     69  C   UNL A   1      48.908  31.999  27.158  1.00  0.00     0.001 A 
ATOM     70  C   UNL A   1      48.205  33.098  26.676  1.00  0.00     0.000 A 
ENDBRANCH  46  65
BRANCH  58  71
ATOM     71  C   UNL A   1      45.861  26.142  31.469  1.00  0.00    -0.014 A 
ATOM     72  C   UNL A   1      44.852  26.970  31.996  1.00  0.00     0.009 A 
ATOM     73  C   UNL A   1      46.857  25.678  32.341  1.00  0.00     0.009 A 
ATOM     74  C   UNL A   1      44.864  27.348  33.344  1.00  0.00     0.001 A 
ATOM     75  C   UNL A   1      46.857  26.039  33.691  1.00  0.00     0.001 A 
ATOM     76  C   UNL A   1      45.865  26.879  34.190  1.00  0.00     0.000 A 
ENDBRANCH  58  71
ENDBRANCH  32  33
ENDBRANCH  24  27
ENDBRANCH  22  23
ENDBRANCH   1  22
TORSDOF 13
ENDMDL
MODEL 2
REMARK VINA RESULT:     -11.2      3.919      5.674
REMARK SMILES O=Cc1cn(-c2ccc(Cl)cc2)nc1C(=O)NCCCCNC(=O)c1ccc(-c2c3nc(c(-c4ccccc4)c4ccc([nH]4)c(-c4ccccc4)c4nc(c(-c5ccccc5)c5ccc2[nH]5)C=C4)C=C3)cc1
REMARK SMILES IDX 20 1 19 2 18 3 17 4 15 5 16 6 14 8 3 9 4 10 5 11 13 12 2 13
REMARK SMILES IDX 1 14 6 15 7 16 12 17 8 18 11 19 9 20 10 21 21 22 22 23 23 24
REMARK SMILES IDX 24 26 25 27 26 28 72 29 27 30 71 31 28 32 29 33 30 34 65 35
REMARK SMILES IDX 31 36 70 37 64 38 66 39 32 40 69 41 63 42 62 43 33 45 55 46
REMARK SMILES IDX 40 47 54 48 41 49 44 50 53 51 67 52 42 53 43 54 52 56 68 57
REMARK SMILES IDX 45 58 34 59 35 60 39 61 36 62 38 63 37 64 56 65 57 66 61 67
REMARK SMILES IDX 58 68 60 69 59 70 46 71 47 72 51 73 48 74 50 75 49 76
REMARK H PARENT 17 7 22 25 66 44 44 55
REMARK Flexibility Score: inf
ROOT
ATOM      1  C   UNL A   1      31.362  31.559  26.678  1.00  0.00     0.023 C 
ENDROOT
BRANCH   1   2
ATOM      2  C   UNL A   1      31.617  30.420  25.689  1.00  0.00     0.023 C 
BRANCH   2   3
ATOM      3  C   UNL A   1      32.955  29.685  25.733  1.00  0.00     0.116 C 
BRANCH   3   4
ATOM      4  N   UNL A   1      33.668  29.559  24.480  1.00  0.00    -0.351 N 
ATOM      5  C   UNL A   1      33.716  28.527  23.558  1.00  0.00     0.272 C 
ATOM      6  O   UNL A   1      34.430  28.727  22.570  1.00  0.00    -0.267 OA
ATOM      7  H   UNL A   1      34.213  30.343  24.242  1.00  0.00     0.163 HD
BRANCH   5   8
ATOM      8  C   UNL A   1      32.961  27.257  23.725  1.00  0.00     0.161 A 
ATOM      9  C   UNL A   1      31.577  26.951  23.541  1.00  0.00     0.066 A 
ATOM     10  C   UNL A   1      31.464  25.609  23.813  1.00  0.00     0.127 A 
ATOM     11  N   UNL A   1      32.728  25.132  24.012  1.00  0.00    -0.239 N 
ATOM     12  N   UNL A   1      33.629  26.134  24.095  1.00  0.00    -0.162 NA
BRANCH   9  13
ATOM     13  C   UNL A   1      30.447  27.752  23.146  1.00  0.00     0.264 C 
ATOM     14  O   UNL A   1      30.195  28.015  21.976  1.00  0.00    -0.298 OA
ENDBRANCH   9  13
BRANCH  11  15
ATOM     15  C   UNL A   1      33.077  23.762  24.097  1.00  0.00     0.065 A 
ATOM     16  C   UNL A   1      32.059  22.795  24.029  1.00  0.00     0.030 A 
ATOM     17  C   UNL A   1      34.406  23.372  24.275  1.00  0.00     0.030 A 
ATOM     18  C   UNL A   1      32.368  21.442  24.168  1.00  0.00     0.023 A 
ATOM     19  C   UNL A   1      34.703  22.016  24.463  1.00  0.00     0.023 A 
ATOM     20  C   UNL A   1      33.684  21.060  24.409  1.00  0.00     0.041 A 
ATOM     21  Cl  UNL A   1      34.050  19.397  24.650  1.00  0.00    -0.084 Cl
ENDBRANCH  11  15
ENDBRANCH   5   8
ENDBRANCH   3   4
ENDBRANCH   2   3
ENDBRANCH   1   2
BRANCH   1  22
ATOM     22  C   UNL A   1      32.588  32.343  27.115  1.00  0.00     0.116 C 
BRANCH  22  23
ATOM     23  N   UNL A   1      32.337  33.746  27.459  1.00  0.00    -0.352 N 
ATOM     24  C   UNL A   1      32.955  34.494  28.461  1.00  0.00     0.251 C 
ATOM     25  H   UNL A   1      31.656  34.212  26.924  1.00  0.00     0.163 HD
ATOM     26  O   UNL A   1      32.454  35.510  28.902  1.00  0.00    -0.269 OA
BRANCH  24  27
ATOM     27  C   UNL A   1      34.259  34.019  28.966  1.00  0.00     0.039 A 
ATOM     28  C   UNL A   1      34.394  33.246  30.123  1.00  0.00     0.014 A 
ATOM     29  C   UNL A   1      35.366  34.326  28.186  1.00  0.00     0.014 A 
ATOM     30  C   UNL A   1      35.650  32.716  30.428  1.00  0.00     0.010 A 
ATOM     31  C   UNL A   1      36.519  33.619  28.351  1.00  0.00     0.010 A 
ATOM     32  C   UNL A   1      36.704  32.895  29.519  1.00  0.00    -0.014 A 
BRANCH  32  33
ATOM     33  C   UNL A   1      38.008  32.274  29.698  1.00  0.00     0.031 A 
ATOM     34  C   UNL A   1      38.072  30.847  29.299  1.00  0.00     0.074 A 
ATOM     35  C   UNL A   1      39.126  32.994  29.947  1.00  0.00     0.049 A 
ATOM     36  N   UNL A   1      38.219  29.825  30.072  1.00  0.00    -0.248 NA
ATOM     37  C   UNL A   1      37.810  30.500  27.892  1.00  0.00     0.031 C 
ATOM     38  C   UNL A   1      39.285  34.454  30.020  1.00  0.00     0.029 A 
ATOM     39  N   UNL A   1      40.407  32.558  30.060  1.00  0.00    -0.354 N 
ATOM     40  C   UNL A   1      38.281  28.717  29.234  1.00  0.00     0.074 A 
ATOM     41  C   UNL A   1      37.829  29.167  27.941  1.00  0.00     0.031 C 
ATOM     42  C   UNL A   1      40.595  34.776  29.912  1.00  0.00     0.029 A 
ATOM     43  C   UNL A   1      41.373  33.553  29.948  1.00  0.00     0.049 A 
ATOM     44  H   UNL A   1      40.635  31.612  30.208  1.00  0.00     0.167 HD
ATOM     45  C   UNL A   1      38.955  27.592  29.603  1.00  0.00     0.031 A 
ATOM     46  C   UNL A   1      42.714  33.370  29.866  1.00  0.00     0.031 A 
ATOM     47  C   UNL A   1      39.268  27.604  31.013  1.00  0.00     0.049 A 
ATOM     48  C   UNL A   1      42.998  32.008  30.374  1.00  0.00     0.074 A 
ATOM     49  C   UNL A   1      38.527  27.699  32.173  1.00  0.00     0.029 A 
ATOM     50  N   UNL A   1      40.556  27.940  31.363  1.00  0.00    -0.354 N 
ATOM     51  N   UNL A   1      42.835  31.662  31.619  1.00  0.00    -0.248 NA
ATOM     52  C   UNL A   1      43.010  30.915  29.416  1.00  0.00     0.031 C 
ATOM     53  C   UNL A   1      39.283  28.566  33.018  1.00  0.00     0.029 A 
ATOM     54  C   UNL A   1      40.476  28.875  32.363  1.00  0.00     0.049 A 
ATOM     55  H   UNL A   1      41.381  27.576  30.970  1.00  0.00     0.167 HD
ATOM     56  C   UNL A   1      42.274  30.396  31.559  1.00  0.00     0.074 A 
ATOM     57  C   UNL A   1      42.498  29.947  30.183  1.00  0.00     0.031 C 
ATOM     58  C   UNL A   1      41.425  29.953  32.533  1.00  0.00     0.031 A 
BRANCH  45  59
ATOM     59  C   UNL A   1      39.706  26.709  28.635  1.00  0.00    -0.014 A 
ATOM     60  C   UNL A   1      40.667  27.301  27.795  1.00  0.00     0.009 A 
ATOM     61  C   UNL A   1      39.315  25.395  28.316  1.00  0.00     0.009 A 
ATOM     62  C   UNL A   1      41.136  26.648  26.649  1.00  0.00     0.001 A 
ATOM     63  C   UNL A   1      39.813  24.722  27.197  1.00  0.00     0.001 A 
ATOM     64  C   UNL A   1      40.700  25.362  26.345  1.00  0.00     0.000 A 
ENDBRANCH  45  59
BRANCH  46  65
ATOM     65  C   UNL A   1      43.742  34.161  29.155  1.00  0.00    -0.014 A 
ATOM     66  C   UNL A   1      45.029  34.304  29.700  1.00  0.00     0.009 A 
ATOM     67  C   UNL A   1      43.560  34.519  27.808  1.00  0.00     0.009 A 
ATOM     68  C   UNL A   1      46.106  34.730  28.910  1.00  0.00     0.001 A 
ATOM     69  C   UNL A   1      44.634  34.948  27.020  1.00  0.00     0.001 A 
ATOM     70  C   UNL A   1      45.910  35.034  27.565  1.00  0.00     0.000 A 
ENDBRANCH  46  65
BRANCH  58  71
ATOM     71  C   UNL A   1      41.283  30.789  33.785  1.00  0.00    -0.014 A 
ATOM     72  C   UNL A   1      40.406  31.884  33.892  1.00  0.00     0.009 A 
ATOM     73  C   UNL A   1      41.953  30.364  34.941  1.00  0.00     0.009 A 
ATOM     74  C   UNL A   1      40.234  32.551  35.111  1.00  0.00     0.001 A 
ATOM     75  C   UNL A   1      41.767  31.016  36.162  1.00  0.00     0.001 A 
ATOM     76  C   UNL A   1      40.913  32.114  36.246  1.00  0.00     0.000 A 
ENDBRANCH  58  71
ENDBRANCH  32  33
ENDBRANCH  24  27
ENDBRANCH  22  23
ENDBRANCH   1  22
TORSDOF 13
ENDMDL
MODEL 3
REMARK VINA RESULT:     -11.1      3.103      7.514
REMARK SMILES O=Cc1cn(-c2ccc(Cl)cc2)nc1C(=O)NCCCCNC(=O)c1ccc(-c2c3nc(c(-c4ccccc4)c4ccc([nH]4)c(-c4ccccc4)c4nc(c(-c5ccccc5)c5ccc2[nH]5)C=C4)C=C3)cc1
REMARK SMILES IDX 20 1 19 2 18 3 17 4 15 5 16 6 14 8 3 9 4 10 5 11 13 12 2 13
REMARK SMILES IDX 1 14 6 15 7 16 12 17 8 18 11 19 9 20 10 21 21 22 22 23 23 24
REMARK SMILES IDX 24 26 25 27 26 28 72 29 27 30 71 31 28 32 29 33 30 34 65 35
REMARK SMILES IDX 31 36 70 37 64 38 66 39 32 40 69 41 63 42 62 43 33 45 55 46
REMARK SMILES IDX 40 47 54 48 41 49 44 50 53 51 67 52 42 53 43 54 52 56 68 57
REMARK SMILES IDX 45 58 34 59 35 60 39 61 36 62 38 63 37 64 56 65 57 66 61 67
REMARK SMILES IDX 58 68 60 69 59 70 46 71 47 72 51 73 48 74 50 75 49 76
REMARK H PARENT 17 7 22 25 66 44 44 55
REMARK Flexibility Score: inf
ROOT
ATOM      1  C   UNL A   1      37.833  19.695  25.047  1.00  0.00     0.023 C 
ENDROOT
BRANCH   1   2
ATOM      2  C   UNL A   1      36.843  20.791  24.650  1.00  0.00     0.023 C 
BRANCH   2   3
ATOM      3  C   UNL A   1      36.536  21.908  25.644  1.00  0.00     0.116 C 
BRANCH   3   4
ATOM      4  N   UNL A   1      35.541  21.622  26.656  1.00  0.00    -0.351 N 
ATOM      5  C   UNL A   1      34.159  21.698  26.623  1.00  0.00     0.272 C 
ATOM      6  O   UNL A   1      33.583  21.381  27.668  1.00  0.00    -0.267 OA
ATOM      7  H   UNL A   1      35.912  21.322  27.516  1.00  0.00     0.163 HD
BRANCH   5   8
ATOM      8  C   UNL A   1      33.400  22.125  25.417  1.00  0.00     0.161 A 
ATOM      9  C   UNL A   1      32.799  21.368  24.364  1.00  0.00     0.066 A 
ATOM     10  C   UNL A   1      32.210  22.297  23.541  1.00  0.00     0.127 A 
ATOM     11  N   UNL A   1      32.344  23.513  24.149  1.00  0.00    -0.239 N 
ATOM     12  N   UNL A   1      33.174  23.448  25.212  1.00  0.00    -0.162 NA
BRANCH   9  13
ATOM     13  C   UNL A   1      32.726  19.953  24.101  1.00  0.00     0.264 C 
ATOM     14  O   UNL A   1      33.668  19.192  24.292  1.00  0.00    -0.298 OA
ENDBRANCH   9  13
BRANCH  11  15
ATOM     15  C   UNL A   1      31.685  24.700  23.747  1.00  0.00     0.065 A 
ATOM     16  C   UNL A   1      31.951  25.230  22.473  1.00  0.00     0.030 A 
ATOM     17  C   UNL A   1      30.803  25.356  24.611  1.00  0.00     0.030 A 
ATOM     18  C   UNL A   1      31.360  26.428  22.075  1.00  0.00     0.023 A 
ATOM     19  C   UNL A   1      30.252  26.584  24.223  1.00  0.00     0.023 A 
ATOM     20  C   UNL A   1      30.532  27.113  22.960  1.00  0.00     0.041 A 
ATOM     21  Cl  UNL A   1      29.862  28.626  22.491  1.00  0.00    -0.084 Cl
ENDBRANCH  11  15
ENDBRANCH   5   8
ENDBRANCH   3   4
ENDBRANCH   2   3
ENDBRANCH   1   2
BRANCH   1  22
ATOM     22  C   UNL A   1      39.154  20.173  25.627  1.00  0.00     0.116 C 
BRANCH  22  23
ATOM     23  N   UNL A   1      40.195  19.146  25.728  1.00  0.00    -0.352 N 
ATOM     24  C   UNL A   1      41.562  19.344  25.922  1.00  0.00     0.251 C 
ATOM     25  H   UNL A   1      39.896  18.212  25.648  1.00  0.00     0.163 HD
ATOM     26  O   UNL A   1      42.379  18.488  25.647  1.00  0.00    -0.269 OA
BRANCH  24  27
ATOM     27  C   UNL A   1      41.993  20.636  26.496  1.00  0.00     0.039 A 
ATOM     28  C   UNL A   1      42.467  21.696  25.718  1.00  0.00     0.014 A 
ATOM     29  C   UNL A   1      41.839  20.777  27.868  1.00  0.00     0.014 A 
ATOM     30  C   UNL A   1      42.699  22.925  26.338  1.00  0.00     0.010 A 
ATOM     31  C   UNL A   1      41.833  22.025  28.418  1.00  0.00     0.010 A 
ATOM     32  C   UNL A   1      42.358  23.082  27.690  1.00  0.00    -0.014 A 
BRANCH  32  33
ATOM     33  C   UNL A   1      42.451  24.360  28.380  1.00  0.00     0.031 A 
ATOM     34  C   UNL A   1      41.345  25.303  28.084  1.00  0.00     0.074 A 
ATOM     35  C   UNL A   1      43.312  24.573  29.401  1.00  0.00     0.049 A 
ATOM     36  N   UNL A   1      41.416  26.409  27.423  1.00  0.00    -0.248 NA
ATOM     37  C   UNL A   1      39.973  24.911  28.448  1.00  0.00     0.031 C 
ATOM     38  C   UNL A   1      44.231  23.622  30.045  1.00  0.00     0.029 A 
ATOM     39  N   UNL A   1      43.452  25.679  30.176  1.00  0.00    -0.354 N 
ATOM     40  C   UNL A   1      40.141  26.962  27.467  1.00  0.00     0.074 A 
ATOM     41  C   UNL A   1      39.265  25.915  27.930  1.00  0.00     0.031 C 
ATOM     42  C   UNL A   1      44.629  24.111  31.242  1.00  0.00     0.029 A 
ATOM     43  C   UNL A   1      44.148  25.474  31.363  1.00  0.00     0.049 A 
ATOM     44  H   UNL A   1      43.089  26.557  29.919  1.00  0.00     0.167 HD
ATOM     45  C   UNL A   1      39.955  28.310  27.378  1.00  0.00     0.031 A 
ATOM     46  C   UNL A   1      44.289  26.362  32.379  1.00  0.00     0.031 A 
ATOM     47  C   UNL A   1      41.152  28.978  26.924  1.00  0.00     0.049 A 
ATOM     48  C   UNL A   1      43.990  27.703  31.827  1.00  0.00     0.074 A 
ATOM     49  C   UNL A   1      41.955  28.883  25.806  1.00  0.00     0.029 A 
ATOM     50  N   UNL A   1      41.917  29.606  27.881  1.00  0.00    -0.354 N 
ATOM     51  N   UNL A   1      44.744  28.298  30.949  1.00  0.00    -0.248 NA
ATOM     52  C   UNL A   1      42.617  28.175  31.897  1.00  0.00     0.031 C 
ATOM     53  C   UNL A   1      43.288  28.986  26.304  1.00  0.00     0.029 A 
ATOM     54  C   UNL A   1      43.218  29.225  27.678  1.00  0.00     0.049 A 
ATOM     55  H   UNL A   1      41.590  30.216  28.581  1.00  0.00     0.167 HD
ATOM     56  C   UNL A   1      43.853  28.877  30.058  1.00  0.00     0.074 A 
ATOM     57  C   UNL A   1      42.561  28.854  30.747  1.00  0.00     0.031 C 
ATOM     58  C   UNL A   1      44.180  29.048  28.743  1.00  0.00     0.031 A 
BRANCH  45  59
ATOM     59  C   UNL A   1      38.863  29.055  28.108  1.00  0.00    -0.014 A 
ATOM     60  C   UNL A   1      38.756  28.891  29.501  1.00  0.00     0.009 A 
ATOM     61  C   UNL A   1      37.776  29.673  27.461  1.00  0.00     0.009 A 
ATOM     62  C   UNL A   1      37.588  29.241  30.190  1.00  0.00     0.001 A 
ATOM     63  C   UNL A   1      36.625  30.063  28.151  1.00  0.00     0.001 A 
ATOM     64  C   UNL A   1      36.519  29.817  29.512  1.00  0.00     0.000 A 
ENDBRANCH  45  59
BRANCH  46  65
ATOM     65  C   UNL A   1      44.409  26.132  33.835  1.00  0.00    -0.014 A 
ATOM     66  C   UNL A   1      45.075  27.066  34.648  1.00  0.00     0.009 A 
ATOM     67  C   UNL A   1      43.615  25.161  34.471  1.00  0.00     0.009 A 
ATOM     68  C   UNL A   1      44.902  27.066  36.039  1.00  0.00     0.001 A 
ATOM     69  C   UNL A   1      43.446  25.159  35.860  1.00  0.00     0.001 A 
ATOM     70  C   UNL A   1      44.073  26.123  36.643  1.00  0.00     0.000 A 
ENDBRANCH  46  65
BRANCH  58  71
ATOM     71  C   UNL A   1      45.611  28.793  28.328  1.00  0.00    -0.014 A 
ATOM     72  C   UNL A   1      46.578  29.810  28.210  1.00  0.00     0.009 A 
ATOM     73  C   UNL A   1      46.032  27.463  28.193  1.00  0.00     0.009 A 
ATOM     74  C   UNL A   1      47.915  29.501  27.931  1.00  0.00     0.001 A 
ATOM     75  C   UNL A   1      47.369  27.153  27.935  1.00  0.00     0.001 A 
ATOM     76  C   UNL A   1      48.309  28.172  27.797  1.00  0.00     0.000 A 
ENDBRANCH  58  71
ENDBRANCH  32  33
ENDBRANCH  24  27
ENDBRANCH  22  23
ENDBRANCH   1  22
TORSDOF 13
ENDMDL
