MODEL 1
REMARK VINA RESULT:     -11.4      0.000      0.000
REMARK SMILES CC1(C)Cc2c(-c3ccccc3)c(-c3ccc(Cl)cc3)c(CC(=O)NCCCCNC(=O)c3ccc(-c4c5nc(c(-c6ccccc6)c6ccc([nH]6)c(-c6ccccc6)c6nc(c(-c7ccccc7)c7ccc4[nH]7)C=C6)C=C5)cc3)n2C1
REMARK SMILES IDX 27 1 26 2 25 3 23 4 24 5 22 7 21 8 1 9 2 10 3 11 4 12 82 13
REMARK SMILES IDX 5 14 81 15 6 16 13 17 7 18 8 19 12 20 9 21 11 22 10 23 14 24
REMARK SMILES IDX 15 25 20 26 16 27 19 28 17 29 18 30 28 31 29 32 30 33 31 34
REMARK SMILES IDX 32 36 33 37 34 38 80 39 35 40 79 41 36 42 37 43 38 44 73 45
REMARK SMILES IDX 39 46 78 47 72 48 74 49 40 50 77 51 71 52 70 53 41 55 63 56
REMARK SMILES IDX 48 57 62 58 49 59 52 60 61 61 75 62 50 63 51 64 60 66 76 67
REMARK SMILES IDX 53 68 42 69 43 70 47 71 44 72 46 73 45 74 64 75 65 76 69 77
REMARK SMILES IDX 66 78 68 79 67 80 54 81 55 82 59 83 56 84 58 85 57 86
REMARK H PARENT 25 6 30 35 74 54 52 65
REMARK Flexibility Score: inf
ROOT
ATOM      1  C   UNL A   1      42.614  41.077  26.175  1.00  0.00     0.023 C 
ENDROOT
BRANCH   1   2
ATOM      2  C   UNL A   1      43.019  41.639  24.812  1.00  0.00     0.116 C 
BRANCH   2   3
ATOM      3  N   UNL A   1      41.922  42.235  24.082  1.00  0.00    -0.356 N 
ATOM      4  C   UNL A   1      41.783  42.430  22.735  1.00  0.00     0.225 C 
ATOM      5  O   UNL A   1      40.689  42.847  22.339  1.00  0.00    -0.275 OA
ATOM      6  H   UNL A   1      41.168  42.545  24.632  1.00  0.00     0.163 HD
BRANCH   4   7
ATOM      7  C   UNL A   1      42.892  42.074  21.753  1.00  0.00     0.154 C 
BRANCH   7   8
ATOM      8  C   UNL A   1      43.608  43.262  21.181  1.00  0.00     0.036 A 
ATOM      9  C   UNL A   1      41.476  45.078  17.051  1.00  0.00     0.013 C 
ATOM     10  C   UNL A   1      42.641  44.444  17.812  1.00  0.00    -0.012 C 
ATOM     11  C   UNL A   1      43.402  43.512  16.855  1.00  0.00     0.013 C 
ATOM     12  C   UNL A   1      43.617  45.517  18.397  1.00  0.00     0.063 C 
ATOM     13  C   UNL A   1      42.137  43.665  19.062  1.00  0.00     0.129 C 
ATOM     14  C   UNL A   1      44.015  44.914  19.693  1.00  0.00     0.027 A 
ATOM     15  N   UNL A   1      43.204  43.873  20.032  1.00  0.00    -0.346 N 
ATOM     16  C   UNL A   1      44.954  45.062  20.681  1.00  0.00     0.011 A 
ATOM     17  C   UNL A   1      44.693  44.020  21.643  1.00  0.00     0.011 A 
BRANCH  16  18
ATOM     18  C   UNL A   1      45.992  46.074  20.665  1.00  0.00    -0.016 A 
ATOM     19  C   UNL A   1      47.333  45.717  20.492  1.00  0.00     0.009 A 
ATOM     20  C   UNL A   1      45.649  47.425  20.797  1.00  0.00     0.009 A 
ATOM     21  C   UNL A   1      48.321  46.702  20.452  1.00  0.00     0.001 A 
ATOM     22  C   UNL A   1      46.638  48.408  20.757  1.00  0.00     0.001 A 
ATOM     23  C   UNL A   1      47.973  48.047  20.586  1.00  0.00     0.000 A 
ENDBRANCH  16  18
BRANCH  17  24
ATOM     24  C   UNL A   1      45.403  43.794  22.896  1.00  0.00    -0.016 A 
ATOM     25  C   UNL A   1      45.124  44.604  24.006  1.00  0.00     0.010 A 
ATOM     26  C   UNL A   1      46.433  42.852  22.984  1.00  0.00     0.010 A 
ATOM     27  C   UNL A   1      45.853  44.459  25.190  1.00  0.00     0.021 A 
ATOM     28  C   UNL A   1      47.148  42.690  24.174  1.00  0.00     0.021 A 
ATOM     29  C   UNL A   1      46.857  43.496  25.270  1.00  0.00     0.041 A 
ATOM     30  Cl  UNL A   1      47.762  43.319  26.724  1.00  0.00    -0.084 Cl
ENDBRANCH  17  24
ENDBRANCH   7   8
ENDBRANCH   4   7
ENDBRANCH   2   3
ENDBRANCH   1   2
BRANCH   1  31
ATOM     31  C   UNL A   1      41.732  39.826  26.167  1.00  0.00     0.023 C 
BRANCH  31  32
ATOM     32  C   UNL A   1      42.335  38.618  26.874  1.00  0.00     0.116 C 
BRANCH  32  33
ATOM     33  N   UNL A   1      43.771  38.478  26.650  1.00  0.00    -0.352 N 
ATOM     34  C   UNL A   1      44.660  37.655  27.315  1.00  0.00     0.251 C 
ATOM     35  H   UNL A   1      44.154  39.041  25.938  1.00  0.00     0.163 HD
ATOM     36  O   UNL A   1      45.858  37.886  27.310  1.00  0.00    -0.269 OA
BRANCH  34  37
ATOM     37  C   UNL A   1      44.136  36.480  28.037  1.00  0.00     0.039 A 
ATOM     38  C   UNL A   1      43.956  36.521  29.420  1.00  0.00     0.014 A 
ATOM     39  C   UNL A   1      43.804  35.339  27.307  1.00  0.00     0.014 A 
ATOM     40  C   UNL A   1      43.344  35.439  30.050  1.00  0.00     0.010 A 
ATOM     41  C   UNL A   1      43.116  34.309  27.913  1.00  0.00     0.010 A 
ATOM     42  C   UNL A   1      42.896  34.348  29.287  1.00  0.00    -0.014 A 
BRANCH  42  43
ATOM     43  C   UNL A   1      42.036  33.338  29.902  1.00  0.00     0.031 A 
ATOM     44  C   UNL A   1      40.753  33.873  30.440  1.00  0.00     0.074 A 
ATOM     45  C   UNL A   1      42.238  32.006  29.812  1.00  0.00     0.049 A 
ATOM     46  N   UNL A   1      40.389  33.948  31.676  1.00  0.00    -0.248 NA
ATOM     47  C   UNL A   1      39.817  34.517  29.501  1.00  0.00     0.031 C 
ATOM     48  C   UNL A   1      43.264  31.299  29.040  1.00  0.00     0.029 A 
ATOM     49  N   UNL A   1      41.483  30.987  30.314  1.00  0.00    -0.354 N 
ATOM     50  C   UNL A   1      39.094  34.462  31.667  1.00  0.00     0.074 A 
ATOM     51  C   UNL A   1      38.868  34.954  30.331  1.00  0.00     0.031 C 
ATOM     52  C   UNL A   1      42.931  29.992  28.938  1.00  0.00     0.029 A 
ATOM     53  C   UNL A   1      41.766  29.740  29.768  1.00  0.00     0.049 A 
ATOM     54  H   UNL A   1      40.795  31.125  31.005  1.00  0.00     0.167 HD
ATOM     55  C   UNL A   1      38.228  34.208  32.688  1.00  0.00     0.031 A 
ATOM     56  C   UNL A   1      41.081  28.588  29.964  1.00  0.00     0.031 A 
ATOM     57  C   UNL A   1      38.917  33.686  33.842  1.00  0.00     0.049 A 
ATOM     58  C   UNL A   1      40.279  28.751  31.195  1.00  0.00     0.074 A 
ATOM     59  C   UNL A   1      39.927  34.133  34.671  1.00  0.00     0.029 A 
ATOM     60  N   UNL A   1      38.835  32.329  34.042  1.00  0.00    -0.354 N 
ATOM     61  N   UNL A   1      40.796  28.821  32.387  1.00  0.00    -0.248 NA
ATOM     62  C   UNL A   1      38.916  29.243  31.075  1.00  0.00     0.031 C 
ATOM     63  C   UNL A   1      40.700  32.972  34.968  1.00  0.00     0.029 A 
ATOM     64  C   UNL A   1      40.080  31.872  34.371  1.00  0.00     0.049 A 
ATOM     65  H   UNL A   1      38.020  31.781  33.961  1.00  0.00     0.167 HD
ATOM     66  C   UNL A   1      40.028  29.768  33.043  1.00  0.00     0.074 A 
ATOM     67  C   UNL A   1      38.814  29.893  32.237  1.00  0.00     0.031 C 
ATOM     68  C   UNL A   1      40.576  30.563  34.008  1.00  0.00     0.031 A 
BRANCH  55  69
ATOM     69  C   UNL A   1      36.740  33.985  32.498  1.00  0.00    -0.014 A 
ATOM     70  C   UNL A   1      35.850  34.666  33.353  1.00  0.00     0.009 A 
ATOM     71  C   UNL A   1      36.197  32.931  31.743  1.00  0.00     0.009 A 
ATOM     72  C   UNL A   1      34.530  34.235  33.531  1.00  0.00     0.001 A 
ATOM     73  C   UNL A   1      34.865  32.526  31.884  1.00  0.00     0.001 A 
ATOM     74  C   UNL A   1      34.042  33.154  32.806  1.00  0.00     0.000 A 
ENDBRANCH  55  69
BRANCH  56  75
ATOM     75  C   UNL A   1      40.905  27.414  29.084  1.00  0.00    -0.014 A 
ATOM     76  C   UNL A   1      41.948  26.487  28.915  1.00  0.00     0.009 A 
ATOM     77  C   UNL A   1      39.623  27.045  28.640  1.00  0.00     0.009 A 
ATOM     78  C   UNL A   1      41.706  25.217  28.373  1.00  0.00     0.001 A 
ATOM     79  C   UNL A   1      39.382  25.778  28.094  1.00  0.00     0.001 A 
ATOM     80  C   UNL A   1      40.419  24.857  27.978  1.00  0.00     0.000 A 
ENDBRANCH  56  75
BRANCH  68  81
ATOM     81  C   UNL A   1      41.926  30.181  34.564  1.00  0.00    -0.014 A 
ATOM     82  C   UNL A   1      43.146  30.577  33.990  1.00  0.00     0.009 A 
ATOM     83  C   UNL A   1      41.957  29.512  35.797  1.00  0.00     0.009 A 
ATOM     84  C   UNL A   1      44.360  30.284  34.620  1.00  0.00     0.001 A 
ATOM     85  C   UNL A   1      43.166  29.243  36.439  1.00  0.00     0.001 A 
ATOM     86  C   UNL A   1      44.369  29.623  35.846  1.00  0.00     0.000 A 
ENDBRANCH  68  81
ENDBRANCH  42  43
ENDBRANCH  34  37
ENDBRANCH  32  33
ENDBRANCH  31  32
ENDBRANCH   1  31
TORSDOF 14
ENDMDL
MODEL 2
REMARK VINA RESULT:     -11.3      8.208     13.624
REMARK SMILES CC1(C)Cc2c(-c3ccccc3)c(-c3ccc(Cl)cc3)c(CC(=O)NCCCCNC(=O)c3ccc(-c4c5nc(c(-c6ccccc6)c6ccc([nH]6)c(-c6ccccc6)c6nc(c(-c7ccccc7)c7ccc4[nH]7)C=C6)C=C5)cc3)n2C1
REMARK SMILES IDX 27 1 26 2 25 3 23 4 24 5 22 7 21 8 1 9 2 10 3 11 4 12 82 13
REMARK SMILES IDX 5 14 81 15 6 16 13 17 7 18 8 19 12 20 9 21 11 22 10 23 14 24
REMARK SMILES IDX 15 25 20 26 16 27 19 28 17 29 18 30 28 31 29 32 30 33 31 34
REMARK SMILES IDX 32 36 33 37 34 38 80 39 35 40 79 41 36 42 37 43 38 44 73 45
REMARK SMILES IDX 39 46 78 47 72 48 74 49 40 50 77 51 71 52 70 53 41 55 63 56
REMARK SMILES IDX 48 57 62 58 49 59 52 60 61 61 75 62 50 63 51 64 60 66 76 67
REMARK SMILES IDX 53 68 42 69 43 70 47 71 44 72 46 73 45 74 64 75 65 76 69 77
REMARK SMILES IDX 66 78 68 79 67 80 54 81 55 82 59 83 56 84 58 85 57 86
REMARK H PARENT 25 6 30 35 74 54 52 65
REMARK Flexibility Score: inf
ROOT
ATOM      1  C   UNL A   1      35.381  32.826  28.408  1.00  0.00     0.023 C 
ENDROOT
BRANCH   1   2
ATOM      2  C   UNL A   1      36.743  33.323  27.923  1.00  0.00     0.116 C 
BRANCH   2   3
ATOM      3  N   UNL A   1      37.365  34.276  28.815  1.00  0.00    -0.356 N 
ATOM      4  C   UNL A   1      38.247  34.057  29.837  1.00  0.00     0.225 C 
ATOM      5  O   UNL A   1      38.739  35.055  30.375  1.00  0.00    -0.275 OA
ATOM      6  H   UNL A   1      37.119  35.216  28.665  1.00  0.00     0.163 HD
BRANCH   4   7
ATOM      7  C   UNL A   1      38.670  32.652  30.246  1.00  0.00     0.154 C 
BRANCH   7   8
ATOM      8  C   UNL A   1      38.867  32.477  31.723  1.00  0.00     0.036 A 
ATOM      9  C   UNL A   1      43.434  30.889  32.955  1.00  0.00     0.013 C 
ATOM     10  C   UNL A   1      41.913  30.740  32.899  1.00  0.00    -0.012 C 
ATOM     11  C   UNL A   1      41.572  29.247  32.758  1.00  0.00     0.013 C 
ATOM     12  C   UNL A   1      41.216  31.326  34.171  1.00  0.00     0.063 C 
ATOM     13  C   UNL A   1      41.312  31.561  31.721  1.00  0.00     0.129 C 
ATOM     14  C   UNL A   1      39.974  31.914  33.612  1.00  0.00     0.027 A 
ATOM     15  N   UNL A   1      40.032  32.011  32.254  1.00  0.00    -0.346 N 
ATOM     16  C   UNL A   1      38.759  32.400  34.022  1.00  0.00     0.011 A 
ATOM     17  C   UNL A   1      38.051  32.775  32.823  1.00  0.00     0.011 A 
BRANCH  16  18
ATOM     18  C   UNL A   1      38.338  32.458  35.408  1.00  0.00    -0.016 A 
ATOM     19  C   UNL A   1      38.026  31.288  36.107  1.00  0.00     0.009 A 
ATOM     20  C   UNL A   1      38.268  33.693  36.063  1.00  0.00     0.009 A 
ATOM     21  C   UNL A   1      37.647  31.353  37.449  1.00  0.00     0.001 A 
ATOM     22  C   UNL A   1      37.888  33.756  37.404  1.00  0.00     0.001 A 
ATOM     23  C   UNL A   1      37.578  32.587  38.096  1.00  0.00     0.000 A 
ENDBRANCH  16  18
BRANCH  17  24
ATOM     24  C   UNL A   1      36.729  33.385  32.749  1.00  0.00    -0.016 A 
ATOM     25  C   UNL A   1      36.591  34.766  32.946  1.00  0.00     0.010 A 
ATOM     26  C   UNL A   1      35.580  32.603  32.586  1.00  0.00     0.010 A 
ATOM     27  C   UNL A   1      35.324  35.357  32.961  1.00  0.00     0.021 A 
ATOM     28  C   UNL A   1      34.314  33.195  32.579  1.00  0.00     0.021 A 
ATOM     29  C   UNL A   1      34.191  34.568  32.771  1.00  0.00     0.041 A 
ATOM     30  Cl  UNL A   1      32.629  35.290  32.797  1.00  0.00    -0.084 Cl
ENDBRANCH  17  24
ENDBRANCH   7   8
ENDBRANCH   4   7
ENDBRANCH   2   3
ENDBRANCH   1   2
BRANCH   1  31
ATOM     31  C   UNL A   1      34.869  31.521  27.795  1.00  0.00     0.023 C 
BRANCH  31  32
ATOM     32  C   UNL A   1      35.479  30.257  28.390  1.00  0.00     0.116 C 
BRANCH  32  33
ATOM     33  N   UNL A   1      35.633  30.320  29.841  1.00  0.00    -0.352 N 
ATOM     34  C   UNL A   1      36.517  29.614  30.634  1.00  0.00     0.251 C 
ATOM     35  H   UNL A   1      35.033  30.942  30.311  1.00  0.00     0.163 HD
ATOM     36  O   UNL A   1      36.310  29.463  31.827  1.00  0.00    -0.269 OA
BRANCH  34  37
ATOM     37  C   UNL A   1      37.726  29.040  30.014  1.00  0.00     0.039 A 
ATOM     38  C   UNL A   1      38.279  29.620  28.871  1.00  0.00     0.014 A 
ATOM     39  C   UNL A   1      38.316  27.923  30.605  1.00  0.00     0.014 A 
ATOM     40  C   UNL A   1      39.488  29.128  28.386  1.00  0.00     0.010 A 
ATOM     41  C   UNL A   1      39.557  27.495  30.183  1.00  0.00     0.010 A 
ATOM     42  C   UNL A   1      40.141  28.084  29.065  1.00  0.00    -0.014 A 
BRANCH  42  43
ATOM     43  C   UNL A   1      41.517  27.739  28.712  1.00  0.00     0.031 A 
ATOM     44  C   UNL A   1      41.658  26.438  27.999  1.00  0.00     0.074 A 
ATOM     45  C   UNL A   1      42.563  28.588  28.799  1.00  0.00     0.049 A 
ATOM     46  N   UNL A   1      42.223  25.361  28.431  1.00  0.00    -0.248 NA
ATOM     47  C   UNL A   1      40.977  26.276  26.702  1.00  0.00     0.031 C 
ATOM     48  C   UNL A   1      42.545  30.008  29.164  1.00  0.00     0.029 A 
ATOM     49  N   UNL A   1      43.869  28.379  28.465  1.00  0.00    -0.354 N 
ATOM     50  C   UNL A   1      42.152  24.441  27.387  1.00  0.00     0.074 A 
ATOM     51  C   UNL A   1      41.229  24.994  26.429  1.00  0.00     0.031 C 
ATOM     52  C   UNL A   1      43.720  30.579  28.811  1.00  0.00     0.029 A 
ATOM     53  C   UNL A   1      44.625  29.540  28.351  1.00  0.00     0.049 A 
ATOM     54  H   UNL A   1      44.243  27.480  28.316  1.00  0.00     0.167 HD
ATOM     55  C   UNL A   1      43.054  23.425  27.281  1.00  0.00     0.031 A 
ATOM     56  C   UNL A   1      45.895  29.646  27.891  1.00  0.00     0.031 A 
ATOM     57  C   UNL A   1      43.794  23.250  28.507  1.00  0.00     0.049 A 
ATOM     58  C   UNL A   1      46.509  28.304  27.968  1.00  0.00     0.074 A 
ATOM     59  C   UNL A   1      43.469  22.966  29.819  1.00  0.00     0.029 A 
ATOM     60  N   UNL A   1      45.066  23.767  28.534  1.00  0.00    -0.354 N 
ATOM     61  N   UNL A   1      46.806  27.712  29.088  1.00  0.00    -0.248 NA
ATOM     62  C   UNL A   1      46.431  27.438  26.804  1.00  0.00     0.031 C 
ATOM     63  C   UNL A   1      44.368  23.752  30.598  1.00  0.00     0.029 A 
ATOM     64  C   UNL A   1      45.238  24.411  29.727  1.00  0.00     0.049 A 
ATOM     65  H   UNL A   1      45.737  23.688  27.818  1.00  0.00     0.167 HD
ATOM     66  C   UNL A   1      46.494  26.380  28.868  1.00  0.00     0.074 A 
ATOM     67  C   UNL A   1      46.396  26.252  27.415  1.00  0.00     0.031 C 
ATOM     68  C   UNL A   1      46.063  25.587  29.892  1.00  0.00     0.031 A 
BRANCH  55  69
ATOM     69  C   UNL A   1      43.595  22.910  25.961  1.00  0.00    -0.014 A 
ATOM     70  C   UNL A   1      43.649  21.515  25.762  1.00  0.00     0.009 A 
ATOM     71  C   UNL A   1      44.321  23.699  25.052  1.00  0.00     0.009 A 
ATOM     72  C   UNL A   1      44.479  20.945  24.790  1.00  0.00     0.001 A 
ATOM     73  C   UNL A   1      45.117  23.133  24.049  1.00  0.00     0.001 A 
ATOM     74  C   UNL A   1      45.225  21.756  23.942  1.00  0.00     0.000 A 
ENDBRANCH  55  69
BRANCH  56  75
ATOM     75  C   UNL A   1      46.580  30.766  27.212  1.00  0.00    -0.014 A 
ATOM     76  C   UNL A   1      45.840  31.833  26.675  1.00  0.00     0.009 A 
ATOM     77  C   UNL A   1      47.969  30.934  27.343  1.00  0.00     0.009 A 
ATOM     78  C   UNL A   1      46.460  33.044  26.335  1.00  0.00     0.001 A 
ATOM     79  C   UNL A   1      48.590  32.140  26.998  1.00  0.00     0.001 A 
ATOM     80  C   UNL A   1      47.832  33.202  26.512  1.00  0.00     0.000 A 
ENDBRANCH  56  75
BRANCH  68  81
ATOM     81  C   UNL A   1      46.237  26.090  31.304  1.00  0.00    -0.014 A 
ATOM     82  C   UNL A   1      47.395  25.875  32.071  1.00  0.00     0.009 A 
ATOM     83  C   UNL A   1      45.244  26.935  31.822  1.00  0.00     0.009 A 
ATOM     84  C   UNL A   1      47.537  26.465  33.331  1.00  0.00     0.001 A 
ATOM     85  C   UNL A   1      45.396  27.545  33.067  1.00  0.00     0.001 A 
ATOM     86  C   UNL A   1      46.541  27.305  33.825  1.00  0.00     0.000 A 
ENDBRANCH  68  81
ENDBRANCH  42  43
ENDBRANCH  34  37
ENDBRANCH  32  33
ENDBRANCH  31  32
ENDBRANCH   1  31
TORSDOF 14
ENDMDL
MODEL 3
REMARK VINA RESULT:     -11.2      9.450     15.450
REMARK SMILES CC1(C)Cc2c(-c3ccccc3)c(-c3ccc(Cl)cc3)c(CC(=O)NCCCCNC(=O)c3ccc(-c4c5nc(c(-c6ccccc6)c6ccc([nH]6)c(-c6ccccc6)c6nc(c(-c7ccccc7)c7ccc4[nH]7)C=C6)C=C5)cc3)n2C1
REMARK SMILES IDX 27 1 26 2 25 3 23 4 24 5 22 7 21 8 1 9 2 10 3 11 4 12 82 13
REMARK SMILES IDX 5 14 81 15 6 16 13 17 7 18 8 19 12 20 9 21 11 22 10 23 14 24
REMARK SMILES IDX 15 25 20 26 16 27 19 28 17 29 18 30 28 31 29 32 30 33 31 34
REMARK SMILES IDX 32 36 33 37 34 38 80 39 35 40 79 41 36 42 37 43 38 44 73 45
REMARK SMILES IDX 39 46 78 47 72 48 74 49 40 50 77 51 71 52 70 53 41 55 63 56
REMARK SMILES IDX 48 57 62 58 49 59 52 60 61 61 75 62 50 63 51 64 60 66 76 67
REMARK SMILES IDX 53 68 42 69 43 70 47 71 44 72 46 73 45 74 64 75 65 76 69 77
REMARK SMILES IDX 66 78 68 79 67 80 54 81 55 82 59 83 56 84 58 85 57 86
REMARK H PARENT 25 6 30 35 74 54 52 65
REMARK Flexibility Score: inf
ROOT
ATOM      1  C   UNL A   1      33.303  31.060  27.261  1.00  0.00     0.023 C 
ENDROOT
BRANCH   1   2
ATOM      2  C   UNL A   1      33.391  29.563  26.962  1.00  0.00     0.116 C 
BRANCH   2   3
ATOM      3  N   UNL A   1      33.727  29.265  25.588  1.00  0.00    -0.356 N 
ATOM      4  C   UNL A   1      33.995  28.057  25.005  1.00  0.00     0.225 C 
ATOM      5  O   UNL A   1      34.130  28.046  23.776  1.00  0.00    -0.275 OA
ATOM      6  H   UNL A   1      33.768  30.042  24.986  1.00  0.00     0.163 HD
BRANCH   4   7
ATOM      7  C   UNL A   1      34.044  26.768  25.815  1.00  0.00     0.154 C 
BRANCH   7   8
ATOM      8  C   UNL A   1      33.305  25.623  25.187  1.00  0.00     0.036 A 
ATOM      9  C   UNL A   1      28.679  26.794  23.727  1.00  0.00     0.013 C 
ATOM     10  C   UNL A   1      29.677  25.998  24.569  1.00  0.00    -0.012 C 
ATOM     11  C   UNL A   1      29.030  25.685  25.928  1.00  0.00     0.013 C 
ATOM     12  C   UNL A   1      30.113  24.670  23.868  1.00  0.00     0.063 C 
ATOM     13  C   UNL A   1      31.008  26.786  24.756  1.00  0.00     0.129 C 
ATOM     14  C   UNL A   1      31.543  24.562  24.248  1.00  0.00     0.027 A 
ATOM     15  N   UNL A   1      32.014  25.732  24.763  1.00  0.00    -0.346 N 
ATOM     16  C   UNL A   1      32.568  23.651  24.253  1.00  0.00     0.011 A 
ATOM     17  C   UNL A   1      33.701  24.324  24.839  1.00  0.00     0.011 A 
BRANCH  16  18
ATOM     18  C   UNL A   1      32.440  22.288  23.776  1.00  0.00    -0.016 A 
ATOM     19  C   UNL A   1      32.479  21.214  24.670  1.00  0.00     0.009 A 
ATOM     20  C   UNL A   1      32.249  22.044  22.412  1.00  0.00     0.009 A 
ATOM     21  C   UNL A   1      32.329  19.907  24.203  1.00  0.00     0.001 A 
ATOM     22  C   UNL A   1      32.099  20.737  21.946  1.00  0.00     0.001 A 
ATOM     23  C   UNL A   1      32.140  19.670  22.841  1.00  0.00     0.000 A 
ENDBRANCH  16  18
BRANCH  17  24
ATOM     24  C   UNL A   1      35.040  23.777  25.019  1.00  0.00    -0.016 A 
ATOM     25  C   UNL A   1      35.740  23.280  23.911  1.00  0.00     0.010 A 
ATOM     26  C   UNL A   1      35.601  23.644  26.294  1.00  0.00     0.010 A 
ATOM     27  C   UNL A   1      36.990  22.675  24.076  1.00  0.00     0.021 A 
ATOM     28  C   UNL A   1      36.860  23.060  26.458  1.00  0.00     0.021 A 
ATOM     29  C   UNL A   1      37.547  22.575  25.349  1.00  0.00     0.041 A 
ATOM     30  Cl  UNL A   1      39.082  21.824  25.557  1.00  0.00    -0.084 Cl
ENDBRANCH  17  24
ENDBRANCH   7   8
ENDBRANCH   4   7
ENDBRANCH   2   3
ENDBRANCH   1   2
BRANCH   1  31
ATOM     31  C   UNL A   1      34.611  31.764  27.632  1.00  0.00     0.023 C 
BRANCH  31  32
ATOM     32  C   UNL A   1      35.310  31.201  28.863  1.00  0.00     0.116 C 
BRANCH  32  33
ATOM     33  N   UNL A   1      35.029  31.957  30.080  1.00  0.00    -0.352 N 
ATOM     34  C   UNL A   1      35.546  31.757  31.346  1.00  0.00     0.251 C 
ATOM     35  H   UNL A   1      34.391  32.702  29.988  1.00  0.00     0.163 HD
ATOM     36  O   UNL A   1      34.975  32.187  32.335  1.00  0.00    -0.269 OA
BRANCH  34  37
ATOM     37  C   UNL A   1      36.810  31.010  31.486  1.00  0.00     0.039 A 
ATOM     38  C   UNL A   1      36.801  29.622  31.638  1.00  0.00     0.014 A 
ATOM     39  C   UNL A   1      38.013  31.714  31.442  1.00  0.00     0.014 A 
ATOM     40  C   UNL A   1      38.014  28.939  31.643  1.00  0.00     0.010 A 
ATOM     41  C   UNL A   1      39.208  31.034  31.353  1.00  0.00     0.010 A 
ATOM     42  C   UNL A   1      39.216  29.646  31.468  1.00  0.00    -0.014 A 
BRANCH  42  43
ATOM     43  C   UNL A   1      40.457  28.915  31.220  1.00  0.00     0.031 A 
ATOM     44  C   UNL A   1      41.345  28.797  32.410  1.00  0.00     0.074 A 
ATOM     45  C   UNL A   1      40.715  28.205  30.101  1.00  0.00     0.049 A 
ATOM     46  N   UNL A   1      42.503  29.340  32.586  1.00  0.00    -0.248 NA
ATOM     47  C   UNL A   1      40.829  28.095  33.599  1.00  0.00     0.031 C 
ATOM     48  C   UNL A   1      39.816  27.941  28.973  1.00  0.00     0.029 A 
ATOM     49  N   UNL A   1      41.816  27.464  29.788  1.00  0.00    -0.354 N 
ATOM     50  C   UNL A   1      42.959  28.889  33.823  1.00  0.00     0.074 A 
ATOM     51  C   UNL A   1      41.824  28.279  34.469  1.00  0.00     0.031 C 
ATOM     52  C   UNL A   1      40.314  26.929  28.227  1.00  0.00     0.029 A 
ATOM     53  C   UNL A   1      41.636  26.588  28.724  1.00  0.00     0.049 A 
ATOM     54  H   UNL A   1      42.668  27.545  30.276  1.00  0.00     0.167 HD
ATOM     55  C   UNL A   1      44.291  28.828  34.104  1.00  0.00     0.031 A 
ATOM     56  C   UNL A   1      42.498  25.634  28.296  1.00  0.00     0.031 A 
ATOM     57  C   UNL A   1      45.064  29.582  33.147  1.00  0.00     0.049 A 
ATOM     58  C   UNL A   1      43.835  25.974  28.825  1.00  0.00     0.074 A 
ATOM     59  C   UNL A   1      45.104  30.900  32.736  1.00  0.00     0.029 A 
ATOM     60  N   UNL A   1      45.701  28.859  32.169  1.00  0.00    -0.354 N 
ATOM     61  N   UNL A   1      44.531  26.996  28.420  1.00  0.00    -0.248 NA
ATOM     62  C   UNL A   1      44.241  25.407  30.100  1.00  0.00     0.031 C 
ATOM     63  C   UNL A   1      45.343  30.839  31.331  1.00  0.00     0.029 A 
ATOM     64  C   UNL A   1      45.512  29.500  30.976  1.00  0.00     0.049 A 
ATOM     65  H   UNL A   1      46.207  28.025  32.303  1.00  0.00     0.167 HD
ATOM     66  C   UNL A   1      45.133  27.482  29.569  1.00  0.00     0.074 A 
ATOM     67  C   UNL A   1      45.026  26.393  30.539  1.00  0.00     0.031 C 
ATOM     68  C   UNL A   1      45.397  28.814  29.707  1.00  0.00     0.031 A 
BRANCH  55  69
ATOM     69  C   UNL A   1      44.930  27.732  34.934  1.00  0.00    -0.014 A 
ATOM     70  C   UNL A   1      45.036  26.444  34.370  1.00  0.00     0.009 A 
ATOM     71  C   UNL A   1      45.146  27.825  36.320  1.00  0.00     0.009 A 
ATOM     72  C   UNL A   1      45.222  25.308  35.165  1.00  0.00     0.001 A 
ATOM     73  C   UNL A   1      45.378  26.696  37.113  1.00  0.00     0.001 A 
ATOM     74  C   UNL A   1      45.378  25.433  36.541  1.00  0.00     0.000 A 
ENDBRANCH  55  69
BRANCH  56  75
ATOM     75  C   UNL A   1      42.245  24.344  27.621  1.00  0.00    -0.014 A 
ATOM     76  C   UNL A   1      42.643  24.147  26.287  1.00  0.00     0.009 A 
ATOM     77  C   UNL A   1      41.876  23.212  28.367  1.00  0.00     0.009 A 
ATOM     78  C   UNL A   1      42.725  22.859  25.740  1.00  0.00     0.001 A 
ATOM     79  C   UNL A   1      41.952  21.926  27.820  1.00  0.00     0.001 A 
ATOM     80  C   UNL A   1      42.395  21.748  26.512  1.00  0.00     0.000 A 
ENDBRANCH  56  75
BRANCH  68  81
ATOM     81  C   UNL A   1      45.317  29.688  28.480  1.00  0.00    -0.014 A 
ATOM     82  C   UNL A   1      44.127  30.276  28.018  1.00  0.00     0.009 A 
ATOM     83  C   UNL A   1      46.521  30.041  27.852  1.00  0.00     0.009 A 
ATOM     84  C   UNL A   1      44.143  31.166  26.939  1.00  0.00     0.001 A 
ATOM     85  C   UNL A   1      46.540  30.949  26.793  1.00  0.00     0.001 A 
ATOM     86  C   UNL A   1      45.350  31.508  26.333  1.00  0.00     0.000 A 
ENDBRANCH  68  81
ENDBRANCH  42  43
ENDBRANCH  34  37
ENDBRANCH  32  33
ENDBRANCH  31  32
ENDBRANCH   1  31
TORSDOF 14
ENDMDL
