MODEL 1
REMARK VINA RESULT:     -12.8      0.000      0.000
REMARK SMILES Cc1ccc(C(=O)N2CCCC[C@@H]2C(=O)NCCCCNC(=O)c2ccc(-c3c4nc(c(-c5ccccc5)c5ccc([nH]5)c(-c5ccccc5)c5nc(c(-c6ccccc6)c6ccc3[nH]6)C=C5)C=C4)cc2)cc1S(=O)(=O)N1CCCCC1
REMARK SMILES IDX 17 1 16 2 14 3 15 4 13 6 8 7 9 8 10 9 12 10 11 11 6 12 7 13
REMARK SMILES IDX 5 14 1 15 2 16 3 17 73 18 4 19 72 20 74 21 75 22 76 23 77 24
REMARK SMILES IDX 78 25 82 26 79 27 81 28 80 29 18 30 19 31 20 32 21 33 22 34
REMARK SMILES IDX 23 36 24 37 25 38 71 39 26 40 70 41 27 42 28 43 29 44 64 45
REMARK SMILES IDX 30 46 69 47 63 48 65 49 31 50 68 51 62 52 61 53 32 55 54 56
REMARK SMILES IDX 39 57 53 58 40 59 43 60 52 61 66 62 41 63 42 64 51 66 67 67
REMARK SMILES IDX 44 68 33 69 34 70 38 71 35 72 37 73 36 74 55 75 56 76 60 77
REMARK SMILES IDX 57 78 59 79 58 80 45 81 46 82 50 83 47 84 49 85 48 86
REMARK H PARENT 16 5 21 35 65 54 43 65
REMARK Flexibility Score: inf
ROOT
ATOM      1  C   UNL A   1      36.478  22.493  25.370  1.00  0.00     0.116 C 
ENDROOT
BRANCH   1   2
ATOM      2  N   UNL A   1      35.578  21.937  26.365  1.00  0.00    -0.354 N 
ATOM      3  C   UNL A   1      34.503  21.111  26.223  1.00  0.00     0.242 C 
ATOM      4  O   UNL A   1      33.742  21.012  27.190  1.00  0.00    -0.273 OA
ATOM      5  H   UNL A   1      35.775  22.199  27.293  1.00  0.00     0.163 HD
BRANCH   3   6
ATOM      6  C   UNL A   1      34.179  20.402  24.885  1.00  0.00     0.174 C 
ATOM      7  N   UNL A   1      32.742  20.455  24.512  1.00  0.00    -0.327 N 
ATOM      8  C   UNL A   1      32.296  19.533  23.475  1.00  0.00     0.120 C 
ATOM      9  C   UNL A   1      32.711  18.103  23.748  1.00  0.00     0.022 C 
ATOM     10  C   UNL A   1      34.701  18.952  25.001  1.00  0.00     0.035 C 
ATOM     11  C   UNL A   1      34.221  18.020  23.897  1.00  0.00     0.004 C 
BRANCH   7  12
ATOM     12  C   UNL A   1      31.876  21.527  24.741  1.00  0.00     0.254 C 
ATOM     13  O   UNL A   1      30.964  21.453  25.567  1.00  0.00    -0.269 OA
BRANCH  12  14
ATOM     14  C   UNL A   1      31.986  22.789  23.974  1.00  0.00     0.041 A 
ATOM     15  C   UNL A   1      32.909  26.444  21.887  1.00  0.00     0.046 C 
ATOM     16  C   UNL A   1      32.454  25.258  22.670  1.00  0.00    -0.031 A 
ATOM     17  C   UNL A   1      33.108  24.063  22.277  1.00  0.00     0.005 A 
ATOM     18  C   UNL A   1      31.528  25.193  23.727  1.00  0.00     0.086 A 
ATOM     19  C   UNL A   1      32.881  22.848  22.913  1.00  0.00     0.014 A 
ATOM     20  C   UNL A   1      31.337  23.954  24.386  1.00  0.00     0.035 A 
BRANCH  18  21
ATOM     21  S   UNL A   1      30.478  26.468  24.451  1.00  0.00     0.243 S 
ATOM     22  O   UNL A   1      29.837  27.121  23.335  1.00  0.00    -0.207 OA
ATOM     23  O   UNL A   1      29.680  25.769  25.449  1.00  0.00    -0.207 OA
BRANCH  21  24
ATOM     24  N   UNL A   1      31.366  27.644  25.280  1.00  0.00    -0.198 NA
ATOM     25  C   UNL A   1      31.545  28.940  24.600  1.00  0.00     0.102 C 
ATOM     26  C   UNL A   1      31.456  27.489  26.747  1.00  0.00     0.102 C 
ATOM     27  C   UNL A   1      32.307  29.978  25.407  1.00  0.00     0.017 C 
ATOM     28  C   UNL A   1      32.191  28.613  27.464  1.00  0.00     0.017 C 
ATOM     29  C   UNL A   1      31.927  29.987  26.876  1.00  0.00     0.003 C 
ENDBRANCH  21  24
ENDBRANCH  18  21
ENDBRANCH  12  14
ENDBRANCH   7  12
ENDBRANCH   3   6
ENDBRANCH   1   2
BRANCH   1  30
ATOM     30  C   UNL A   1      37.875  21.861  25.459  1.00  0.00     0.023 C 
BRANCH  30  31
ATOM     31  C   UNL A   1      38.957  22.779  26.019  1.00  0.00     0.023 C 
BRANCH  31  32
ATOM     32  C   UNL A   1      39.952  22.077  26.923  1.00  0.00     0.116 C 
BRANCH  32  33
ATOM     33  N   UNL A   1      40.814  21.134  26.220  1.00  0.00    -0.352 N 
ATOM     34  C   UNL A   1      42.192  21.106  26.094  1.00  0.00     0.251 C 
ATOM     35  H   UNL A   1      40.341  20.402  25.762  1.00  0.00     0.163 HD
ATOM     36  O   UNL A   1      42.717  20.256  25.381  1.00  0.00    -0.269 OA
BRANCH  34  37
ATOM     37  C   UNL A   1      43.037  21.955  26.971  1.00  0.00     0.039 A 
ATOM     38  C   UNL A   1      42.705  21.940  28.333  1.00  0.00     0.014 A 
ATOM     39  C   UNL A   1      43.771  23.008  26.442  1.00  0.00     0.014 A 
ATOM     40  C   UNL A   1      42.760  23.126  29.046  1.00  0.00     0.010 A 
ATOM     41  C   UNL A   1      43.685  24.216  27.081  1.00  0.00     0.010 A 
ATOM     42  C   UNL A   1      43.099  24.275  28.345  1.00  0.00    -0.014 A 
BRANCH  42  43
ATOM     43  C   UNL A   1      42.921  25.615  28.852  1.00  0.00     0.031 A 
ATOM     44  C   UNL A   1      41.744  26.343  28.375  1.00  0.00     0.074 A 
ATOM     45  C   UNL A   1      43.741  26.038  29.837  1.00  0.00     0.049 A 
ATOM     46  N   UNL A   1      41.605  27.616  28.427  1.00  0.00    -0.248 NA
ATOM     47  C   UNL A   1      40.626  25.666  27.718  1.00  0.00     0.031 C 
ATOM     48  C   UNL A   1      43.606  27.190  30.720  1.00  0.00     0.029 A 
ATOM     49  N   UNL A   1      45.031  25.566  30.090  1.00  0.00    -0.354 N 
ATOM     50  C   UNL A   1      40.290  27.888  28.126  1.00  0.00     0.074 A 
ATOM     51  C   UNL A   1      39.759  26.669  27.574  1.00  0.00     0.031 C 
ATOM     52  C   UNL A   1      44.824  27.511  31.201  1.00  0.00     0.029 A 
ATOM     53  C   UNL A   1      45.793  26.672  30.508  1.00  0.00     0.049 A 
ATOM     54  H   UNL A   1      45.346  24.638  29.993  1.00  0.00     0.167 HD
ATOM     55  C   UNL A   1      39.771  29.071  28.550  1.00  0.00     0.031 A 
ATOM     56  C   UNL A   1      46.786  27.147  29.693  1.00  0.00     0.031 A 
ATOM     57  C   UNL A   1      40.831  29.912  29.107  1.00  0.00     0.049 A 
ATOM     58  C   UNL A   1      46.468  28.526  29.150  1.00  0.00     0.074 A 
ATOM     59  C   UNL A   1      41.266  30.119  30.406  1.00  0.00     0.029 A 
ATOM     60  N   UNL A   1      41.866  30.319  28.272  1.00  0.00    -0.354 N 
ATOM     61  N   UNL A   1      45.259  29.008  29.025  1.00  0.00    -0.248 NA
ATOM     62  C   UNL A   1      47.495  29.470  28.723  1.00  0.00     0.031 C 
ATOM     63  C   UNL A   1      42.623  30.544  30.341  1.00  0.00     0.029 A 
ATOM     64  C   UNL A   1      42.990  30.640  29.009  1.00  0.00     0.049 A 
ATOM     65  H   UNL A   1      41.806  30.372  27.290  1.00  0.00     0.167 HD
ATOM     66  C   UNL A   1      45.326  30.291  28.548  1.00  0.00     0.074 A 
ATOM     67  C   UNL A   1      46.749  30.533  28.375  1.00  0.00     0.031 C 
ATOM     68  C   UNL A   1      44.215  31.060  28.335  1.00  0.00     0.031 A 
BRANCH  55  69
ATOM     69  C   UNL A   1      38.297  29.331  28.739  1.00  0.00    -0.014 A 
ATOM     70  C   UNL A   1      37.526  29.699  27.621  1.00  0.00     0.009 A 
ATOM     71  C   UNL A   1      37.618  29.310  29.970  1.00  0.00     0.009 A 
ATOM     72  C   UNL A   1      36.181  30.077  27.735  1.00  0.00     0.001 A 
ATOM     73  C   UNL A   1      36.277  29.703  30.096  1.00  0.00     0.001 A 
ATOM     74  C   UNL A   1      35.560  30.093  28.976  1.00  0.00     0.000 A 
ENDBRANCH  55  69
BRANCH  56  75
ATOM     75  C   UNL A   1      47.464  26.053  28.925  1.00  0.00    -0.014 A 
ATOM     76  C   UNL A   1      47.046  25.834  27.592  1.00  0.00     0.009 A 
ATOM     77  C   UNL A   1      48.723  25.576  29.312  1.00  0.00     0.009 A 
ATOM     78  C   UNL A   1      47.934  25.331  26.636  1.00  0.00     0.001 A 
ATOM     79  C   UNL A   1      49.596  25.038  28.355  1.00  0.00     0.001 A 
ATOM     80  C   UNL A   1      49.224  24.971  27.011  1.00  0.00     0.000 A 
ENDBRANCH  56  75
BRANCH  68  81
ATOM     81  C   UNL A   1      44.180  32.332  27.516  1.00  0.00    -0.014 A 
ATOM     82  C   UNL A   1      44.345  32.382  26.127  1.00  0.00     0.009 A 
ATOM     83  C   UNL A   1      43.822  33.546  28.147  1.00  0.00     0.009 A 
ATOM     84  C   UNL A   1      44.231  33.583  25.417  1.00  0.00     0.001 A 
ATOM     85  C   UNL A   1      43.637  34.733  27.436  1.00  0.00     0.001 A 
ATOM     86  C   UNL A   1      43.865  34.756  26.070  1.00  0.00     0.000 A 
ENDBRANCH  68  81
ENDBRANCH  42  43
ENDBRANCH  34  37
ENDBRANCH  32  33
ENDBRANCH  31  32
ENDBRANCH  30  31
ENDBRANCH   1  30
TORSDOF 15
ENDMDL
MODEL 2
REMARK VINA RESULT:     -12.7      3.803      9.099
REMARK SMILES Cc1ccc(C(=O)N2CCCC[C@@H]2C(=O)NCCCCNC(=O)c2ccc(-c3c4nc(c(-c5ccccc5)c5ccc([nH]5)c(-c5ccccc5)c5nc(c(-c6ccccc6)c6ccc3[nH]6)C=C5)C=C4)cc2)cc1S(=O)(=O)N1CCCCC1
REMARK SMILES IDX 17 1 16 2 14 3 15 4 13 6 8 7 9 8 10 9 12 10 11 11 6 12 7 13
REMARK SMILES IDX 5 14 1 15 2 16 3 17 73 18 4 19 72 20 74 21 75 22 76 23 77 24
REMARK SMILES IDX 78 25 82 26 79 27 81 28 80 29 18 30 19 31 20 32 21 33 22 34
REMARK SMILES IDX 23 36 24 37 25 38 71 39 26 40 70 41 27 42 28 43 29 44 64 45
REMARK SMILES IDX 30 46 69 47 63 48 65 49 31 50 68 51 62 52 61 53 32 55 54 56
REMARK SMILES IDX 39 57 53 58 40 59 43 60 52 61 66 62 41 63 42 64 51 66 67 67
REMARK SMILES IDX 44 68 33 69 34 70 38 71 35 72 37 73 36 74 55 75 56 76 60 77
REMARK SMILES IDX 57 78 59 79 58 80 45 81 46 82 50 83 47 84 49 85 48 86
REMARK H PARENT 16 5 21 35 65 54 43 65
REMARK Flexibility Score: inf
ROOT
ATOM      1  C   UNL A   1      34.311  28.381  26.438  1.00  0.00     0.116 C 
ENDROOT
BRANCH   1   2
ATOM      2  N   UNL A   1      34.422  28.863  25.072  1.00  0.00    -0.354 N 
ATOM      3  C   UNL A   1      33.567  28.742  24.018  1.00  0.00     0.242 C 
ATOM      4  O   UNL A   1      34.021  28.994  22.899  1.00  0.00    -0.273 OA
ATOM      5  H   UNL A   1      35.251  29.357  24.876  1.00  0.00     0.163 HD
BRANCH   3   6
ATOM      6  C   UNL A   1      32.121  28.213  24.186  1.00  0.00     0.174 C 
ATOM      7  N   UNL A   1      31.817  27.025  23.349  1.00  0.00    -0.327 N 
ATOM      8  C   UNL A   1      30.412  26.681  23.176  1.00  0.00     0.120 C 
ATOM      9  C   UNL A   1      29.573  27.861  22.730  1.00  0.00     0.022 C 
ATOM     10  C   UNL A   1      31.170  29.395  23.892  1.00  0.00     0.035 C 
ATOM     11  C   UNL A   1      29.709  29.000  23.726  1.00  0.00     0.004 C 
BRANCH   7  12
ATOM     12  C   UNL A   1      32.705  25.988  23.046  1.00  0.00     0.254 C 
ATOM     13  O   UNL A   1      33.144  25.828  21.905  1.00  0.00    -0.269 OA
BRANCH  12  14
ATOM     14  C   UNL A   1      33.128  25.008  24.072  1.00  0.00     0.041 A 
ATOM     15  C   UNL A   1      34.452  22.644  27.423  1.00  0.00     0.046 C 
ATOM     16  C   UNL A   1      34.091  23.365  26.167  1.00  0.00    -0.031 A 
ATOM     17  C   UNL A   1      32.949  24.190  26.322  1.00  0.00     0.005 A 
ATOM     18  C   UNL A   1      34.740  23.355  24.919  1.00  0.00     0.086 A 
ATOM     19  C   UNL A   1      32.471  24.998  25.296  1.00  0.00     0.014 A 
ATOM     20  C   UNL A   1      34.260  24.210  23.898  1.00  0.00     0.035 A 
BRANCH  18  21
ATOM     21  S   UNL A   1      36.159  22.404  24.340  1.00  0.00     0.243 S 
ATOM     22  O   UNL A   1      35.863  21.030  24.665  1.00  0.00    -0.207 OA
ATOM     23  O   UNL A   1      36.333  22.807  22.950  1.00  0.00    -0.207 OA
BRANCH  21  24
ATOM     24  N   UNL A   1      37.587  22.816  25.144  1.00  0.00    -0.198 NA
ATOM     25  C   UNL A   1      37.615  24.132  25.810  1.00  0.00     0.102 C 
ATOM     26  C   UNL A   1      38.465  21.697  25.544  1.00  0.00     0.102 C 
ATOM     27  C   UNL A   1      38.902  24.434  26.559  1.00  0.00     0.017 C 
ATOM     28  C   UNL A   1      39.697  22.104  26.340  1.00  0.00     0.017 C 
ATOM     29  C   UNL A   1      39.445  23.237  27.317  1.00  0.00     0.003 C 
ENDBRANCH  21  24
ENDBRANCH  18  21
ENDBRANCH  12  14
ENDBRANCH   7  12
ENDBRANCH   3   6
ENDBRANCH   1   2
BRANCH   1  30
ATOM     30  C   UNL A   1      34.075  29.534  27.424  1.00  0.00     0.023 C 
BRANCH  30  31
ATOM     31  C   UNL A   1      35.317  29.988  28.185  1.00  0.00     0.023 C 
BRANCH  31  32
ATOM     32  C   UNL A   1      35.710  31.428  27.918  1.00  0.00     0.116 C 
BRANCH  32  33
ATOM     33  N   UNL A   1      34.727  32.398  28.383  1.00  0.00    -0.352 N 
ATOM     34  C   UNL A   1      34.751  33.239  29.482  1.00  0.00     0.251 C 
ATOM     35  H   UNL A   1      33.916  32.464  27.829  1.00  0.00     0.163 HD
ATOM     36  O   UNL A   1      33.769  33.929  29.738  1.00  0.00    -0.269 OA
BRANCH  34  37
ATOM     37  C   UNL A   1      36.020  33.463  30.220  1.00  0.00     0.039 A 
ATOM     38  C   UNL A   1      37.078  33.985  29.463  1.00  0.00     0.014 A 
ATOM     39  C   UNL A   1      36.276  32.793  31.408  1.00  0.00     0.014 A 
ATOM     40  C   UNL A   1      38.358  33.504  29.683  1.00  0.00     0.010 A 
ATOM     41  C   UNL A   1      37.499  32.191  31.539  1.00  0.00     0.010 A 
ATOM     42  C   UNL A   1      38.504  32.489  30.619  1.00  0.00    -0.014 A 
BRANCH  42  43
ATOM     43  C   UNL A   1      39.693  31.681  30.759  1.00  0.00     0.031 A 
ATOM     44  C   UNL A   1      39.696  30.395  30.061  1.00  0.00     0.074 A 
ATOM     45  C   UNL A   1      40.763  32.227  31.376  1.00  0.00     0.049 A 
ATOM     46  N   UNL A   1      40.477  29.419  30.338  1.00  0.00    -0.248 NA
ATOM     47  C   UNL A   1      38.733  30.084  29.004  1.00  0.00     0.031 C 
ATOM     48  C   UNL A   1      42.148  31.772  31.393  1.00  0.00     0.029 A 
ATOM     49  N   UNL A   1      40.731  33.254  32.320  1.00  0.00    -0.354 N 
ATOM     50  C   UNL A   1      40.352  28.504  29.318  1.00  0.00     0.074 A 
ATOM     51  C   UNL A   1      39.177  28.898  28.586  1.00  0.00     0.031 C 
ATOM     52  C   UNL A   1      42.762  32.299  32.471  1.00  0.00     0.029 A 
ATOM     53  C   UNL A   1      41.739  32.972  33.260  1.00  0.00     0.049 A 
ATOM     54  H   UNL A   1      40.120  34.026  32.328  1.00  0.00     0.167 HD
ATOM     55  C   UNL A   1      41.372  27.626  29.120  1.00  0.00     0.031 A 
ATOM     56  C   UNL A   1      41.386  32.617  34.534  1.00  0.00     0.031 A 
ATOM     57  C   UNL A   1      42.347  27.739  30.205  1.00  0.00     0.049 A 
ATOM     58  C   UNL A   1      41.741  31.176  34.845  1.00  0.00     0.074 A 
ATOM     59  C   UNL A   1      43.535  28.445  30.317  1.00  0.00     0.029 A 
ATOM     60  N   UNL A   1      41.939  27.441  31.501  1.00  0.00    -0.354 N 
ATOM     61  N   UNL A   1      41.886  30.241  33.942  1.00  0.00    -0.248 NA
ATOM     62  C   UNL A   1      41.977  30.688  36.199  1.00  0.00     0.031 C 
ATOM     63  C   UNL A   1      43.771  28.669  31.703  1.00  0.00     0.029 A 
ATOM     64  C   UNL A   1      42.758  28.061  32.426  1.00  0.00     0.049 A 
ATOM     65  H   UNL A   1      41.171  26.867  31.729  1.00  0.00     0.167 HD
ATOM     66  C   UNL A   1      42.251  29.070  34.551  1.00  0.00     0.074 A 
ATOM     67  C   UNL A   1      42.294  29.402  35.965  1.00  0.00     0.031 C 
ATOM     68  C   UNL A   1      42.493  27.918  33.855  1.00  0.00     0.031 A 
BRANCH  55  69
ATOM     69  C   UNL A   1      41.633  26.908  27.820  1.00  0.00    -0.014 A 
ATOM     70  C   UNL A   1      42.276  25.656  27.855  1.00  0.00     0.009 A 
ATOM     71  C   UNL A   1      41.353  27.416  26.538  1.00  0.00     0.009 A 
ATOM     72  C   UNL A   1      42.665  24.985  26.688  1.00  0.00     0.001 A 
ATOM     73  C   UNL A   1      41.754  26.759  25.366  1.00  0.00     0.001 A 
ATOM     74  C   UNL A   1      42.416  25.544  25.441  1.00  0.00     0.000 A 
ENDBRANCH  55  69
BRANCH  56  75
ATOM     75  C   UNL A   1      40.144  33.317  34.997  1.00  0.00    -0.014 A 
ATOM     76  C   UNL A   1      38.928  32.596  34.945  1.00  0.00     0.009 A 
ATOM     77  C   UNL A   1      40.219  34.429  35.845  1.00  0.00     0.009 A 
ATOM     78  C   UNL A   1      37.897  32.863  35.852  1.00  0.00     0.001 A 
ATOM     79  C   UNL A   1      39.166  34.715  36.726  1.00  0.00     0.001 A 
ATOM     80  C   UNL A   1      38.034  33.898  36.771  1.00  0.00     0.000 A 
ENDBRANCH  56  75
BRANCH  68  81
ATOM     81  C   UNL A   1      42.572  26.533  34.460  1.00  0.00    -0.014 A 
ATOM     82  C   UNL A   1      41.554  25.945  35.220  1.00  0.00     0.009 A 
ATOM     83  C   UNL A   1      43.672  25.704  34.140  1.00  0.00     0.009 A 
ATOM     84  C   UNL A   1      41.658  24.631  35.693  1.00  0.00     0.001 A 
ATOM     85  C   UNL A   1      43.749  24.372  34.549  1.00  0.00     0.001 A 
ATOM     86  C   UNL A   1      42.749  23.841  35.347  1.00  0.00     0.000 A 
ENDBRANCH  68  81
ENDBRANCH  42  43
ENDBRANCH  34  37
ENDBRANCH  32  33
ENDBRANCH  31  32
ENDBRANCH  30  31
ENDBRANCH   1  30
TORSDOF 15
ENDMDL
MODEL 3
REMARK VINA RESULT:     -12.1      1.383      1.851
REMARK SMILES Cc1ccc(C(=O)N2CCCC[C@@H]2C(=O)NCCCCNC(=O)c2ccc(-c3c4nc(c(-c5ccccc5)c5ccc([nH]5)c(-c5ccccc5)c5nc(c(-c6ccccc6)c6ccc3[nH]6)C=C5)C=C4)cc2)cc1S(=O)(=O)N1CCCCC1
REMARK SMILES IDX 17 1 16 2 14 3 15 4 13 6 8 7 9 8 10 9 12 10 11 11 6 12 7 13
REMARK SMILES IDX 5 14 1 15 2 16 3 17 73 18 4 19 72 20 74 21 75 22 76 23 77 24
REMARK SMILES IDX 78 25 82 26 79 27 81 28 80 29 18 30 19 31 20 32 21 33 22 34
REMARK SMILES IDX 23 36 24 37 25 38 71 39 26 40 70 41 27 42 28 43 29 44 64 45
REMARK SMILES IDX 30 46 69 47 63 48 65 49 31 50 68 51 62 52 61 53 32 55 54 56
REMARK SMILES IDX 39 57 53 58 40 59 43 60 52 61 66 62 41 63 42 64 51 66 67 67
REMARK SMILES IDX 44 68 33 69 34 70 38 71 35 72 37 73 36 74 55 75 56 76 60 77
REMARK SMILES IDX 57 78 59 79 58 80 45 81 46 82 50 83 47 84 49 85 48 86
REMARK H PARENT 16 5 21 35 65 54 43 65
REMARK Flexibility Score: inf
ROOT
ATOM      1  C   UNL A   1      36.046  23.546  25.724  1.00  0.00     0.116 C 
ENDROOT
BRANCH   1   2
ATOM      2  N   UNL A   1      35.371  22.753  26.736  1.00  0.00    -0.354 N 
ATOM      3  C   UNL A   1      34.487  21.723  26.610  1.00  0.00     0.242 C 
ATOM      4  O   UNL A   1      33.848  21.408  27.618  1.00  0.00    -0.273 OA
ATOM      5  H   UNL A   1      35.586  22.999  27.665  1.00  0.00     0.163 HD
BRANCH   3   6
ATOM      6  C   UNL A   1      34.208  21.039  25.249  1.00  0.00     0.174 C 
ATOM      7  N   UNL A   1      32.797  21.152  24.800  1.00  0.00    -0.327 N 
ATOM      8  C   UNL A   1      32.371  20.256  23.732  1.00  0.00     0.120 C 
ATOM      9  C   UNL A   1      32.714  18.808  24.013  1.00  0.00     0.022 C 
ATOM     10  C   UNL A   1      34.665  19.568  25.380  1.00  0.00     0.035 C 
ATOM     11  C   UNL A   1      34.209  18.664  24.243  1.00  0.00     0.004 C 
BRANCH   7  12
ATOM     12  C   UNL A   1      31.962  22.256  24.992  1.00  0.00     0.254 C 
ATOM     13  O   UNL A   1      30.961  22.190  25.708  1.00  0.00    -0.269 OA
BRANCH  12  14
ATOM     14  C   UNL A   1      32.219  23.547  24.314  1.00  0.00     0.041 A 
ATOM     15  C   UNL A   1      33.565  27.151  22.372  1.00  0.00     0.046 C 
ATOM     16  C   UNL A   1      32.996  26.001  23.134  1.00  0.00    -0.031 A 
ATOM     17  C   UNL A   1      33.301  24.750  22.541  1.00  0.00     0.005 A 
ATOM     18  C   UNL A   1      32.262  26.006  24.335  1.00  0.00     0.086 A 
ATOM     19  C   UNL A   1      32.921  23.542  23.115  1.00  0.00     0.014 A 
ATOM     20  C   UNL A   1      31.915  24.766  24.923  1.00  0.00     0.035 A 
BRANCH  18  21
ATOM     21  S   UNL A   1      31.647  27.379  25.330  1.00  0.00     0.243 S 
ATOM     22  O   UNL A   1      31.027  26.773  26.484  1.00  0.00    -0.207 OA
ATOM     23  O   UNL A   1      32.795  28.262  25.492  1.00  0.00    -0.207 OA
BRANCH  21  24
ATOM     24  N   UNL A   1      30.457  28.275  24.532  1.00  0.00    -0.198 NA
ATOM     25  C   UNL A   1      30.708  29.720  24.379  1.00  0.00     0.102 C 
ATOM     26  C   UNL A   1      29.548  27.521  23.643  1.00  0.00     0.102 C 
ATOM     27  C   UNL A   1      29.633  30.472  23.613  1.00  0.00     0.017 C 
ATOM     28  C   UNL A   1      28.547  28.376  22.879  1.00  0.00     0.017 C 
ATOM     29  C   UNL A   1      29.111  29.705  22.412  1.00  0.00     0.003 C 
ENDBRANCH  21  24
ENDBRANCH  18  21
ENDBRANCH  12  14
ENDBRANCH   7  12
ENDBRANCH   3   6
ENDBRANCH   1   2
BRANCH   1  30
ATOM     30  C   UNL A   1      37.526  23.157  25.599  1.00  0.00     0.023 C 
BRANCH  30  31
ATOM     31  C   UNL A   1      38.500  24.124  26.265  1.00  0.00     0.023 C 
BRANCH  31  32
ATOM     32  C   UNL A   1      39.533  23.449  27.146  1.00  0.00     0.116 C 
BRANCH  32  33
ATOM     33  N   UNL A   1      40.055  22.208  26.587  1.00  0.00    -0.352 N 
ATOM     34  C   UNL A   1      41.356  21.834  26.301  1.00  0.00     0.251 C 
ATOM     35  H   UNL A   1      39.373  21.528  26.379  1.00  0.00     0.163 HD
ATOM     36  O   UNL A   1      41.569  20.756  25.752  1.00  0.00    -0.269 OA
BRANCH  34  37
ATOM     37  C   UNL A   1      42.493  22.624  26.838  1.00  0.00     0.039 A 
ATOM     38  C   UNL A   1      42.691  22.536  28.223  1.00  0.00     0.014 A 
ATOM     39  C   UNL A   1      43.009  23.696  26.125  1.00  0.00     0.014 A 
ATOM     40  C   UNL A   1      43.044  23.680  28.920  1.00  0.00     0.010 A 
ATOM     41  C   UNL A   1      43.204  24.868  26.806  1.00  0.00     0.010 A 
ATOM     42  C   UNL A   1      43.133  24.862  28.199  1.00  0.00    -0.014 A 
BRANCH  42  43
ATOM     43  C   UNL A   1      43.197  26.174  28.799  1.00  0.00     0.031 A 
ATOM     44  C   UNL A   1      41.950  26.939  28.834  1.00  0.00     0.074 A 
ATOM     45  C   UNL A   1      44.340  26.534  29.423  1.00  0.00     0.049 A 
ATOM     46  N   UNL A   1      41.879  28.208  28.995  1.00  0.00    -0.248 NA
ATOM     47  C   UNL A   1      40.648  26.310  28.614  1.00  0.00     0.031 C 
ATOM     48  C   UNL A   1      44.579  27.637  30.346  1.00  0.00     0.029 A 
ATOM     49  N   UNL A   1      45.615  26.036  29.150  1.00  0.00    -0.354 N 
ATOM     50  C   UNL A   1      40.555  28.509  29.223  1.00  0.00     0.074 A 
ATOM     51  C   UNL A   1      39.820  27.327  28.854  1.00  0.00     0.031 C 
ATOM     52  C   UNL A   1      45.898  27.918  30.349  1.00  0.00     0.029 A 
ATOM     53  C   UNL A   1      46.511  27.110  29.303  1.00  0.00     0.049 A 
ATOM     54  H   UNL A   1      45.843  25.112  28.898  1.00  0.00     0.167 HD
ATOM     55  C   UNL A   1      40.268  29.672  29.867  1.00  0.00     0.031 A 
ATOM     56  C   UNL A   1      47.140  27.619  28.199  1.00  0.00     0.031 A 
ATOM     57  C   UNL A   1      41.484  30.470  30.025  1.00  0.00     0.049 A 
ATOM     58  C   UNL A   1      46.683  29.029  27.881  1.00  0.00     0.074 A 
ATOM     59  C   UNL A   1      42.380  30.601  31.074  1.00  0.00     0.029 A 
ATOM     60  N   UNL A   1      42.142  30.913  28.883  1.00  0.00    -0.354 N 
ATOM     61  N   UNL A   1      45.531  29.530  28.243  1.00  0.00    -0.248 NA
ATOM     62  C   UNL A   1      47.503  29.986  27.145  1.00  0.00     0.031 C 
ATOM     63  C   UNL A   1      43.626  31.015  30.524  1.00  0.00     0.029 A 
ATOM     64  C   UNL A   1      43.470  31.182  29.158  1.00  0.00     0.049 A 
ATOM     65  H   UNL A   1      41.721  31.020  27.999  1.00  0.00     0.167 HD
ATOM     66  C   UNL A   1      45.452  30.836  27.838  1.00  0.00     0.074 A 
ATOM     67  C   UNL A   1      46.713  31.074  27.155  1.00  0.00     0.031 C 
ATOM     68  C   UNL A   1      44.366  31.626  28.094  1.00  0.00     0.031 A 
BRANCH  55  69
ATOM     69  C   UNL A   1      38.981  29.935  30.608  1.00  0.00    -0.014 A 
ATOM     70  C   UNL A   1      38.858  29.479  31.934  1.00  0.00     0.009 A 
ATOM     71  C   UNL A   1      37.836  30.543  30.062  1.00  0.00     0.009 A 
ATOM     72  C   UNL A   1      37.654  29.573  32.646  1.00  0.00     0.001 A 
ATOM     73  C   UNL A   1      36.623  30.626  30.761  1.00  0.00     0.001 A 
ATOM     74  C   UNL A   1      36.531  30.134  32.054  1.00  0.00     0.000 A 
ENDBRANCH  55  69
BRANCH  56  75
ATOM     75  C   UNL A   1      47.448  26.563  27.181  1.00  0.00    -0.014 A 
ATOM     76  C   UNL A   1      46.536  26.398  26.113  1.00  0.00     0.009 A 
ATOM     77  C   UNL A   1      48.753  26.078  27.021  1.00  0.00     0.009 A 
ATOM     78  C   UNL A   1      46.970  25.942  24.864  1.00  0.00     0.001 A 
ATOM     79  C   UNL A   1      49.172  25.587  25.776  1.00  0.00     0.001 A 
ATOM     80  C   UNL A   1      48.300  25.575  24.685  1.00  0.00     0.000 A 
ENDBRANCH  56  75
BRANCH  68  81
ATOM     81  C   UNL A   1      44.064  32.942  27.410  1.00  0.00    -0.014 A 
ATOM     82  C   UNL A   1      43.963  33.107  26.024  1.00  0.00     0.009 A 
ATOM     83  C   UNL A   1      43.721  34.065  28.200  1.00  0.00     0.009 A 
ATOM     84  C   UNL A   1      43.611  34.337  25.455  1.00  0.00     0.001 A 
ATOM     85  C   UNL A   1      43.301  35.273  27.641  1.00  0.00     0.001 A 
ATOM     86  C   UNL A   1      43.268  35.416  26.263  1.00  0.00     0.000 A 
ENDBRANCH  68  81
ENDBRANCH  42  43
ENDBRANCH  34  37
ENDBRANCH  32  33
ENDBRANCH  31  32
ENDBRANCH  30  31
ENDBRANCH   1  30
TORSDOF 15
ENDMDL
