MODEL 1
REMARK VINA RESULT:     -11.8      0.000      0.000
REMARK SMILES CC1(C)[C@H](C(=O)NCCCCNC(=O)c2ccc(-c3c4nc(c(-c5ccccc5)c5ccc([nH]5)c(-c5ccccc5)c5nc(c(-c6ccccc6)c6ccc3[nH]6)C=C5)C=C4)cc2)[C@@H]1C(=O)Nc1ccc(Cl)c(Br)c1
REMARK SMILES IDX 9 1 8 2 7 3 5 4 6 5 4 7 1 8 2 9 3 10 63 11 64 12 65 13 66 14
REMARK SMILES IDX 67 16 68 17 74 18 69 19 72 20 70 21 73 22 71 23 10 24 11 25
REMARK SMILES IDX 12 26 13 27 14 29 15 30 16 31 62 32 17 33 61 34 18 35 19 36
REMARK SMILES IDX 20 37 55 38 21 39 60 40 54 41 56 42 22 43 59 44 53 45 52 46
REMARK SMILES IDX 23 48 45 49 30 50 44 51 31 52 34 53 43 54 57 55 32 56 33 57
REMARK SMILES IDX 42 59 58 60 35 61 24 62 25 63 29 64 26 65 28 66 27 67 46 68
REMARK SMILES IDX 47 69 51 70 48 71 50 72 49 73 36 74 37 75 41 76 38 77 40 78
REMARK SMILES IDX 39 79
REMARK H PARENT 7 6 66 15 12 28 56 47 34 58
REMARK Flexibility Score: inf
ROOT
ATOM      1  C   UNL A   1      36.413  20.099  24.888  1.00  0.00     0.023 C 
ENDROOT
BRANCH   1   2
ATOM      2  C   UNL A   1      34.906  20.330  24.867  1.00  0.00     0.116 C 
BRANCH   2   3
ATOM      3  N   UNL A   1      34.400  20.661  26.179  1.00  0.00    -0.356 N 
ATOM      4  C   UNL A   1      34.080  21.818  26.825  1.00  0.00     0.224 C 
ATOM      5  O   UNL A   1      33.675  21.675  27.981  1.00  0.00    -0.275 OA
ATOM      6  H   UNL A   1      34.251  19.865  26.737  1.00  0.00     0.163 HD
BRANCH   4   7
ATOM      7  C   UNL A   1      34.120  23.213  26.309  1.00  0.00     0.098 C 
ATOM      8  C   UNL A   1      34.561  24.645  24.227  1.00  0.00     0.013 C 
ATOM      9  C   UNL A   1      33.602  23.750  24.988  1.00  0.00    -0.011 C 
ATOM     10  C   UNL A   1      32.797  22.880  24.058  1.00  0.00     0.013 C 
ATOM     11  C   UNL A   1      33.069  24.287  26.335  1.00  0.00     0.098 C 
BRANCH  11  12
ATOM     12  C   UNL A   1      31.691  24.131  26.847  1.00  0.00     0.228 C 
ATOM     13  O   UNL A   1      31.433  23.221  27.630  1.00  0.00    -0.274 OA
ATOM     14  N   UNL A   1      30.690  25.002  26.473  1.00  0.00    -0.326 N 
ATOM     15  H   UNL A   1      29.820  24.840  26.903  1.00  0.00     0.169 HD
BRANCH  14  16
ATOM     16  C   UNL A   1      30.713  26.084  25.579  1.00  0.00     0.042 A 
ATOM     17  C   UNL A   1      30.137  25.884  24.320  1.00  0.00     0.028 A 
ATOM     18  C   UNL A   1      31.240  27.336  25.896  1.00  0.00     0.043 A 
ATOM     19  C   UNL A   1      29.972  26.959  23.443  1.00  0.00     0.024 A 
ATOM     20  C   UNL A   1      31.094  28.412  25.012  1.00  0.00     0.038 A 
ATOM     21  C   UNL A   1      30.434  28.230  23.793  1.00  0.00     0.055 A 
ATOM     22  Br  UNL A   1      31.809  30.085  25.553  1.00  0.00    -0.049 Br
ATOM     23  Cl  UNL A   1      30.155  29.517  22.677  1.00  0.00    -0.083 Cl
ENDBRANCH  14  16
ENDBRANCH  11  12
ENDBRANCH   4   7
ENDBRANCH   2   3
ENDBRANCH   1   2
BRANCH   1  24
ATOM     24  C   UNL A   1      37.245  21.379  24.796  1.00  0.00     0.023 C 
BRANCH  24  25
ATOM     25  C   UNL A   1      38.470  21.421  25.705  1.00  0.00     0.116 C 
BRANCH  25  26
ATOM     26  N   UNL A   1      39.276  20.209  25.643  1.00  0.00    -0.352 N 
ATOM     27  C   UNL A   1      40.596  20.033  25.984  1.00  0.00     0.251 C 
ATOM     28  H   UNL A   1      38.812  19.406  25.311  1.00  0.00     0.163 HD
ATOM     29  O   UNL A   1      41.170  18.973  25.764  1.00  0.00    -0.269 OA
BRANCH  27  30
ATOM     30  C   UNL A   1      41.325  21.160  26.590  1.00  0.00     0.039 A 
ATOM     31  C   UNL A   1      41.940  22.095  25.756  1.00  0.00     0.014 A 
ATOM     32  C   UNL A   1      41.314  21.332  27.976  1.00  0.00     0.014 A 
ATOM     33  C   UNL A   1      42.458  23.267  26.309  1.00  0.00     0.010 A 
ATOM     34  C   UNL A   1      41.775  22.526  28.518  1.00  0.00     0.010 A 
ATOM     35  C   UNL A   1      42.327  23.513  27.684  1.00  0.00    -0.014 A 
BRANCH  35  36
ATOM     36  C   UNL A   1      42.703  24.819  28.276  1.00  0.00     0.031 A 
ATOM     37  C   UNL A   1      41.669  25.888  28.467  1.00  0.00     0.074 A 
ATOM     38  C   UNL A   1      44.000  25.074  28.543  1.00  0.00     0.049 A 
ATOM     39  N   UNL A   1      41.828  27.129  28.850  1.00  0.00    -0.248 NA
ATOM     40  C   UNL A   1      40.278  25.522  28.159  1.00  0.00     0.031 C 
ATOM     41  C   UNL A   1      45.106  24.129  28.367  1.00  0.00     0.029 A 
ATOM     42  N   UNL A   1      44.608  26.214  29.003  1.00  0.00    -0.354 N 
ATOM     43  C   UNL A   1      40.561  27.696  28.814  1.00  0.00     0.074 A 
ATOM     44  C   UNL A   1      39.653  26.678  28.333  1.00  0.00     0.031 C 
ATOM     45  C   UNL A   1      46.253  24.723  28.731  1.00  0.00     0.029 A 
ATOM     46  C   UNL A   1      45.972  26.100  29.121  1.00  0.00     0.049 A 
ATOM     47  H   UNL A   1      44.114  27.035  29.227  1.00  0.00     0.167 HD
ATOM     48  C   UNL A   1      40.188  28.949  29.163  1.00  0.00     0.031 A 
ATOM     49  C   UNL A   1      46.896  27.008  29.486  1.00  0.00     0.031 A 
ATOM     50  C   UNL A   1      41.090  29.958  29.650  1.00  0.00     0.049 A 
ATOM     51  C   UNL A   1      46.460  28.403  29.833  1.00  0.00     0.074 A 
ATOM     52  C   UNL A   1      40.795  31.234  30.096  1.00  0.00     0.029 A 
ATOM     53  N   UNL A   1      42.464  29.806  29.747  1.00  0.00    -0.354 N 
ATOM     54  N   UNL A   1      45.250  28.906  29.856  1.00  0.00    -0.248 NA
ATOM     55  C   UNL A   1      47.519  29.354  30.201  1.00  0.00     0.031 C 
ATOM     56  C   UNL A   1      41.999  31.872  30.419  1.00  0.00     0.029 A 
ATOM     57  C   UNL A   1      43.036  30.976  30.215  1.00  0.00     0.049 A 
ATOM     58  H   UNL A   1      42.959  28.986  29.517  1.00  0.00     0.167 HD
ATOM     59  C   UNL A   1      45.399  30.227  30.254  1.00  0.00     0.074 A 
ATOM     60  C   UNL A   1      46.813  30.444  30.476  1.00  0.00     0.031 C 
ATOM     61  C   UNL A   1      44.447  31.176  30.419  1.00  0.00     0.031 A 
BRANCH  48  62
ATOM     62  C   UNL A   1      38.735  29.298  29.020  1.00  0.00    -0.014 A 
ATOM     63  C   UNL A   1      38.210  29.725  27.790  1.00  0.00     0.009 A 
ATOM     64  C   UNL A   1      37.874  29.174  30.121  1.00  0.00     0.009 A 
ATOM     65  C   UNL A   1      36.858  30.056  27.676  1.00  0.00     0.001 A 
ATOM     66  C   UNL A   1      36.518  29.481  29.997  1.00  0.00     0.001 A 
ATOM     67  C   UNL A   1      36.013  29.930  28.777  1.00  0.00     0.000 A 
ENDBRANCH  48  62
BRANCH  49  68
ATOM     68  C   UNL A   1      48.330  26.627  29.540  1.00  0.00    -0.014 A 
ATOM     69  C   UNL A   1      48.865  26.044  30.699  1.00  0.00     0.009 A 
ATOM     70  C   UNL A   1      49.170  26.837  28.434  1.00  0.00     0.009 A 
ATOM     71  C   UNL A   1      50.215  25.696  30.756  1.00  0.00     0.001 A 
ATOM     72  C   UNL A   1      50.514  26.466  28.487  1.00  0.00     0.001 A 
ATOM     73  C   UNL A   1      51.038  25.902  29.650  1.00  0.00     0.000 A 
ENDBRANCH  49  68
BRANCH  61  74
ATOM     74  C   UNL A   1      44.903  32.532  30.874  1.00  0.00    -0.014 A 
ATOM     75  C   UNL A   1      45.238  33.528  29.944  1.00  0.00     0.009 A 
ATOM     76  C   UNL A   1      44.949  32.830  32.243  1.00  0.00     0.009 A 
ATOM     77  C   UNL A   1      45.633  34.793  30.381  1.00  0.00     0.001 A 
ATOM     78  C   UNL A   1      45.321  34.103  32.676  1.00  0.00     0.001 A 
ATOM     79  C   UNL A   1      45.668  35.082  31.745  1.00  0.00     0.000 A 
ENDBRANCH  61  74
ENDBRANCH  35  36
ENDBRANCH  27  30
ENDBRANCH  25  26
ENDBRANCH  24  25
ENDBRANCH   1  24
TORSDOF 13
ENDMDL
MODEL 2
REMARK VINA RESULT:     -11.7      0.522      5.961
REMARK SMILES CC1(C)[C@H](C(=O)NCCCCNC(=O)c2ccc(-c3c4nc(c(-c5ccccc5)c5ccc([nH]5)c(-c5ccccc5)c5nc(c(-c6ccccc6)c6ccc3[nH]6)C=C5)C=C4)cc2)[C@@H]1C(=O)Nc1ccc(Cl)c(Br)c1
REMARK SMILES IDX 9 1 8 2 7 3 5 4 6 5 4 7 1 8 2 9 3 10 63 11 64 12 65 13 66 14
REMARK SMILES IDX 67 16 68 17 74 18 69 19 72 20 70 21 73 22 71 23 10 24 11 25
REMARK SMILES IDX 12 26 13 27 14 29 15 30 16 31 62 32 17 33 61 34 18 35 19 36
REMARK SMILES IDX 20 37 55 38 21 39 60 40 54 41 56 42 22 43 59 44 53 45 52 46
REMARK SMILES IDX 23 48 45 49 30 50 44 51 31 52 34 53 43 54 57 55 32 56 33 57
REMARK SMILES IDX 42 59 58 60 35 61 24 62 25 63 29 64 26 65 28 66 27 67 46 68
REMARK SMILES IDX 47 69 51 70 48 71 50 72 49 73 36 74 37 75 41 76 38 77 40 78
REMARK SMILES IDX 39 79
REMARK H PARENT 7 6 66 15 12 28 56 47 34 58
REMARK Flexibility Score: inf
ROOT
ATOM      1  C   UNL A   1      36.418  19.995  24.906  1.00  0.00     0.023 C 
ENDROOT
BRANCH   1   2
ATOM      2  C   UNL A   1      34.931  20.324  24.835  1.00  0.00     0.116 C 
BRANCH   2   3
ATOM      3  N   UNL A   1      34.390  20.625  26.141  1.00  0.00    -0.356 N 
ATOM      4  C   UNL A   1      34.059  21.768  26.808  1.00  0.00     0.224 C 
ATOM      5  O   UNL A   1      33.620  21.597  27.947  1.00  0.00    -0.275 OA
ATOM      6  H   UNL A   1      34.219  19.816  26.674  1.00  0.00     0.163 HD
BRANCH   4   7
ATOM      7  C   UNL A   1      34.125  23.175  26.329  1.00  0.00     0.098 C 
ATOM      8  C   UNL A   1      34.604  24.656  24.290  1.00  0.00     0.013 C 
ATOM      9  C   UNL A   1      33.625  23.755  25.019  1.00  0.00    -0.011 C 
ATOM     10  C   UNL A   1      32.815  22.923  24.061  1.00  0.00     0.013 C 
ATOM     11  C   UNL A   1      33.089  24.264  26.376  1.00  0.00     0.098 C 
BRANCH  11  12
ATOM     12  C   UNL A   1      31.705  24.115  26.873  1.00  0.00     0.228 C 
ATOM     13  O   UNL A   1      31.435  23.210  27.658  1.00  0.00    -0.274 OA
ATOM     14  N   UNL A   1      30.712  24.988  26.484  1.00  0.00    -0.326 N 
ATOM     15  H   UNL A   1      29.837  24.831  26.905  1.00  0.00     0.169 HD
BRANCH  14  16
ATOM     16  C   UNL A   1      30.748  26.065  25.585  1.00  0.00     0.042 A 
ATOM     17  C   UNL A   1      30.184  25.862  24.322  1.00  0.00     0.028 A 
ATOM     18  C   UNL A   1      31.278  27.316  25.902  1.00  0.00     0.043 A 
ATOM     19  C   UNL A   1      30.034  26.933  23.437  1.00  0.00     0.024 A 
ATOM     20  C   UNL A   1      31.146  28.388  25.011  1.00  0.00     0.038 A 
ATOM     21  C   UNL A   1      30.498  28.204  23.786  1.00  0.00     0.055 A 
ATOM     22  Br  UNL A   1      31.863  30.062  25.551  1.00  0.00    -0.049 Br
ATOM     23  Cl  UNL A   1      30.235  29.487  22.662  1.00  0.00    -0.083 Cl
ENDBRANCH  14  16
ENDBRANCH  11  12
ENDBRANCH   4   7
ENDBRANCH   2   3
ENDBRANCH   1   2
BRANCH   1  24
ATOM     24  C   UNL A   1      37.338  21.198  24.692  1.00  0.00     0.023 C 
BRANCH  24  25
ATOM     25  C   UNL A   1      38.514  21.294  25.661  1.00  0.00     0.116 C 
BRANCH  25  26
ATOM     26  N   UNL A   1      39.366  20.113  25.651  1.00  0.00    -0.352 N 
ATOM     27  C   UNL A   1      40.687  20.001  26.013  1.00  0.00     0.251 C 
ATOM     28  H   UNL A   1      38.938  19.281  25.343  1.00  0.00     0.163 HD
ATOM     29  O   UNL A   1      41.305  18.957  25.838  1.00  0.00    -0.269 OA
BRANCH  27  30
ATOM     30  C   UNL A   1      41.365  21.177  26.586  1.00  0.00     0.039 A 
ATOM     31  C   UNL A   1      42.003  22.075  25.730  1.00  0.00     0.014 A 
ATOM     32  C   UNL A   1      41.281  21.429  27.958  1.00  0.00     0.014 A 
ATOM     33  C   UNL A   1      42.471  23.288  26.237  1.00  0.00     0.010 A 
ATOM     34  C   UNL A   1      41.692  22.661  28.450  1.00  0.00     0.010 A 
ATOM     35  C   UNL A   1      42.267  23.610  27.588  1.00  0.00    -0.014 A 
BRANCH  35  36
ATOM     36  C   UNL A   1      42.589  24.956  28.120  1.00  0.00     0.031 A 
ATOM     37  C   UNL A   1      43.976  25.267  28.598  1.00  0.00     0.074 A 
ATOM     38  C   UNL A   1      41.601  25.861  28.267  1.00  0.00     0.049 A 
ATOM     39  N   UNL A   1      44.417  26.338  29.206  1.00  0.00    -0.248 NA
ATOM     40  C   UNL A   1      44.995  24.226  28.391  1.00  0.00     0.031 C 
ATOM     41  C   UNL A   1      40.203  25.666  27.874  1.00  0.00     0.029 A 
ATOM     42  N   UNL A   1      41.621  27.122  28.807  1.00  0.00    -0.354 N 
ATOM     43  C   UNL A   1      45.758  26.094  29.468  1.00  0.00     0.074 A 
ATOM     44  C   UNL A   1      46.048  24.760  28.991  1.00  0.00     0.031 C 
ATOM     45  C   UNL A   1      39.505  26.774  28.169  1.00  0.00     0.029 A 
ATOM     46  C   UNL A   1      40.392  27.737  28.812  1.00  0.00     0.049 A 
ATOM     47  H   UNL A   1      42.438  27.546  29.156  1.00  0.00     0.167 HD
ATOM     48  C   UNL A   1      46.668  26.915  30.043  1.00  0.00     0.031 A 
ATOM     49  C   UNL A   1      40.017  28.935  29.297  1.00  0.00     0.031 A 
ATOM     50  C   UNL A   1      46.381  28.244  30.508  1.00  0.00     0.049 A 
ATOM     51  C   UNL A   1      41.038  29.811  29.964  1.00  0.00     0.074 A 
ATOM     52  C   UNL A   1      47.253  29.179  31.040  1.00  0.00     0.029 A 
ATOM     53  N   UNL A   1      45.123  28.827  30.503  1.00  0.00    -0.354 N 
ATOM     54  N   UNL A   1      42.318  29.593  30.147  1.00  0.00    -0.248 NA
ATOM     55  C   UNL A   1      40.562  31.097  30.493  1.00  0.00     0.031 C 
ATOM     56  C   UNL A   1      46.513  30.310  31.401  1.00  0.00     0.029 A 
ATOM     57  C   UNL A   1      45.189  30.095  31.053  1.00  0.00     0.049 A 
ATOM     58  H   UNL A   1      44.305  28.401  30.160  1.00  0.00     0.167 HD
ATOM     59  C   UNL A   1      42.803  30.718  30.799  1.00  0.00     0.074 A 
ATOM     60  C   UNL A   1      41.685  31.623  30.966  1.00  0.00     0.031 C 
ATOM     61  C   UNL A   1      44.063  30.977  31.222  1.00  0.00     0.031 A 
BRANCH  48  62
ATOM     62  C   UNL A   1      48.063  26.385  30.207  1.00  0.00    -0.014 A 
ATOM     63  C   UNL A   1      48.466  25.760  31.398  1.00  0.00     0.009 A 
ATOM     64  C   UNL A   1      48.979  26.489  29.149  1.00  0.00     0.009 A 
ATOM     65  C   UNL A   1      49.770  25.282  31.538  1.00  0.00     0.001 A 
ATOM     66  C   UNL A   1      50.275  25.988  29.283  1.00  0.00     0.001 A 
ATOM     67  C   UNL A   1      50.672  25.393  30.481  1.00  0.00     0.000 A 
ENDBRANCH  48  62
BRANCH  49  68
ATOM     68  C   UNL A   1      38.606  29.377  29.172  1.00  0.00    -0.014 A 
ATOM     69  C   UNL A   1      37.710  29.198  30.237  1.00  0.00     0.009 A 
ATOM     70  C   UNL A   1      38.147  29.986  27.992  1.00  0.00     0.009 A 
ATOM     71  C   UNL A   1      36.380  29.603  30.118  1.00  0.00     0.001 A 
ATOM     72  C   UNL A   1      36.821  30.411  27.886  1.00  0.00     0.001 A 
ATOM     73  C   UNL A   1      35.937  30.213  28.945  1.00  0.00     0.000 A 
ENDBRANCH  49  68
BRANCH  61  74
ATOM     74  C   UNL A   1      44.302  32.296  31.895  1.00  0.00    -0.014 A 
ATOM     75  C   UNL A   1      44.621  33.440  31.147  1.00  0.00     0.009 A 
ATOM     76  C   UNL A   1      44.155  32.407  33.286  1.00  0.00     0.009 A 
ATOM     77  C   UNL A   1      44.811  34.667  31.784  1.00  0.00     0.001 A 
ATOM     78  C   UNL A   1      44.323  33.641  33.917  1.00  0.00     0.001 A 
ATOM     79  C   UNL A   1      44.656  34.767  33.166  1.00  0.00     0.000 A 
ENDBRANCH  61  74
ENDBRANCH  35  36
ENDBRANCH  27  30
ENDBRANCH  25  26
ENDBRANCH  24  25
ENDBRANCH   1  24
TORSDOF 13
ENDMDL
MODEL 3
REMARK VINA RESULT:     -11.4      3.884      8.615
REMARK SMILES CC1(C)[C@H](C(=O)NCCCCNC(=O)c2ccc(-c3c4nc(c(-c5ccccc5)c5ccc([nH]5)c(-c5ccccc5)c5nc(c(-c6ccccc6)c6ccc3[nH]6)C=C5)C=C4)cc2)[C@@H]1C(=O)Nc1ccc(Cl)c(Br)c1
REMARK SMILES IDX 9 1 8 2 7 3 5 4 6 5 4 7 1 8 2 9 3 10 63 11 64 12 65 13 66 14
REMARK SMILES IDX 67 16 68 17 74 18 69 19 72 20 70 21 73 22 71 23 10 24 11 25
REMARK SMILES IDX 12 26 13 27 14 29 15 30 16 31 62 32 17 33 61 34 18 35 19 36
REMARK SMILES IDX 20 37 55 38 21 39 60 40 54 41 56 42 22 43 59 44 53 45 52 46
REMARK SMILES IDX 23 48 45 49 30 50 44 51 31 52 34 53 43 54 57 55 32 56 33 57
REMARK SMILES IDX 42 59 58 60 35 61 24 62 25 63 29 64 26 65 28 66 27 67 46 68
REMARK SMILES IDX 47 69 51 70 48 71 50 72 49 73 36 74 37 75 41 76 38 77 40 78
REMARK SMILES IDX 39 79
REMARK H PARENT 7 6 66 15 12 28 56 47 34 58
REMARK Flexibility Score: inf
ROOT
ATOM      1  C   UNL A   1      31.757  29.015  27.257  1.00  0.00     0.023 C 
ENDROOT
BRANCH   1   2
ATOM      2  C   UNL A   1      32.632  27.803  26.955  1.00  0.00     0.116 C 
BRANCH   2   3
ATOM      3  N   UNL A   1      33.101  27.814  25.589  1.00  0.00    -0.356 N 
ATOM      4  C   UNL A   1      32.643  27.308  24.408  1.00  0.00     0.224 C 
ATOM      5  O   UNL A   1      33.362  27.533  23.431  1.00  0.00    -0.275 OA
ATOM      6  H   UNL A   1      33.950  28.301  25.485  1.00  0.00     0.163 HD
BRANCH   4   7
ATOM      7  C   UNL A   1      31.385  26.559  24.143  1.00  0.00     0.098 C 
ATOM      8  C   UNL A   1      28.832  26.770  24.007  1.00  0.00     0.013 C 
ATOM      9  C   UNL A   1      30.175  26.995  23.338  1.00  0.00    -0.011 C 
ATOM     10  C   UNL A   1      30.192  28.273  22.541  1.00  0.00     0.013 C 
ATOM     11  C   UNL A   1      30.980  25.734  22.953  1.00  0.00     0.098 C 
BRANCH  11  12
ATOM     12  C   UNL A   1      31.774  25.555  21.719  1.00  0.00     0.228 C 
ATOM     13  O   UNL A   1      31.490  26.203  20.715  1.00  0.00    -0.274 OA
ATOM     14  N   UNL A   1      32.840  24.683  21.679  1.00  0.00    -0.326 N 
ATOM     15  H   UNL A   1      33.330  24.669  20.826  1.00  0.00     0.169 HD
BRANCH  14  16
ATOM     16  C   UNL A   1      33.340  23.812  22.659  1.00  0.00     0.042 A 
ATOM     17  C   UNL A   1      32.709  22.571  22.793  1.00  0.00     0.028 A 
ATOM     18  C   UNL A   1      34.440  24.108  23.465  1.00  0.00     0.043 A 
ATOM     19  C   UNL A   1      33.254  21.590  23.627  1.00  0.00     0.024 A 
ATOM     20  C   UNL A   1      34.978  23.134  24.316  1.00  0.00     0.038 A 
ATOM     21  C   UNL A   1      34.400  21.863  24.378  1.00  0.00     0.055 A 
ATOM     22  Br  UNL A   1      36.500  23.621  25.341  1.00  0.00    -0.049 Br
ATOM     23  Cl  UNL A   1      35.040  20.588  25.351  1.00  0.00    -0.083 Cl
ENDBRANCH  14  16
ENDBRANCH  11  12
ENDBRANCH   4   7
ENDBRANCH   2   3
ENDBRANCH   1   2
BRANCH   1  24
ATOM     24  C   UNL A   1      32.128  30.269  26.465  1.00  0.00     0.023 C 
BRANCH  24  25
ATOM     25  C   UNL A   1      33.111  31.207  27.161  1.00  0.00     0.116 C 
BRANCH  25  26
ATOM     26  N   UNL A   1      32.581  32.548  27.367  1.00  0.00    -0.352 N 
ATOM     27  C   UNL A   1      33.103  33.576  28.116  1.00  0.00     0.251 C 
ATOM     28  H   UNL A   1      31.733  32.746  26.906  1.00  0.00     0.163 HD
ATOM     29  O   UNL A   1      32.477  34.615  28.288  1.00  0.00    -0.269 OA
BRANCH  27  30
ATOM     30  C   UNL A   1      34.422  33.392  28.745  1.00  0.00     0.039 A 
ATOM     31  C   UNL A   1      34.501  32.726  29.969  1.00  0.00     0.014 A 
ATOM     32  C   UNL A   1      35.577  33.797  28.072  1.00  0.00     0.014 A 
ATOM     33  C   UNL A   1      35.753  32.370  30.474  1.00  0.00     0.010 A 
ATOM     34  C   UNL A   1      36.819  33.389  28.544  1.00  0.00     0.010 A 
ATOM     35  C   UNL A   1      36.914  32.650  29.736  1.00  0.00    -0.014 A 
BRANCH  35  36
ATOM     36  C   UNL A   1      38.239  32.133  30.152  1.00  0.00     0.031 A 
ATOM     37  C   UNL A   1      38.742  30.826  29.615  1.00  0.00     0.074 A 
ATOM     38  C   UNL A   1      38.940  32.793  31.095  1.00  0.00     0.049 A 
ATOM     39  N   UNL A   1      39.812  30.153  29.953  1.00  0.00    -0.248 NA
ATOM     40  C   UNL A   1      37.919  30.176  28.583  1.00  0.00     0.031 C 
ATOM     41  C   UNL A   1      38.540  34.056  31.722  1.00  0.00     0.029 A 
ATOM     42  N   UNL A   1      40.128  32.482  31.705  1.00  0.00    -0.354 N 
ATOM     43  C   UNL A   1      39.783  28.995  29.188  1.00  0.00     0.074 A 
ATOM     44  C   UNL A   1      38.571  29.037  28.400  1.00  0.00     0.031 C 
ATOM     45  C   UNL A   1      39.476  34.419  32.614  1.00  0.00     0.029 A 
ATOM     46  C   UNL A   1      40.515  33.396  32.655  1.00  0.00     0.049 A 
ATOM     47  H   UNL A   1      40.654  31.680  31.482  1.00  0.00     0.167 HD
ATOM     48  C   UNL A   1      40.692  27.994  29.138  1.00  0.00     0.031 A 
ATOM     49  C   UNL A   1      41.578  33.401  33.480  1.00  0.00     0.031 A 
ATOM     50  C   UNL A   1      41.901  27.958  29.915  1.00  0.00     0.049 A 
ATOM     51  C   UNL A   1      42.552  32.260  33.431  1.00  0.00     0.074 A 
ATOM     52  C   UNL A   1      42.919  27.021  29.882  1.00  0.00     0.029 A 
ATOM     53  N   UNL A   1      42.252  28.898  30.871  1.00  0.00    -0.354 N 
ATOM     54  N   UNL A   1      42.545  31.202  32.657  1.00  0.00    -0.248 NA
ATOM     55  C   UNL A   1      43.680  32.312  34.374  1.00  0.00     0.031 C 
ATOM     56  C   UNL A   1      43.865  27.369  30.853  1.00  0.00     0.029 A 
ATOM     57  C   UNL A   1      43.455  28.546  31.459  1.00  0.00     0.049 A 
ATOM     58  H   UNL A   1      41.724  29.697  31.099  1.00  0.00     0.167 HD
ATOM     59  C   UNL A   1      43.672  30.471  33.006  1.00  0.00     0.074 A 
ATOM     60  C   UNL A   1      44.347  31.211  34.052  1.00  0.00     0.031 C 
ATOM     61  C   UNL A   1      44.106  29.290  32.505  1.00  0.00     0.031 A 
BRANCH  48  62
ATOM     62  C   UNL A   1      40.402  26.848  28.213  1.00  0.00    -0.014 A 
ATOM     63  C   UNL A   1      40.910  26.826  26.905  1.00  0.00     0.009 A 
ATOM     64  C   UNL A   1      39.631  25.765  28.663  1.00  0.00     0.009 A 
ATOM     65  C   UNL A   1      40.622  25.758  26.053  1.00  0.00     0.001 A 
ATOM     66  C   UNL A   1      39.366  24.687  27.817  1.00  0.00     0.001 A 
ATOM     67  C   UNL A   1      39.854  24.688  26.510  1.00  0.00     0.000 A 
ENDBRANCH  48  62
BRANCH  49  68
ATOM     68  C   UNL A   1      41.776  34.526  34.428  1.00  0.00    -0.014 A 
ATOM     69  C   UNL A   1      42.487  35.669  34.031  1.00  0.00     0.009 A 
ATOM     70  C   UNL A   1      41.252  34.469  35.729  1.00  0.00     0.009 A 
ATOM     71  C   UNL A   1      42.684  36.724  34.924  1.00  0.00     0.001 A 
ATOM     72  C   UNL A   1      41.432  35.535  36.612  1.00  0.00     0.001 A 
ATOM     73  C   UNL A   1      42.153  36.659  36.211  1.00  0.00     0.000 A 
ENDBRANCH  49  68
BRANCH  61  74
ATOM     74  C   UNL A   1      45.378  28.732  33.074  1.00  0.00    -0.014 A 
ATOM     75  C   UNL A   1      45.353  27.841  34.158  1.00  0.00     0.009 A 
ATOM     76  C   UNL A   1      46.609  29.061  32.487  1.00  0.00     0.009 A 
ATOM     77  C   UNL A   1      46.541  27.307  34.657  1.00  0.00     0.001 A 
ATOM     78  C   UNL A   1      47.793  28.507  32.974  1.00  0.00     0.001 A 
ATOM     79  C   UNL A   1      47.759  27.635  34.061  1.00  0.00     0.000 A 
ENDBRANCH  61  74
ENDBRANCH  35  36
ENDBRANCH  27  30
ENDBRANCH  25  26
ENDBRANCH  24  25
ENDBRANCH   1  24
TORSDOF 13
ENDMDL
