MODEL 1
REMARK VINA RESULT:     -10.5      0.000      0.000
REMARK SMILES CC(C)CC1(CNc2ccnc(C(=O)NCCCCNC(=O)c3ccc(-c4c5nc(c(-c6ccccc6)c6ccc([nH]6)c(-c6ccccc6)c6nc(c(-c7ccccc7)c7ccc4[nH]7)C=C6)C=C5)cc3)c2)CCCC1
REMARK SMILES IDX 16 1 15 2 13 3 14 4 12 6 8 7 9 8 71 9 10 10 11 11 7 12 6 14
REMARK SMILES IDX 5 15 72 16 75 17 73 18 74 19 4 20 2 21 1 22 3 23 17 24 18 25
REMARK SMILES IDX 19 26 20 27 21 28 22 30 23 31 24 32 70 33 25 34 69 35 26 36
REMARK SMILES IDX 27 37 28 38 63 39 29 40 68 41 62 42 64 43 30 44 67 45 61 46
REMARK SMILES IDX 60 47 31 49 53 50 38 51 52 52 39 53 42 54 51 55 65 56 40 57
REMARK SMILES IDX 41 58 50 60 66 61 43 62 32 63 33 64 37 65 34 66 36 67 35 68
REMARK SMILES IDX 54 69 55 70 59 71 56 72 58 73 57 74 44 75 45 76 49 77 46 78
REMARK SMILES IDX 48 79 47 80
REMARK H PARENT 15 5 7 13 20 29 64 48 42 59
REMARK Flexibility Score: inf
ROOT
ATOM      1  C   UNL A   1      32.695  28.955  23.471  1.00  0.00     0.116 C 
ENDROOT
BRANCH   1   2
ATOM      2  N   UNL A   1      33.174  28.063  22.436  1.00  0.00    -0.351 N 
ATOM      3  C   UNL A   1      33.119  26.698  22.247  1.00  0.00     0.269 C 
ATOM      4  O   UNL A   1      33.639  26.297  21.201  1.00  0.00    -0.268 OA
ATOM      5  H   UNL A   1      33.642  28.533  21.709  1.00  0.00     0.163 HD
BRANCH   3   6
ATOM      6  C   UNL A   1      32.479  25.708  23.193  1.00  0.00     0.130 A 
ATOM      7  C   UNL A   1      32.469  24.119  25.015  1.00  0.00     0.038 A 
ATOM      8  C   UNL A   1      31.122  23.897  24.772  1.00  0.00     0.046 A 
ATOM      9  C   UNL A   1      33.154  25.005  24.179  1.00  0.00     0.060 A 
ATOM     10  C   UNL A   1      30.509  24.621  23.766  1.00  0.00     0.114 A 
ATOM     11  N   UNL A   1      31.149  25.520  22.988  1.00  0.00    -0.251 NA
BRANCH   7  12
ATOM     12  N   UNL A   1      33.179  23.469  26.004  1.00  0.00    -0.384 N 
ATOM     13  H   UNL A   1      32.673  22.968  26.685  1.00  0.00     0.160 HD
BRANCH  12  14
ATOM     14  C   UNL A   1      34.631  23.478  26.102  1.00  0.00     0.119 C 
BRANCH  14  15
ATOM     15  C   UNL A   1      35.247  22.210  25.413  1.00  0.00    -0.012 C 
ATOM     16  C   UNL A   1      36.689  22.003  25.910  1.00  0.00     0.009 C 
ATOM     17  C   UNL A   1      35.518  22.451  23.909  1.00  0.00     0.009 C 
ATOM     18  C   UNL A   1      37.510  23.067  25.187  1.00  0.00     0.001 C 
ATOM     19  C   UNL A   1      36.816  23.258  23.841  1.00  0.00     0.001 C 
BRANCH  15  20
ATOM     20  C   UNL A   1      34.289  21.005  25.657  1.00  0.00     0.012 C 
BRANCH  20  21
ATOM     21  C   UNL A   1      33.768  20.190  24.451  1.00  0.00    -0.017 C 
ATOM     22  C   UNL A   1      34.119  18.701  24.554  1.00  0.00     0.007 C 
ATOM     23  C   UNL A   1      32.237  20.307  24.380  1.00  0.00     0.007 C 
ENDBRANCH  20  21
ENDBRANCH  15  20
ENDBRANCH  14  15
ENDBRANCH  12  14
ENDBRANCH   7  12
ENDBRANCH   3   6
ENDBRANCH   1   2
BRANCH   1  24
ATOM     24  C   UNL A   1      33.545  28.840  24.739  1.00  0.00     0.023 C 
BRANCH  24  25
ATOM     25  C   UNL A   1      32.771  28.364  25.975  1.00  0.00     0.023 C 
BRANCH  25  26
ATOM     26  C   UNL A   1      33.435  28.669  27.317  1.00  0.00     0.116 C 
BRANCH  26  27
ATOM     27  N   UNL A   1      33.472  30.087  27.640  1.00  0.00    -0.352 N 
ATOM     28  C   UNL A   1      34.522  30.817  28.143  1.00  0.00     0.251 C 
ATOM     29  H   UNL A   1      32.639  30.587  27.479  1.00  0.00     0.163 HD
ATOM     30  O   UNL A   1      34.373  31.996  28.448  1.00  0.00    -0.269 OA
BRANCH  28  31
ATOM     31  C   UNL A   1      35.823  30.154  28.358  1.00  0.00     0.039 A 
ATOM     32  C   UNL A   1      36.744  30.127  27.308  1.00  0.00     0.014 A 
ATOM     33  C   UNL A   1      36.149  29.605  29.600  1.00  0.00     0.014 A 
ATOM     34  C   UNL A   1      38.023  29.613  27.526  1.00  0.00     0.010 A 
ATOM     35  C   UNL A   1      37.442  29.152  29.835  1.00  0.00     0.010 A 
ATOM     36  C   UNL A   1      38.393  29.158  28.802  1.00  0.00    -0.014 A 
BRANCH  36  37
ATOM     37  C   UNL A   1      39.776  28.699  29.083  1.00  0.00     0.031 A 
ATOM     38  C   UNL A   1      40.765  29.630  29.724  1.00  0.00     0.074 A 
ATOM     39  C   UNL A   1      40.159  27.469  28.692  1.00  0.00     0.049 A 
ATOM     40  N   UNL A   1      42.032  29.432  29.989  1.00  0.00    -0.248 NA
ATOM     41  C   UNL A   1      40.275  30.968  30.092  1.00  0.00     0.031 C 
ATOM     42  C   UNL A   1      39.306  26.487  28.018  1.00  0.00     0.029 A 
ATOM     43  N   UNL A   1      41.373  26.837  28.799  1.00  0.00    -0.354 N 
ATOM     44  C   UNL A   1      42.492  30.623  30.535  1.00  0.00     0.074 A 
ATOM     45  C   UNL A   1      41.384  31.551  30.521  1.00  0.00     0.031 C 
ATOM     46  C   UNL A   1      40.016  25.369  27.794  1.00  0.00     0.029 A 
ATOM     47  C   UNL A   1      41.380  25.567  28.276  1.00  0.00     0.049 A 
ATOM     48  H   UNL A   1      42.163  27.254  29.212  1.00  0.00     0.167 HD
ATOM     49  C   UNL A   1      43.723  30.912  31.020  1.00  0.00     0.031 A 
ATOM     50  C   UNL A   1      42.374  24.664  28.190  1.00  0.00     0.031 A 
ATOM     51  C   UNL A   1      44.821  29.984  31.047  1.00  0.00     0.049 A 
ATOM     52  C   UNL A   1      43.730  25.008  28.737  1.00  0.00     0.074 A 
ATOM     53  C   UNL A   1      46.089  30.164  31.574  1.00  0.00     0.029 A 
ATOM     54  N   UNL A   1      44.782  28.702  30.523  1.00  0.00    -0.354 N 
ATOM     55  N   UNL A   1      44.130  26.115  29.314  1.00  0.00    -0.248 NA
ATOM     56  C   UNL A   1      44.769  23.973  28.630  1.00  0.00     0.031 C 
ATOM     57  C   UNL A   1      46.831  29.003  31.331  1.00  0.00     0.029 A 
ATOM     58  C   UNL A   1      46.009  28.085  30.697  1.00  0.00     0.049 A 
ATOM     59  H   UNL A   1      43.999  28.291  30.092  1.00  0.00     0.167 HD
ATOM     60  C   UNL A   1      45.456  25.901  29.663  1.00  0.00     0.074 A 
ATOM     61  C   UNL A   1      45.789  24.555  29.246  1.00  0.00     0.031 C 
ATOM     62  C   UNL A   1      46.322  26.744  30.276  1.00  0.00     0.031 A 
BRANCH  49  63
ATOM     63  C   UNL A   1      43.942  32.298  31.560  1.00  0.00    -0.014 A 
ATOM     64  C   UNL A   1      43.692  32.599  32.908  1.00  0.00     0.009 A 
ATOM     65  C   UNL A   1      44.428  33.307  30.716  1.00  0.00     0.009 A 
ATOM     66  C   UNL A   1      43.888  33.894  33.391  1.00  0.00     0.001 A 
ATOM     67  C   UNL A   1      44.651  34.595  31.208  1.00  0.00     0.001 A 
ATOM     68  C   UNL A   1      44.371  34.890  32.542  1.00  0.00     0.000 A 
ENDBRANCH  49  63
BRANCH  50  69
ATOM     69  C   UNL A   1      42.120  23.333  27.579  1.00  0.00    -0.014 A 
ATOM     70  C   UNL A   1      42.518  23.073  26.258  1.00  0.00     0.009 A 
ATOM     71  C   UNL A   1      41.475  22.322  28.306  1.00  0.00     0.009 A 
ATOM     72  C   UNL A   1      42.253  21.834  25.671  1.00  0.00     0.001 A 
ATOM     73  C   UNL A   1      41.234  21.075  27.724  1.00  0.00     0.001 A 
ATOM     74  C   UNL A   1      41.615  20.835  26.405  1.00  0.00     0.000 A 
ENDBRANCH  50  69
BRANCH  62  75
ATOM     75  C   UNL A   1      47.701  26.223  30.561  1.00  0.00    -0.014 A 
ATOM     76  C   UNL A   1      48.696  26.214  29.571  1.00  0.00     0.009 A 
ATOM     77  C   UNL A   1      48.019  25.771  31.851  1.00  0.00     0.009 A 
ATOM     78  C   UNL A   1      49.975  25.735  29.862  1.00  0.00     0.001 A 
ATOM     79  C   UNL A   1      49.305  25.316  32.145  1.00  0.00     0.001 A 
ATOM     80  C   UNL A   1      50.280  25.292  31.149  1.00  0.00     0.000 A 
ENDBRANCH  62  75
ENDBRANCH  36  37
ENDBRANCH  28  31
ENDBRANCH  26  27
ENDBRANCH  25  26
ENDBRANCH  24  25
ENDBRANCH   1  24
TORSDOF 16
ENDMDL
MODEL 2
REMARK VINA RESULT:     -10.1      3.027      4.423
REMARK SMILES CC(C)CC1(CNc2ccnc(C(=O)NCCCCNC(=O)c3ccc(-c4c5nc(c(-c6ccccc6)c6ccc([nH]6)c(-c6ccccc6)c6nc(c(-c7ccccc7)c7ccc4[nH]7)C=C6)C=C5)cc3)c2)CCCC1
REMARK SMILES IDX 16 1 15 2 13 3 14 4 12 6 8 7 9 8 71 9 10 10 11 11 7 12 6 14
REMARK SMILES IDX 5 15 72 16 75 17 73 18 74 19 4 20 2 21 1 22 3 23 17 24 18 25
REMARK SMILES IDX 19 26 20 27 21 28 22 30 23 31 24 32 70 33 25 34 69 35 26 36
REMARK SMILES IDX 27 37 28 38 63 39 29 40 68 41 62 42 64 43 30 44 67 45 61 46
REMARK SMILES IDX 60 47 31 49 53 50 38 51 52 52 39 53 42 54 51 55 65 56 40 57
REMARK SMILES IDX 41 58 50 60 66 61 43 62 32 63 33 64 37 65 34 66 36 67 35 68
REMARK SMILES IDX 54 69 55 70 59 71 56 72 58 73 57 74 44 75 45 76 49 77 46 78
REMARK SMILES IDX 48 79 47 80
REMARK H PARENT 15 5 7 13 20 29 64 48 42 59
REMARK Flexibility Score: inf
ROOT
ATOM      1  C   UNL A   1      31.476  29.945  25.172  1.00  0.00     0.116 C 
ENDROOT
BRANCH   1   2
ATOM      2  N   UNL A   1      32.655  29.593  24.408  1.00  0.00    -0.351 N 
ATOM      3  C   UNL A   1      33.203  28.400  23.987  1.00  0.00     0.269 C 
ATOM      4  O   UNL A   1      34.236  28.509  23.321  1.00  0.00    -0.268 OA
ATOM      5  H   UNL A   1      33.181  30.377  24.129  1.00  0.00     0.163 HD
BRANCH   3   6
ATOM      6  C   UNL A   1      32.635  27.028  24.269  1.00  0.00     0.130 A 
ATOM      7  C   UNL A   1      32.613  24.840  25.296  1.00  0.00     0.038 A 
ATOM      8  C   UNL A   1      31.452  24.556  24.594  1.00  0.00     0.046 A 
ATOM      9  C   UNL A   1      33.226  26.078  25.087  1.00  0.00     0.060 A 
ATOM     10  C   UNL A   1      30.918  25.542  23.784  1.00  0.00     0.114 A 
ATOM     11  N   UNL A   1      31.472  26.762  23.618  1.00  0.00    -0.251 NA
BRANCH   7  12
ATOM     12  N   UNL A   1      33.225  23.941  26.146  1.00  0.00    -0.384 N 
ATOM     13  H   UNL A   1      32.666  23.484  26.817  1.00  0.00     0.160 HD
BRANCH  12  14
ATOM     14  C   UNL A   1      34.645  23.628  26.113  1.00  0.00     0.119 C 
BRANCH  14  15
ATOM     15  C   UNL A   1      34.912  22.325  25.281  1.00  0.00    -0.012 C 
ATOM     16  C   UNL A   1      36.249  21.698  25.718  1.00  0.00     0.009 C 
ATOM     17  C   UNL A   1      35.242  22.648  23.804  1.00  0.00     0.009 C 
ATOM     18  C   UNL A   1      37.321  22.585  25.090  1.00  0.00     0.001 C 
ATOM     19  C   UNL A   1      36.706  23.094  23.789  1.00  0.00     0.001 C 
BRANCH  15  20
ATOM     20  C   UNL A   1      33.673  21.391  25.420  1.00  0.00     0.012 C 
BRANCH  20  21
ATOM     21  C   UNL A   1      33.496  20.209  24.439  1.00  0.00    -0.017 C 
ATOM     22  C   UNL A   1      33.190  18.890  25.160  1.00  0.00     0.007 C 
ATOM     23  C   UNL A   1      32.325  20.506  23.490  1.00  0.00     0.007 C 
ENDBRANCH  20  21
ENDBRANCH  15  20
ENDBRANCH  14  15
ENDBRANCH  12  14
ENDBRANCH   7  12
ENDBRANCH   3   6
ENDBRANCH   1   2
BRANCH   1  24
ATOM     24  C   UNL A   1      31.849  30.435  26.573  1.00  0.00     0.023 C 
BRANCH  24  25
ATOM     25  C   UNL A   1      31.547  31.919  26.820  1.00  0.00     0.023 C 
BRANCH  25  26
ATOM     26  C   UNL A   1      32.757  32.777  27.186  1.00  0.00     0.116 C 
BRANCH  26  27
ATOM     27  N   UNL A   1      32.409  34.122  27.618  1.00  0.00    -0.352 N 
ATOM     28  C   UNL A   1      33.028  34.898  28.569  1.00  0.00     0.251 C 
ATOM     29  H   UNL A   1      31.631  34.529  27.172  1.00  0.00     0.163 HD
ATOM     30  O   UNL A   1      32.562  35.987  28.886  1.00  0.00    -0.269 OA
BRANCH  28  31
ATOM     31  C   UNL A   1      34.237  34.383  29.242  1.00  0.00     0.039 A 
ATOM     32  C   UNL A   1      34.087  33.640  30.415  1.00  0.00     0.014 A 
ATOM     33  C   UNL A   1      35.504  34.593  28.693  1.00  0.00     0.014 A 
ATOM     34  C   UNL A   1      35.205  33.043  31.000  1.00  0.00     0.010 A 
ATOM     35  C   UNL A   1      36.607  33.946  29.240  1.00  0.00     0.010 A 
ATOM     36  C   UNL A   1      36.467  33.160  30.394  1.00  0.00    -0.014 A 
BRANCH  36  37
ATOM     37  C   UNL A   1      37.650  32.453  30.942  1.00  0.00     0.031 A 
ATOM     38  C   UNL A   1      38.343  32.978  32.167  1.00  0.00     0.074 A 
ATOM     39  C   UNL A   1      38.143  31.381  30.293  1.00  0.00     0.049 A 
ATOM     40  N   UNL A   1      39.425  32.535  32.756  1.00  0.00    -0.248 NA
ATOM     41  C   UNL A   1      37.760  34.173  32.799  1.00  0.00     0.031 C 
ATOM     42  C   UNL A   1      37.588  30.801  29.068  1.00  0.00     0.029 A 
ATOM     43  N   UNL A   1      39.231  30.592  30.571  1.00  0.00    -0.354 N 
ATOM     44  C   UNL A   1      39.662  33.406  33.811  1.00  0.00     0.074 A 
ATOM     45  C   UNL A   1      38.640  34.427  33.756  1.00  0.00     0.031 C 
ATOM     46  C   UNL A   1      38.325  29.735  28.714  1.00  0.00     0.029 A 
ATOM     47  C   UNL A   1      39.421  29.578  29.665  1.00  0.00     0.049 A 
ATOM     48  H   UNL A   1      39.819  30.739  31.347  1.00  0.00     0.167 HD
ATOM     49  C   UNL A   1      40.634  33.350  34.754  1.00  0.00     0.031 A 
ATOM     50  C   UNL A   1      40.374  28.629  29.604  1.00  0.00     0.031 A 
ATOM     51  C   UNL A   1      41.642  32.327  34.818  1.00  0.00     0.049 A 
ATOM     52  C   UNL A   1      41.440  28.588  30.662  1.00  0.00     0.074 A 
ATOM     53  C   UNL A   1      42.632  32.150  35.769  1.00  0.00     0.029 A 
ATOM     54  N   UNL A   1      41.790  31.307  33.891  1.00  0.00    -0.354 N 
ATOM     55  N   UNL A   1      41.608  29.378  31.695  1.00  0.00    -0.248 NA
ATOM     56  C   UNL A   1      42.440  27.517  30.551  1.00  0.00     0.031 C 
ATOM     57  C   UNL A   1      43.406  31.047  35.394  1.00  0.00     0.029 A 
ATOM     58  C   UNL A   1      42.866  30.508  34.237  1.00  0.00     0.049 A 
ATOM     59  H   UNL A   1      41.215  31.171  33.104  1.00  0.00     0.167 HD
ATOM     60  C   UNL A   1      42.716  28.884  32.370  1.00  0.00     0.074 A 
ATOM     61  C   UNL A   1      43.170  27.720  31.640  1.00  0.00     0.031 C 
ATOM     62  C   UNL A   1      43.304  29.353  33.498  1.00  0.00     0.031 A 
BRANCH  49  63
ATOM     63  C   UNL A   1      40.649  34.437  35.792  1.00  0.00    -0.014 A 
ATOM     64  C   UNL A   1      41.486  35.556  35.659  1.00  0.00     0.009 A 
ATOM     65  C   UNL A   1      39.797  34.353  36.904  1.00  0.00     0.009 A 
ATOM     66  C   UNL A   1      41.498  36.550  36.638  1.00  0.00     0.001 A 
ATOM     67  C   UNL A   1      39.790  35.363  37.867  1.00  0.00     0.001 A 
ATOM     68  C   UNL A   1      40.647  36.455  37.739  1.00  0.00     0.000 A 
ENDBRANCH  49  63
BRANCH  50  69
ATOM     69  C   UNL A   1      40.352  27.622  28.512  1.00  0.00    -0.014 A 
ATOM     70  C   UNL A   1      41.045  27.861  27.315  1.00  0.00     0.009 A 
ATOM     71  C   UNL A   1      39.637  26.424  28.655  1.00  0.00     0.009 A 
ATOM     72  C   UNL A   1      41.001  26.930  26.274  1.00  0.00     0.001 A 
ATOM     73  C   UNL A   1      39.617  25.483  27.623  1.00  0.00     0.001 A 
ATOM     74  C   UNL A   1      40.290  25.741  26.431  1.00  0.00     0.000 A 
ENDBRANCH  50  69
BRANCH  62  75
ATOM     75  C   UNL A   1      44.482  28.587  34.027  1.00  0.00    -0.014 A 
ATOM     76  C   UNL A   1      45.794  28.924  33.661  1.00  0.00     0.009 A 
ATOM     77  C   UNL A   1      44.275  27.537  34.935  1.00  0.00     0.009 A 
ATOM     78  C   UNL A   1      46.875  28.204  34.174  1.00  0.00     0.001 A 
ATOM     79  C   UNL A   1      45.359  26.836  35.465  1.00  0.00     0.001 A 
ATOM     80  C   UNL A   1      46.657  27.166  35.079  1.00  0.00     0.000 A 
ENDBRANCH  62  75
ENDBRANCH  36  37
ENDBRANCH  28  31
ENDBRANCH  26  27
ENDBRANCH  25  26
ENDBRANCH  24  25
ENDBRANCH   1  24
TORSDOF 16
ENDMDL
MODEL 3
REMARK VINA RESULT:     -10.1      4.293     10.026
REMARK SMILES CC(C)CC1(CNc2ccnc(C(=O)NCCCCNC(=O)c3ccc(-c4c5nc(c(-c6ccccc6)c6ccc([nH]6)c(-c6ccccc6)c6nc(c(-c7ccccc7)c7ccc4[nH]7)C=C6)C=C5)cc3)c2)CCCC1
REMARK SMILES IDX 16 1 15 2 13 3 14 4 12 6 8 7 9 8 71 9 10 10 11 11 7 12 6 14
REMARK SMILES IDX 5 15 72 16 75 17 73 18 74 19 4 20 2 21 1 22 3 23 17 24 18 25
REMARK SMILES IDX 19 26 20 27 21 28 22 30 23 31 24 32 70 33 25 34 69 35 26 36
REMARK SMILES IDX 27 37 28 38 63 39 29 40 68 41 62 42 64 43 30 44 67 45 61 46
REMARK SMILES IDX 60 47 31 49 53 50 38 51 52 52 39 53 42 54 51 55 65 56 40 57
REMARK SMILES IDX 41 58 50 60 66 61 43 62 32 63 33 64 37 65 34 66 36 67 35 68
REMARK SMILES IDX 54 69 55 70 59 71 56 72 58 73 57 74 44 75 45 76 49 77 46 78
REMARK SMILES IDX 48 79 47 80
REMARK H PARENT 15 5 7 13 20 29 64 48 42 59
REMARK Flexibility Score: inf
ROOT
ATOM      1  C   UNL A   1      42.383  18.920  26.136  1.00  0.00     0.116 C 
ENDROOT
BRANCH   1   2
ATOM      2  N   UNL A   1      43.693  18.358  25.885  1.00  0.00    -0.351 N 
ATOM      3  C   UNL A   1      44.865  18.859  25.359  1.00  0.00     0.269 C 
ATOM      4  O   UNL A   1      45.803  18.056  25.322  1.00  0.00    -0.268 OA
ATOM      5  H   UNL A   1      43.762  17.412  26.147  1.00  0.00     0.163 HD
BRANCH   3   6
ATOM      6  C   UNL A   1      45.068  20.271  24.857  1.00  0.00     0.130 A 
ATOM      7  C   UNL A   1      45.870  22.546  24.999  1.00  0.00     0.038 A 
ATOM      8  C   UNL A   1      45.268  22.801  23.777  1.00  0.00     0.046 A 
ATOM      9  C   UNL A   1      45.722  21.273  25.556  1.00  0.00     0.060 A 
ATOM     10  C   UNL A   1      44.619  21.762  23.135  1.00  0.00     0.114 A 
ATOM     11  N   UNL A   1      44.517  20.513  23.639  1.00  0.00    -0.251 NA
BRANCH   7  12
ATOM     12  N   UNL A   1      46.560  23.500  25.719  1.00  0.00    -0.384 N 
ATOM     13  H   UNL A   1      47.075  23.205  26.505  1.00  0.00     0.160 HD
BRANCH  12  14
ATOM     14  C   UNL A   1      46.574  24.917  25.387  1.00  0.00     0.119 C 
BRANCH  14  15
ATOM     15  C   UNL A   1      45.826  25.756  26.482  1.00  0.00    -0.012 C 
ATOM     16  C   UNL A   1      44.681  24.919  27.080  1.00  0.00     0.009 C 
ATOM     17  C   UNL A   1      45.009  26.912  25.856  1.00  0.00     0.009 C 
ATOM     18  C   UNL A   1      43.590  24.926  26.012  1.00  0.00     0.001 C 
ATOM     19  C   UNL A   1      43.731  26.273  25.308  1.00  0.00     0.001 C 
BRANCH  15  20
ATOM     20  C   UNL A   1      46.877  26.264  27.514  1.00  0.00     0.012 C 
BRANCH  20  21
ATOM     21  C   UNL A   1      47.494  25.270  28.524  1.00  0.00    -0.017 C 
ATOM     22  C   UNL A   1      49.013  25.434  28.654  1.00  0.00     0.007 C 
ATOM     23  C   UNL A   1      46.877  25.507  29.912  1.00  0.00     0.007 C 
ENDBRANCH  20  21
ENDBRANCH  15  20
ENDBRANCH  14  15
ENDBRANCH  12  14
ENDBRANCH   7  12
ENDBRANCH   3   6
ENDBRANCH   1   2
BRANCH   1  24
ATOM     24  C   UNL A   1      42.347  19.671  27.470  1.00  0.00     0.023 C 
BRANCH  24  25
ATOM     25  C   UNL A   1      42.352  21.199  27.331  1.00  0.00     0.023 C 
BRANCH  25  26
ATOM     26  C   UNL A   1      41.078  21.899  27.802  1.00  0.00     0.116 C 
BRANCH  26  27
ATOM     27  N   UNL A   1      40.000  21.868  26.824  1.00  0.00    -0.352 N 
ATOM     28  C   UNL A   1      39.188  22.901  26.420  1.00  0.00     0.251 C 
ATOM     29  H   UNL A   1      39.831  20.997  26.398  1.00  0.00     0.163 HD
ATOM     30  O   UNL A   1      38.260  22.697  25.644  1.00  0.00    -0.269 OA
BRANCH  28  31
ATOM     31  C   UNL A   1      39.415  24.252  26.969  1.00  0.00     0.039 A 
ATOM     32  C   UNL A   1      39.026  24.516  28.284  1.00  0.00     0.014 A 
ATOM     33  C   UNL A   1      40.050  25.235  26.207  1.00  0.00     0.014 A 
ATOM     34  C   UNL A   1      39.340  25.747  28.862  1.00  0.00     0.010 A 
ATOM     35  C   UNL A   1      40.418  26.437  26.802  1.00  0.00     0.010 A 
ATOM     36  C   UNL A   1      40.073  26.701  28.137  1.00  0.00    -0.014 A 
BRANCH  36  37
ATOM     37  C   UNL A   1      40.503  27.976  28.762  1.00  0.00     0.031 A 
ATOM     38  C   UNL A   1      39.526  29.105  28.926  1.00  0.00     0.074 A 
ATOM     39  C   UNL A   1      41.792  28.140  29.115  1.00  0.00     0.049 A 
ATOM     40  N   UNL A   1      39.731  30.312  29.390  1.00  0.00    -0.248 NA
ATOM     41  C   UNL A   1      38.144  28.855  28.486  1.00  0.00     0.031 C 
ATOM     42  C   UNL A   1      42.849  27.136  28.964  1.00  0.00     0.029 A 
ATOM     43  N   UNL A   1      42.436  29.220  29.665  1.00  0.00    -0.354 N 
ATOM     44  C   UNL A   1      38.513  30.968  29.280  1.00  0.00     0.074 A 
ATOM     45  C   UNL A   1      37.587  30.043  28.665  1.00  0.00     0.031 C 
ATOM     46  C   UNL A   1      44.002  27.639  29.434  1.00  0.00     0.029 A 
ATOM     47  C   UNL A   1      43.775  29.009  29.885  1.00  0.00     0.049 A 
ATOM     48  H   UNL A   1      41.981  30.065  29.882  1.00  0.00     0.167 HD
ATOM     49  C   UNL A   1      38.188  32.224  29.672  1.00  0.00     0.031 A 
ATOM     50  C   UNL A   1      44.717  29.828  30.390  1.00  0.00     0.031 A 
ATOM     51  C   UNL A   1      39.105  33.139  30.297  1.00  0.00     0.049 A 
ATOM     52  C   UNL A   1      44.331  31.215  30.819  1.00  0.00     0.074 A 
ATOM     53  C   UNL A   1      38.856  34.410  30.785  1.00  0.00     0.029 A 
ATOM     54  N   UNL A   1      40.448  32.880  30.518  1.00  0.00    -0.354 N 
ATOM     55  N   UNL A   1      43.157  31.797  30.773  1.00  0.00    -0.248 NA
ATOM     56  C   UNL A   1      45.400  32.055  31.380  1.00  0.00     0.031 C 
ATOM     57  C   UNL A   1      40.059  34.937  31.264  1.00  0.00     0.029 A 
ATOM     58  C   UNL A   1      41.046  33.975  31.119  1.00  0.00     0.049 A 
ATOM     59  H   UNL A   1      40.909  32.044  30.283  1.00  0.00     0.167 HD
ATOM     60  C   UNL A   1      43.340  33.058  31.323  1.00  0.00     0.074 A 
ATOM     61  C   UNL A   1      44.733  33.152  31.708  1.00  0.00     0.031 C 
ATOM     62  C   UNL A   1      42.434  34.051  31.495  1.00  0.00     0.031 A 
BRANCH  49  63
ATOM     63  C   UNL A   1      36.776  32.678  29.430  1.00  0.00    -0.014 A 
ATOM     64  C   UNL A   1      36.416  33.321  28.235  1.00  0.00     0.009 A 
ATOM     65  C   UNL A   1      35.789  32.437  30.397  1.00  0.00     0.009 A 
ATOM     66  C   UNL A   1      35.102  33.748  28.031  1.00  0.00     0.001 A 
ATOM     67  C   UNL A   1      34.470  32.839  30.178  1.00  0.00     0.001 A 
ATOM     68  C   UNL A   1      34.130  33.503  29.000  1.00  0.00     0.000 A 
ENDBRANCH  49  63
BRANCH  50  69
ATOM     69  C   UNL A   1      46.116  29.350  30.540  1.00  0.00    -0.014 A 
ATOM     70  C   UNL A   1      46.542  28.775  31.747  1.00  0.00     0.009 A 
ATOM     71  C   UNL A   1      47.031  29.471  29.484  1.00  0.00     0.009 A 
ATOM     72  C   UNL A   1      47.865  28.353  31.901  1.00  0.00     0.001 A 
ATOM     73  C   UNL A   1      48.346  29.024  29.632  1.00  0.00     0.001 A 
ATOM     74  C   UNL A   1      48.764  28.475  30.843  1.00  0.00     0.000 A 
ENDBRANCH  50  69
BRANCH  62  75
ATOM     75  C   UNL A   1      42.913  35.311  32.157  1.00  0.00    -0.014 A 
ATOM     76  C   UNL A   1      43.554  36.321  31.423  1.00  0.00     0.009 A 
ATOM     77  C   UNL A   1      42.684  35.505  33.527  1.00  0.00     0.009 A 
ATOM     78  C   UNL A   1      43.982  37.489  32.056  1.00  0.00     0.001 A 
ATOM     79  C   UNL A   1      43.090  36.684  34.153  1.00  0.00     0.001 A 
ATOM     80  C   UNL A   1      43.745  37.672  33.419  1.00  0.00     0.000 A 
ENDBRANCH  62  75
ENDBRANCH  36  37
ENDBRANCH  28  31
ENDBRANCH  26  27
ENDBRANCH  25  26
ENDBRANCH  24  25
ENDBRANCH   1  24
TORSDOF 16
ENDMDL
