MODEL 1
REMARK VINA RESULT:     -12.0      0.000      0.000
REMARK SMILES O=C(NCCCCNC(=O)[C@@H]1CN(Cc2ccccc2)c2ccccc2O1)c1ccc(-c2c3nc(c(-c4ccccc4)c4ccc([nH]4)c(-c4ccccc4)c4nc(c(-c5ccccc5)c5ccc2[nH]5)C=C4)C=C3)cc1
REMARK SMILES IDX 5 1 4 2 3 3 1 4 2 5 28 7 29 8 75 9 30 10 74 11 31 12 32 13
REMARK SMILES IDX 33 14 68 15 34 16 73 17 67 18 69 19 35 20 72 21 66 22 65 23
REMARK SMILES IDX 36 25 58 26 43 27 57 28 44 29 47 30 56 31 70 32 45 33 46 34
REMARK SMILES IDX 55 36 71 37 48 38 37 39 38 40 42 41 39 42 41 43 40 44 59 45
REMARK SMILES IDX 60 46 64 47 61 48 63 49 62 50 49 51 50 52 54 53 51 54 53 55
REMARK SMILES IDX 52 56 6 57 7 58 8 59 9 60 10 62 11 63 12 64 27 65 13 66
REMARK SMILES IDX 26 67 21 68 25 69 22 70 24 71 23 72 14 73 15 74 16 75 20 76
REMARK SMILES IDX 17 77 19 78 18 79
REMARK H PARENT 3 6 69 24 47 35 8 61
REMARK Flexibility Score: inf
ROOT
ATOM      1  C   UNL A   1      32.242  28.466  26.433  1.00  0.00     0.023 C 
ENDROOT
BRANCH   1   2
ATOM      2  C   UNL A   1      33.471  28.883  27.235  1.00  0.00     0.116 C 
BRANCH   2   3
ATOM      3  N   UNL A   1      33.457  30.246  27.734  1.00  0.00    -0.352 N 
ATOM      4  O   UNL A   1      34.372  32.049  28.778  1.00  0.00    -0.269 OA
ATOM      5  C   UNL A   1      34.507  30.920  28.335  1.00  0.00     0.251 C 
ATOM      6  H   UNL A   1      32.612  30.743  27.636  1.00  0.00     0.163 HD
BRANCH   5   7
ATOM      7  C   UNL A   1      35.807  30.214  28.475  1.00  0.00     0.039 A 
ATOM      8  C   UNL A   1      36.165  29.636  29.695  1.00  0.00     0.014 A 
ATOM      9  C   UNL A   1      36.711  30.224  27.409  1.00  0.00     0.014 A 
ATOM     10  C   UNL A   1      37.479  29.225  29.903  1.00  0.00     0.010 A 
ATOM     11  C   UNL A   1      38.011  29.737  27.599  1.00  0.00     0.010 A 
ATOM     12  C   UNL A   1      38.421  29.279  28.861  1.00  0.00    -0.014 A 
BRANCH  12  13
ATOM     13  C   UNL A   1      39.820  28.839  29.111  1.00  0.00     0.031 A 
ATOM     14  C   UNL A   1      40.809  29.732  29.818  1.00  0.00     0.074 A 
ATOM     15  C   UNL A   1      40.195  27.603  28.729  1.00  0.00     0.049 A 
ATOM     16  N   UNL A   1      42.067  29.499  30.108  1.00  0.00    -0.248 NA
ATOM     17  C   UNL A   1      40.332  31.054  30.253  1.00  0.00     0.031 C 
ATOM     18  C   UNL A   1      39.336  26.637  28.039  1.00  0.00     0.029 A 
ATOM     19  N   UNL A   1      41.388  26.942  28.876  1.00  0.00    -0.354 N 
ATOM     20  C   UNL A   1      42.537  30.651  30.727  1.00  0.00     0.074 A 
ATOM     21  C   UNL A   1      41.433  31.586  30.768  1.00  0.00     0.031 C 
ATOM     22  C   UNL A   1      40.016  25.494  27.863  1.00  0.00     0.029 A 
ATOM     23  C   UNL A   1      41.373  25.667  28.367  1.00  0.00     0.049 A 
ATOM     24  H   UNL A   1      42.178  27.343  29.307  1.00  0.00     0.167 HD
ATOM     25  C   UNL A   1      43.775  30.906  31.217  1.00  0.00     0.031 A 
ATOM     26  C   UNL A   1      42.347  24.741  28.291  1.00  0.00     0.031 A 
ATOM     27  C   UNL A   1      44.870  29.972  31.200  1.00  0.00     0.049 A 
ATOM     28  C   UNL A   1      43.710  25.058  28.826  1.00  0.00     0.074 A 
ATOM     29  C   UNL A   1      46.148  30.132  31.713  1.00  0.00     0.029 A 
ATOM     30  N   UNL A   1      44.821  28.705  30.645  1.00  0.00    -0.354 N 
ATOM     31  N   UNL A   1      44.128  26.146  29.422  1.00  0.00    -0.248 NA
ATOM     32  C   UNL A   1      44.737  24.019  28.670  1.00  0.00     0.031 C 
ATOM     33  C   UNL A   1      46.883  28.977  31.430  1.00  0.00     0.029 A 
ATOM     34  C   UNL A   1      46.051  28.082  30.779  1.00  0.00     0.049 A 
ATOM     35  H   UNL A   1      44.029  28.306  30.217  1.00  0.00     0.167 HD
ATOM     36  C   UNL A   1      45.465  25.924  29.715  1.00  0.00     0.074 A 
ATOM     37  C   UNL A   1      45.783  24.588  29.256  1.00  0.00     0.031 C 
ATOM     38  C   UNL A   1      46.355  26.758  30.306  1.00  0.00     0.031 A 
BRANCH  25  39
ATOM     39  C   UNL A   1      44.034  32.267  31.799  1.00  0.00    -0.014 A 
ATOM     40  C   UNL A   1      44.486  33.328  31.000  1.00  0.00     0.009 A 
ATOM     41  C   UNL A   1      43.738  32.510  33.150  1.00  0.00     0.009 A 
ATOM     42  C   UNL A   1      44.650  34.604  31.549  1.00  0.00     0.001 A 
ATOM     43  C   UNL A   1      43.884  33.789  33.690  1.00  0.00     0.001 A 
ATOM     44  C   UNL A   1      44.344  34.834  32.890  1.00  0.00     0.000 A 
ENDBRANCH  25  39
BRANCH  26  45
ATOM     45  C   UNL A   1      42.065  23.433  27.647  1.00  0.00    -0.014 A 
ATOM     46  C   UNL A   1      41.453  22.397  28.367  1.00  0.00     0.009 A 
ATOM     47  C   UNL A   1      42.397  23.224  26.299  1.00  0.00     0.009 A 
ATOM     48  C   UNL A   1      41.191  21.171  27.753  1.00  0.00     0.001 A 
ATOM     49  C   UNL A   1      42.109  22.006  25.681  1.00  0.00     0.001 A 
ATOM     50  C   UNL A   1      41.513  20.979  26.410  1.00  0.00     0.000 A 
ENDBRANCH  26  45
BRANCH  38  51
ATOM     51  C   UNL A   1      47.749  26.238  30.492  1.00  0.00    -0.014 A 
ATOM     52  C   UNL A   1      48.678  26.276  29.441  1.00  0.00     0.009 A 
ATOM     53  C   UNL A   1      48.141  25.719  31.734  1.00  0.00     0.009 A 
ATOM     54  C   UNL A   1      49.966  25.771  29.622  1.00  0.00     0.001 A 
ATOM     55  C   UNL A   1      49.438  25.234  31.918  1.00  0.00     0.001 A 
ATOM     56  C   UNL A   1      50.345  25.253  30.860  1.00  0.00     0.000 A 
ENDBRANCH  38  51
ENDBRANCH  12  13
ENDBRANCH   5   7
ENDBRANCH   2   3
ENDBRANCH   1   2
BRANCH   1  57
ATOM     57  C   UNL A   1      31.400  27.320  27.002  1.00  0.00     0.023 C 
BRANCH  57  58
ATOM     58  C   UNL A   1      31.279  26.124  26.058  1.00  0.00     0.116 C 
BRANCH  58  59
ATOM     59  N   UNL A   1      31.612  24.846  26.654  1.00  0.00    -0.353 N 
ATOM     60  C   UNL A   1      32.686  24.025  26.513  1.00  0.00     0.262 C 
ATOM     61  H   UNL A   1      30.931  24.509  27.279  1.00  0.00     0.163 HD
ATOM     62  O   UNL A   1      32.823  23.155  27.385  1.00  0.00    -0.271 OA
BRANCH  60  63
ATOM     63  C   UNL A   1      33.707  24.119  25.368  1.00  0.00     0.281 C 
ATOM     64  C   UNL A   1      33.565  22.976  24.358  1.00  0.00     0.172 C 
ATOM     65  O   UNL A   1      35.038  24.460  25.709  1.00  0.00    -0.477 OA
ATOM     66  N   UNL A   1      34.360  21.799  24.736  1.00  0.00    -0.360 N 
ATOM     67  C   UNL A   1      35.964  23.460  25.551  1.00  0.00     0.143 A 
ATOM     68  C   UNL A   1      35.655  22.148  25.130  1.00  0.00     0.080 A 
ATOM     69  C   UNL A   1      37.259  23.832  25.936  1.00  0.00     0.049 A 
ATOM     70  C   UNL A   1      36.721  21.240  25.112  1.00  0.00     0.030 A 
ATOM     71  C   UNL A   1      38.280  22.891  25.951  1.00  0.00     0.004 A 
ATOM     72  C   UNL A   1      38.009  21.594  25.540  1.00  0.00     0.002 A 
BRANCH  66  73
ATOM     73  C   UNL A   1      33.609  20.661  25.292  1.00  0.00     0.152 C 
BRANCH  73  74
ATOM     74  C   UNL A   1      33.552  19.420  24.438  1.00  0.00    -0.029 A 
ATOM     75  C   UNL A   1      34.511  18.407  24.583  1.00  0.00     0.005 A 
ATOM     76  C   UNL A   1      32.526  19.257  23.493  1.00  0.00     0.005 A 
ATOM     77  C   UNL A   1      34.441  17.252  23.802  1.00  0.00     0.000 A 
ATOM     78  C   UNL A   1      32.451  18.097  22.722  1.00  0.00     0.000 A 
ATOM     79  C   UNL A   1      33.408  17.097  22.875  1.00  0.00     0.000 A 
ENDBRANCH  73  74
ENDBRANCH  66  73
ENDBRANCH  60  63
ENDBRANCH  58  59
ENDBRANCH  57  58
ENDBRANCH   1  57
TORSDOF 13
ENDMDL
MODEL 2
REMARK VINA RESULT:     -11.8      0.372      5.896
REMARK SMILES O=C(NCCCCNC(=O)[C@@H]1CN(Cc2ccccc2)c2ccccc2O1)c1ccc(-c2c3nc(c(-c4ccccc4)c4ccc([nH]4)c(-c4ccccc4)c4nc(c(-c5ccccc5)c5ccc2[nH]5)C=C4)C=C3)cc1
REMARK SMILES IDX 5 1 4 2 3 3 1 4 2 5 28 7 29 8 75 9 30 10 74 11 31 12 32 13
REMARK SMILES IDX 33 14 68 15 34 16 73 17 67 18 69 19 35 20 72 21 66 22 65 23
REMARK SMILES IDX 36 25 58 26 43 27 57 28 44 29 47 30 56 31 70 32 45 33 46 34
REMARK SMILES IDX 55 36 71 37 48 38 37 39 38 40 42 41 39 42 41 43 40 44 59 45
REMARK SMILES IDX 60 46 64 47 61 48 63 49 62 50 49 51 50 52 54 53 51 54 53 55
REMARK SMILES IDX 52 56 6 57 7 58 8 59 9 60 10 62 11 63 12 64 27 65 13 66
REMARK SMILES IDX 26 67 21 68 25 69 22 70 24 71 23 72 14 73 15 74 16 75 20 76
REMARK SMILES IDX 17 77 19 78 18 79
REMARK H PARENT 3 6 69 24 47 35 8 61
REMARK Flexibility Score: inf
ROOT
ATOM      1  C   UNL A   1      32.152  28.575  26.467  1.00  0.00     0.023 C 
ENDROOT
BRANCH   1   2
ATOM      2  C   UNL A   1      33.470  29.055  27.069  1.00  0.00     0.116 C 
BRANCH   2   3
ATOM      3  N   UNL A   1      33.447  30.392  27.632  1.00  0.00    -0.352 N 
ATOM      4  O   UNL A   1      34.329  32.129  28.810  1.00  0.00    -0.269 OA
ATOM      5  C   UNL A   1      34.472  31.020  28.322  1.00  0.00     0.251 C 
ATOM      6  H   UNL A   1      32.617  30.908  27.511  1.00  0.00     0.163 HD
BRANCH   5   7
ATOM      7  C   UNL A   1      35.751  30.285  28.499  1.00  0.00     0.039 A 
ATOM      8  C   UNL A   1      36.039  29.657  29.713  1.00  0.00     0.014 A 
ATOM      9  C   UNL A   1      36.708  30.318  27.480  1.00  0.00     0.014 A 
ATOM     10  C   UNL A   1      37.334  29.214  29.969  1.00  0.00     0.010 A 
ATOM     11  C   UNL A   1      37.988  29.801  27.715  1.00  0.00     0.010 A 
ATOM     12  C   UNL A   1      38.328  29.290  28.978  1.00  0.00    -0.014 A 
BRANCH  12  13
ATOM     13  C   UNL A   1      39.705  28.816  29.281  1.00  0.00     0.031 A 
ATOM     14  C   UNL A   1      40.196  27.474  28.800  1.00  0.00     0.074 A 
ATOM     15  C   UNL A   1      40.537  29.622  29.968  1.00  0.00     0.049 A 
ATOM     16  N   UNL A   1      41.367  26.913  28.985  1.00  0.00    -0.248 NA
ATOM     17  C   UNL A   1      39.259  26.655  28.017  1.00  0.00     0.031 C 
ATOM     18  C   UNL A   1      40.190  30.947  30.487  1.00  0.00     0.029 A 
ATOM     19  N   UNL A   1      41.848  29.454  30.336  1.00  0.00    -0.354 N 
ATOM     20  C   UNL A   1      41.296  25.668  28.371  1.00  0.00     0.074 A 
ATOM     21  C   UNL A   1      39.966  25.550  27.812  1.00  0.00     0.031 C 
ATOM     22  C   UNL A   1      41.271  31.488  31.068  1.00  0.00     0.029 A 
ATOM     23  C   UNL A   1      42.367  30.527  31.019  1.00  0.00     0.049 A 
ATOM     24  H   UNL A   1      42.367  28.643  30.129  1.00  0.00     0.167 HD
ATOM     25  C   UNL A   1      42.251  24.710  28.282  1.00  0.00     0.031 A 
ATOM     26  C   UNL A   1      43.581  30.714  31.566  1.00  0.00     0.031 A 
ATOM     27  C   UNL A   1      43.582  24.829  28.815  1.00  0.00     0.049 A 
ATOM     28  C   UNL A   1      44.611  29.631  31.465  1.00  0.00     0.074 A 
ATOM     29  C   UNL A   1      44.628  23.924  28.734  1.00  0.00     0.029 A 
ATOM     30  N   UNL A   1      44.054  25.918  29.528  1.00  0.00    -0.354 N 
ATOM     31  N   UNL A   1      44.529  28.469  30.866  1.00  0.00    -0.248 NA
ATOM     32  C   UNL A   1      45.901  29.883  32.124  1.00  0.00     0.031 C 
ATOM     33  C   UNL A   1      45.720  24.449  29.433  1.00  0.00     0.029 A 
ATOM     34  C   UNL A   1      45.366  25.698  29.914  1.00  0.00     0.049 A 
ATOM     35  H   UNL A   1      43.534  26.729  29.732  1.00  0.00     0.167 HD
ATOM     36  C   UNL A   1      45.753  27.852  31.072  1.00  0.00     0.074 A 
ATOM     37  C   UNL A   1      46.572  28.777  31.829  1.00  0.00     0.031 C 
ATOM     38  C   UNL A   1      46.162  26.622  30.677  1.00  0.00     0.031 A 
BRANCH  25  39
ATOM     39  C   UNL A   1      41.892  23.421  27.597  1.00  0.00    -0.014 A 
ATOM     40  C   UNL A   1      42.236  23.186  26.258  1.00  0.00     0.009 A 
ATOM     41  C   UNL A   1      41.278  22.394  28.333  1.00  0.00     0.009 A 
ATOM     42  C   UNL A   1      41.956  21.951  25.664  1.00  0.00     0.001 A 
ATOM     43  C   UNL A   1      41.018  21.156  27.742  1.00  0.00     0.001 A 
ATOM     44  C   UNL A   1      41.353  20.937  26.408  1.00  0.00     0.000 A 
ENDBRANCH  25  39
BRANCH  26  45
ATOM     45  C   UNL A   1      43.871  31.977  32.291  1.00  0.00    -0.014 A 
ATOM     46  C   UNL A   1      43.610  32.090  33.664  1.00  0.00     0.009 A 
ATOM     47  C   UNL A   1      44.427  33.071  31.609  1.00  0.00     0.009 A 
ATOM     48  C   UNL A   1      43.887  33.281  34.338  1.00  0.00     0.001 A 
ATOM     49  C   UNL A   1      44.728  34.250  32.292  1.00  0.00     0.001 A 
ATOM     50  C   UNL A   1      44.451  34.357  33.653  1.00  0.00     0.000 A 
ENDBRANCH  26  45
BRANCH  38  51
ATOM     51  C   UNL A   1      47.557  26.220  31.051  1.00  0.00    -0.014 A 
ATOM     52  C   UNL A   1      47.833  25.665  32.310  1.00  0.00     0.009 A 
ATOM     53  C   UNL A   1      48.603  26.384  30.131  1.00  0.00     0.009 A 
ATOM     54  C   UNL A   1      49.139  25.313  32.653  1.00  0.00     0.001 A 
ATOM     55  C   UNL A   1      49.905  26.010  30.469  1.00  0.00     0.001 A 
ATOM     56  C   UNL A   1      50.173  25.484  31.732  1.00  0.00     0.000 A 
ENDBRANCH  38  51
ENDBRANCH  12  13
ENDBRANCH   5   7
ENDBRANCH   2   3
ENDBRANCH   1   2
BRANCH   1  57
ATOM     57  C   UNL A   1      31.481  27.372  27.138  1.00  0.00     0.023 C 
BRANCH  57  58
ATOM     58  C   UNL A   1      31.209  26.213  26.181  1.00  0.00     0.116 C 
BRANCH  58  59
ATOM     59  N   UNL A   1      31.507  24.901  26.720  1.00  0.00    -0.353 N 
ATOM     60  C   UNL A   1      32.553  24.053  26.534  1.00  0.00     0.262 C 
ATOM     61  H   UNL A   1      30.821  24.559  27.337  1.00  0.00     0.163 HD
ATOM     62  O   UNL A   1      32.670  23.144  27.367  1.00  0.00    -0.271 OA
BRANCH  60  63
ATOM     63  C   UNL A   1      33.567  24.165  25.384  1.00  0.00     0.281 C 
ATOM     64  C   UNL A   1      33.424  23.031  24.363  1.00  0.00     0.172 C 
ATOM     65  O   UNL A   1      34.899  24.509  25.719  1.00  0.00    -0.477 OA
ATOM     66  N   UNL A   1      34.227  21.855  24.723  1.00  0.00    -0.360 N 
ATOM     67  C   UNL A   1      35.828  23.515  25.546  1.00  0.00     0.143 A 
ATOM     68  C   UNL A   1      35.523  22.205  25.113  1.00  0.00     0.080 A 
ATOM     69  C   UNL A   1      37.124  23.888  25.927  1.00  0.00     0.049 A 
ATOM     70  C   UNL A   1      36.593  21.302  25.079  1.00  0.00     0.030 A 
ATOM     71  C   UNL A   1      38.149  22.953  25.926  1.00  0.00     0.004 A 
ATOM     72  C   UNL A   1      37.881  21.659  25.503  1.00  0.00     0.002 A 
BRANCH  66  73
ATOM     73  C   UNL A   1      33.485  20.707  25.272  1.00  0.00     0.152 C 
BRANCH  73  74
ATOM     74  C   UNL A   1      33.445  19.468  24.415  1.00  0.00    -0.029 A 
ATOM     75  C   UNL A   1      34.405  18.458  24.571  1.00  0.00     0.005 A 
ATOM     76  C   UNL A   1      32.433  19.304  23.454  1.00  0.00     0.005 A 
ATOM     77  C   UNL A   1      34.350  17.305  23.785  1.00  0.00     0.000 A 
ATOM     78  C   UNL A   1      32.373  18.146  22.679  1.00  0.00     0.000 A 
ATOM     79  C   UNL A   1      33.332  17.148  22.844  1.00  0.00     0.000 A 
ENDBRANCH  73  74
ENDBRANCH  66  73
ENDBRANCH  60  63
ENDBRANCH  58  59
ENDBRANCH  57  58
ENDBRANCH   1  57
TORSDOF 13
ENDMDL
MODEL 3
REMARK VINA RESULT:     -11.5      2.580      8.412
REMARK SMILES O=C(NCCCCNC(=O)[C@@H]1CN(Cc2ccccc2)c2ccccc2O1)c1ccc(-c2c3nc(c(-c4ccccc4)c4ccc([nH]4)c(-c4ccccc4)c4nc(c(-c5ccccc5)c5ccc2[nH]5)C=C4)C=C3)cc1
REMARK SMILES IDX 5 1 4 2 3 3 1 4 2 5 28 7 29 8 75 9 30 10 74 11 31 12 32 13
REMARK SMILES IDX 33 14 68 15 34 16 73 17 67 18 69 19 35 20 72 21 66 22 65 23
REMARK SMILES IDX 36 25 58 26 43 27 57 28 44 29 47 30 56 31 70 32 45 33 46 34
REMARK SMILES IDX 55 36 71 37 48 38 37 39 38 40 42 41 39 42 41 43 40 44 59 45
REMARK SMILES IDX 60 46 64 47 61 48 63 49 62 50 49 51 50 52 54 53 51 54 53 55
REMARK SMILES IDX 52 56 6 57 7 58 8 59 9 60 10 62 11 63 12 64 27 65 13 66
REMARK SMILES IDX 26 67 21 68 25 69 22 70 24 71 23 72 14 73 15 74 16 75 20 76
REMARK SMILES IDX 17 77 19 78 18 79
REMARK H PARENT 3 6 69 24 47 35 8 61
REMARK Flexibility Score: inf
ROOT
ATOM      1  C   UNL A   1      36.460  23.165  23.925  1.00  0.00     0.023 C 
ENDROOT
BRANCH   1   2
ATOM      2  C   UNL A   1      37.248  23.442  25.202  1.00  0.00     0.116 C 
BRANCH   2   3
ATOM      3  N   UNL A   1      38.399  22.587  25.422  1.00  0.00    -0.352 N 
ATOM      4  O   UNL A   1      40.489  22.134  26.203  1.00  0.00    -0.269 OA
ATOM      5  C   UNL A   1      39.547  22.906  26.130  1.00  0.00     0.251 C 
ATOM      6  H   UNL A   1      38.362  21.686  25.025  1.00  0.00     0.163 HD
BRANCH   5   7
ATOM      7  C   UNL A   1      39.628  24.245  26.768  1.00  0.00     0.039 A 
ATOM      8  C   UNL A   1      40.305  25.287  26.130  1.00  0.00     0.014 A 
ATOM      9  C   UNL A   1      39.115  24.424  28.055  1.00  0.00     0.014 A 
ATOM     10  C   UNL A   1      40.616  26.443  26.841  1.00  0.00     0.010 A 
ATOM     11  C   UNL A   1      39.363  25.620  28.740  1.00  0.00     0.010 A 
ATOM     12  C   UNL A   1      40.158  26.621  28.158  1.00  0.00    -0.014 A 
BRANCH  12  13
ATOM     13  C   UNL A   1      40.510  27.862  28.898  1.00  0.00     0.031 A 
ATOM     14  C   UNL A   1      41.873  28.048  29.517  1.00  0.00     0.074 A 
ATOM     15  C   UNL A   1      39.601  28.853  28.982  1.00  0.00     0.049 A 
ATOM     16  N   UNL A   1      42.335  29.069  30.199  1.00  0.00    -0.248 NA
ATOM     17  C   UNL A   1      42.840  26.952  29.356  1.00  0.00     0.031 C 
ATOM     18  C   UNL A   1      38.248  28.805  28.424  1.00  0.00     0.029 A 
ATOM     19  N   UNL A   1      39.681  30.097  29.555  1.00  0.00    -0.354 N 
ATOM     20  C   UNL A   1      43.628  28.726  30.573  1.00  0.00     0.074 A 
ATOM     21  C   UNL A   1      43.880  27.400  30.049  1.00  0.00     0.031 C 
ATOM     22  C   UNL A   1      37.640  29.981  28.645  1.00  0.00     0.029 A 
ATOM     23  C   UNL A   1      38.534  30.840  29.412  1.00  0.00     0.049 A 
ATOM     24  H   UNL A   1      40.483  30.426  30.022  1.00  0.00     0.167 HD
ATOM     25  C   UNL A   1      44.525  29.449  31.288  1.00  0.00     0.031 A 
ATOM     26  C   UNL A   1      38.222  32.068  29.864  1.00  0.00     0.031 A 
ATOM     27  C   UNL A   1      44.290  30.776  31.793  1.00  0.00     0.049 A 
ATOM     28  C   UNL A   1      39.228  32.837  30.665  1.00  0.00     0.074 A 
ATOM     29  C   UNL A   1      45.158  31.599  32.492  1.00  0.00     0.029 A 
ATOM     30  N   UNL A   1      43.103  31.476  31.653  1.00  0.00    -0.354 N 
ATOM     31  N   UNL A   1      40.451  32.501  30.993  1.00  0.00    -0.248 NA
ATOM     32  C   UNL A   1      38.806  34.153  31.166  1.00  0.00     0.031 C 
ATOM     33  C   UNL A   1      44.482  32.781  32.811  1.00  0.00     0.029 A 
ATOM     34  C   UNL A   1      43.208  32.710  32.275  1.00  0.00     0.049 A 
ATOM     35  H   UNL A   1      42.303  31.146  31.184  1.00  0.00     0.167 HD
ATOM     36  C   UNL A   1      40.946  33.562  31.736  1.00  0.00     0.074 A 
ATOM     37  C   UNL A   1      39.903  34.565  31.788  1.00  0.00     0.031 C 
ATOM     38  C   UNL A   1      42.157  33.691  32.329  1.00  0.00     0.031 A 
BRANCH  25  39
ATOM     39  C   UNL A   1      45.852  28.815  31.599  1.00  0.00    -0.014 A 
ATOM     40  C   UNL A   1      46.960  28.993  30.757  1.00  0.00     0.009 A 
ATOM     41  C   UNL A   1      46.015  28.100  32.797  1.00  0.00     0.009 A 
ATOM     42  C   UNL A   1      48.203  28.454  31.104  1.00  0.00     0.001 A 
ATOM     43  C   UNL A   1      47.261  27.581  33.149  1.00  0.00     0.001 A 
ATOM     44  C   UNL A   1      48.353  27.754  32.301  1.00  0.00     0.000 A 
ENDBRANCH  25  39
BRANCH  26  45
ATOM     45  C   UNL A   1      36.876  32.629  29.591  1.00  0.00    -0.014 A 
ATOM     46  C   UNL A   1      35.851  32.526  30.543  1.00  0.00     0.009 A 
ATOM     47  C   UNL A   1      36.616  33.285  28.376  1.00  0.00     0.009 A 
ATOM     48  C   UNL A   1      34.587  33.058  30.277  1.00  0.00     0.001 A 
ATOM     49  C   UNL A   1      35.360  33.839  28.126  1.00  0.00     0.001 A 
ATOM     50  C   UNL A   1      34.345  33.719  29.074  1.00  0.00     0.000 A 
ENDBRANCH  26  45
BRANCH  38  51
ATOM     51  C   UNL A   1      42.412  34.967  33.075  1.00  0.00    -0.014 A 
ATOM     52  C   UNL A   1      41.928  35.146  34.381  1.00  0.00     0.009 A 
ATOM     53  C   UNL A   1      43.155  35.992  32.474  1.00  0.00     0.009 A 
ATOM     54  C   UNL A   1      42.157  36.345  35.057  1.00  0.00     0.001 A 
ATOM     55  C   UNL A   1      43.400  37.182  33.162  1.00  0.00     0.001 A 
ATOM     56  C   UNL A   1      42.894  37.361  34.448  1.00  0.00     0.000 A 
ENDBRANCH  38  51
ENDBRANCH  12  13
ENDBRANCH   5   7
ENDBRANCH   2   3
ENDBRANCH   1   2
BRANCH   1  57
ATOM     57  C   UNL A   1      35.209  22.291  24.059  1.00  0.00     0.023 C 
BRANCH  57  58
ATOM     58  C   UNL A   1      33.920  23.093  24.232  1.00  0.00     0.116 C 
BRANCH  58  59
ATOM     59  N   UNL A   1      33.899  24.364  23.535  1.00  0.00    -0.353 N 
ATOM     60  C   UNL A   1      33.720  25.640  23.966  1.00  0.00     0.262 C 
ATOM     61  H   UNL A   1      34.042  24.287  22.564  1.00  0.00     0.163 HD
ATOM     62  O   UNL A   1      34.061  26.533  23.178  1.00  0.00    -0.271 OA
BRANCH  60  63
ATOM     63  C   UNL A   1      33.138  26.019  25.337  1.00  0.00     0.281 C 
ATOM     64  C   UNL A   1      31.676  26.470  25.251  1.00  0.00     0.172 C 
ATOM     65  O   UNL A   1      33.954  26.786  26.203  1.00  0.00    -0.477 OA
ATOM     66  N   UNL A   1      31.554  27.912  24.997  1.00  0.00    -0.360 N 
ATOM     67  C   UNL A   1      33.538  28.074  26.422  1.00  0.00     0.143 A 
ATOM     68  C   UNL A   1      32.407  28.661  25.811  1.00  0.00     0.080 A 
ATOM     69  C   UNL A   1      34.397  28.806  27.253  1.00  0.00     0.049 A 
ATOM     70  C   UNL A   1      32.190  30.016  26.091  1.00  0.00     0.030 A 
ATOM     71  C   UNL A   1      34.175  30.159  27.468  1.00  0.00     0.004 A 
ATOM     72  C   UNL A   1      33.071  30.763  26.885  1.00  0.00     0.002 A 
BRANCH  66  73
ATOM     73  C   UNL A   1      31.175  28.298  23.627  1.00  0.00     0.152 C 
BRANCH  73  74
ATOM     74  C   UNL A   1      29.827  28.954  23.469  1.00  0.00    -0.029 A 
ATOM     75  C   UNL A   1      29.692  30.346  23.574  1.00  0.00     0.005 A 
ATOM     76  C   UNL A   1      28.688  28.178  23.201  1.00  0.00     0.005 A 
ATOM     77  C   UNL A   1      28.443  30.948  23.408  1.00  0.00     0.000 A 
ATOM     78  C   UNL A   1      27.444  28.783  23.023  1.00  0.00     0.000 A 
ATOM     79  C   UNL A   1      27.322  30.167  23.128  1.00  0.00     0.000 A 
ENDBRANCH  73  74
ENDBRANCH  66  73
ENDBRANCH  60  63
ENDBRANCH  58  59
ENDBRANCH  57  58
ENDBRANCH   1  57
TORSDOF 13
ENDMDL
