MODEL 1
REMARK VINA RESULT:     -10.1      0.000      0.000
REMARK SMILES CCO[P@TB12](C)(=O)C[N@@H+]1CCC[C@@H]1C(=O)NCCCCNC(=O)c1ccc(-c2c3nc(c(-c4ccccc4)c4ccc([nH]4)c(-c4ccccc4)c4nc(c(-c5ccccc5)c5ccc2[nH]5)C=C4)C=C3)cc1
REMARK SMILES IDX 16 1 15 2 13 3 14 4 12 6 8 7 9 8 10 10 11 11 7 12 4 13 6 14
REMARK SMILES IDX 5 15 3 16 2 17 1 18 17 19 18 20 19 21 20 22 21 23 22 25
REMARK SMILES IDX 23 26 24 27 70 28 25 29 69 30 26 31 27 32 28 33 63 34 29 35
REMARK SMILES IDX 68 36 62 37 64 38 30 39 67 40 61 41 60 42 31 44 53 45 38 46
REMARK SMILES IDX 52 47 39 48 42 49 51 50 65 51 40 52 41 53 50 55 66 56 43 57
REMARK SMILES IDX 32 58 33 59 37 60 34 61 36 62 35 63 54 64 55 65 59 66 56 67
REMARK SMILES IDX 58 68 57 69 44 70 45 71 49 72 46 73 48 74 47 75
REMARK H PARENT 15 5 8 9 20 24 64 43 42 54
REMARK Flexibility Score: inf
ROOT
ATOM      1  C   UNL A   1      33.189  29.880  26.699  1.00  0.00       nan C 
ENDROOT
BRANCH   1   2
ATOM      2  N   UNL A   1      33.568  29.678  25.316  1.00  0.00       nan N 
ATOM      3  C   UNL A   1      32.900  29.033  24.317  1.00  0.00       nan C 
ATOM      4  O   UNL A   1      33.234  29.329  23.164  1.00  0.00       nan OA
ATOM      5  H   UNL A   1      34.437  30.064  25.058  1.00  0.00       nan HD
BRANCH   3   6
ATOM      6  C   UNL A   1      31.726  28.072  24.566  1.00  0.00       nan C 
ATOM      7  N   UNL A   1      32.065  26.643  24.500  1.00  0.00       nan N 
ATOM      8  C   UNL A   1      30.917  25.926  23.944  1.00  0.00       nan C 
ATOM      9  H   UNL A   1      32.249  26.381  25.469  1.00  0.00       nan HD
ATOM     10  C   UNL A   1      30.181  26.929  23.079  1.00  0.00       nan C 
ATOM     11  C   UNL A   1      30.449  28.270  23.747  1.00  0.00       nan C 
BRANCH   7  12
ATOM     12  C   UNL A   1      33.355  26.216  23.967  1.00  0.00       nan C 
BRANCH  12  13
ATOM     13  P   UNL A   1      33.220  24.611  23.098  1.00  0.00       nan P 
ATOM     14  O   UNL A   1      33.614  25.254  21.752  1.00  0.00       nan OA
ATOM     15  C   UNL A   1      33.085  23.006  22.230  1.00  0.00       nan C 
BRANCH  13  16
ATOM     16  O   UNL A   1      34.636  24.085  23.791  1.00  0.00       nan OA
BRANCH  16  17
ATOM     17  C   UNL A   1      35.192  22.814  23.507  1.00  0.00       nan C 
ATOM     18  C   UNL A   1      36.658  22.903  23.133  1.00  0.00       nan C 
ENDBRANCH  16  17
ENDBRANCH  13  16
ENDBRANCH  12  13
ENDBRANCH   7  12
ENDBRANCH   3   6
ENDBRANCH   1   2
BRANCH   1  19
ATOM     19  C   UNL A   1      31.778  30.406  26.874  1.00  0.00       nan C 
BRANCH  19  20
ATOM     20  C   UNL A   1      31.650  31.920  26.712  1.00  0.00       nan C 
BRANCH  20  21
ATOM     21  C   UNL A   1      32.810  32.749  27.260  1.00  0.00       nan C 
BRANCH  21  22
ATOM     22  N   UNL A   1      32.438  34.108  27.625  1.00  0.00       nan N 
ATOM     23  C   UNL A   1      33.010  34.941  28.560  1.00  0.00       nan C 
ATOM     24  H   UNL A   1      31.670  34.484  27.134  1.00  0.00       nan HD
ATOM     25  O   UNL A   1      32.519  36.027  28.814  1.00  0.00       inf OA
BRANCH  23  26
ATOM     26  C   UNL A   1      34.209  34.474  29.282  1.00  0.00       inf A 
ATOM     27  C   UNL A   1      34.040  33.753  30.465  1.00  0.00     0.014 A 
ATOM     28  C   UNL A   1      35.483  34.682  28.747  1.00  0.00     0.014 A 
ATOM     29  C   UNL A   1      35.150  33.167  31.072  1.00  0.00     0.010 A 
ATOM     30  C   UNL A   1      36.574  34.032  29.309  1.00  0.00     0.010 A 
ATOM     31  C   UNL A   1      36.419  33.264  30.473  1.00  0.00    -0.014 A 
BRANCH  31  32
ATOM     32  C   UNL A   1      37.587  32.553  31.049  1.00  0.00     0.031 A 
ATOM     33  C   UNL A   1      38.207  33.033  32.330  1.00  0.00     0.074 A 
ATOM     34  C   UNL A   1      38.120  31.506  30.390  1.00  0.00     0.049 A 
ATOM     35  N   UNL A   1      39.238  32.550  32.978  1.00  0.00    -0.248 NA
ATOM     36  C   UNL A   1      37.612  34.226  32.952  1.00  0.00     0.031 C 
ATOM     37  C   UNL A   1      37.644  30.974  29.110  1.00  0.00     0.029 A 
ATOM     38  N   UNL A   1      39.183  30.698  30.709  1.00  0.00    -0.354 N 
ATOM     39  C   UNL A   1      39.418  33.385  34.073  1.00  0.00     0.074 A 
ATOM     40  C   UNL A   1      38.431  34.438  33.971  1.00  0.00     0.031 C 
ATOM     41  C   UNL A   1      38.386  29.906  28.776  1.00  0.00     0.029 A 
ATOM     42  C   UNL A   1      39.410  29.699  29.794  1.00  0.00     0.049 A 
ATOM     43  H   UNL A   1      39.731  30.822  31.518  1.00  0.00     0.167 HD
ATOM     44  C   UNL A   1      40.307  33.273  35.088  1.00  0.00     0.031 A 
ATOM     45  C   UNL A   1      40.336  28.721  29.779  1.00  0.00     0.031 A 
ATOM     46  C   UNL A   1      41.284  32.222  35.196  1.00  0.00     0.049 A 
ATOM     47  C   UNL A   1      41.315  28.622  30.915  1.00  0.00     0.074 A 
ATOM     48  C   UNL A   1      42.193  31.992  36.213  1.00  0.00     0.029 A 
ATOM     49  N   UNL A   1      41.478  31.228  34.250  1.00  0.00    -0.354 N 
ATOM     50  N   UNL A   1      41.422  29.375  31.982  1.00  0.00    -0.248 NA
ATOM     51  C   UNL A   1      42.289  27.524  30.850  1.00  0.00     0.031 C 
ATOM     52  C   UNL A   1      42.971  30.885  35.860  1.00  0.00     0.029 A 
ATOM     53  C   UNL A   1      42.508  30.393  34.650  1.00  0.00     0.049 A 
ATOM     54  H   UNL A   1      40.961  31.129  33.419  1.00  0.00     0.167 HD
ATOM     55  C   UNL A   1      42.457  28.827  32.729  1.00  0.00     0.074 A 
ATOM     56  C   UNL A   1      42.930  27.667  32.002  1.00  0.00     0.031 C 
ATOM     57  C   UNL A   1      42.969  29.246  33.912  1.00  0.00     0.031 A 
BRANCH  44  58
ATOM     58  C   UNL A   1      40.261  34.324  36.162  1.00  0.00    -0.014 A 
ATOM     59  C   UNL A   1      41.037  35.491  36.070  1.00  0.00     0.009 A 
ATOM     60  C   UNL A   1      39.413  34.159  37.267  1.00  0.00     0.009 A 
ATOM     61  C   UNL A   1      40.995  36.452  37.083  1.00  0.00     0.001 A 
ATOM     62  C   UNL A   1      39.350  35.136  38.263  1.00  0.00     0.001 A 
ATOM     63  C   UNL A   1      40.148  36.275  38.176  1.00  0.00     0.000 A 
ENDBRANCH  44  58
BRANCH  45  64
ATOM     64  C   UNL A   1      40.366  27.739  28.665  1.00  0.00    -0.014 A 
ATOM     65  C   UNL A   1      39.652  26.534  28.761  1.00  0.00     0.009 A 
ATOM     66  C   UNL A   1      41.116  27.991  27.506  1.00  0.00     0.009 A 
ATOM     67  C   UNL A   1      39.712  25.590  27.733  1.00  0.00     0.001 A 
ATOM     68  C   UNL A   1      41.151  27.058  26.467  1.00  0.00     0.001 A 
ATOM     69  C   UNL A   1      40.458  25.855  26.585  1.00  0.00     0.000 A 
ENDBRANCH  45  64
BRANCH  57  70
ATOM     70  C   UNL A   1      44.079  28.424  34.506  1.00  0.00    -0.014 A 
ATOM     71  C   UNL A   1      45.426  28.717  34.244  1.00  0.00     0.009 A 
ATOM     72  C   UNL A   1      43.770  27.357  35.364  1.00  0.00     0.009 A 
ATOM     73  C   UNL A   1      46.440  27.933  34.797  1.00  0.00     0.001 A 
ATOM     74  C   UNL A   1      44.785  26.593  35.940  1.00  0.00     0.001 A 
ATOM     75  C   UNL A   1      46.119  26.874  35.647  1.00  0.00     0.000 A 
ENDBRANCH  57  70
ENDBRANCH  31  32
ENDBRANCH  23  26
ENDBRANCH  21  22
ENDBRANCH  20  21
ENDBRANCH  19  20
ENDBRANCH   1  19
TORSDOF 15
ENDMDL
MODEL 2
REMARK VINA RESULT:      -9.9      1.816      3.089
REMARK SMILES CCO[P@TB12](C)(=O)C[N@@H+]1CCC[C@@H]1C(=O)NCCCCNC(=O)c1ccc(-c2c3nc(c(-c4ccccc4)c4ccc([nH]4)c(-c4ccccc4)c4nc(c(-c5ccccc5)c5ccc2[nH]5)C=C4)C=C3)cc1
REMARK SMILES IDX 16 1 15 2 13 3 14 4 12 6 8 7 9 8 10 10 11 11 7 12 4 13 6 14
REMARK SMILES IDX 5 15 3 16 2 17 1 18 17 19 18 20 19 21 20 22 21 23 22 25
REMARK SMILES IDX 23 26 24 27 70 28 25 29 69 30 26 31 27 32 28 33 63 34 29 35
REMARK SMILES IDX 68 36 62 37 64 38 30 39 67 40 61 41 60 42 31 44 53 45 38 46
REMARK SMILES IDX 52 47 39 48 42 49 51 50 65 51 40 52 41 53 50 55 66 56 43 57
REMARK SMILES IDX 32 58 33 59 37 60 34 61 36 62 35 63 54 64 55 65 59 66 56 67
REMARK SMILES IDX 58 68 57 69 44 70 45 71 49 72 46 73 48 74 47 75
REMARK H PARENT 15 5 8 9 20 24 64 43 42 54
REMARK Flexibility Score: inf
ROOT
ATOM      1  C   UNL A   1      33.136  29.422  25.796  1.00  0.00       nan C 
ENDROOT
BRANCH   1   2
ATOM      2  N   UNL A   1      33.835  29.288  24.535  1.00  0.00       nan N 
ATOM      3  C   UNL A   1      33.538  28.509  23.455  1.00  0.00       nan C 
ATOM      4  O   UNL A   1      34.046  28.855  22.382  1.00  0.00       nan OA
ATOM      5  H   UNL A   1      34.644  29.841  24.442  1.00  0.00       nan HD
BRANCH   3   6
ATOM      6  C   UNL A   1      32.552  27.329  23.507  1.00  0.00       nan C 
ATOM      7  N   UNL A   1      31.245  27.582  22.881  1.00  0.00       nan N 
ATOM      8  C   UNL A   1      30.227  26.857  23.641  1.00  0.00       nan C 
ATOM      9  H   UNL A   1      31.346  27.222  21.932  1.00  0.00       nan HD
ATOM     10  C   UNL A   1      30.773  26.728  25.049  1.00  0.00       nan C 
ATOM     11  C   UNL A   1      32.283  26.677  24.864  1.00  0.00       nan C 
BRANCH   7  12
ATOM     12  C   UNL A   1      30.860  28.938  22.503  1.00  0.00       nan C 
BRANCH  12  13
ATOM     13  P   UNL A   1      29.070  29.218  22.759  1.00  0.00       nan P 
ATOM     14  O   UNL A   1      29.344  30.267  23.857  1.00  0.00       nan OA
ATOM     15  C   UNL A   1      27.279  29.498  23.015  1.00  0.00       nan C 
BRANCH  13  16
ATOM     16  O   UNL A   1      28.967  30.060  21.330  1.00  0.00       nan OA
BRANCH  16  17
ATOM     17  C   UNL A   1      28.877  31.473  21.287  1.00  0.00       nan C 
ATOM     18  C   UNL A   1      28.028  31.955  20.128  1.00  0.00       nan C 
ENDBRANCH  16  17
ENDBRANCH  13  16
ENDBRANCH  12  13
ENDBRANCH   7  12
ENDBRANCH   3   6
ENDBRANCH   1   2
BRANCH   1  19
ATOM     19  C   UNL A   1      31.921  30.326  25.727  1.00  0.00       nan C 
BRANCH  19  20
ATOM     20  C   UNL A   1      31.768  31.260  26.926  1.00  0.00       nan C 
BRANCH  20  21
ATOM     21  C   UNL A   1      32.949  32.187  27.204  1.00  0.00       nan C 
BRANCH  21  22
ATOM     22  N   UNL A   1      32.557  33.524  27.629  1.00  0.00       nan N 
ATOM     23  C   UNL A   1      33.173  34.360  28.532  1.00  0.00       nan C 
ATOM     24  H   UNL A   1      31.738  33.879  27.212  1.00  0.00       nan HD
ATOM     25  O   UNL A   1      32.664  35.421  28.851  1.00  0.00       inf OA
BRANCH  23  26
ATOM     26  C   UNL A   1      34.445  33.927  29.143  1.00  0.00       inf A 
ATOM     27  C   UNL A   1      34.401  33.142  30.296  1.00  0.00     0.014 A 
ATOM     28  C   UNL A   1      35.663  34.231  28.530  1.00  0.00     0.014 A 
ATOM     29  C   UNL A   1      35.582  32.590  30.791  1.00  0.00     0.010 A 
ATOM     30  C   UNL A   1      36.825  33.616  28.979  1.00  0.00     0.010 A 
ATOM     31  C   UNL A   1      36.796  32.787  30.110  1.00  0.00    -0.014 A 
BRANCH  31  32
ATOM     32  C   UNL A   1      38.039  32.115  30.565  1.00  0.00     0.031 A 
ATOM     33  C   UNL A   1      38.862  32.715  31.669  1.00  0.00     0.074 A 
ATOM     34  C   UNL A   1      38.453  30.992  29.947  1.00  0.00     0.049 A 
ATOM     35  N   UNL A   1      39.981  32.281  32.191  1.00  0.00    -0.248 NA
ATOM     36  C   UNL A   1      38.381  33.981  32.245  1.00  0.00     0.031 C 
ATOM     37  C   UNL A   1      37.772  30.337  28.826  1.00  0.00     0.029 A 
ATOM     38  N   UNL A   1      39.550  30.198  30.176  1.00  0.00    -0.354 N 
ATOM     39  C   UNL A   1      40.342  33.224  33.145  1.00  0.00     0.074 A 
ATOM     40  C   UNL A   1      39.356  34.282  33.089  1.00  0.00     0.031 C 
ATOM     41  C   UNL A   1      38.445  29.223  28.495  1.00  0.00     0.029 A 
ATOM     42  C   UNL A   1      39.620  29.103  29.350  1.00  0.00     0.049 A 
ATOM     43  H   UNL A   1      40.222  30.396  30.868  1.00  0.00     0.167 HD
ATOM     44  C   UNL A   1      41.383  33.201  34.009  1.00  0.00     0.031 A 
ATOM     45  C   UNL A   1      40.527  28.109  29.294  1.00  0.00     0.031 A 
ATOM     46  C   UNL A   1      42.359  32.146  34.073  1.00  0.00     0.049 A 
ATOM     47  C   UNL A   1      41.677  28.109  30.261  1.00  0.00     0.074 A 
ATOM     48  C   UNL A   1      43.421  32.006  34.949  1.00  0.00     0.029 A 
ATOM     49  N   UNL A   1      42.393  31.053  33.222  1.00  0.00    -0.354 N 
ATOM     50  N   UNL A   1      41.960  28.970  31.208  1.00  0.00    -0.248 NA
ATOM     51  C   UNL A   1      42.622  26.990  30.160  1.00  0.00     0.031 C 
ATOM     52  C   UNL A   1      44.125  30.849  34.598  1.00  0.00     0.029 A 
ATOM     53  C   UNL A   1      43.470  30.242  33.539  1.00  0.00     0.049 A 
ATOM     54  H   UNL A   1      41.747  30.877  32.501  1.00  0.00     0.167 HD
ATOM     55  C   UNL A   1      43.100  28.482  31.834  1.00  0.00     0.074 A 
ATOM     56  C   UNL A   1      43.443  27.240  31.171  1.00  0.00     0.031 C 
ATOM     57  C   UNL A   1      43.799  29.013  32.866  1.00  0.00     0.031 A 
BRANCH  44  58
ATOM     58  C   UNL A   1      41.517  34.362  34.956  1.00  0.00    -0.014 A 
ATOM     59  C   UNL A   1      40.984  34.306  36.253  1.00  0.00     0.009 A 
ATOM     60  C   UNL A   1      42.207  35.516  34.554  1.00  0.00     0.009 A 
ATOM     61  C   UNL A   1      41.104  35.398  37.116  1.00  0.00     0.001 A 
ATOM     62  C   UNL A   1      42.352  36.594  35.430  1.00  0.00     0.001 A 
ATOM     63  C   UNL A   1      41.791  36.539  36.705  1.00  0.00     0.000 A 
ENDBRANCH  44  58
BRANCH  45  64
ATOM     64  C   UNL A   1      40.370  27.012  28.303  1.00  0.00    -0.014 A 
ATOM     65  C   UNL A   1      39.615  25.872  28.618  1.00  0.00     0.009 A 
ATOM     66  C   UNL A   1      40.984  27.092  27.044  1.00  0.00     0.009 A 
ATOM     67  C   UNL A   1      39.501  24.821  27.705  1.00  0.00     0.001 A 
ATOM     68  C   UNL A   1      40.844  26.052  26.120  1.00  0.00     0.001 A 
ATOM     69  C   UNL A   1      40.112  24.915  26.456  1.00  0.00     0.000 A 
ENDBRANCH  45  64
BRANCH  57  70
ATOM     70  C   UNL A   1      44.987  28.235  33.360  1.00  0.00    -0.014 A 
ATOM     71  C   UNL A   1      46.275  28.466  32.851  1.00  0.00     0.009 A 
ATOM     72  C   UNL A   1      44.817  27.274  34.369  1.00  0.00     0.009 A 
ATOM     73  C   UNL A   1      47.361  27.723  33.317  1.00  0.00     0.001 A 
ATOM     74  C   UNL A   1      45.908  26.554  34.854  1.00  0.00     0.001 A 
ATOM     75  C   UNL A   1      47.178  26.770  34.319  1.00  0.00     0.000 A 
ENDBRANCH  57  70
ENDBRANCH  31  32
ENDBRANCH  23  26
ENDBRANCH  21  22
ENDBRANCH  20  21
ENDBRANCH  19  20
ENDBRANCH   1  19
TORSDOF 15
ENDMDL
MODEL 3
REMARK VINA RESULT:      -9.8      5.389     11.329
REMARK SMILES CCO[P@TB12](C)(=O)C[N@@H+]1CCC[C@@H]1C(=O)NCCCCNC(=O)c1ccc(-c2c3nc(c(-c4ccccc4)c4ccc([nH]4)c(-c4ccccc4)c4nc(c(-c5ccccc5)c5ccc2[nH]5)C=C4)C=C3)cc1
REMARK SMILES IDX 16 1 15 2 13 3 14 4 12 6 8 7 9 8 10 10 11 11 7 12 4 13 6 14
REMARK SMILES IDX 5 15 3 16 2 17 1 18 17 19 18 20 19 21 20 22 21 23 22 25
REMARK SMILES IDX 23 26 24 27 70 28 25 29 69 30 26 31 27 32 28 33 63 34 29 35
REMARK SMILES IDX 68 36 62 37 64 38 30 39 67 40 61 41 60 42 31 44 53 45 38 46
REMARK SMILES IDX 52 47 39 48 42 49 51 50 65 51 40 52 41 53 50 55 66 56 43 57
REMARK SMILES IDX 32 58 33 59 37 60 34 61 36 62 35 63 54 64 55 65 59 66 56 67
REMARK SMILES IDX 58 68 57 69 44 70 45 71 49 72 46 73 48 74 47 75
REMARK H PARENT 15 5 8 9 20 24 64 43 42 54
REMARK Flexibility Score: inf
ROOT
ATOM      1  C   UNL A   1      46.050  22.548  25.277  1.00  0.00       nan C 
ENDROOT
BRANCH   1   2
ATOM      2  N   UNL A   1      46.394  23.696  24.465  1.00  0.00       nan N 
ATOM      3  C   UNL A   1      47.193  24.761  24.761  1.00  0.00       nan C 
ATOM      4  O   UNL A   1      47.634  25.392  23.793  1.00  0.00       nan OA
ATOM      5  H   UNL A   1      45.993  23.710  23.566  1.00  0.00       nan HD
BRANCH   3   6
ATOM      6  C   UNL A   1      47.628  25.123  26.191  1.00  0.00       nan C 
ATOM      7  N   UNL A   1      46.795  26.136  26.858  1.00  0.00       nan N 
ATOM      8  C   UNL A   1      47.661  26.944  27.718  1.00  0.00       nan C 
ATOM      9  H   UNL A   1      46.118  25.594  27.395  1.00  0.00       nan HD
ATOM     10  C   UNL A   1      49.040  26.882  27.094  1.00  0.00       nan C 
ATOM     11  C   UNL A   1      49.088  25.519  26.420  1.00  0.00       nan C 
BRANCH   7  12
ATOM     12  C   UNL A   1      45.820  26.907  26.094  1.00  0.00       nan C 
BRANCH  12  13
ATOM     13  P   UNL A   1      45.170  28.313  27.068  1.00  0.00       nan P 
ATOM     14  O   UNL A   1      45.239  29.252  25.845  1.00  0.00       nan OA
ATOM     15  C   UNL A   1      44.519  29.719  28.042  1.00  0.00       nan C 
BRANCH  13  16
ATOM     16  O   UNL A   1      43.645  27.652  27.058  1.00  0.00       nan OA
BRANCH  16  17
ATOM     17  C   UNL A   1      42.891  27.503  25.869  1.00  0.00       nan C 
ATOM     18  C   UNL A   1      41.847  28.591  25.717  1.00  0.00       nan C 
ENDBRANCH  16  17
ENDBRANCH  13  16
ENDBRANCH  12  13
ENDBRANCH   7  12
ENDBRANCH   3   6
ENDBRANCH   1   2
BRANCH   1  19
ATOM     19  C   UNL A   1      46.213  21.221  24.559  1.00  0.00       nan C 
BRANCH  19  20
ATOM     20  C   UNL A   1      44.906  20.459  24.349  1.00  0.00       nan C 
BRANCH  20  21
ATOM     21  C   UNL A   1      44.288  19.840  25.600  1.00  0.00       nan C 
BRANCH  21  22
ATOM     22  N   UNL A   1      42.941  19.325  25.394  1.00  0.00       nan N 
ATOM     23  C   UNL A   1      41.738  19.860  25.796  1.00  0.00       nan C 
ATOM     24  H   UNL A   1      42.883  18.474  24.900  1.00  0.00       nan HD
ATOM     25  O   UNL A   1      40.695  19.253  25.626  1.00  0.00       inf OA
BRANCH  23  26
ATOM     26  C   UNL A   1      41.740  21.168  26.479  1.00  0.00       inf A 
ATOM     27  C   UNL A   1      41.411  21.217  27.835  1.00  0.00     0.014 A 
ATOM     28  C   UNL A   1      42.143  22.320  25.799  1.00  0.00     0.014 A 
ATOM     29  C   UNL A   1      41.565  22.414  28.532  1.00  0.00     0.010 A 
ATOM     30  C   UNL A   1      42.371  23.490  26.512  1.00  0.00     0.010 A 
ATOM     31  C   UNL A   1      42.089  23.548  27.886  1.00  0.00    -0.014 A 
BRANCH  31  32
ATOM     32  C   UNL A   1      42.361  24.796  28.642  1.00  0.00     0.031 A 
ATOM     33  C   UNL A   1      41.322  25.878  28.714  1.00  0.00     0.074 A 
ATOM     34  C   UNL A   1      43.564  24.974  29.221  1.00  0.00     0.049 A 
ATOM     35  N   UNL A   1      41.382  27.040  29.314  1.00  0.00    -0.248 NA
ATOM     36  C   UNL A   1      40.060  25.637  27.996  1.00  0.00     0.031 C 
ATOM     37  C   UNL A   1      44.678  24.022  29.180  1.00  0.00     0.029 A 
ATOM     38  N   UNL A   1      44.052  26.022  29.962  1.00  0.00    -0.354 N 
ATOM     39  C   UNL A   1      40.176  27.670  29.038  1.00  0.00     0.074 A 
ATOM     40  C   UNL A   1      39.428  26.789  28.167  1.00  0.00     0.031 C 
ATOM     41  C   UNL A   1      45.701  24.513  29.898  1.00  0.00     0.029 A 
ATOM     42  C   UNL A   1      45.333  25.825  30.419  1.00  0.00     0.049 A 
ATOM     43  H   UNL A   1      43.533  26.837  30.149  1.00  0.00     0.167 HD
ATOM     44  C   UNL A   1      39.719  28.862  29.487  1.00  0.00     0.031 A 
ATOM     45  C   UNL A   1      46.120  26.611  31.177  1.00  0.00     0.031 A 
ATOM     46  C   UNL A   1      40.457  29.735  30.360  1.00  0.00     0.049 A 
ATOM     47  C   UNL A   1      45.591  27.932  31.660  1.00  0.00     0.074 A 
ATOM     48  C   UNL A   1      40.058  30.939  30.913  1.00  0.00     0.029 A 
ATOM     49  N   UNL A   1      41.748  29.497  30.803  1.00  0.00    -0.354 N 
ATOM     50  N   UNL A   1      44.418  28.478  31.451  1.00  0.00    -0.248 NA
ATOM     51  C   UNL A   1      46.490  28.736  32.498  1.00  0.00     0.031 C 
ATOM     52  C   UNL A   1      41.128  31.453  31.654  1.00  0.00     0.029 A 
ATOM     53  C   UNL A   1      42.171  30.542  31.607  1.00  0.00     0.049 A 
ATOM     54  H   UNL A   1      42.285  28.703  30.580  1.00  0.00     0.167 HD
ATOM     55  C   UNL A   1      44.428  29.676  32.153  1.00  0.00     0.074 A 
ATOM     56  C   UNL A   1      45.717  29.766  32.809  1.00  0.00     0.031 C 
ATOM     57  C   UNL A   1      43.458  30.618  32.247  1.00  0.00     0.031 A 
BRANCH  44  58
ATOM     58  C   UNL A   1      38.350  29.289  29.034  1.00  0.00    -0.014 A 
ATOM     59  C   UNL A   1      37.244  29.218  29.896  1.00  0.00     0.009 A 
ATOM     60  C   UNL A   1      38.168  29.791  27.737  1.00  0.00     0.009 A 
ATOM     61  C   UNL A   1      35.977  29.604  29.456  1.00  0.00     0.001 A 
ATOM     62  C   UNL A   1      36.904  30.206  27.310  1.00  0.00     0.001 A 
ATOM     63  C   UNL A   1      35.809  30.102  28.165  1.00  0.00     0.000 A 
ENDBRANCH  44  58
BRANCH  45  64
ATOM     64  C   UNL A   1      47.485  26.159  31.554  1.00  0.00    -0.014 A 
ATOM     65  C   UNL A   1      48.570  26.382  30.693  1.00  0.00     0.009 A 
ATOM     66  C   UNL A   1      47.709  25.491  32.768  1.00  0.00     0.009 A 
ATOM     67  C   UNL A   1      49.846  25.921  31.026  1.00  0.00     0.001 A 
ATOM     68  C   UNL A   1      48.991  25.056  33.112  1.00  0.00     0.001 A 
ATOM     69  C   UNL A   1      50.056  25.262  32.236  1.00  0.00     0.000 A 
ENDBRANCH  45  64
BRANCH  57  70
ATOM     70  C   UNL A   1      43.744  31.810  33.117  1.00  0.00    -0.014 A 
ATOM     71  C   UNL A   1      43.434  31.807  34.486  1.00  0.00     0.009 A 
ATOM     72  C   UNL A   1      44.359  32.943  32.562  1.00  0.00     0.009 A 
ATOM     73  C   UNL A   1      43.698  32.930  35.272  1.00  0.00     0.001 A 
ATOM     74  C   UNL A   1      44.650  34.053  33.356  1.00  0.00     0.001 A 
ATOM     75  C   UNL A   1      44.308  34.050  34.708  1.00  0.00     0.000 A 
ENDBRANCH  57  70
ENDBRANCH  31  32
ENDBRANCH  23  26
ENDBRANCH  21  22
ENDBRANCH  20  21
ENDBRANCH  19  20
ENDBRANCH   1  19
TORSDOF 15
ENDMDL
