MODEL 1
REMARK VINA RESULT:     -11.3      0.000      0.000
REMARK SMILES COc1nc(-c2ccccc2)nc(C)c1CC(=O)NCCCCNC(=O)c1ccc(-c2c3nc(c(-c4ccccc4)c4ccc([nH]4)c(-c4ccccc4)c4nc(c(-c5ccccc5)c5ccc2[nH]5)C=C4)C=C3)cc1
REMARK SMILES IDX 21 1 20 2 19 3 17 4 18 5 16 7 15 8 3 9 4 10 5 11 13 12 12 13
REMARK SMILES IDX 14 14 2 15 1 16 6 17 7 18 11 19 8 20 10 21 9 22 22 23 23 24
REMARK SMILES IDX 24 25 25 26 26 28 27 29 28 30 74 31 29 32 73 33 30 34 31 35
REMARK SMILES IDX 32 36 67 37 33 38 72 39 66 40 68 41 34 42 71 43 65 44 64 45
REMARK SMILES IDX 35 47 57 48 42 49 56 50 43 51 46 52 55 53 69 54 44 55 45 56
REMARK SMILES IDX 54 58 70 59 47 60 36 61 37 62 41 63 38 64 40 65 39 66 58 67
REMARK SMILES IDX 59 68 63 69 60 70 62 71 61 72 48 73 49 74 53 75 50 76 52 77
REMARK SMILES IDX 51 78
REMARK H PARENT 19 6 24 27 68 46 46 57
REMARK Flexibility Score: inf
ROOT
ATOM      1  C   UNL A   1      33.114  29.322  24.841  1.00  0.00     0.023 C 
ENDROOT
BRANCH   1   2
ATOM      2  C   UNL A   1      31.585  29.347  24.836  1.00  0.00     0.116 C 
BRANCH   2   3
ATOM      3  N   UNL A   1      31.033  29.443  23.501  1.00  0.00    -0.356 N 
ATOM      4  C   UNL A   1      30.314  28.542  22.772  1.00  0.00     0.224 C 
ATOM      5  O   UNL A   1      29.882  28.921  21.679  1.00  0.00    -0.275 OA
ATOM      6  H   UNL A   1      31.204  30.299  23.045  1.00  0.00     0.163 HD
BRANCH   4   7
ATOM      7  C   UNL A   1      29.984  27.151  23.303  1.00  0.00     0.143 C 
BRANCH   7   8
ATOM      8  C   UNL A   1      31.176  26.279  23.585  1.00  0.00     0.045 A 
ATOM      9  C   UNL A   1      32.046  25.923  22.560  1.00  0.00     0.220 A 
ATOM     10  N   UNL A   1      33.204  25.257  22.716  1.00  0.00    -0.193 NA
ATOM     11  C   UNL A   1      33.469  24.870  23.972  1.00  0.00     0.163 A 
ATOM     12  C   UNL A   1      31.531  25.799  24.835  1.00  0.00     0.049 A 
ATOM     13  N   UNL A   1      32.668  25.100  25.030  1.00  0.00    -0.233 NA
ATOM     14  C   UNL A   1      30.741  26.005  26.094  1.00  0.00     0.067 C 
BRANCH   9  15
ATOM     15  O   UNL A   1      31.620  26.129  21.268  1.00  0.00    -0.481 OA
ATOM     16  C   UNL A   1      32.499  25.543  20.316  1.00  0.00     0.280 C 
ENDBRANCH   9  15
BRANCH  11  17
ATOM     17  C   UNL A   1      34.724  24.166  24.267  1.00  0.00     0.019 A 
ATOM     18  C   UNL A   1      35.378  24.360  25.499  1.00  0.00     0.012 A 
ATOM     19  C   UNL A   1      35.348  23.340  23.318  1.00  0.00     0.012 A 
ATOM     20  C   UNL A   1      36.609  23.759  25.773  1.00  0.00     0.001 A 
ATOM     21  C   UNL A   1      36.589  22.750  23.584  1.00  0.00     0.001 A 
ATOM     22  C   UNL A   1      37.218  22.959  24.811  1.00  0.00     0.000 A 
ENDBRANCH  11  17
ENDBRANCH   7   8
ENDBRANCH   4   7
ENDBRANCH   2   3
ENDBRANCH   1   2
BRANCH   1  23
ATOM     23  C   UNL A   1      33.743  28.429  25.914  1.00  0.00     0.023 C 
BRANCH  23  24
ATOM     24  C   UNL A   1      33.369  28.764  27.354  1.00  0.00     0.116 C 
BRANCH  24  25
ATOM     25  N   UNL A   1      33.480  30.179  27.670  1.00  0.00    -0.352 N 
ATOM     26  C   UNL A   1      34.559  30.877  28.162  1.00  0.00     0.251 C 
ATOM     27  H   UNL A   1      32.668  30.713  27.510  1.00  0.00     0.163 HD
ATOM     28  O   UNL A   1      34.450  32.059  28.454  1.00  0.00    -0.269 OA
BRANCH  26  29
ATOM     29  C   UNL A   1      35.844  30.175  28.379  1.00  0.00     0.039 A 
ATOM     30  C   UNL A   1      36.761  30.122  27.326  1.00  0.00     0.014 A 
ATOM     31  C   UNL A   1      36.158  29.608  29.616  1.00  0.00     0.014 A 
ATOM     32  C   UNL A   1      38.028  29.579  27.542  1.00  0.00     0.010 A 
ATOM     33  C   UNL A   1      37.443  29.126  29.848  1.00  0.00     0.010 A 
ATOM     34  C   UNL A   1      38.396  29.123  28.818  1.00  0.00    -0.014 A 
BRANCH  34  35
ATOM     35  C   UNL A   1      39.786  28.688  29.107  1.00  0.00     0.031 A 
ATOM     36  C   UNL A   1      40.768  29.632  29.739  1.00  0.00     0.074 A 
ATOM     37  C   UNL A   1      40.183  27.457  28.725  1.00  0.00     0.049 A 
ATOM     38  N   UNL A   1      42.037  29.447  30.000  1.00  0.00    -0.248 NA
ATOM     39  C   UNL A   1      40.265  30.965  30.104  1.00  0.00     0.031 C 
ATOM     40  C   UNL A   1      39.338  26.459  28.065  1.00  0.00     0.029 A 
ATOM     41  N   UNL A   1      41.405  26.841  28.829  1.00  0.00    -0.354 N 
ATOM     42  C   UNL A   1      42.487  30.641  30.549  1.00  0.00     0.074 A 
ATOM     43  C   UNL A   1      41.368  31.558  30.540  1.00  0.00     0.031 C 
ATOM     44  C   UNL A   1      40.061  25.349  27.845  1.00  0.00     0.029 A 
ATOM     45  C   UNL A   1      41.426  25.571  28.305  1.00  0.00     0.049 A 
ATOM     46  H   UNL A   1      42.191  27.268  29.238  1.00  0.00     0.167 HD
ATOM     47  C   UNL A   1      43.717  30.942  31.029  1.00  0.00     0.031 A 
ATOM     48  C   UNL A   1      42.435  24.686  28.196  1.00  0.00     0.031 A 
ATOM     49  C   UNL A   1      44.831  30.030  31.039  1.00  0.00     0.049 A 
ATOM     50  C   UNL A   1      43.797  25.055  28.713  1.00  0.00     0.074 A 
ATOM     51  C   UNL A   1      46.100  30.225  31.557  1.00  0.00     0.029 A 
ATOM     52  N   UNL A   1      44.812  28.754  30.498  1.00  0.00    -0.354 N 
ATOM     53  N   UNL A   1      44.187  26.164  29.293  1.00  0.00    -0.248 NA
ATOM     54  C   UNL A   1      44.855  24.046  28.565  1.00  0.00     0.031 C 
ATOM     55  C   UNL A   1      46.865  29.087  31.282  1.00  0.00     0.029 A 
ATOM     56  C   UNL A   1      46.056  28.162  30.643  1.00  0.00     0.049 A 
ATOM     57  H   UNL A   1      44.031  28.331  30.074  1.00  0.00     0.167 HD
ATOM     58  C   UNL A   1      45.529  25.978  29.598  1.00  0.00     0.074 A 
ATOM     59  C   UNL A   1      45.879  24.643  29.158  1.00  0.00     0.031 C 
ATOM     60  C   UNL A   1      46.393  26.836  30.192  1.00  0.00     0.031 A 
BRANCH  47  61
ATOM     61  C   UNL A   1      43.927  32.326  31.576  1.00  0.00    -0.014 A 
ATOM     62  C   UNL A   1      43.714  32.610  32.935  1.00  0.00     0.009 A 
ATOM     63  C   UNL A   1      44.384  33.350  30.731  1.00  0.00     0.009 A 
ATOM     64  C   UNL A   1      43.922  33.900  33.428  1.00  0.00     0.001 A 
ATOM     65  C   UNL A   1      44.617  34.632  31.234  1.00  0.00     0.001 A 
ATOM     66  C   UNL A   1      44.378  34.908  32.579  1.00  0.00     0.000 A 
ENDBRANCH  47  61
BRANCH  48  67
ATOM     67  C   UNL A   1      42.196  23.357  27.574  1.00  0.00    -0.014 A 
ATOM     68  C   UNL A   1      42.535  23.130  26.231  1.00  0.00     0.009 A 
ATOM     69  C   UNL A   1      41.623  22.313  28.317  1.00  0.00     0.009 A 
ATOM     70  C   UNL A   1      42.280  21.891  25.638  1.00  0.00     0.001 A 
ATOM     71  C   UNL A   1      41.396  21.067  27.729  1.00  0.00     0.001 A 
ATOM     72  C   UNL A   1      41.716  20.860  26.387  1.00  0.00     0.000 A 
ENDBRANCH  48  67
BRANCH  60  73
ATOM     73  C   UNL A   1      47.796  26.348  30.419  1.00  0.00    -0.014 A 
ATOM     74  C   UNL A   1      48.779  26.468  29.424  1.00  0.00     0.009 A 
ATOM     75  C   UNL A   1      48.147  25.790  31.659  1.00  0.00     0.009 A 
ATOM     76  C   UNL A   1      50.077  26.008  29.655  1.00  0.00     0.001 A 
ATOM     77  C   UNL A   1      49.452  25.357  31.896  1.00  0.00     0.001 A 
ATOM     78  C   UNL A   1      50.413  25.457  30.892  1.00  0.00     0.000 A 
ENDBRANCH  60  73
ENDBRANCH  34  35
ENDBRANCH  26  29
ENDBRANCH  24  25
ENDBRANCH  23  24
ENDBRANCH   1  23
TORSDOF 14
ENDMDL
MODEL 2
REMARK VINA RESULT:     -11.2      4.819     10.207
REMARK SMILES COc1nc(-c2ccccc2)nc(C)c1CC(=O)NCCCCNC(=O)c1ccc(-c2c3nc(c(-c4ccccc4)c4ccc([nH]4)c(-c4ccccc4)c4nc(c(-c5ccccc5)c5ccc2[nH]5)C=C4)C=C3)cc1
REMARK SMILES IDX 21 1 20 2 19 3 17 4 18 5 16 7 15 8 3 9 4 10 5 11 13 12 12 13
REMARK SMILES IDX 14 14 2 15 1 16 6 17 7 18 11 19 8 20 10 21 9 22 22 23 23 24
REMARK SMILES IDX 24 25 25 26 26 28 27 29 28 30 74 31 29 32 73 33 30 34 31 35
REMARK SMILES IDX 32 36 67 37 33 38 72 39 66 40 68 41 34 42 71 43 65 44 64 45
REMARK SMILES IDX 35 47 57 48 42 49 56 50 43 51 46 52 55 53 69 54 44 55 45 56
REMARK SMILES IDX 54 58 70 59 47 60 36 61 37 62 41 63 38 64 40 65 39 66 58 67
REMARK SMILES IDX 59 68 63 69 60 70 62 71 61 72 48 73 49 74 53 75 50 76 52 77
REMARK SMILES IDX 51 78
REMARK H PARENT 19 6 24 27 68 46 46 57
REMARK Flexibility Score: inf
ROOT
ATOM      1  C   UNL A   1      34.015  34.186  32.976  1.00  0.00     0.023 C 
ENDROOT
BRANCH   1   2
ATOM      2  C   UNL A   1      35.217  34.674  33.787  1.00  0.00     0.116 C 
BRANCH   2   3
ATOM      3  N   UNL A   1      35.267  34.094  35.113  1.00  0.00    -0.356 N 
ATOM      4  C   UNL A   1      36.334  33.772  35.899  1.00  0.00     0.224 C 
ATOM      5  O   UNL A   1      36.089  33.370  37.040  1.00  0.00    -0.275 OA
ATOM      6  H   UNL A   1      34.388  33.901  35.513  1.00  0.00     0.163 HD
BRANCH   4   7
ATOM      7  C   UNL A   1      37.772  33.968  35.432  1.00  0.00     0.143 C 
BRANCH   7   8
ATOM      8  C   UNL A   1      38.618  32.725  35.440  1.00  0.00     0.045 A 
ATOM      9  C   UNL A   1      38.513  31.795  34.411  1.00  0.00     0.220 A 
ATOM     10  N   UNL A   1      39.302  30.718  34.249  1.00  0.00    -0.193 NA
ATOM     11  C   UNL A   1      40.211  30.532  35.218  1.00  0.00     0.163 A 
ATOM     12  C   UNL A   1      39.567  32.416  36.401  1.00  0.00     0.049 A 
ATOM     13  N   UNL A   1      40.358  31.330  36.293  1.00  0.00    -0.233 NA
ATOM     14  C   UNL A   1      39.846  33.231  37.630  1.00  0.00     0.067 C 
BRANCH   9  15
ATOM     15  O   UNL A   1      37.421  31.893  33.579  1.00  0.00    -0.481 OA
ATOM     16  C   UNL A   1      37.019  30.625  33.076  1.00  0.00     0.280 C 
ENDBRANCH   9  15
BRANCH  11  17
ATOM     17  C   UNL A   1      41.150  29.408  35.128  1.00  0.00     0.019 A 
ATOM     18  C   UNL A   1      41.176  28.590  33.980  1.00  0.00     0.012 A 
ATOM     19  C   UNL A   1      41.997  29.064  36.194  1.00  0.00     0.012 A 
ATOM     20  C   UNL A   1      42.009  27.471  33.901  1.00  0.00     0.001 A 
ATOM     21  C   UNL A   1      42.820  27.934  36.124  1.00  0.00     0.001 A 
ATOM     22  C   UNL A   1      42.826  27.139  34.978  1.00  0.00     0.000 A 
ENDBRANCH  11  17
ENDBRANCH   7   8
ENDBRANCH   4   7
ENDBRANCH   2   3
ENDBRANCH   1   2
BRANCH   1  23
ATOM     23  C   UNL A   1      33.112  35.293  32.428  1.00  0.00     0.023 C 
BRANCH  23  24
ATOM     24  C   UNL A   1      33.565  35.925  31.116  1.00  0.00     0.116 C 
BRANCH  24  25
ATOM     25  N   UNL A   1      32.826  35.452  29.956  1.00  0.00    -0.352 N 
ATOM     26  C   UNL A   1      33.188  34.512  29.019  1.00  0.00     0.251 C 
ATOM     27  H   UNL A   1      31.941  35.864  29.821  1.00  0.00     0.163 HD
ATOM     28  O   UNL A   1      32.474  34.297  28.050  1.00  0.00    -0.269 OA
BRANCH  26  29
ATOM     29  C   UNL A   1      34.473  33.793  29.166  1.00  0.00     0.039 A 
ATOM     30  C   UNL A   1      35.595  34.288  28.494  1.00  0.00     0.014 A 
ATOM     31  C   UNL A   1      34.582  32.667  29.985  1.00  0.00     0.014 A 
ATOM     32  C   UNL A   1      36.843  33.706  28.715  1.00  0.00     0.010 A 
ATOM     33  C   UNL A   1      35.838  32.129  30.255  1.00  0.00     0.010 A 
ATOM     34  C   UNL A   1      36.983  32.655  29.636  1.00  0.00    -0.014 A 
BRANCH  34  35
ATOM     35  C   UNL A   1      38.321  32.127  30.003  1.00  0.00     0.031 A 
ATOM     36  C   UNL A   1      38.780  30.789  29.501  1.00  0.00     0.074 A 
ATOM     37  C   UNL A   1      39.093  32.828  30.857  1.00  0.00     0.049 A 
ATOM     38  N   UNL A   1      39.885  30.141  29.774  1.00  0.00    -0.248 NA
ATOM     39  C   UNL A   1      37.870  30.072  28.594  1.00  0.00     0.031 C 
ATOM     40  C   UNL A   1      38.746  34.123  31.448  1.00  0.00     0.029 A 
ATOM     41  N   UNL A   1      40.328  32.544  31.384  1.00  0.00    -0.354 N 
ATOM     42  C   UNL A   1      39.799  28.940  29.082  1.00  0.00     0.074 A 
ATOM     43  C   UNL A   1      38.515  28.927  28.415  1.00  0.00     0.031 C 
ATOM     44  C   UNL A   1      39.753  34.530  32.237  1.00  0.00     0.029 A 
ATOM     45  C   UNL A   1      40.795  33.509  32.244  1.00  0.00     0.049 A 
ATOM     46  H   UNL A   1      40.831  31.726  31.169  1.00  0.00     0.167 HD
ATOM     47  C   UNL A   1      40.712  27.942  28.999  1.00  0.00     0.031 A 
ATOM     48  C   UNL A   1      41.930  33.563  32.966  1.00  0.00     0.031 A 
ATOM     49  C   UNL A   1      41.990  27.954  29.662  1.00  0.00     0.049 A 
ATOM     50  C   UNL A   1      42.914  32.431  32.876  1.00  0.00     0.074 A 
ATOM     51  C   UNL A   1      43.005  27.016  29.590  1.00  0.00     0.029 A 
ATOM     52  N   UNL A   1      42.424  28.949  30.524  1.00  0.00    -0.354 N 
ATOM     53  N   UNL A   1      42.848  31.334  32.161  1.00  0.00    -0.248 NA
ATOM     54  C   UNL A   1      44.133  32.550  33.688  1.00  0.00     0.031 C 
ATOM     55  C   UNL A   1      44.032  27.417  30.451  1.00  0.00     0.029 A 
ATOM     56  C   UNL A   1      43.680  28.632  31.015  1.00  0.00     0.049 A 
ATOM     57  H   UNL A   1      41.915  29.760  30.753  1.00  0.00     0.167 HD
ATOM     58  C   UNL A   1      44.024  30.643  32.421  1.00  0.00     0.074 A 
ATOM     59  C   UNL A   1      44.793  31.455  33.342  1.00  0.00     0.031 C 
ATOM     60  C   UNL A   1      44.430  29.444  31.938  1.00  0.00     0.031 A 
BRANCH  47  61
ATOM     61  C   UNL A   1      40.354  26.745  28.166  1.00  0.00    -0.014 A 
ATOM     62  C   UNL A   1      39.566  25.705  28.686  1.00  0.00     0.009 A 
ATOM     63  C   UNL A   1      40.775  26.673  26.828  1.00  0.00     0.009 A 
ATOM     64  C   UNL A   1      39.237  24.603  27.894  1.00  0.00     0.001 A 
ATOM     65  C   UNL A   1      40.420  25.583  26.031  1.00  0.00     0.001 A 
ATOM     66  C   UNL A   1      39.660  24.545  26.566  1.00  0.00     0.000 A 
ENDBRANCH  47  61
BRANCH  48  67
ATOM     67  C   UNL A   1      42.202  34.735  33.838  1.00  0.00    -0.014 A 
ATOM     68  C   UNL A   1      41.830  34.716  35.191  1.00  0.00     0.009 A 
ATOM     69  C   UNL A   1      42.828  35.880  33.322  1.00  0.00     0.009 A 
ATOM     70  C   UNL A   1      42.057  35.830  36.002  1.00  0.00     0.001 A 
ATOM     71  C   UNL A   1      43.079  36.982  34.142  1.00  0.00     0.001 A 
ATOM     72  C   UNL A   1      42.685  36.960  35.480  1.00  0.00     0.000 A 
ENDBRANCH  48  67
BRANCH  60  73
ATOM     73  C   UNL A   1      45.778  28.949  32.381  1.00  0.00    -0.014 A 
ATOM     74  C   UNL A   1      46.947  29.296  31.685  1.00  0.00     0.009 A 
ATOM     75  C   UNL A   1      45.882  28.151  33.531  1.00  0.00     0.009 A 
ATOM     76  C   UNL A   1      48.190  28.825  32.114  1.00  0.00     0.001 A 
ATOM     77  C   UNL A   1      47.128  27.705  33.974  1.00  0.00     0.001 A 
ATOM     78  C   UNL A   1      48.279  28.035  33.260  1.00  0.00     0.000 A 
ENDBRANCH  60  73
ENDBRANCH  34  35
ENDBRANCH  26  29
ENDBRANCH  24  25
ENDBRANCH  23  24
ENDBRANCH   1  23
TORSDOF 14
ENDMDL
MODEL 3
REMARK VINA RESULT:     -11.1      0.262      5.939
REMARK SMILES COc1nc(-c2ccccc2)nc(C)c1CC(=O)NCCCCNC(=O)c1ccc(-c2c3nc(c(-c4ccccc4)c4ccc([nH]4)c(-c4ccccc4)c4nc(c(-c5ccccc5)c5ccc2[nH]5)C=C4)C=C3)cc1
REMARK SMILES IDX 21 1 20 2 19 3 17 4 18 5 16 7 15 8 3 9 4 10 5 11 13 12 12 13
REMARK SMILES IDX 14 14 2 15 1 16 6 17 7 18 11 19 8 20 10 21 9 22 22 23 23 24
REMARK SMILES IDX 24 25 25 26 26 28 27 29 28 30 74 31 29 32 73 33 30 34 31 35
REMARK SMILES IDX 32 36 67 37 33 38 72 39 66 40 68 41 34 42 71 43 65 44 64 45
REMARK SMILES IDX 35 47 57 48 42 49 56 50 43 51 46 52 55 53 69 54 44 55 45 56
REMARK SMILES IDX 54 58 70 59 47 60 36 61 37 62 41 63 38 64 40 65 39 66 58 67
REMARK SMILES IDX 59 68 63 69 60 70 62 71 61 72 48 73 49 74 53 75 50 76 52 77
REMARK SMILES IDX 51 78
REMARK H PARENT 19 6 24 27 68 46 46 57
REMARK Flexibility Score: inf
ROOT
ATOM      1  C   UNL A   1      33.005  29.531  24.936  1.00  0.00     0.023 C 
ENDROOT
BRANCH   1   2
ATOM      2  C   UNL A   1      31.480  29.444  24.856  1.00  0.00     0.116 C 
BRANCH   2   3
ATOM      3  N   UNL A   1      30.988  29.516  23.495  1.00  0.00    -0.356 N 
ATOM      4  C   UNL A   1      30.313  28.596  22.748  1.00  0.00     0.224 C 
ATOM      5  O   UNL A   1      29.928  28.955  21.632  1.00  0.00    -0.275 OA
ATOM      6  H   UNL A   1      31.171  30.366  23.035  1.00  0.00     0.163 HD
BRANCH   4   7
ATOM      7  C   UNL A   1      29.974  27.209  23.284  1.00  0.00     0.143 C 
BRANCH   7   8
ATOM      8  C   UNL A   1      31.161  26.330  23.569  1.00  0.00     0.045 A 
ATOM      9  C   UNL A   1      32.034  25.974  22.548  1.00  0.00     0.220 A 
ATOM     10  N   UNL A   1      33.189  25.302  22.708  1.00  0.00    -0.193 NA
ATOM     11  C   UNL A   1      33.446  24.910  23.964  1.00  0.00     0.163 A 
ATOM     12  C   UNL A   1      31.508  25.845  24.820  1.00  0.00     0.049 A 
ATOM     13  N   UNL A   1      32.640  25.140  25.018  1.00  0.00    -0.233 NA
ATOM     14  C   UNL A   1      30.712  26.051  26.075  1.00  0.00     0.067 C 
BRANCH   9  15
ATOM     15  O   UNL A   1      31.616  26.186  21.254  1.00  0.00    -0.481 OA
ATOM     16  C   UNL A   1      32.480  25.570  20.306  1.00  0.00     0.280 C 
ENDBRANCH   9  15
BRANCH  11  17
ATOM     17  C   UNL A   1      34.695  24.199  24.263  1.00  0.00     0.019 A 
ATOM     18  C   UNL A   1      35.350  24.395  25.495  1.00  0.00     0.012 A 
ATOM     19  C   UNL A   1      35.315  23.364  23.319  1.00  0.00     0.012 A 
ATOM     20  C   UNL A   1      36.578  23.788  25.773  1.00  0.00     0.001 A 
ATOM     21  C   UNL A   1      36.552  22.767  23.589  1.00  0.00     0.001 A 
ATOM     22  C   UNL A   1      37.181  22.979  24.815  1.00  0.00     0.000 A 
ENDBRANCH  11  17
ENDBRANCH   7   8
ENDBRANCH   4   7
ENDBRANCH   2   3
ENDBRANCH   1   2
BRANCH   1  23
ATOM     23  C   UNL A   1      33.667  28.483  25.835  1.00  0.00     0.023 C 
BRANCH  23  24
ATOM     24  C   UNL A   1      33.468  28.680  27.334  1.00  0.00     0.116 C 
BRANCH  24  25
ATOM     25  N   UNL A   1      33.515  30.073  27.749  1.00  0.00    -0.352 N 
ATOM     26  C   UNL A   1      34.564  30.786  28.284  1.00  0.00     0.251 C 
ATOM     27  H   UNL A   1      32.677  30.578  27.632  1.00  0.00     0.163 HD
ATOM     28  O   UNL A   1      34.401  31.937  28.660  1.00  0.00    -0.269 OA
BRANCH  26  29
ATOM     29  C   UNL A   1      35.881  30.133  28.445  1.00  0.00     0.039 A 
ATOM     30  C   UNL A   1      36.770  30.148  27.366  1.00  0.00     0.014 A 
ATOM     31  C   UNL A   1      36.253  29.544  29.656  1.00  0.00     0.014 A 
ATOM     32  C   UNL A   1      38.064  29.653  27.531  1.00  0.00     0.010 A 
ATOM     33  C   UNL A   1      37.563  29.110  29.838  1.00  0.00     0.010 A 
ATOM     34  C   UNL A   1      38.486  29.176  28.783  1.00  0.00    -0.014 A 
BRANCH  34  35
ATOM     35  C   UNL A   1      39.900  28.792  29.021  1.00  0.00     0.031 A 
ATOM     36  C   UNL A   1      40.403  27.435  28.621  1.00  0.00     0.074 A 
ATOM     37  C   UNL A   1      40.713  29.647  29.673  1.00  0.00     0.049 A 
ATOM     38  N   UNL A   1      41.584  26.904  28.813  1.00  0.00    -0.248 NA
ATOM     39  C   UNL A   1      39.448  26.549  27.937  1.00  0.00     0.031 C 
ATOM     40  C   UNL A   1      40.336  30.979  30.151  1.00  0.00     0.029 A 
ATOM     41  N   UNL A   1      42.025  29.517  30.056  1.00  0.00    -0.354 N 
ATOM     42  C   UNL A   1      41.512  25.622  28.285  1.00  0.00     0.074 A 
ATOM     43  C   UNL A   1      40.159  25.437  27.806  1.00  0.00     0.031 C 
ATOM     44  C   UNL A   1      41.399  31.551  30.742  1.00  0.00     0.029 A 
ATOM     45  C   UNL A   1      42.515  30.613  30.724  1.00  0.00     0.049 A 
ATOM     46  H   UNL A   1      42.564  28.714  29.870  1.00  0.00     0.167 HD
ATOM     47  C   UNL A   1      42.488  24.687  28.193  1.00  0.00     0.031 A 
ATOM     48  C   UNL A   1      43.724  30.835  31.272  1.00  0.00     0.031 A 
ATOM     49  C   UNL A   1      43.835  24.870  28.668  1.00  0.00     0.049 A 
ATOM     50  C   UNL A   1      44.781  29.771  31.180  1.00  0.00     0.074 A 
ATOM     51  C   UNL A   1      44.908  24.002  28.568  1.00  0.00     0.029 A 
ATOM     52  N   UNL A   1      44.290  25.993  29.340  1.00  0.00    -0.354 N 
ATOM     53  N   UNL A   1      44.717  28.590  30.614  1.00  0.00    -0.248 NA
ATOM     54  C   UNL A   1      46.080  30.075  31.798  1.00  0.00     0.031 C 
ATOM     55  C   UNL A   1      45.999  24.577  29.226  1.00  0.00     0.029 A 
ATOM     56  C   UNL A   1      45.621  25.828  29.687  1.00  0.00     0.049 A 
ATOM     57  H   UNL A   1      43.748  26.790  29.541  1.00  0.00     0.167 HD
ATOM     58  C   UNL A   1      45.970  28.020  30.788  1.00  0.00     0.074 A 
ATOM     59  C   UNL A   1      46.780  28.992  31.494  1.00  0.00     0.031 C 
ATOM     60  C   UNL A   1      46.412  26.799  30.397  1.00  0.00     0.031 A 
BRANCH  47  61
ATOM     61  C   UNL A   1      42.129  23.371  27.563  1.00  0.00    -0.014 A 
ATOM     62  C   UNL A   1      42.405  23.114  26.210  1.00  0.00     0.009 A 
ATOM     63  C   UNL A   1      41.545  22.359  28.341  1.00  0.00     0.009 A 
ATOM     64  C   UNL A   1      42.072  21.882  25.642  1.00  0.00     0.001 A 
ATOM     65  C   UNL A   1      41.240  21.118  27.777  1.00  0.00     0.001 A 
ATOM     66  C   UNL A   1      41.494  20.884  26.427  1.00  0.00     0.000 A 
ENDBRANCH  47  61
BRANCH  48  67
ATOM     67  C   UNL A   1      44.006  32.124  31.956  1.00  0.00    -0.014 A 
ATOM     68  C   UNL A   1      44.572  33.196  31.248  1.00  0.00     0.009 A 
ATOM     69  C   UNL A   1      43.716  32.288  33.319  1.00  0.00     0.009 A 
ATOM     70  C   UNL A   1      44.866  34.396  31.898  1.00  0.00     0.001 A 
ATOM     71  C   UNL A   1      43.985  33.499  33.960  1.00  0.00     0.001 A 
ATOM     72  C   UNL A   1      44.569  34.549  33.252  1.00  0.00     0.000 A 
ENDBRANCH  48  67
BRANCH  60  73
ATOM     73  C   UNL A   1      47.842  26.457  30.706  1.00  0.00    -0.014 A 
ATOM     74  C   UNL A   1      48.871  26.732  29.791  1.00  0.00     0.009 A 
ATOM     75  C   UNL A   1      48.169  25.883  31.945  1.00  0.00     0.009 A 
ATOM     76  C   UNL A   1      50.194  26.406  30.097  1.00  0.00     0.001 A 
ATOM     77  C   UNL A   1      49.495  25.585  32.259  1.00  0.00     0.001 A 
ATOM     78  C   UNL A   1      50.504  25.838  31.332  1.00  0.00     0.000 A 
ENDBRANCH  60  73
ENDBRANCH  34  35
ENDBRANCH  26  29
ENDBRANCH  24  25
ENDBRANCH  23  24
ENDBRANCH   1  23
TORSDOF 14
ENDMDL
