MODEL 1
REMARK VINA RESULT:     -11.3      0.000      0.000
REMARK SMILES C[C@H]1[C@@H]([NH2+]C[C@H]2CC[C@@H](C(=O)NCCCCNC(=O)c3ccc(-c4c5nc(c(-c6ccccc6)c6ccc([nH]6)c(-c6ccccc6)c6nc(c(-c7ccccc7)c7ccc4[nH]7)C=C6)C=C5)cc3)CC2)CCC[C@@H]1C
REMARK SMILES IDX 14 1 13 2 12 3 10 4 11 5 9 7 6 8 7 9 69 10 8 11 68 12 5 13
REMARK SMILES IDX 4 14 3 17 1 18 2 19 73 20 70 21 72 22 74 23 71 24 15 25
REMARK SMILES IDX 16 26 17 27 18 28 19 30 20 31 21 32 67 33 22 34 66 35 23 36
REMARK SMILES IDX 24 37 25 38 60 39 26 40 65 41 59 42 61 43 27 44 64 45 58 46
REMARK SMILES IDX 57 47 28 49 50 50 35 51 49 52 36 53 39 54 48 55 62 56 37 57
REMARK SMILES IDX 38 58 47 60 63 61 40 62 29 63 30 64 34 65 31 66 33 67 32 68
REMARK SMILES IDX 51 69 52 70 56 71 53 72 55 73 54 74 41 75 42 76 46 77 43 78
REMARK SMILES IDX 45 79 44 80
REMARK H PARENT 12 6 4 15 4 16 17 29 61 48 39 59
REMARK Flexibility Score: inf
ROOT
ATOM      1  C   UNL A   1      32.886  29.435  24.876  1.00  0.00     0.023 C 
ENDROOT
BRANCH   1   2
ATOM      2  C   UNL A   1      32.983  28.971  23.427  1.00  0.00     0.116 C 
BRANCH   2   3
ATOM      3  N   UNL A   1      31.837  29.344  22.627  1.00  0.00    -0.356 N 
ATOM      4  C   UNL A   1      30.702  28.650  22.331  1.00  0.00     0.223 C 
ATOM      5  O   UNL A   1      29.840  29.234  21.667  1.00  0.00    -0.275 OA
ATOM      6  H   UNL A   1      31.884  30.246  22.234  1.00  0.00     0.163 HD
BRANCH   4   7
ATOM      7  C   UNL A   1      30.483  27.202  22.782  1.00  0.00     0.078 C 
ATOM      8  C   UNL A   1      31.382  24.854  24.420  1.00  0.00     0.044 C 
ATOM      9  C   UNL A   1      30.129  25.660  24.812  1.00  0.00     0.010 C 
ATOM     10  C   UNL A   1      31.523  24.879  22.891  1.00  0.00     0.010 C 
ATOM     11  C   UNL A   1      30.104  27.092  24.267  1.00  0.00     0.014 C 
ATOM     12  C   UNL A   1      31.630  26.291  22.327  1.00  0.00     0.014 C 
BRANCH   8  13
ATOM     13  C   UNL A   1      32.677  25.337  25.114  1.00  0.00     0.264 C 
BRANCH  13  14
ATOM     14  N   UNL A   1      33.757  24.361  25.015  1.00  0.00    -0.343 N 
ATOM     15  H   UNL A   1      33.472  23.633  24.360  1.00  0.00     0.346 HD
ATOM     16  H   UNL A   1      34.584  24.868  24.701  1.00  0.00     0.346 HD
BRANCH  14  17
ATOM     17  C   UNL A   1      34.107  23.721  26.296  1.00  0.00     0.185 C 
ATOM     18  C   UNL A   1      36.595  23.807  25.749  1.00  0.00     0.014 C 
ATOM     19  C   UNL A   1      35.422  22.901  26.144  1.00  0.00     0.047 C 
ATOM     20  C   UNL A   1      35.226  21.697  25.181  1.00  0.00    -0.006 C 
ATOM     21  C   UNL A   1      33.012  22.778  26.833  1.00  0.00     0.065 C 
ATOM     22  C   UNL A   1      34.055  20.810  25.648  1.00  0.00     0.004 C 
ATOM     23  C   UNL A   1      36.487  20.839  25.043  1.00  0.00     0.008 C 
ATOM     24  C   UNL A   1      32.769  21.590  25.908  1.00  0.00     0.006 C 
ENDBRANCH  14  17
ENDBRANCH  13  14
ENDBRANCH   8  13
ENDBRANCH   4   7
ENDBRANCH   2   3
ENDBRANCH   1   2
BRANCH   1  25
ATOM     25  C   UNL A   1      33.858  28.747  25.827  1.00  0.00     0.023 C 
BRANCH  25  26
ATOM     26  C   UNL A   1      33.531  28.901  27.307  1.00  0.00     0.116 C 
BRANCH  26  27
ATOM     27  N   UNL A   1      33.596  30.278  27.778  1.00  0.00    -0.352 N 
ATOM     28  C   UNL A   1      34.656  30.925  28.369  1.00  0.00     0.251 C 
ATOM     29  H   UNL A   1      32.779  30.814  27.656  1.00  0.00     0.163 HD
ATOM     30  O   UNL A   1      34.533  32.064  28.807  1.00  0.00    -0.269 OA
BRANCH  28  31
ATOM     31  C   UNL A   1      35.938  30.207  28.510  1.00  0.00     0.039 A 
ATOM     32  C   UNL A   1      36.856  30.244  27.458  1.00  0.00     0.014 A 
ATOM     33  C   UNL A   1      36.257  29.568  29.711  1.00  0.00     0.014 A 
ATOM     34  C   UNL A   1      38.132  29.707  27.641  1.00  0.00     0.010 A 
ATOM     35  C   UNL A   1      37.550  29.102  29.916  1.00  0.00     0.010 A 
ATOM     36  C   UNL A   1      38.502  29.173  28.886  1.00  0.00    -0.014 A 
BRANCH  36  37
ATOM     37  C   UNL A   1      39.879  28.685  29.146  1.00  0.00     0.031 A 
ATOM     38  C   UNL A   1      40.899  29.612  29.746  1.00  0.00     0.074 A 
ATOM     39  C   UNL A   1      40.237  27.446  28.758  1.00  0.00     0.049 A 
ATOM     40  N   UNL A   1      42.178  29.419  29.939  1.00  0.00    -0.248 NA
ATOM     41  C   UNL A   1      40.421  30.943  30.156  1.00  0.00     0.031 C 
ATOM     42  C   UNL A   1      39.355  26.462  28.129  1.00  0.00     0.029 A 
ATOM     43  N   UNL A   1      41.452  26.809  28.822  1.00  0.00    -0.354 N 
ATOM     44  C   UNL A   1      42.662  30.610  30.464  1.00  0.00     0.074 A 
ATOM     45  C   UNL A   1      41.550  31.533  30.520  1.00  0.00     0.031 C 
ATOM     46  C   UNL A   1      40.052  25.340  27.883  1.00  0.00     0.029 A 
ATOM     47  C   UNL A   1      41.437  25.541  28.295  1.00  0.00     0.049 A 
ATOM     48  H   UNL A   1      42.257  27.221  29.210  1.00  0.00     0.167 HD
ATOM     49  C   UNL A   1      43.918  30.905  30.876  1.00  0.00     0.031 A 
ATOM     50  C   UNL A   1      42.431  24.643  28.147  1.00  0.00     0.031 A 
ATOM     51  C   UNL A   1      45.018  29.983  30.841  1.00  0.00     0.049 A 
ATOM     52  C   UNL A   1      43.817  24.997  28.610  1.00  0.00     0.074 A 
ATOM     53  C   UNL A   1      46.312  30.167  31.297  1.00  0.00     0.029 A 
ATOM     54  N   UNL A   1      44.955  28.700  30.321  1.00  0.00    -0.354 N 
ATOM     55  N   UNL A   1      44.245  26.106  29.162  1.00  0.00    -0.248 NA
ATOM     56  C   UNL A   1      44.854  23.970  28.437  1.00  0.00     0.031 C 
ATOM     57  C   UNL A   1      47.044  29.009  31.012  1.00  0.00     0.029 A 
ATOM     58  C   UNL A   1      46.192  28.087  30.426  1.00  0.00     0.049 A 
ATOM     59  H   UNL A   1      44.150  28.285  29.935  1.00  0.00     0.167 HD
ATOM     60  C   UNL A   1      45.593  25.901  29.427  1.00  0.00     0.074 A 
ATOM     61  C   UNL A   1      45.908  24.557  28.987  1.00  0.00     0.031 C 
ATOM     62  C   UNL A   1      46.487  26.748  29.989  1.00  0.00     0.031 A 
BRANCH  49  63
ATOM     63  C   UNL A   1      44.163  32.293  31.397  1.00  0.00    -0.014 A 
ATOM     64  C   UNL A   1      44.019  32.594  32.761  1.00  0.00     0.009 A 
ATOM     65  C   UNL A   1      44.573  33.306  30.517  1.00  0.00     0.009 A 
ATOM     66  C   UNL A   1      44.243  33.891  33.226  1.00  0.00     0.001 A 
ATOM     67  C   UNL A   1      44.825  34.595  30.989  1.00  0.00     0.001 A 
ATOM     68  C   UNL A   1      44.651  34.889  32.341  1.00  0.00     0.000 A 
ENDBRANCH  49  63
BRANCH  50  69
ATOM     69  C   UNL A   1      42.151  23.316  27.542  1.00  0.00    -0.014 A 
ATOM     70  C   UNL A   1      41.568  22.296  28.309  1.00  0.00     0.009 A 
ATOM     71  C   UNL A   1      42.468  23.059  26.199  1.00  0.00     0.009 A 
ATOM     72  C   UNL A   1      41.332  21.037  27.751  1.00  0.00     0.001 A 
ATOM     73  C   UNL A   1      42.207  21.808  25.637  1.00  0.00     0.001 A 
ATOM     74  C   UNL A   1      41.647  20.796  26.414  1.00  0.00     0.000 A 
ENDBRANCH  50  69
BRANCH  62  75
ATOM     75  C   UNL A   1      47.885  26.239  30.197  1.00  0.00    -0.014 A 
ATOM     76  C   UNL A   1      48.839  26.288  29.170  1.00  0.00     0.009 A 
ATOM     77  C   UNL A   1      48.263  25.754  31.459  1.00  0.00     0.009 A 
ATOM     78  C   UNL A   1      50.140  25.839  29.397  1.00  0.00     0.001 A 
ATOM     79  C   UNL A   1      49.572  25.330  31.689  1.00  0.00     0.001 A 
ATOM     80  C   UNL A   1      50.507  25.366  30.657  1.00  0.00     0.000 A 
ENDBRANCH  62  75
ENDBRANCH  36  37
ENDBRANCH  28  31
ENDBRANCH  26  27
ENDBRANCH  25  26
ENDBRANCH   1  25
TORSDOF 14
ENDMDL
MODEL 2
REMARK VINA RESULT:     -11.1      3.182      4.755
REMARK SMILES C[C@H]1[C@@H]([NH2+]C[C@H]2CC[C@@H](C(=O)NCCCCNC(=O)c3ccc(-c4c5nc(c(-c6ccccc6)c6ccc([nH]6)c(-c6ccccc6)c6nc(c(-c7ccccc7)c7ccc4[nH]7)C=C6)C=C5)cc3)CC2)CCC[C@@H]1C
REMARK SMILES IDX 14 1 13 2 12 3 10 4 11 5 9 7 6 8 7 9 69 10 8 11 68 12 5 13
REMARK SMILES IDX 4 14 3 17 1 18 2 19 73 20 70 21 72 22 74 23 71 24 15 25
REMARK SMILES IDX 16 26 17 27 18 28 19 30 20 31 21 32 67 33 22 34 66 35 23 36
REMARK SMILES IDX 24 37 25 38 60 39 26 40 65 41 59 42 61 43 27 44 64 45 58 46
REMARK SMILES IDX 57 47 28 49 50 50 35 51 49 52 36 53 39 54 48 55 62 56 37 57
REMARK SMILES IDX 38 58 47 60 63 61 40 62 29 63 30 64 34 65 31 66 33 67 32 68
REMARK SMILES IDX 51 69 52 70 56 71 53 72 55 73 54 74 41 75 42 76 46 77 43 78
REMARK SMILES IDX 45 79 44 80
REMARK H PARENT 12 6 4 15 4 16 17 29 61 48 39 59
REMARK Flexibility Score: inf
ROOT
ATOM      1  C   UNL A   1      31.828  30.549  26.145  1.00  0.00     0.023 C 
ENDROOT
BRANCH   1   2
ATOM      2  C   UNL A   1      33.270  30.093  26.336  1.00  0.00     0.116 C 
BRANCH   2   3
ATOM      3  N   UNL A   1      33.769  29.293  25.239  1.00  0.00    -0.356 N 
ATOM      4  C   UNL A   1      33.385  28.063  24.795  1.00  0.00     0.223 C 
ATOM      5  O   UNL A   1      33.943  27.628  23.783  1.00  0.00    -0.275 OA
ATOM      6  H   UNL A   1      34.505  29.704  24.730  1.00  0.00     0.163 HD
BRANCH   4   7
ATOM      7  C   UNL A   1      32.314  27.230  25.508  1.00  0.00     0.078 C 
ATOM      8  C   UNL A   1      30.574  24.787  25.569  1.00  0.00     0.044 C 
ATOM      9  C   UNL A   1      31.769  24.932  26.530  1.00  0.00     0.010 C 
ATOM     10  C   UNL A   1      30.003  26.183  25.281  1.00  0.00     0.010 C 
ATOM     11  C   UNL A   1      32.857  25.895  26.043  1.00  0.00     0.014 C 
ATOM     12  C   UNL A   1      31.031  27.131  24.674  1.00  0.00     0.014 C 
BRANCH   8  13
ATOM     13  C   UNL A   1      30.913  24.035  24.260  1.00  0.00     0.264 C 
BRANCH  13  14
ATOM     14  N   UNL A   1      31.632  22.789  24.506  1.00  0.00    -0.343 N 
ATOM     15  H   UNL A   1      32.331  22.960  25.228  1.00  0.00     0.346 HD
ATOM     16  H   UNL A   1      30.936  22.099  24.789  1.00  0.00     0.346 HD
BRANCH  14  17
ATOM     17  C   UNL A   1      32.315  22.246  23.318  1.00  0.00     0.185 C 
ATOM     18  C   UNL A   1      32.626  19.977  24.436  1.00  0.00     0.014 C 
ATOM     19  C   UNL A   1      33.333  21.146  23.740  1.00  0.00     0.047 C 
ATOM     20  C   UNL A   1      34.494  21.748  24.581  1.00  0.00    -0.006 C 
ATOM     21  C   UNL A   1      33.071  23.313  22.501  1.00  0.00     0.065 C 
ATOM     22  C   UNL A   1      35.183  22.895  23.816  1.00  0.00     0.004 C 
ATOM     23  C   UNL A   1      35.541  20.702  24.976  1.00  0.00     0.008 C 
ATOM     24  C   UNL A   1      34.209  23.947  23.294  1.00  0.00     0.006 C 
ENDBRANCH  14  17
ENDBRANCH  13  14
ENDBRANCH   8  13
ENDBRANCH   4   7
ENDBRANCH   2   3
ENDBRANCH   1   2
BRANCH   1  25
ATOM     25  C   UNL A   1      31.497  31.888  26.792  1.00  0.00     0.023 C 
BRANCH  25  26
ATOM     26  C   UNL A   1      32.700  32.673  27.299  1.00  0.00     0.116 C 
BRANCH  26  27
ATOM     27  N   UNL A   1      32.395  34.059  27.629  1.00  0.00    -0.352 N 
ATOM     28  C   UNL A   1      33.026  34.875  28.539  1.00  0.00     0.251 C 
ATOM     29  H   UNL A   1      31.643  34.462  27.139  1.00  0.00     0.163 HD
ATOM     30  O   UNL A   1      32.595  35.997  28.783  1.00  0.00    -0.269 OA
BRANCH  28  31
ATOM     31  C   UNL A   1      34.212  34.361  29.251  1.00  0.00     0.039 A 
ATOM     32  C   UNL A   1      34.034  33.615  30.418  1.00  0.00     0.014 A 
ATOM     33  C   UNL A   1      35.490  34.554  28.718  1.00  0.00     0.014 A 
ATOM     34  C   UNL A   1      35.134  32.990  31.008  1.00  0.00     0.010 A 
ATOM     35  C   UNL A   1      36.569  33.870  29.264  1.00  0.00     0.010 A 
ATOM     36  C   UNL A   1      36.401  33.076  30.410  1.00  0.00    -0.014 A 
BRANCH  36  37
ATOM     37  C   UNL A   1      37.572  32.343  30.953  1.00  0.00     0.031 A 
ATOM     38  C   UNL A   1      38.287  32.873  32.164  1.00  0.00     0.074 A 
ATOM     39  C   UNL A   1      38.047  31.262  30.306  1.00  0.00     0.049 A 
ATOM     40  N   UNL A   1      39.394  32.451  32.719  1.00  0.00    -0.248 NA
ATOM     41  C   UNL A   1      37.694  34.049  32.820  1.00  0.00     0.031 C 
ATOM     42  C   UNL A   1      37.469  30.669  29.099  1.00  0.00     0.029 A 
ATOM     43  N   UNL A   1      39.142  30.476  30.569  1.00  0.00    -0.354 N 
ATOM     44  C   UNL A   1      39.645  33.326  33.768  1.00  0.00     0.074 A 
ATOM     45  C   UNL A   1      38.599  34.325  33.747  1.00  0.00     0.031 C 
ATOM     46  C   UNL A   1      38.203  29.604  28.736  1.00  0.00     0.029 A 
ATOM     47  C   UNL A   1      39.326  29.465  29.658  1.00  0.00     0.049 A 
ATOM     48  H   UNL A   1      39.739  30.624  31.337  1.00  0.00     0.167 HD
ATOM     49  C   UNL A   1      40.648  33.293  34.677  1.00  0.00     0.031 A 
ATOM     50  C   UNL A   1      40.297  28.536  29.567  1.00  0.00     0.031 A 
ATOM     51  C   UNL A   1      41.675  32.289  34.712  1.00  0.00     0.049 A 
ATOM     52  C   UNL A   1      41.401  28.522  30.587  1.00  0.00     0.074 A 
ATOM     53  C   UNL A   1      42.696  32.133  35.633  1.00  0.00     0.029 A 
ATOM     54  N   UNL A   1      41.811  31.268  33.785  1.00  0.00    -0.354 N 
ATOM     55  N   UNL A   1      41.590  29.320  31.610  1.00  0.00    -0.248 NA
ATOM     56  C   UNL A   1      42.422  27.475  30.443  1.00  0.00     0.031 C 
ATOM     57  C   UNL A   1      43.477  31.042  35.238  1.00  0.00     0.029 A 
ATOM     58  C   UNL A   1      42.912  30.489  34.100  1.00  0.00     0.049 A 
ATOM     59  H   UNL A   1      41.213  31.118  33.016  1.00  0.00     0.167 HD
ATOM     60  C   UNL A   1      42.732  28.854  32.247  1.00  0.00     0.074 A 
ATOM     61  C   UNL A   1      43.188  27.698  31.502  1.00  0.00     0.031 C 
ATOM     62  C   UNL A   1      43.347  29.339  33.352  1.00  0.00     0.031 A 
BRANCH  49  63
ATOM     63  C   UNL A   1      40.680  34.386  35.707  1.00  0.00    -0.014 A 
ATOM     64  C   UNL A   1      39.906  34.308  36.875  1.00  0.00     0.009 A 
ATOM     65  C   UNL A   1      41.520  35.495  35.521  1.00  0.00     0.009 A 
ATOM     66  C   UNL A   1      39.942  35.338  37.817  1.00  0.00     0.001 A 
ATOM     67  C   UNL A   1      41.576  36.509  36.479  1.00  0.00     0.001 A 
ATOM     68  C   UNL A   1      40.780  36.434  37.621  1.00  0.00     0.000 A 
ENDBRANCH  49  63
BRANCH  50  69
ATOM     69  C   UNL A   1      40.266  27.531  28.473  1.00  0.00    -0.014 A 
ATOM     70  C   UNL A   1      39.593  26.312  28.649  1.00  0.00     0.009 A 
ATOM     71  C   UNL A   1      40.909  27.781  27.251  1.00  0.00     0.009 A 
ATOM     72  C   UNL A   1      39.588  25.353  27.633  1.00  0.00     0.001 A 
ATOM     73  C   UNL A   1      40.880  26.831  26.228  1.00  0.00     0.001 A 
ATOM     74  C   UNL A   1      40.227  25.615  26.422  1.00  0.00     0.000 A 
ENDBRANCH  50  69
BRANCH  62  75
ATOM     75  C   UNL A   1      44.556  28.601  33.850  1.00  0.00    -0.014 A 
ATOM     76  C   UNL A   1      44.436  27.524  34.742  1.00  0.00     0.009 A 
ATOM     77  C   UNL A   1      45.828  28.956  33.375  1.00  0.00     0.009 A 
ATOM     78  C   UNL A   1      45.571  26.832  35.165  1.00  0.00     0.001 A 
ATOM     79  C   UNL A   1      46.957  28.245  33.781  1.00  0.00     0.001 A 
ATOM     80  C   UNL A   1      46.829  27.189  34.681  1.00  0.00     0.000 A 
ENDBRANCH  62  75
ENDBRANCH  36  37
ENDBRANCH  28  31
ENDBRANCH  26  27
ENDBRANCH  25  26
ENDBRANCH   1  25
TORSDOF 14
ENDMDL
MODEL 3
REMARK VINA RESULT:     -11.0      3.007      7.914
REMARK SMILES C[C@H]1[C@@H]([NH2+]C[C@H]2CC[C@@H](C(=O)NCCCCNC(=O)c3ccc(-c4c5nc(c(-c6ccccc6)c6ccc([nH]6)c(-c6ccccc6)c6nc(c(-c7ccccc7)c7ccc4[nH]7)C=C6)C=C5)cc3)CC2)CCC[C@@H]1C
REMARK SMILES IDX 14 1 13 2 12 3 10 4 11 5 9 7 6 8 7 9 69 10 8 11 68 12 5 13
REMARK SMILES IDX 4 14 3 17 1 18 2 19 73 20 70 21 72 22 74 23 71 24 15 25
REMARK SMILES IDX 16 26 17 27 18 28 19 30 20 31 21 32 67 33 22 34 66 35 23 36
REMARK SMILES IDX 24 37 25 38 60 39 26 40 65 41 59 42 61 43 27 44 64 45 58 46
REMARK SMILES IDX 57 47 28 49 50 50 35 51 49 52 36 53 39 54 48 55 62 56 37 57
REMARK SMILES IDX 38 58 47 60 63 61 40 62 29 63 30 64 34 65 31 66 33 67 32 68
REMARK SMILES IDX 51 69 52 70 56 71 53 72 55 73 54 74 41 75 42 76 46 77 43 78
REMARK SMILES IDX 45 79 44 80
REMARK H PARENT 12 6 4 15 4 16 17 29 61 48 39 59
REMARK Flexibility Score: inf
ROOT
ATOM      1  C   UNL A   1      36.878  20.751  25.030  1.00  0.00     0.023 C 
ENDROOT
BRANCH   1   2
ATOM      2  C   UNL A   1      37.215  22.102  25.653  1.00  0.00     0.116 C 
BRANCH   2   3
ATOM      3  N   UNL A   1      36.126  22.668  26.418  1.00  0.00    -0.356 N 
ATOM      4  C   UNL A   1      34.944  23.209  26.006  1.00  0.00     0.223 C 
ATOM      5  O   UNL A   1      34.152  23.569  26.882  1.00  0.00    -0.275 OA
ATOM      6  H   UNL A   1      36.259  22.662  27.394  1.00  0.00     0.163 HD
BRANCH   4   7
ATOM      7  C   UNL A   1      34.593  23.383  24.524  1.00  0.00     0.078 C 
ATOM      8  C   UNL A   1      32.558  24.059  22.426  1.00  0.00     0.044 C 
ATOM      9  C   UNL A   1      33.714  25.025  22.748  1.00  0.00     0.010 C 
ATOM     10  C   UNL A   1      33.044  22.620  22.652  1.00  0.00     0.010 C 
ATOM     11  C   UNL A   1      34.313  24.847  24.147  1.00  0.00     0.014 C 
ATOM     12  C   UNL A   1      33.529  22.374  24.076  1.00  0.00     0.014 C 
BRANCH   8  13
ATOM     13  C   UNL A   1      31.263  24.348  23.219  1.00  0.00     0.264 C 
BRANCH  13  14
ATOM     14  N   UNL A   1      30.796  25.719  23.038  1.00  0.00    -0.343 N 
ATOM     15  H   UNL A   1      31.607  26.338  23.050  1.00  0.00     0.346 HD
ATOM     16  H   UNL A   1      30.295  25.745  22.150  1.00  0.00     0.346 HD
BRANCH  14  17
ATOM     17  C   UNL A   1      29.852  26.173  24.076  1.00  0.00     0.185 C 
ATOM     18  C   UNL A   1      29.544  28.425  22.922  1.00  0.00     0.014 C 
ATOM     19  C   UNL A   1      29.927  27.721  24.229  1.00  0.00     0.047 C 
ATOM     20  C   UNL A   1      31.311  28.165  24.781  1.00  0.00    -0.006 C 
ATOM     21  C   UNL A   1      30.106  25.540  25.459  1.00  0.00     0.065 C 
ATOM     22  C   UNL A   1      31.624  27.447  26.109  1.00  0.00     0.004 C 
ATOM     23  C   UNL A   1      31.406  29.679  24.989  1.00  0.00     0.008 C 
ATOM     24  C   UNL A   1      31.463  25.932  26.033  1.00  0.00     0.006 C 
ENDBRANCH  14  17
ENDBRANCH  13  14
ENDBRANCH   8  13
ENDBRANCH   4   7
ENDBRANCH   2   3
ENDBRANCH   1   2
BRANCH   1  25
ATOM     25  C   UNL A   1      38.073  19.823  24.849  1.00  0.00     0.023 C 
BRANCH  25  26
ATOM     26  C   UNL A   1      39.259  20.113  25.761  1.00  0.00     0.116 C 
BRANCH  26  27
ATOM     27  N   UNL A   1      40.215  19.017  25.839  1.00  0.00    -0.352 N 
ATOM     28  C   UNL A   1      41.564  19.083  26.097  1.00  0.00     0.251 C 
ATOM     29  H   UNL A   1      39.850  18.115  25.689  1.00  0.00     0.163 HD
ATOM     30  O   UNL A   1      42.267  18.080  26.034  1.00  0.00    -0.269 OA
BRANCH  28  31
ATOM     31  C   UNL A   1      42.165  20.395  26.410  1.00  0.00     0.039 A 
ATOM     32  C   UNL A   1      42.734  21.145  25.380  1.00  0.00     0.014 A 
ATOM     33  C   UNL A   1      42.090  20.909  27.708  1.00  0.00     0.014 A 
ATOM     34  C   UNL A   1      43.157  22.451  25.634  1.00  0.00     0.010 A 
ATOM     35  C   UNL A   1      42.442  22.232  27.941  1.00  0.00     0.010 A 
ATOM     36  C   UNL A   1      42.973  23.019  26.905  1.00  0.00    -0.014 A 
BRANCH  36  37
ATOM     37  C   UNL A   1      43.319  24.435  27.184  1.00  0.00     0.031 A 
ATOM     38  C   UNL A   1      44.751  24.884  27.103  1.00  0.00     0.074 A 
ATOM     39  C   UNL A   1      42.364  25.289  27.602  1.00  0.00     0.049 A 
ATOM     40  N   UNL A   1      45.273  26.039  27.424  1.00  0.00    -0.248 NA
ATOM     41  C   UNL A   1      45.727  23.892  26.624  1.00  0.00     0.031 C 
ATOM     42  C   UNL A   1      40.945  24.970  27.761  1.00  0.00     0.029 A 
ATOM     43  N   UNL A   1      42.453  26.604  27.986  1.00  0.00    -0.354 N 
ATOM     44  C   UNL A   1      46.639  25.904  27.215  1.00  0.00     0.074 A 
ATOM     45  C   UNL A   1      46.870  24.544  26.780  1.00  0.00     0.031 C 
ATOM     46  C   UNL A   1      40.293  26.063  28.192  1.00  0.00     0.029 A 
ATOM     47  C   UNL A   1      41.254  27.145  28.380  1.00  0.00     0.049 A 
ATOM     48  H   UNL A   1      43.297  27.112  27.980  1.00  0.00     0.167 HD
ATOM     49  C   UNL A   1      47.614  26.833  27.358  1.00  0.00     0.031 A 
ATOM     50  C   UNL A   1      40.961  28.372  28.854  1.00  0.00     0.031 A 
ATOM     51  C   UNL A   1      47.384  28.190  27.769  1.00  0.00     0.049 A 
ATOM     52  C   UNL A   1      42.062  29.385  29.006  1.00  0.00     0.074 A 
ATOM     53  C   UNL A   1      48.297  29.223  27.880  1.00  0.00     0.029 A 
ATOM     54  N   UNL A   1      46.150  28.704  28.136  1.00  0.00    -0.354 N 
ATOM     55  N   UNL A   1      43.340  29.260  28.744  1.00  0.00    -0.248 NA
ATOM     56  C   UNL A   1      41.676  30.710  29.512  1.00  0.00     0.031 C 
ATOM     57  C   UNL A   1      47.623  30.352  28.357  1.00  0.00     0.029 A 
ATOM     58  C   UNL A   1      46.282  30.035  28.494  1.00  0.00     0.049 A 
ATOM     59  H   UNL A   1      45.305  28.197  28.141  1.00  0.00     0.167 HD
ATOM     60  C   UNL A   1      43.906  30.496  29.026  1.00  0.00     0.074 A 
ATOM     61  C   UNL A   1      42.831  31.361  29.468  1.00  0.00     0.031 C 
ATOM     62  C   UNL A   1      45.200  30.882  28.925  1.00  0.00     0.031 A 
BRANCH  49  63
ATOM     63  C   UNL A   1      49.024  26.402  27.069  1.00  0.00    -0.014 A 
ATOM     64  C   UNL A   1      49.869  25.947  28.093  1.00  0.00     0.009 A 
ATOM     65  C   UNL A   1      49.503  26.422  25.750  1.00  0.00     0.009 A 
ATOM     66  C   UNL A   1      51.180  25.559  27.807  1.00  0.00     0.001 A 
ATOM     67  C   UNL A   1      50.804  26.004  25.463  1.00  0.00     0.001 A 
ATOM     68  C   UNL A   1      51.644  25.583  26.493  1.00  0.00     0.000 A 
ENDBRANCH  49  63
BRANCH  50  69
ATOM     69  C   UNL A   1      39.561  28.718  29.210  1.00  0.00    -0.014 A 
ATOM     70  C   UNL A   1      39.091  28.512  30.516  1.00  0.00     0.009 A 
ATOM     71  C   UNL A   1      38.686  29.248  28.249  1.00  0.00     0.009 A 
ATOM     72  C   UNL A   1      37.765  28.807  30.846  1.00  0.00     0.001 A 
ATOM     73  C   UNL A   1      37.370  29.566  28.588  1.00  0.00     0.001 A 
ATOM     74  C   UNL A   1      36.908  29.338  29.883  1.00  0.00     0.000 A 
ENDBRANCH  50  69
BRANCH  62  75
ATOM     75  C   UNL A   1      45.524  32.310  29.258  1.00  0.00    -0.014 A 
ATOM     76  C   UNL A   1      45.444  33.321  28.289  1.00  0.00     0.009 A 
ATOM     77  C   UNL A   1      45.860  32.653  30.577  1.00  0.00     0.009 A 
ATOM     78  C   UNL A   1      45.718  34.645  28.630  1.00  0.00     0.001 A 
ATOM     79  C   UNL A   1      46.109  33.982  30.919  1.00  0.00     0.001 A 
ATOM     80  C   UNL A   1      46.045  34.976  29.945  1.00  0.00     0.000 A 
ENDBRANCH  62  75
ENDBRANCH  36  37
ENDBRANCH  28  31
ENDBRANCH  26  27
ENDBRANCH  25  26
ENDBRANCH   1  25
TORSDOF 14
ENDMDL
