MODEL 1
REMARK VINA RESULT:     -12.5      0.000      0.000
REMARK SMILES O=C1[NH+]=C(Nc2ccc(C(=O)NCCCCNC(=O)c3ccc(-c4c5nc(c(-c6ccccc6)c6ccc([nH]6)c(-c6ccccc6)c6nc(c(-c7ccccc7)c7ccc4[nH]7)C=C6)C=C5)cc3)c(O)c2)S/C1=C\c1ccncc1
REMARK SMILES IDX 14 1 13 2 12 3 10 4 11 5 9 7 6 8 7 9 70 10 8 11 68 12 5 13
REMARK SMILES IDX 1 14 2 15 3 16 72 17 4 18 71 20 73 21 74 23 75 24 79 25
REMARK SMILES IDX 76 26 78 27 77 28 69 29 15 31 16 32 17 33 18 34 19 36 20 37
REMARK SMILES IDX 21 38 67 39 22 40 66 41 23 42 24 43 25 44 60 45 26 46 65 47
REMARK SMILES IDX 59 48 61 49 27 50 64 51 58 52 57 53 28 55 50 56 35 57 49 58
REMARK SMILES IDX 36 59 39 60 48 61 62 62 37 63 38 64 47 66 63 67 40 68 29 69
REMARK SMILES IDX 30 70 34 71 31 72 33 73 32 74 51 75 52 76 56 77 53 78 55 79
REMARK SMILES IDX 54 80 41 81 42 82 46 83 43 84 45 85 44 86
REMARK H PARENT 12 6 3 19 5 22 69 30 17 35 61 54 39 65
REMARK Flexibility Score: inf
ROOT
ATOM      1  C   UNL A   1      35.843  21.618  26.146  1.00  0.00     0.023 C 
ENDROOT
BRANCH   1   2
ATOM      2  C   UNL A   1      35.444  20.743  24.962  1.00  0.00     0.116 C 
BRANCH   2   3
ATOM      3  N   UNL A   1      34.119  20.150  25.056  1.00  0.00    -0.352 N 
ATOM      4  C   UNL A   1      32.879  20.729  24.898  1.00  0.00     0.255 C 
ATOM      5  O   UNL A   1      31.877  20.029  25.020  1.00  0.00    -0.269 OA
ATOM      6  H   UNL A   1      34.105  19.188  25.265  1.00  0.00     0.163 HD
BRANCH   4   7
ATOM      7  C   UNL A   1      32.723  22.184  24.645  1.00  0.00     0.081 A 
ATOM      8  C   UNL A   1      32.168  24.862  23.935  1.00  0.00     0.129 A 
ATOM      9  C   UNL A   1      32.500  23.918  22.958  1.00  0.00     0.053 A 
ATOM     10  C   UNL A   1      32.198  24.466  25.277  1.00  0.00     0.098 A 
ATOM     11  C   UNL A   1      32.780  22.593  23.306  1.00  0.00     0.022 A 
ATOM     12  C   UNL A   1      32.515  23.152  25.629  1.00  0.00     0.132 A 
BRANCH   8  13
ATOM     13  N   UNL A   1      31.723  26.151  23.616  1.00  0.00    -0.234 N 
ATOM     14  O   UNL A   1      27.096  26.380  24.184  1.00  0.00    -0.240 OA
ATOM     15  C   UNL A   1      28.224  26.743  23.875  1.00  0.00     0.346 C 
ATOM     16  N   UNL A   1      29.354  25.964  23.955  1.00  0.00    -0.199 N 
ATOM     17  C   UNL A   1      28.530  28.106  23.355  1.00  0.00     0.110 C 
ATOM     18  C   UNL A   1      30.432  26.587  23.615  1.00  0.00     0.322 C 
ATOM     19  H   UNL A   1      29.341  25.023  24.244  1.00  0.00     0.316 HD
ATOM     20  S   UNL A   1      30.226  28.254  23.119  1.00  0.00     0.006 SA
ATOM     21  C   UNL A   1      27.583  29.026  23.127  1.00  0.00     0.032 C 
ATOM     22  H   UNL A   1      32.413  26.808  23.368  1.00  0.00     0.313 HD
BRANCH  21  23
ATOM     23  C   UNL A   1      27.831  30.361  22.575  1.00  0.00    -0.021 A 
ATOM     24  C   UNL A   1      27.969  31.469  23.412  1.00  0.00     0.028 A 
ATOM     25  C   UNL A   1      27.935  30.537  21.196  1.00  0.00     0.028 A 
ATOM     26  C   UNL A   1      28.169  32.710  22.834  1.00  0.00     0.111 A 
ATOM     27  C   UNL A   1      28.143  31.819  20.715  1.00  0.00     0.111 A 
ATOM     28  N   UNL A   1      28.257  32.910  21.503  1.00  0.00    -0.265 NA
ENDBRANCH  21  23
ENDBRANCH   8  13
BRANCH  12  29
ATOM     29  O   UNL A   1      32.623  22.913  26.970  1.00  0.00    -0.507 OA
ATOM     30  H   UNL A   1      32.071  22.274  27.377  1.00  0.00     0.293 HD
ENDBRANCH  12  29
ENDBRANCH   4   7
ENDBRANCH   2   3
ENDBRANCH   1   2
BRANCH   1  31
ATOM     31  C   UNL A   1      36.127  23.086  25.842  1.00  0.00     0.023 C 
BRANCH  31  32
ATOM     32  C   UNL A   1      37.394  23.378  25.048  1.00  0.00     0.116 C 
BRANCH  32  33
ATOM     33  N   UNL A   1      38.539  22.576  25.457  1.00  0.00    -0.352 N 
ATOM     34  C   UNL A   1      39.632  22.916  26.221  1.00  0.00     0.251 C 
ATOM     35  H   UNL A   1      38.530  21.645  25.136  1.00  0.00     0.163 HD
ATOM     36  O   UNL A   1      40.554  22.120  26.366  1.00  0.00    -0.269 OA
BRANCH  34  37
ATOM     37  C   UNL A   1      39.719  24.259  26.836  1.00  0.00     0.039 A 
ATOM     38  C   UNL A   1      39.160  24.461  28.101  1.00  0.00     0.014 A 
ATOM     39  C   UNL A   1      40.374  25.305  26.186  1.00  0.00     0.014 A 
ATOM     40  C   UNL A   1      39.345  25.684  28.752  1.00  0.00     0.010 A 
ATOM     41  C   UNL A   1      40.644  26.484  26.875  1.00  0.00     0.010 A 
ATOM     42  C   UNL A   1      40.137  26.687  28.168  1.00  0.00    -0.014 A 
BRANCH  42  43
ATOM     43  C   UNL A   1      40.456  27.943  28.894  1.00  0.00     0.031 A 
ATOM     44  C   UNL A   1      41.772  28.093  29.610  1.00  0.00     0.074 A 
ATOM     45  C   UNL A   1      39.536  28.925  28.971  1.00  0.00     0.049 A 
ATOM     46  N   UNL A   1      42.204  29.087  30.345  1.00  0.00    -0.248 NA
ATOM     47  C   UNL A   1      42.715  26.967  29.512  1.00  0.00     0.031 C 
ATOM     48  C   UNL A   1      38.203  28.891  28.363  1.00  0.00     0.029 A 
ATOM     49  N   UNL A   1      39.578  30.144  29.603  1.00  0.00    -0.354 N 
ATOM     50  C   UNL A   1      43.453  28.697  30.810  1.00  0.00     0.074 A 
ATOM     51  C   UNL A   1      43.686  27.355  30.323  1.00  0.00     0.031 C 
ATOM     52  C   UNL A   1      37.571  30.046  28.621  1.00  0.00     0.029 A 
ATOM     53  C   UNL A   1      38.428  30.883  29.455  1.00  0.00     0.049 A 
ATOM     54  H   UNL A   1      40.358  30.460  30.114  1.00  0.00     0.167 HD
ATOM     55  C   UNL A   1      44.340  29.398  31.557  1.00  0.00     0.031 A 
ATOM     56  C   UNL A   1      38.094  32.093  29.943  1.00  0.00     0.031 A 
ATOM     57  C   UNL A   1      44.111  30.734  32.038  1.00  0.00     0.049 A 
ATOM     58  C   UNL A   1      39.085  32.843  30.789  1.00  0.00     0.074 A 
ATOM     59  C   UNL A   1      44.971  31.551  32.751  1.00  0.00     0.029 A 
ATOM     60  N   UNL A   1      42.935  31.446  31.863  1.00  0.00    -0.354 N 
ATOM     61  N   UNL A   1      40.295  32.491  31.153  1.00  0.00    -0.248 NA
ATOM     62  C   UNL A   1      38.669  34.164  31.282  1.00  0.00     0.031 C 
ATOM     63  C   UNL A   1      44.291  32.731  33.066  1.00  0.00     0.029 A 
ATOM     64  C   UNL A   1      43.035  32.681  32.483  1.00  0.00     0.049 A 
ATOM     65  H   UNL A   1      42.146  31.123  31.370  1.00  0.00     0.167 HD
ATOM     66  C   UNL A   1      40.795  33.558  31.888  1.00  0.00     0.074 A 
ATOM     67  C   UNL A   1      39.764  34.575  31.905  1.00  0.00     0.031 C 
ATOM     68  C   UNL A   1      42.001  33.684  32.494  1.00  0.00     0.031 A 
BRANCH  55  69
ATOM     69  C   UNL A   1      45.637  28.721  31.911  1.00  0.00    -0.014 A 
ATOM     70  C   UNL A   1      46.765  28.821  31.082  1.00  0.00     0.009 A 
ATOM     71  C   UNL A   1      45.741  27.999  33.110  1.00  0.00     0.009 A 
ATOM     72  C   UNL A   1      47.957  28.177  31.424  1.00  0.00     0.001 A 
ATOM     73  C   UNL A   1      46.943  27.385  33.468  1.00  0.00     0.001 A 
ATOM     74  C   UNL A   1      48.045  27.465  32.618  1.00  0.00     0.000 A 
ENDBRANCH  55  69
BRANCH  56  75
ATOM     75  C   UNL A   1      36.761  32.679  29.635  1.00  0.00    -0.014 A 
ATOM     76  C   UNL A   1      36.546  33.379  28.438  1.00  0.00     0.009 A 
ATOM     77  C   UNL A   1      35.698  32.552  30.543  1.00  0.00     0.009 A 
ATOM     78  C   UNL A   1      35.304  33.962  28.169  1.00  0.00     0.001 A 
ATOM     79  C   UNL A   1      34.449  33.107  30.259  1.00  0.00     0.001 A 
ATOM     80  C   UNL A   1      34.256  33.821  29.077  1.00  0.00     0.000 A 
ENDBRANCH  56  75
BRANCH  68  81
ATOM     81  C   UNL A   1      42.294  34.986  33.189  1.00  0.00    -0.014 A 
ATOM     82  C   UNL A   1      41.824  35.249  34.486  1.00  0.00     0.009 A 
ATOM     83  C   UNL A   1      43.095  35.946  32.550  1.00  0.00     0.009 A 
ATOM     84  C   UNL A   1      42.121  36.462  35.110  1.00  0.00     0.001 A 
ATOM     85  C   UNL A   1      43.418  37.142  33.190  1.00  0.00     0.001 A 
ATOM     86  C   UNL A   1      42.922  37.404  34.466  1.00  0.00     0.000 A 
ENDBRANCH  68  81
ENDBRANCH  42  43
ENDBRANCH  34  37
ENDBRANCH  32  33
ENDBRANCH  31  32
ENDBRANCH   1  31
TORSDOF 14
ENDMDL
MODEL 2
REMARK VINA RESULT:     -12.4      3.187      7.151
REMARK SMILES O=C1[NH+]=C(Nc2ccc(C(=O)NCCCCNC(=O)c3ccc(-c4c5nc(c(-c6ccccc6)c6ccc([nH]6)c(-c6ccccc6)c6nc(c(-c7ccccc7)c7ccc4[nH]7)C=C6)C=C5)cc3)c(O)c2)S/C1=C\c1ccncc1
REMARK SMILES IDX 14 1 13 2 12 3 10 4 11 5 9 7 6 8 7 9 70 10 8 11 68 12 5 13
REMARK SMILES IDX 1 14 2 15 3 16 72 17 4 18 71 20 73 21 74 23 75 24 79 25
REMARK SMILES IDX 76 26 78 27 77 28 69 29 15 31 16 32 17 33 18 34 19 36 20 37
REMARK SMILES IDX 21 38 67 39 22 40 66 41 23 42 24 43 25 44 60 45 26 46 65 47
REMARK SMILES IDX 59 48 61 49 27 50 64 51 58 52 57 53 28 55 50 56 35 57 49 58
REMARK SMILES IDX 36 59 39 60 48 61 62 62 37 63 38 64 47 66 63 67 40 68 29 69
REMARK SMILES IDX 30 70 34 71 31 72 33 73 32 74 51 75 52 76 56 77 53 78 55 79
REMARK SMILES IDX 54 80 41 81 42 82 46 83 43 84 45 85 44 86
REMARK H PARENT 12 6 3 19 5 22 69 30 17 35 61 54 39 65
REMARK Flexibility Score: inf
ROOT
ATOM      1  C   UNL A   1      37.065  21.095  24.713  1.00  0.00     0.023 C 
ENDROOT
BRANCH   1   2
ATOM      2  C   UNL A   1      35.886  21.169  25.678  1.00  0.00     0.116 C 
BRANCH   2   3
ATOM      3  N   UNL A   1      34.698  20.445  25.253  1.00  0.00    -0.352 N 
ATOM      4  C   UNL A   1      33.540  20.912  24.672  1.00  0.00     0.255 C 
ATOM      5  O   UNL A   1      32.654  20.110  24.387  1.00  0.00    -0.269 OA
ATOM      6  H   UNL A   1      34.726  19.472  25.402  1.00  0.00     0.163 HD
BRANCH   4   7
ATOM      7  C   UNL A   1      33.312  22.360  24.439  1.00  0.00     0.081 A 
ATOM      8  C   UNL A   1      32.616  25.018  23.774  1.00  0.00     0.129 A 
ATOM      9  C   UNL A   1      32.958  24.098  22.778  1.00  0.00     0.053 A 
ATOM     10  C   UNL A   1      32.707  24.611  25.111  1.00  0.00     0.098 A 
ATOM     11  C   UNL A   1      33.307  22.783  23.104  1.00  0.00     0.022 A 
ATOM     12  C   UNL A   1      33.094  23.310  25.439  1.00  0.00     0.132 A 
BRANCH   8  13
ATOM     13  N   UNL A   1      32.105  26.288  23.483  1.00  0.00    -0.234 N 
ATOM     14  O   UNL A   1      27.487  26.295  24.163  1.00  0.00    -0.240 OA
ATOM     15  C   UNL A   1      28.589  26.714  23.832  1.00  0.00     0.346 C 
ATOM     16  N   UNL A   1      29.755  25.987  23.875  1.00  0.00    -0.199 N 
ATOM     17  C   UNL A   1      28.820  28.096  23.323  1.00  0.00     0.110 C 
ATOM     18  C   UNL A   1      30.795  26.664  23.518  1.00  0.00     0.322 C 
ATOM     19  H   UNL A   1      29.794  25.043  24.151  1.00  0.00     0.316 HD
ATOM     20  S   UNL A   1      30.501  28.325  23.049  1.00  0.00     0.006 SA
ATOM     21  C   UNL A   1      27.826  28.973  23.129  1.00  0.00     0.032 C 
ATOM     22  H   UNL A   1      32.757  26.980  23.227  1.00  0.00     0.313 HD
BRANCH  21  23
ATOM     23  C   UNL A   1      27.999  30.325  22.589  1.00  0.00    -0.021 A 
ATOM     24  C   UNL A   1      28.162  31.421  23.437  1.00  0.00     0.028 A 
ATOM     25  C   UNL A   1      28.006  30.529  21.210  1.00  0.00     0.028 A 
ATOM     26  C   UNL A   1      28.288  32.678  22.872  1.00  0.00     0.111 A 
ATOM     27  C   UNL A   1      28.145  31.826  20.742  1.00  0.00     0.111 A 
ATOM     28  N   UNL A   1      28.281  32.905  21.543  1.00  0.00    -0.265 NA
ENDBRANCH  21  23
ENDBRANCH   8  13
BRANCH  12  29
ATOM     29  O   UNL A   1      33.255  23.064  26.774  1.00  0.00    -0.507 OA
ATOM     30  H   UNL A   1      33.422  23.773  27.363  1.00  0.00     0.293 HD
ENDBRANCH  12  29
ENDBRANCH   4   7
ENDBRANCH   2   3
ENDBRANCH   1   2
BRANCH   1  31
ATOM     31  C   UNL A   1      38.047  19.946  24.925  1.00  0.00     0.023 C 
BRANCH  31  32
ATOM     32  C   UNL A   1      39.274  20.256  25.774  1.00  0.00     0.116 C 
BRANCH  32  33
ATOM     33  N   UNL A   1      40.217  19.150  25.866  1.00  0.00    -0.352 N 
ATOM     34  C   UNL A   1      41.563  19.154  26.156  1.00  0.00     0.251 C 
ATOM     35  H   UNL A   1      39.833  18.261  25.694  1.00  0.00     0.163 HD
ATOM     36  O   UNL A   1      42.213  18.117  26.079  1.00  0.00    -0.269 OA
BRANCH  34  37
ATOM     37  C   UNL A   1      42.240  20.418  26.522  1.00  0.00     0.039 A 
ATOM     38  C   UNL A   1      42.871  21.161  25.520  1.00  0.00     0.014 A 
ATOM     39  C   UNL A   1      42.227  20.886  27.836  1.00  0.00     0.014 A 
ATOM     40  C   UNL A   1      43.401  22.418  25.821  1.00  0.00     0.010 A 
ATOM     41  C   UNL A   1      42.664  22.178  28.113  1.00  0.00     0.010 A 
ATOM     42  C   UNL A   1      43.253  22.962  27.109  1.00  0.00    -0.014 A 
BRANCH  42  43
ATOM     43  C   UNL A   1      43.692  24.347  27.421  1.00  0.00     0.031 A 
ATOM     44  C   UNL A   1      42.684  25.390  27.826  1.00  0.00     0.074 A 
ATOM     45  C   UNL A   1      44.987  24.690  27.272  1.00  0.00     0.049 A 
ATOM     46  N   UNL A   1      42.867  26.662  28.077  1.00  0.00    -0.248 NA
ATOM     47  C   UNL A   1      41.283  24.954  27.934  1.00  0.00     0.031 C 
ATOM     48  C   UNL A   1      46.060  23.789  26.840  1.00  0.00     0.029 A 
ATOM     49  N   UNL A   1      45.623  25.893  27.458  1.00  0.00    -0.354 N 
ATOM     50  C   UNL A   1      41.607  27.177  28.352  1.00  0.00     0.074 A 
ATOM     51  C   UNL A   1      40.662  26.096  28.181  1.00  0.00     0.031 C 
ATOM     52  C   UNL A   1      47.222  24.461  26.830  1.00  0.00     0.029 A 
ATOM     53  C   UNL A   1      46.973  25.850  27.202  1.00  0.00     0.049 A 
ATOM     54  H   UNL A   1      45.156  26.709  27.749  1.00  0.00     0.167 HD
ATOM     55  C   UNL A   1      41.266  28.431  28.735  1.00  0.00     0.031 A 
ATOM     56  C   UNL A   1      47.905  26.820  27.251  1.00  0.00     0.031 A 
ATOM     57  C   UNL A   1      42.207  29.505  28.910  1.00  0.00     0.049 A 
ATOM     58  C   UNL A   1      47.500  28.210  27.655  1.00  0.00     0.074 A 
ATOM     59  C   UNL A   1      41.968  30.795  29.352  1.00  0.00     0.029 A 
ATOM     60  N   UNL A   1      43.565  29.419  28.643  1.00  0.00    -0.354 N 
ATOM     61  N   UNL A   1      46.315  28.661  27.989  1.00  0.00    -0.248 NA
ATOM     62  C   UNL A   1      48.564  29.223  27.702  1.00  0.00     0.031 C 
ATOM     63  C   UNL A   1      43.168  31.508  29.289  1.00  0.00     0.029 A 
ATOM     64  C   UNL A   1      44.170  30.641  28.880  1.00  0.00     0.049 A 
ATOM     65  H   UNL A   1      44.028  28.608  28.332  1.00  0.00     0.167 HD
ATOM     66  C   UNL A   1      46.496  29.998  28.316  1.00  0.00     0.074 A 
ATOM     67  C   UNL A   1      47.907  30.281  28.156  1.00  0.00     0.031 C 
ATOM     68  C   UNL A   1      45.576  30.911  28.715  1.00  0.00     0.031 A 
BRANCH  55  69
ATOM     69  C   UNL A   1      39.807  28.710  28.976  1.00  0.00    -0.014 A 
ATOM     70  C   UNL A   1      39.206  28.443  30.217  1.00  0.00     0.009 A 
ATOM     71  C   UNL A   1      39.029  29.279  27.956  1.00  0.00     0.009 A 
ATOM     72  C   UNL A   1      37.847  28.700  30.417  1.00  0.00     0.001 A 
ATOM     73  C   UNL A   1      37.679  29.568  28.170  1.00  0.00     0.001 A 
ATOM     74  C   UNL A   1      37.088  29.267  29.395  1.00  0.00     0.000 A 
ENDBRANCH  55  69
BRANCH  56  75
ATOM     75  C   UNL A   1      49.322  26.510  26.915  1.00  0.00    -0.014 A 
ATOM     76  C   UNL A   1      49.810  26.712  25.614  1.00  0.00     0.009 A 
ATOM     77  C   UNL A   1      50.192  26.001  27.891  1.00  0.00     0.009 A 
ATOM     78  C   UNL A   1      51.130  26.384  25.292  1.00  0.00     0.001 A 
ATOM     79  C   UNL A   1      51.521  25.705  27.575  1.00  0.00     0.001 A 
ATOM     80  C   UNL A   1      51.985  25.886  26.274  1.00  0.00     0.000 A 
ENDBRANCH  56  75
BRANCH  68  81
ATOM     81  C   UNL A   1      46.070  32.291  29.052  1.00  0.00    -0.014 A 
ATOM     82  C   UNL A   1      46.104  33.315  28.092  1.00  0.00     0.009 A 
ATOM     83  C   UNL A   1      46.465  32.582  30.368  1.00  0.00     0.009 A 
ATOM     84  C   UNL A   1      46.558  34.589  28.436  1.00  0.00     0.001 A 
ATOM     85  C   UNL A   1      46.885  33.866  30.716  1.00  0.00     0.001 A 
ATOM     86  C   UNL A   1      46.941  34.866  29.748  1.00  0.00     0.000 A 
ENDBRANCH  68  81
ENDBRANCH  42  43
ENDBRANCH  34  37
ENDBRANCH  32  33
ENDBRANCH  31  32
ENDBRANCH   1  31
TORSDOF 14
ENDMDL
MODEL 3
REMARK VINA RESULT:     -12.4      2.313      3.559
REMARK SMILES O=C1[NH+]=C(Nc2ccc(C(=O)NCCCCNC(=O)c3ccc(-c4c5nc(c(-c6ccccc6)c6ccc([nH]6)c(-c6ccccc6)c6nc(c(-c7ccccc7)c7ccc4[nH]7)C=C6)C=C5)cc3)c(O)c2)S/C1=C\c1ccncc1
REMARK SMILES IDX 14 1 13 2 12 3 10 4 11 5 9 7 6 8 7 9 70 10 8 11 68 12 5 13
REMARK SMILES IDX 1 14 2 15 3 16 72 17 4 18 71 20 73 21 74 23 75 24 79 25
REMARK SMILES IDX 76 26 78 27 77 28 69 29 15 31 16 32 17 33 18 34 19 36 20 37
REMARK SMILES IDX 21 38 67 39 22 40 66 41 23 42 24 43 25 44 60 45 26 46 65 47
REMARK SMILES IDX 59 48 61 49 27 50 64 51 58 52 57 53 28 55 50 56 35 57 49 58
REMARK SMILES IDX 36 59 39 60 48 61 62 62 37 63 38 64 47 66 63 67 40 68 29 69
REMARK SMILES IDX 30 70 34 71 31 72 33 73 32 74 51 75 52 76 56 77 53 78 55 79
REMARK SMILES IDX 54 80 41 81 42 82 46 83 43 84 45 85 44 86
REMARK H PARENT 12 6 3 19 5 22 69 30 17 35 61 54 39 65
REMARK Flexibility Score: inf
ROOT
ATOM      1  C   UNL A   1      36.576  19.701  25.001  1.00  0.00     0.023 C 
ENDROOT
BRANCH   1   2
ATOM      2  C   UNL A   1      35.438  20.708  25.134  1.00  0.00     0.116 C 
BRANCH   2   3
ATOM      3  N   UNL A   1      34.105  20.126  25.169  1.00  0.00    -0.352 N 
ATOM      4  C   UNL A   1      32.882  20.705  24.914  1.00  0.00     0.255 C 
ATOM      5  O   UNL A   1      31.870  20.014  25.001  1.00  0.00    -0.269 OA
ATOM      6  H   UNL A   1      34.073  19.173  25.414  1.00  0.00     0.163 HD
BRANCH   4   7
ATOM      7  C   UNL A   1      32.752  22.149  24.596  1.00  0.00     0.081 A 
ATOM      8  C   UNL A   1      32.189  24.815  23.845  1.00  0.00     0.129 A 
ATOM      9  C   UNL A   1      32.197  23.790  22.893  1.00  0.00     0.053 A 
ATOM     10  C   UNL A   1      32.547  24.498  25.161  1.00  0.00     0.098 A 
ATOM     11  C   UNL A   1      32.479  22.471  23.260  1.00  0.00     0.022 A 
ATOM     12  C   UNL A   1      32.867  23.188  25.521  1.00  0.00     0.132 A 
BRANCH   8  13
ATOM     13  N   UNL A   1      31.753  26.112  23.551  1.00  0.00    -0.234 N 
ATOM     14  O   UNL A   1      27.139  26.383  24.199  1.00  0.00    -0.240 OA
ATOM     15  C   UNL A   1      28.266  26.738  23.876  1.00  0.00     0.346 C 
ATOM     16  N   UNL A   1      29.388  25.946  23.927  1.00  0.00    -0.199 N 
ATOM     17  C   UNL A   1      28.579  28.105  23.370  1.00  0.00     0.110 C 
ATOM     18  C   UNL A   1      30.467  26.562  23.578  1.00  0.00     0.322 C 
ATOM     19  H   UNL A   1      29.370  25.001  24.202  1.00  0.00     0.316 HD
ATOM     20  S   UNL A   1      30.272  28.238  23.108  1.00  0.00     0.006 SA
ATOM     21  C   UNL A   1      27.638  29.038  23.170  1.00  0.00     0.032 C 
ATOM     22  H   UNL A   1      32.446  26.765  23.301  1.00  0.00     0.313 HD
BRANCH  21  23
ATOM     23  C   UNL A   1      27.891  30.378  22.633  1.00  0.00    -0.021 A 
ATOM     24  C   UNL A   1      27.941  30.602  21.256  1.00  0.00     0.028 A 
ATOM     25  C   UNL A   1      28.083  31.452  23.500  1.00  0.00     0.028 A 
ATOM     26  C   UNL A   1      28.217  31.881  20.806  1.00  0.00     0.111 A 
ATOM     27  C   UNL A   1      28.346  32.697  22.952  1.00  0.00     0.111 A 
ATOM     28  N   UNL A   1      28.422  32.934  21.624  1.00  0.00    -0.265 NA
ENDBRANCH  21  23
ENDBRANCH   8  13
BRANCH  12  29
ATOM     29  O   UNL A   1      33.309  23.023  26.804  1.00  0.00    -0.507 OA
ATOM     30  H   UNL A   1      33.728  22.223  27.055  1.00  0.00     0.293 HD
ENDBRANCH  12  29
ENDBRANCH   4   7
ENDBRANCH   2   3
ENDBRANCH   1   2
BRANCH   1  31
ATOM     31  C   UNL A   1      37.943  20.266  24.625  1.00  0.00     0.023 C 
BRANCH  31  32
ATOM     32  C   UNL A   1      38.934  20.452  25.767  1.00  0.00     0.116 C 
BRANCH  32  33
ATOM     33  N   UNL A   1      39.982  19.441  25.805  1.00  0.00    -0.352 N 
ATOM     34  C   UNL A   1      41.316  19.558  26.123  1.00  0.00     0.251 C 
ATOM     35  H   UNL A   1      39.691  18.532  25.566  1.00  0.00     0.163 HD
ATOM     36  O   UNL A   1      42.068  18.598  25.990  1.00  0.00    -0.269 OA
BRANCH  34  37
ATOM     37  C   UNL A   1      41.858  20.856  26.585  1.00  0.00     0.039 A 
ATOM     38  C   UNL A   1      42.263  21.797  25.634  1.00  0.00     0.014 A 
ATOM     39  C   UNL A   1      41.938  21.157  27.945  1.00  0.00     0.014 A 
ATOM     40  C   UNL A   1      42.653  23.073  26.047  1.00  0.00     0.010 A 
ATOM     41  C   UNL A   1      42.230  22.457  28.348  1.00  0.00     0.010 A 
ATOM     42  C   UNL A   1      42.587  23.432  27.404  1.00  0.00    -0.014 A 
BRANCH  42  43
ATOM     43  C   UNL A   1      42.873  24.819  27.854  1.00  0.00     0.031 A 
ATOM     44  C   UNL A   1      44.286  25.245  28.151  1.00  0.00     0.074 A 
ATOM     45  C   UNL A   1      41.856  25.678  28.066  1.00  0.00     0.049 A 
ATOM     46  N   UNL A   1      44.724  26.391  28.610  1.00  0.00    -0.248 NA
ATOM     47  C   UNL A   1      45.342  24.245  27.931  1.00  0.00     0.031 C 
ATOM     48  C   UNL A   1      40.435  25.380  27.863  1.00  0.00     0.029 A 
ATOM     49  N   UNL A   1      41.859  26.979  28.509  1.00  0.00    -0.354 N 
ATOM     50  C   UNL A   1      46.098  26.239  28.751  1.00  0.00     0.074 A 
ATOM     51  C   UNL A   1      46.413  24.876  28.385  1.00  0.00     0.031 C 
ATOM     52  C   UNL A   1      39.710  26.474  28.146  1.00  0.00     0.029 A 
ATOM     53  C   UNL A   1      40.605  27.535  28.599  1.00  0.00     0.049 A 
ATOM     54  H   UNL A   1      42.682  27.467  28.739  1.00  0.00     0.167 HD
ATOM     55  C   UNL A   1      47.020  27.157  29.130  1.00  0.00     0.031 A 
ATOM     56  C   UNL A   1      40.215  28.756  29.010  1.00  0.00     0.031 A 
ATOM     57  C   UNL A   1      46.707  28.514  29.490  1.00  0.00     0.049 A 
ATOM     58  C   UNL A   1      41.254  29.750  29.448  1.00  0.00     0.074 A 
ATOM     59  C   UNL A   1      47.576  29.536  29.831  1.00  0.00     0.029 A 
ATOM     60  N   UNL A   1      45.425  29.037  29.566  1.00  0.00    -0.354 N 
ATOM     61  N   UNL A   1      42.557  29.616  29.500  1.00  0.00    -0.248 NA
ATOM     62  C   UNL A   1      40.769  31.071  29.874  1.00  0.00     0.031 C 
ATOM     63  C   UNL A   1      46.817  30.657  30.177  1.00  0.00     0.029 A 
ATOM     64  C   UNL A   1      45.479  30.358  29.979  1.00  0.00     0.049 A 
ATOM     65  H   UNL A   1      44.600  28.542  29.356  1.00  0.00     0.167 HD
ATOM     66  C   UNL A   1      43.049  30.841  29.931  1.00  0.00     0.074 A 
ATOM     67  C   UNL A   1      41.905  31.711  30.112  1.00  0.00     0.031 C 
ATOM     68  C   UNL A   1      44.333  31.213  30.156  1.00  0.00     0.031 A 
BRANCH  55  69
ATOM     69  C   UNL A   1      48.457  26.713  29.188  1.00  0.00    -0.014 A 
ATOM     70  C   UNL A   1      48.994  26.120  30.342  1.00  0.00     0.009 A 
ATOM     71  C   UNL A   1      49.277  26.860  28.059  1.00  0.00     0.009 A 
ATOM     72  C   UNL A   1      50.333  25.725  30.378  1.00  0.00     0.001 A 
ATOM     73  C   UNL A   1      50.606  26.431  28.085  1.00  0.00     0.001 A 
ATOM     74  C   UNL A   1      51.135  25.876  29.248  1.00  0.00     0.000 A 
ENDBRANCH  55  69
BRANCH  56  75
ATOM     75  C   UNL A   1      38.770  29.114  29.019  1.00  0.00    -0.014 A 
ATOM     76  C   UNL A   1      38.146  29.598  27.858  1.00  0.00     0.009 A 
ATOM     77  C   UNL A   1      38.009  28.986  30.191  1.00  0.00     0.009 A 
ATOM     78  C   UNL A   1      36.799  29.970  27.879  1.00  0.00     0.001 A 
ATOM     79  C   UNL A   1      36.655  29.327  30.201  1.00  0.00     0.001 A 
ATOM     80  C   UNL A   1      36.054  29.829  29.049  1.00  0.00     0.000 A 
ENDBRANCH  56  75
BRANCH  68  81
ATOM     81  C   UNL A   1      44.578  32.635  30.579  1.00  0.00    -0.014 A 
ATOM     82  C   UNL A   1      44.766  32.980  31.927  1.00  0.00     0.009 A 
ATOM     83  C   UNL A   1      44.667  33.641  29.603  1.00  0.00     0.009 A 
ATOM     84  C   UNL A   1      45.003  34.308  32.289  1.00  0.00     0.001 A 
ATOM     85  C   UNL A   1      44.938  34.960  29.964  1.00  0.00     0.001 A 
ATOM     86  C   UNL A   1      45.095  35.295  31.308  1.00  0.00     0.000 A 
ENDBRANCH  68  81
ENDBRANCH  42  43
ENDBRANCH  34  37
ENDBRANCH  32  33
ENDBRANCH  31  32
ENDBRANCH   1  31
TORSDOF 14
ENDMDL
