MODEL 1
REMARK VINA RESULT:      -9.4      0.000      0.000
REMARK SMILES C[C@H]1[C@@H](C(=O)NCCCCNC(=O)c2ccc(-c3c4nc(c(-c5ccccc5)c5ccc([nH]5)c(-c5ccccc5)c5nc(c(-c6ccccc6)c6ccc3[nH]6)C=C5)C=C4)cc2)CC[N@@H+]1Cc1cc(F)c(F)c(F)c1
REMARK SMILES IDX 8 1 7 2 6 3 4 4 5 5 3 7 1 8 2 9 64 10 62 11 63 12 65 14
REMARK SMILES IDX 66 15 67 16 74 17 68 18 72 19 69 20 70 21 73 22 71 23 9 24
REMARK SMILES IDX 10 25 11 26 12 27 13 29 14 30 15 31 61 32 16 33 60 34 17 35
REMARK SMILES IDX 18 36 19 37 54 38 20 39 59 40 53 41 55 42 21 43 58 44 52 45
REMARK SMILES IDX 51 46 22 48 44 49 29 50 43 51 30 52 33 53 42 54 56 55 31 56
REMARK SMILES IDX 32 57 41 59 57 60 34 61 23 62 24 63 28 64 25 65 27 66 26 67
REMARK SMILES IDX 45 68 46 69 50 70 47 71 49 72 48 73 35 74 36 75 40 76 37 77
REMARK SMILES IDX 39 78 38 79
REMARK H PARENT 6 6 64 13 11 28 55 47 33 58
REMARK Flexibility Score: inf
ROOT
ATOM      1  C   UNL A   1      33.246  34.581  29.048  1.00  0.00     0.023 C 
ENDROOT
BRANCH   1   2
ATOM      2  C   UNL A   1      34.284  34.919  30.121  1.00  0.00     0.116 C 
BRANCH   2   3
ATOM      3  N   UNL A   1      33.758  34.517  31.402  1.00  0.00    -0.356 N 
ATOM      4  C   UNL A   1      34.419  33.909  32.427  1.00  0.00     0.229 C 
ATOM      5  O   UNL A   1      33.735  33.193  33.161  1.00  0.00    -0.275 OA
ATOM      6  H   UNL A   1      32.803  34.705  31.556  1.00  0.00     0.163 HD
BRANCH   4   7
ATOM      7  C   UNL A   1      35.880  34.265  32.738  1.00  0.00     0.142 C 
ATOM      8  C   UNL A   1      36.992  32.480  31.085  1.00  0.00     0.076 C 
ATOM      9  C   UNL A   1      37.086  33.413  32.274  1.00  0.00     0.193 C 
ATOM     10  N   UNL A   1      37.497  32.581  33.419  1.00  0.00    -0.328 N 
ATOM     11  C   UNL A   1      36.059  34.234  34.266  1.00  0.00     0.081 C 
ATOM     12  C   UNL A   1      36.572  32.829  34.516  1.00  0.00     0.263 C 
ATOM     13  H   UNL A   1      37.415  31.598  33.164  1.00  0.00     0.348 HD
BRANCH  10  14
ATOM     14  C   UNL A   1      38.926  32.589  33.735  1.00  0.00     0.299 C 
BRANCH  14  15
ATOM     15  C   UNL A   1      39.664  31.274  33.582  1.00  0.00     0.012 A 
ATOM     16  C   UNL A   1      38.993  30.117  33.149  1.00  0.00     0.052 A 
ATOM     17  C   UNL A   1      41.038  31.189  33.852  1.00  0.00     0.052 A 
ATOM     18  C   UNL A   1      39.695  28.926  32.962  1.00  0.00     0.162 A 
ATOM     19  C   UNL A   1      41.727  29.995  33.646  1.00  0.00     0.162 A 
ATOM     20  F   UNL A   1      39.035  27.840  32.539  1.00  0.00    -0.204 F 
ATOM     21  C   UNL A   1      41.061  28.864  33.199  1.00  0.00     0.194 A 
ATOM     22  F   UNL A   1      43.046  29.957  33.872  1.00  0.00    -0.204 F 
ATOM     23  F   UNL A   1      41.731  27.721  32.997  1.00  0.00    -0.200 F 
ENDBRANCH  14  15
ENDBRANCH  10  14
ENDBRANCH   4   7
ENDBRANCH   2   3
ENDBRANCH   1   2
BRANCH   1  24
ATOM     24  C   UNL A   1      33.723  33.613  27.976  1.00  0.00     0.023 C 
BRANCH  24  25
ATOM     25  C   UNL A   1      34.426  32.389  28.526  1.00  0.00     0.116 C 
BRANCH  25  26
ATOM     26  N   UNL A   1      33.823  31.132  28.100  1.00  0.00    -0.352 N 
ATOM     27  C   UNL A   1      34.430  29.910  27.945  1.00  0.00     0.251 C 
ATOM     28  H   UNL A   1      32.860  31.163  27.898  1.00  0.00     0.163 HD
ATOM     29  O   UNL A   1      33.817  28.949  27.493  1.00  0.00    -0.269 OA
BRANCH  27  30
ATOM     30  C   UNL A   1      35.857  29.798  28.291  1.00  0.00     0.039 A 
ATOM     31  C   UNL A   1      36.211  29.314  29.550  1.00  0.00     0.014 A 
ATOM     32  C   UNL A   1      36.827  30.051  27.318  1.00  0.00     0.014 A 
ATOM     33  C   UNL A   1      37.545  29.002  29.807  1.00  0.00     0.010 A 
ATOM     34  C   UNL A   1      38.132  29.643  27.541  1.00  0.00     0.010 A 
ATOM     35  C   UNL A   1      38.505  29.121  28.789  1.00  0.00    -0.014 A 
BRANCH  35  36
ATOM     36  C   UNL A   1      39.916  28.726  29.005  1.00  0.00     0.031 A 
ATOM     37  C   UNL A   1      40.883  29.721  29.583  1.00  0.00     0.074 A 
ATOM     38  C   UNL A   1      40.344  27.513  28.605  1.00  0.00     0.049 A 
ATOM     39  N   UNL A   1      42.172  29.610  29.763  1.00  0.00    -0.248 NA
ATOM     40  C   UNL A   1      40.331  31.031  29.969  1.00  0.00     0.031 C 
ATOM     41  C   UNL A   1      39.516  26.481  27.973  1.00  0.00     0.029 A 
ATOM     42  N   UNL A   1      41.590  26.945  28.667  1.00  0.00    -0.354 N 
ATOM     43  C   UNL A   1      42.589  30.843  30.248  1.00  0.00     0.074 A 
ATOM     44  C   UNL A   1      41.428  31.704  30.281  1.00  0.00     0.031 C 
ATOM     45  C   UNL A   1      40.270  25.394  27.740  1.00  0.00     0.029 A 
ATOM     46  C   UNL A   1      41.637  25.664  28.172  1.00  0.00     0.049 A 
ATOM     47  H   UNL A   1      42.377  27.411  29.031  1.00  0.00     0.167 HD
ATOM     48  C   UNL A   1      43.823  31.220  30.656  1.00  0.00     0.031 A 
ATOM     49  C   UNL A   1      42.669  24.804  28.083  1.00  0.00     0.031 A 
ATOM     50  C   UNL A   1      44.965  30.350  30.665  1.00  0.00     0.049 A 
ATOM     51  C   UNL A   1      44.021  25.231  28.582  1.00  0.00     0.074 A 
ATOM     52  C   UNL A   1      46.242  30.608  31.128  1.00  0.00     0.029 A 
ATOM     53  N   UNL A   1      44.961  29.046  30.194  1.00  0.00    -0.354 N 
ATOM     54  N   UNL A   1      44.384  26.378  29.102  1.00  0.00    -0.248 NA
ATOM     55  C   UNL A   1      45.101  24.237  28.493  1.00  0.00     0.031 C 
ATOM     56  C   UNL A   1      47.021  29.466  30.912  1.00  0.00     0.029 A 
ATOM     57  C   UNL A   1      46.217  28.488  30.349  1.00  0.00     0.049 A 
ATOM     58  H   UNL A   1      44.181  28.585  29.809  1.00  0.00     0.167 HD
ATOM     59  C   UNL A   1      45.727  26.238  29.425  1.00  0.00     0.074 A 
ATOM     60  C   UNL A   1      46.109  24.889  29.055  1.00  0.00     0.031 C 
ATOM     61  C   UNL A   1      46.570  27.143  29.977  1.00  0.00     0.031 A 
BRANCH  48  62
ATOM     62  C   UNL A   1      43.985  32.634  31.131  1.00  0.00    -0.014 A 
ATOM     63  C   UNL A   1      43.807  32.970  32.484  1.00  0.00     0.009 A 
ATOM     64  C   UNL A   1      44.322  33.644  30.218  1.00  0.00     0.009 A 
ATOM     65  C   UNL A   1      43.922  34.296  32.903  1.00  0.00     0.001 A 
ATOM     66  C   UNL A   1      44.465  34.966  30.647  1.00  0.00     0.001 A 
ATOM     67  C   UNL A   1      44.254  35.292  31.986  1.00  0.00     0.000 A 
ENDBRANCH  48  62
BRANCH  49  68
ATOM     68  C   UNL A   1      42.458  23.441  27.533  1.00  0.00    -0.014 A 
ATOM     69  C   UNL A   1      42.816  23.151  26.207  1.00  0.00     0.009 A 
ATOM     70  C   UNL A   1      41.898  22.426  28.323  1.00  0.00     0.009 A 
ATOM     71  C   UNL A   1      42.593  21.880  25.675  1.00  0.00     0.001 A 
ATOM     72  C   UNL A   1      41.698  21.148  27.795  1.00  0.00     0.001 A 
ATOM     73  C   UNL A   1      42.038  20.878  26.470  1.00  0.00     0.000 A 
ENDBRANCH  49  68
BRANCH  61  74
ATOM     74  C   UNL A   1      47.978  26.694  30.243  1.00  0.00    -0.014 A 
ATOM     75  C   UNL A   1      48.311  26.014  31.423  1.00  0.00     0.009 A 
ATOM     76  C   UNL A   1      48.970  26.915  29.275  1.00  0.00     0.009 A 
ATOM     77  C   UNL A   1      49.620  25.587  31.642  1.00  0.00     0.001 A 
ATOM     78  C   UNL A   1      50.273  26.465  29.487  1.00  0.00     0.001 A 
ATOM     79  C   UNL A   1      50.599  25.808  30.673  1.00  0.00     0.000 A 
ENDBRANCH  61  74
ENDBRANCH  35  36
ENDBRANCH  27  30
ENDBRANCH  25  26
ENDBRANCH  24  25
ENDBRANCH   1  24
TORSDOF 13
ENDMDL
MODEL 2
REMARK VINA RESULT:      -9.4      4.342      9.888
REMARK SMILES C[C@H]1[C@@H](C(=O)NCCCCNC(=O)c2ccc(-c3c4nc(c(-c5ccccc5)c5ccc([nH]5)c(-c5ccccc5)c5nc(c(-c6ccccc6)c6ccc3[nH]6)C=C5)C=C4)cc2)CC[N@@H+]1Cc1cc(F)c(F)c(F)c1
REMARK SMILES IDX 8 1 7 2 6 3 4 4 5 5 3 7 1 8 2 9 64 10 62 11 63 12 65 14
REMARK SMILES IDX 66 15 67 16 74 17 68 18 72 19 69 20 70 21 73 22 71 23 9 24
REMARK SMILES IDX 10 25 11 26 12 27 13 29 14 30 15 31 61 32 16 33 60 34 17 35
REMARK SMILES IDX 18 36 19 37 54 38 20 39 59 40 53 41 55 42 21 43 58 44 52 45
REMARK SMILES IDX 51 46 22 48 44 49 29 50 43 51 30 52 33 53 42 54 56 55 31 56
REMARK SMILES IDX 32 57 41 59 57 60 34 61 23 62 24 63 28 64 25 65 27 66 26 67
REMARK SMILES IDX 45 68 46 69 50 70 47 71 49 72 48 73 35 74 36 75 40 76 37 77
REMARK SMILES IDX 39 78 38 79
REMARK H PARENT 6 6 64 13 11 28 55 47 33 58
REMARK Flexibility Score: inf
ROOT
ATOM      1  C   UNL A   1      36.472  21.327  25.212  1.00  0.00     0.023 C 
ENDROOT
BRANCH   1   2
ATOM      2  C   UNL A   1      35.185  20.513  25.051  1.00  0.00     0.116 C 
BRANCH   2   3
ATOM      3  N   UNL A   1      34.390  20.683  26.243  1.00  0.00    -0.356 N 
ATOM      4  C   UNL A   1      33.539  21.704  26.544  1.00  0.00     0.229 C 
ATOM      5  O   UNL A   1      33.390  21.946  27.744  1.00  0.00    -0.275 OA
ATOM      6  H   UNL A   1      34.473  19.975  26.922  1.00  0.00     0.163 HD
BRANCH   4   7
ATOM      7  C   UNL A   1      32.686  22.362  25.451  1.00  0.00     0.142 C 
ATOM      8  C   UNL A   1      34.159  24.581  25.203  1.00  0.00     0.076 C 
ATOM      9  C   UNL A   1      32.858  23.833  25.000  1.00  0.00     0.193 C 
ATOM     10  N   UNL A   1      31.817  24.621  25.683  1.00  0.00    -0.328 N 
ATOM     11  C   UNL A   1      31.223  22.363  25.928  1.00  0.00     0.081 C 
ATOM     12  C   UNL A   1      31.079  23.731  26.566  1.00  0.00     0.263 C 
ATOM     13  H   UNL A   1      32.263  25.330  26.264  1.00  0.00     0.348 HD
BRANCH  10  14
ATOM     14  C   UNL A   1      31.035  25.521  24.833  1.00  0.00     0.299 C 
BRANCH  14  15
ATOM     15  C   UNL A   1      31.172  27.005  25.105  1.00  0.00     0.012 A 
ATOM     16  C   UNL A   1      31.874  27.470  26.231  1.00  0.00     0.052 A 
ATOM     17  C   UNL A   1      30.617  27.948  24.227  1.00  0.00     0.052 A 
ATOM     18  C   UNL A   1      32.037  28.839  26.441  1.00  0.00     0.162 A 
ATOM     19  C   UNL A   1      30.802  29.312  24.444  1.00  0.00     0.162 A 
ATOM     20  F   UNL A   1      32.718  29.257  27.516  1.00  0.00    -0.204 F 
ATOM     21  C   UNL A   1      31.513  29.761  25.546  1.00  0.00     0.194 A 
ATOM     22  F   UNL A   1      30.296  30.185  23.565  1.00  0.00    -0.204 F 
ATOM     23  F   UNL A   1      31.692  31.074  25.745  1.00  0.00    -0.200 F 
ENDBRANCH  14  15
ENDBRANCH  10  14
ENDBRANCH   4   7
ENDBRANCH   2   3
ENDBRANCH   1   2
BRANCH   1  24
ATOM     24  C   UNL A   1      37.742  20.610  24.779  1.00  0.00     0.023 C 
BRANCH  24  25
ATOM     25  C   UNL A   1      38.895  20.768  25.749  1.00  0.00     0.116 C 
BRANCH  25  26
ATOM     26  N   UNL A   1      39.847  19.664  25.703  1.00  0.00    -0.352 N 
ATOM     27  C   UNL A   1      41.176  19.677  26.049  1.00  0.00     0.251 C 
ATOM     28  H   UNL A   1      39.493  18.802  25.386  1.00  0.00     0.163 HD
ATOM     29  O   UNL A   1      41.885  18.691  25.878  1.00  0.00    -0.269 OA
BRANCH  27  30
ATOM     30  C   UNL A   1      41.739  20.927  26.587  1.00  0.00     0.039 A 
ATOM     31  C   UNL A   1      42.240  21.878  25.699  1.00  0.00     0.014 A 
ATOM     32  C   UNL A   1      41.643  21.196  27.954  1.00  0.00     0.014 A 
ATOM     33  C   UNL A   1      42.573  23.144  26.178  1.00  0.00     0.010 A 
ATOM     34  C   UNL A   1      41.875  22.485  28.407  1.00  0.00     0.010 A 
ATOM     35  C   UNL A   1      42.348  23.470  27.526  1.00  0.00    -0.014 A 
BRANCH  35  36
ATOM     36  C   UNL A   1      42.618  24.828  28.050  1.00  0.00     0.031 A 
ATOM     37  C   UNL A   1      44.012  25.192  28.478  1.00  0.00     0.074 A 
ATOM     38  C   UNL A   1      41.603  25.697  28.222  1.00  0.00     0.049 A 
ATOM     39  N   UNL A   1      44.440  26.287  29.048  1.00  0.00    -0.248 NA
ATOM     40  C   UNL A   1      45.054  24.170  28.276  1.00  0.00     0.031 C 
ATOM     41  C   UNL A   1      40.196  25.439  27.903  1.00  0.00     0.029 A 
ATOM     42  N   UNL A   1      41.602  26.976  28.714  1.00  0.00    -0.354 N 
ATOM     43  C   UNL A   1      45.788  26.072  29.305  1.00  0.00     0.074 A 
ATOM     44  C   UNL A   1      46.094  24.724  28.880  1.00  0.00     0.031 C 
ATOM     45  C   UNL A   1      39.475  26.540  28.175  1.00  0.00     0.029 A 
ATOM     46  C   UNL A   1      40.360  27.564  28.717  1.00  0.00     0.049 A 
ATOM     47  H   UNL A   1      42.414  27.430  29.036  1.00  0.00     0.167 HD
ATOM     48  C   UNL A   1      46.700  26.927  29.822  1.00  0.00     0.031 A 
ATOM     49  C   UNL A   1      39.983  28.795  29.110  1.00  0.00     0.031 A 
ATOM     50  C   UNL A   1      46.405  28.280  30.201  1.00  0.00     0.049 A 
ATOM     51  C   UNL A   1      41.021  29.743  29.642  1.00  0.00     0.074 A 
ATOM     52  C   UNL A   1      47.270  29.255  30.665  1.00  0.00     0.029 A 
ATOM     53  N   UNL A   1      45.143  28.851  30.150  1.00  0.00    -0.354 N 
ATOM     54  N   UNL A   1      42.306  29.548  29.814  1.00  0.00    -0.248 NA
ATOM     55  C   UNL A   1      40.557  31.085  30.021  1.00  0.00     0.031 C 
ATOM     56  C   UNL A   1      46.524  30.411  30.921  1.00  0.00     0.029 A 
ATOM     57  C   UNL A   1      45.204  30.164  30.581  1.00  0.00     0.049 A 
ATOM     58  H   UNL A   1      44.325  28.392  29.850  1.00  0.00     0.167 HD
ATOM     59  C   UNL A   1      42.809  30.748  30.298  1.00  0.00     0.074 A 
ATOM     60  C   UNL A   1      41.692  31.669  30.378  1.00  0.00     0.031 C 
ATOM     61  C   UNL A   1      44.080  31.061  30.647  1.00  0.00     0.031 A 
BRANCH  48  62
ATOM     62  C   UNL A   1      48.100  26.414  29.995  1.00  0.00    -0.014 A 
ATOM     63  C   UNL A   1      48.493  25.762  31.176  1.00  0.00     0.009 A 
ATOM     64  C   UNL A   1      49.037  26.581  28.965  1.00  0.00     0.009 A 
ATOM     65  C   UNL A   1      49.809  25.327  31.338  1.00  0.00     0.001 A 
ATOM     66  C   UNL A   1      50.346  26.117  29.119  1.00  0.00     0.001 A 
ATOM     67  C   UNL A   1      50.733  25.502  30.309  1.00  0.00     0.000 A 
ENDBRANCH  48  62
BRANCH  49  68
ATOM     68  C   UNL A   1      38.565  29.217  28.981  1.00  0.00    -0.014 A 
ATOM     69  C   UNL A   1      37.699  29.129  30.082  1.00  0.00     0.009 A 
ATOM     70  C   UNL A   1      38.069  29.705  27.763  1.00  0.00     0.009 A 
ATOM     71  C   UNL A   1      36.358  29.496  29.959  1.00  0.00     0.001 A 
ATOM     72  C   UNL A   1      36.731  30.094  27.650  1.00  0.00     0.001 A 
ATOM     73  C   UNL A   1      35.875  29.981  28.745  1.00  0.00     0.000 A 
ENDBRANCH  49  68
BRANCH  61  74
ATOM     74  C   UNL A   1      44.335  32.464  31.115  1.00  0.00    -0.014 A 
ATOM     75  C   UNL A   1      44.645  33.486  30.206  1.00  0.00     0.009 A 
ATOM     76  C   UNL A   1      44.217  32.772  32.479  1.00  0.00     0.009 A 
ATOM     77  C   UNL A   1      44.859  34.788  30.659  1.00  0.00     0.001 A 
ATOM     78  C   UNL A   1      44.408  34.079  32.925  1.00  0.00     0.001 A 
ATOM     79  C   UNL A   1      44.735  35.084  32.016  1.00  0.00     0.000 A 
ENDBRANCH  61  74
ENDBRANCH  35  36
ENDBRANCH  27  30
ENDBRANCH  25  26
ENDBRANCH  24  25
ENDBRANCH   1  24
TORSDOF 13
ENDMDL
MODEL 3
REMARK VINA RESULT:      -9.3      4.453      9.762
REMARK SMILES C[C@H]1[C@@H](C(=O)NCCCCNC(=O)c2ccc(-c3c4nc(c(-c5ccccc5)c5ccc([nH]5)c(-c5ccccc5)c5nc(c(-c6ccccc6)c6ccc3[nH]6)C=C5)C=C4)cc2)CC[N@@H+]1Cc1cc(F)c(F)c(F)c1
REMARK SMILES IDX 8 1 7 2 6 3 4 4 5 5 3 7 1 8 2 9 64 10 62 11 63 12 65 14
REMARK SMILES IDX 66 15 67 16 74 17 68 18 72 19 69 20 70 21 73 22 71 23 9 24
REMARK SMILES IDX 10 25 11 26 12 27 13 29 14 30 15 31 61 32 16 33 60 34 17 35
REMARK SMILES IDX 18 36 19 37 54 38 20 39 59 40 53 41 55 42 21 43 58 44 52 45
REMARK SMILES IDX 51 46 22 48 44 49 29 50 43 51 30 52 33 53 42 54 56 55 31 56
REMARK SMILES IDX 32 57 41 59 57 60 34 61 23 62 24 63 28 64 25 65 27 66 26 67
REMARK SMILES IDX 45 68 46 69 50 70 47 71 49 72 48 73 35 74 36 75 40 76 37 77
REMARK SMILES IDX 39 78 38 79
REMARK H PARENT 6 6 64 13 11 28 55 47 33 58
REMARK Flexibility Score: inf
ROOT
ATOM      1  C   UNL A   1      36.319  20.340  24.975  1.00  0.00     0.023 C 
ENDROOT
BRANCH   1   2
ATOM      2  C   UNL A   1      35.076  20.936  25.642  1.00  0.00     0.116 C 
BRANCH   2   3
ATOM      3  N   UNL A   1      33.956  20.758  24.751  1.00  0.00    -0.356 N 
ATOM      4  C   UNL A   1      33.271  21.715  24.065  1.00  0.00     0.229 C 
ATOM      5  O   UNL A   1      32.090  21.459  23.816  1.00  0.00    -0.275 OA
ATOM      6  H   UNL A   1      33.649  19.830  24.623  1.00  0.00     0.163 HD
BRANCH   4   7
ATOM      7  C   UNL A   1      33.998  22.935  23.483  1.00  0.00     0.142 C 
ATOM      8  C   UNL A   1      33.942  24.419  25.707  1.00  0.00     0.076 C 
ATOM      9  C   UNL A   1      34.092  24.301  24.205  1.00  0.00     0.193 C 
ATOM     10  N   UNL A   1      33.062  25.175  23.617  1.00  0.00    -0.328 N 
ATOM     11  C   UNL A   1      33.286  23.333  22.178  1.00  0.00     0.081 C 
ATOM     12  C   UNL A   1      32.312  24.400  22.640  1.00  0.00     0.263 C 
ATOM     13  H   UNL A   1      32.412  25.462  24.347  1.00  0.00     0.348 HD
BRANCH  10  14
ATOM     14  C   UNL A   1      33.511  26.509  23.212  1.00  0.00     0.299 C 
BRANCH  14  15
ATOM     15  C   UNL A   1      32.889  27.685  23.938  1.00  0.00     0.012 A 
ATOM     16  C   UNL A   1      33.598  28.370  24.941  1.00  0.00     0.052 A 
ATOM     17  C   UNL A   1      31.598  28.126  23.611  1.00  0.00     0.052 A 
ATOM     18  C   UNL A   1      33.033  29.483  25.565  1.00  0.00     0.162 A 
ATOM     19  C   UNL A   1      31.056  29.249  24.234  1.00  0.00     0.162 A 
ATOM     20  F   UNL A   1      33.732  30.124  26.510  1.00  0.00    -0.204 F 
ATOM     21  C   UNL A   1      31.769  29.930  25.207  1.00  0.00     0.194 A 
ATOM     22  F   UNL A   1      29.838  29.670  23.869  1.00  0.00    -0.204 F 
ATOM     23  F   UNL A   1      31.243  31.013  25.797  1.00  0.00    -0.200 F 
ENDBRANCH  14  15
ENDBRANCH  10  14
ENDBRANCH   4   7
ENDBRANCH   2   3
ENDBRANCH   1   2
BRANCH   1  24
ATOM     24  C   UNL A   1      37.428  21.338  24.676  1.00  0.00     0.023 C 
BRANCH  24  25
ATOM     25  C   UNL A   1      38.557  21.318  25.686  1.00  0.00     0.116 C 
BRANCH  25  26
ATOM     26  N   UNL A   1      39.370  20.109  25.625  1.00  0.00    -0.352 N 
ATOM     27  C   UNL A   1      40.682  19.950  25.997  1.00  0.00     0.251 C 
ATOM     28  H   UNL A   1      38.921  19.306  25.274  1.00  0.00     0.163 HD
ATOM     29  O   UNL A   1      41.271  18.891  25.810  1.00  0.00    -0.269 OA
BRANCH  27  30
ATOM     30  C   UNL A   1      41.379  21.107  26.584  1.00  0.00     0.039 A 
ATOM     31  C   UNL A   1      41.950  22.054  25.734  1.00  0.00     0.014 A 
ATOM     32  C   UNL A   1      41.345  21.307  27.966  1.00  0.00     0.014 A 
ATOM     33  C   UNL A   1      42.418  23.253  26.271  1.00  0.00     0.010 A 
ATOM     34  C   UNL A   1      41.715  22.539  28.481  1.00  0.00     0.010 A 
ATOM     35  C   UNL A   1      42.261  23.521  27.640  1.00  0.00    -0.014 A 
BRANCH  35  36
ATOM     36  C   UNL A   1      42.676  24.814  28.229  1.00  0.00     0.031 A 
ATOM     37  C   UNL A   1      41.645  25.881  28.474  1.00  0.00     0.074 A 
ATOM     38  C   UNL A   1      43.980  25.060  28.462  1.00  0.00     0.049 A 
ATOM     39  N   UNL A   1      41.811  27.108  28.891  1.00  0.00    -0.248 NA
ATOM     40  C   UNL A   1      40.247  25.532  28.168  1.00  0.00     0.031 C 
ATOM     41  C   UNL A   1      45.083  24.129  28.207  1.00  0.00     0.029 A 
ATOM     42  N   UNL A   1      44.598  26.177  28.962  1.00  0.00    -0.354 N 
ATOM     43  C   UNL A   1      40.548  27.686  28.862  1.00  0.00     0.074 A 
ATOM     44  C   UNL A   1      39.637  26.695  28.335  1.00  0.00     0.031 C 
ATOM     45  C   UNL A   1      46.237  24.701  28.587  1.00  0.00     0.029 A 
ATOM     46  C   UNL A   1      45.961  26.046  29.077  1.00  0.00     0.049 A 
ATOM     47  H   UNL A   1      44.112  26.995  29.213  1.00  0.00     0.167 HD
ATOM     48  C   UNL A   1      40.172  28.922  29.263  1.00  0.00     0.031 A 
ATOM     49  C   UNL A   1      46.882  26.917  29.533  1.00  0.00     0.031 A 
ATOM     50  C   UNL A   1      41.070  29.889  29.828  1.00  0.00     0.049 A 
ATOM     51  C   UNL A   1      46.435  28.269  30.013  1.00  0.00     0.074 A 
ATOM     52  C   UNL A   1      40.781  31.142  30.337  1.00  0.00     0.029 A 
ATOM     53  N   UNL A   1      42.437  29.703  29.966  1.00  0.00    -0.354 N 
ATOM     54  N   UNL A   1      45.226  28.776  30.044  1.00  0.00    -0.248 NA
ATOM     55  C   UNL A   1      47.479  29.163  30.534  1.00  0.00     0.031 C 
ATOM     56  C   UNL A   1      41.979  31.727  30.759  1.00  0.00     0.029 A 
ATOM     57  C   UNL A   1      43.007  30.822  30.546  1.00  0.00     0.049 A 
ATOM     58  H   UNL A   1      42.929  28.894  29.694  1.00  0.00     0.167 HD
ATOM     59  C   UNL A   1      45.360  30.037  30.608  1.00  0.00     0.074 A 
ATOM     60  C   UNL A   1      46.765  30.212  30.918  1.00  0.00     0.031 C 
ATOM     61  C   UNL A   1      44.406  30.969  30.848  1.00  0.00     0.031 A 
BRANCH  48  62
ATOM     62  C   UNL A   1      38.724  29.282  29.107  1.00  0.00    -0.014 A 
ATOM     63  C   UNL A   1      37.812  29.096  30.159  1.00  0.00     0.009 A 
ATOM     64  C   UNL A   1      38.264  29.818  27.895  1.00  0.00     0.009 A 
ATOM     65  C   UNL A   1      36.460  29.398  29.985  1.00  0.00     0.001 A 
ATOM     66  C   UNL A   1      36.916  30.147  27.734  1.00  0.00     0.001 A 
ATOM     67  C   UNL A   1      36.014  29.926  28.775  1.00  0.00     0.000 A 
ENDBRANCH  48  62
BRANCH  49  68
ATOM     68  C   UNL A   1      48.312  26.525  29.593  1.00  0.00    -0.014 A 
ATOM     69  C   UNL A   1      49.171  26.818  28.522  1.00  0.00     0.009 A 
ATOM     70  C   UNL A   1      48.828  25.856  30.713  1.00  0.00     0.009 A 
ATOM     71  C   UNL A   1      50.510  26.426  28.559  1.00  0.00     0.001 A 
ATOM     72  C   UNL A   1      50.175  25.486  30.758  1.00  0.00     0.001 A 
ATOM     73  C   UNL A   1      51.012  25.763  29.678  1.00  0.00     0.000 A 
ENDBRANCH  49  68
BRANCH  61  74
ATOM     74  C   UNL A   1      44.847  32.245  31.504  1.00  0.00    -0.014 A 
ATOM     75  C   UNL A   1      45.231  33.357  30.741  1.00  0.00     0.009 A 
ATOM     76  C   UNL A   1      44.831  32.346  32.904  1.00  0.00     0.009 A 
ATOM     77  C   UNL A   1      45.618  34.541  31.369  1.00  0.00     0.001 A 
ATOM     78  C   UNL A   1      45.196  33.539  33.528  1.00  0.00     0.001 A 
ATOM     79  C   UNL A   1      45.595  34.633  32.761  1.00  0.00     0.000 A 
ENDBRANCH  61  74
ENDBRANCH  35  36
ENDBRANCH  27  30
ENDBRANCH  25  26
ENDBRANCH  24  25
ENDBRANCH   1  24
TORSDOF 13
ENDMDL
