MODEL 1
REMARK VINA RESULT:     -10.7      0.000      0.000
REMARK SMILES COc1cc([N+](=O)[O-])cc([C@H]2[NH2+][C@H](C(=O)NCCCCNC(=O)c3ccc(-c4c5nc(c(-c6ccccc6)c6ccc([nH]6)c(-c6ccccc6)c6nc(c(-c7ccccc7)c7ccc4[nH]7)C=C6)C=C5)cc3)CS2)c1O
REMARK SMILES IDX 18 1 17 2 16 3 14 4 15 5 13 7 11 8 12 9 73 10 72 13 10 14
REMARK SMILES IDX 3 15 4 16 74 17 5 18 9 19 2 20 1 21 75 22 6 24 7 25 8 26
REMARK SMILES IDX 19 27 20 28 21 29 22 30 23 32 24 33 25 34 71 35 26 36 70 37
REMARK SMILES IDX 27 38 28 39 29 40 64 41 30 42 69 43 63 44 65 45 31 46 68 47
REMARK SMILES IDX 62 48 61 49 32 51 54 52 39 53 53 54 40 55 43 56 52 57 66 58
REMARK SMILES IDX 41 59 42 60 51 62 67 63 44 64 33 65 34 66 38 67 35 68 37 69
REMARK SMILES IDX 36 70 55 71 56 72 60 73 57 74 59 75 58 76 45 77 46 78 50 79
REMARK SMILES IDX 47 80 49 81 48 82
REMARK H PARENT 16 6 12 11 12 12 75 23 21 31 65 50 43 61
REMARK Flexibility Score: inf
ROOT
ATOM      1  C   UNL A   1      31.856  30.173  25.880  1.00  0.00     0.023 C 
ENDROOT
BRANCH   1   2
ATOM      2  C   UNL A   1      32.334  29.106  26.865  1.00  0.00     0.116 C 
BRANCH   2   3
ATOM      3  N   UNL A   1      31.385  28.027  27.022  1.00  0.00    -0.351 N 
ATOM      4  C   UNL A   1      31.350  26.788  26.453  1.00  0.00     0.279 C 
ATOM      5  O   UNL A   1      30.423  26.044  26.789  1.00  0.00    -0.268 OA
ATOM      6  H   UNL A   1      30.644  28.217  27.642  1.00  0.00     0.163 HD
BRANCH   4   7
ATOM      7  C   UNL A   1      32.421  26.285  25.470  1.00  0.00     0.283 C 
ATOM      8  C   UNL A   1      32.864  24.002  24.781  1.00  0.00     0.278 C 
ATOM      9  N   UNL A   1      32.985  24.964  25.883  1.00  0.00    -0.320 N 
ATOM     10  S   UNL A   1      32.983  24.995  23.280  1.00  0.00    -0.087 SA
ATOM     11  H   UNL A   1      33.968  25.077  26.127  1.00  0.00     0.348 HD
ATOM     12  H   UNL A   1      32.467  24.616  26.690  1.00  0.00     0.348 HD
ATOM     13  C   UNL A   1      31.973  26.302  24.013  1.00  0.00     0.151 C 
BRANCH   8  14
ATOM     14  C   UNL A   1      33.768  22.781  24.906  1.00  0.00     0.073 A 
ATOM     15  C   UNL A   1      35.967  21.678  24.737  1.00  0.00     0.167 A 
ATOM     16  C   UNL A   1      35.345  20.425  24.756  1.00  0.00     0.136 A 
ATOM     17  C   UNL A   1      35.179  22.845  24.811  1.00  0.00     0.168 A 
ATOM     18  C   UNL A   1      33.957  20.335  24.830  1.00  0.00     0.273 A 
ATOM     19  C   UNL A   1      33.175  21.496  24.899  1.00  0.00     0.100 A 
BRANCH  15  20
ATOM     20  O   UNL A   1      37.328  21.572  24.630  1.00  0.00    -0.493 OA
ATOM     21  C   UNL A   1      38.130  21.792  25.780  1.00  0.00     0.278 C 
ENDBRANCH  15  20
BRANCH  17  22
ATOM     22  O   UNL A   1      35.806  24.060  24.741  1.00  0.00    -0.504 OA
ATOM     23  H   UNL A   1      35.826  24.532  23.930  1.00  0.00     0.293 HD
ENDBRANCH  17  22
BRANCH  18  24
ATOM     24  N   UNL A   1      33.309  19.017  24.788  1.00  0.00     0.062 N 
ATOM     25  O   UNL A   1      33.555  18.280  23.824  1.00  0.00    -0.258 OA
ATOM     26  O   UNL A   1      32.550  18.722  25.723  1.00  0.00    -0.258 OA
ENDBRANCH  18  24
ENDBRANCH   8  14
ENDBRANCH   4   7
ENDBRANCH   2   3
ENDBRANCH   1   2
BRANCH   1  27
ATOM     27  C   UNL A   1      31.539  31.530  26.513  1.00  0.00     0.023 C 
BRANCH  27  28
ATOM     28  C   UNL A   1      32.743  32.289  27.057  1.00  0.00     0.116 C 
BRANCH  28  29
ATOM     29  N   UNL A   1      32.422  33.622  27.544  1.00  0.00    -0.352 N 
ATOM     30  C   UNL A   1      33.127  34.398  28.433  1.00  0.00     0.251 C 
ATOM     31  H   UNL A   1      31.593  34.019  27.192  1.00  0.00     0.163 HD
ATOM     32  O   UNL A   1      32.672  35.469  28.818  1.00  0.00    -0.269 OA
BRANCH  30  33
ATOM     33  C   UNL A   1      34.419  33.910  28.959  1.00  0.00     0.039 A 
ATOM     34  C   UNL A   1      34.418  33.131  30.118  1.00  0.00     0.014 A 
ATOM     35  C   UNL A   1      35.618  34.193  28.301  1.00  0.00     0.014 A 
ATOM     36  C   UNL A   1      35.615  32.584  30.582  1.00  0.00     0.010 A 
ATOM     37  C   UNL A   1      36.799  33.590  28.723  1.00  0.00     0.010 A 
ATOM     38  C   UNL A   1      36.810  32.780  29.869  1.00  0.00    -0.014 A 
BRANCH  38  39
ATOM     39  C   UNL A   1      38.074  32.142  30.313  1.00  0.00     0.031 A 
ATOM     40  C   UNL A   1      38.912  32.781  31.385  1.00  0.00     0.074 A 
ATOM     41  C   UNL A   1      38.484  31.001  29.725  1.00  0.00     0.049 A 
ATOM     42  N   UNL A   1      40.043  32.371  31.902  1.00  0.00    -0.248 NA
ATOM     43  C   UNL A   1      38.429  34.059  31.936  1.00  0.00     0.031 C 
ATOM     44  C   UNL A   1      37.783  30.302  28.645  1.00  0.00     0.029 A 
ATOM     45  N   UNL A   1      39.589  30.223  29.960  1.00  0.00    -0.354 N 
ATOM     46  C   UNL A   1      40.405  33.337  32.832  1.00  0.00     0.074 A 
ATOM     47  C   UNL A   1      39.408  34.382  32.767  1.00  0.00     0.031 C 
ATOM     48  C   UNL A   1      38.453  29.180  28.340  1.00  0.00     0.029 A 
ATOM     49  C   UNL A   1      39.646  29.096  29.176  1.00  0.00     0.049 A 
ATOM     50  H   UNL A   1      40.276  30.451  30.627  1.00  0.00     0.167 HD
ATOM     51  C   UNL A   1      41.458  33.342  33.684  1.00  0.00     0.031 A 
ATOM     52  C   UNL A   1      40.553  28.102  29.142  1.00  0.00     0.031 A 
ATOM     53  C   UNL A   1      42.448  32.302  33.754  1.00  0.00     0.049 A 
ATOM     54  C   UNL A   1      41.723  28.144  30.086  1.00  0.00     0.074 A 
ATOM     55  C   UNL A   1      43.534  32.200  34.607  1.00  0.00     0.029 A 
ATOM     56  N   UNL A   1      42.472  31.180  32.940  1.00  0.00    -0.354 N 
ATOM     57  N   UNL A   1      42.015  29.034  31.003  1.00  0.00    -0.248 NA
ATOM     58  C   UNL A   1      42.679  27.030  29.999  1.00  0.00     0.031 C 
ATOM     59  C   UNL A   1      44.237  31.036  34.282  1.00  0.00     0.029 A 
ATOM     60  C   UNL A   1      43.561  30.388  33.262  1.00  0.00     0.049 A 
ATOM     61  H   UNL A   1      41.812  30.977  32.238  1.00  0.00     0.167 HD
ATOM     62  C   UNL A   1      43.169  28.573  31.622  1.00  0.00     0.074 A 
ATOM     63  C   UNL A   1      43.512  27.316  30.990  1.00  0.00     0.031 C 
ATOM     64  C   UNL A   1      43.884  29.138  32.625  1.00  0.00     0.031 A 
BRANCH  51  65
ATOM     65  C   UNL A   1      41.582  34.512  34.619  1.00  0.00    -0.014 A 
ATOM     66  C   UNL A   1      40.995  34.483  35.894  1.00  0.00     0.009 A 
ATOM     67  C   UNL A   1      42.324  35.642  34.239  1.00  0.00     0.009 A 
ATOM     68  C   UNL A   1      41.121  35.572  36.758  1.00  0.00     0.001 A 
ATOM     69  C   UNL A   1      42.472  36.718  35.115  1.00  0.00     0.001 A 
ATOM     70  C   UNL A   1      41.864  36.686  36.370  1.00  0.00     0.000 A 
ENDBRANCH  51  65
BRANCH  52  71
ATOM     71  C   UNL A   1      40.386  26.962  28.202  1.00  0.00    -0.014 A 
ATOM     72  C   UNL A   1      40.955  27.010  26.920  1.00  0.00     0.009 A 
ATOM     73  C   UNL A   1      39.634  25.836  28.569  1.00  0.00     0.009 A 
ATOM     74  C   UNL A   1      40.743  25.972  26.012  1.00  0.00     0.001 A 
ATOM     75  C   UNL A   1      39.449  24.785  27.668  1.00  0.00     0.001 A 
ATOM     76  C   UNL A   1      39.993  24.858  26.387  1.00  0.00     0.000 A 
ENDBRANCH  52  71
BRANCH  64  77
ATOM     77  C   UNL A   1      45.079  28.379  33.125  1.00  0.00    -0.014 A 
ATOM     78  C   UNL A   1      46.356  28.591  32.584  1.00  0.00     0.009 A 
ATOM     79  C   UNL A   1      44.926  27.454  34.170  1.00  0.00     0.009 A 
ATOM     80  C   UNL A   1      47.451  27.861  33.054  1.00  0.00     0.001 A 
ATOM     81  C   UNL A   1      46.027  26.748  34.657  1.00  0.00     0.001 A 
ATOM     82  C   UNL A   1      47.285  26.943  34.091  1.00  0.00     0.000 A 
ENDBRANCH  64  77
ENDBRANCH  38  39
ENDBRANCH  30  33
ENDBRANCH  28  29
ENDBRANCH  27  28
ENDBRANCH   1  27
TORSDOF 15
ENDMDL
MODEL 2
REMARK VINA RESULT:     -10.7      0.801      5.980
REMARK SMILES COc1cc([N+](=O)[O-])cc([C@H]2[NH2+][C@H](C(=O)NCCCCNC(=O)c3ccc(-c4c5nc(c(-c6ccccc6)c6ccc([nH]6)c(-c6ccccc6)c6nc(c(-c7ccccc7)c7ccc4[nH]7)C=C6)C=C5)cc3)CS2)c1O
REMARK SMILES IDX 18 1 17 2 16 3 14 4 15 5 13 7 11 8 12 9 73 10 72 13 10 14
REMARK SMILES IDX 3 15 4 16 74 17 5 18 9 19 2 20 1 21 75 22 6 24 7 25 8 26
REMARK SMILES IDX 19 27 20 28 21 29 22 30 23 32 24 33 25 34 71 35 26 36 70 37
REMARK SMILES IDX 27 38 28 39 29 40 64 41 30 42 69 43 63 44 65 45 31 46 68 47
REMARK SMILES IDX 62 48 61 49 32 51 54 52 39 53 53 54 40 55 43 56 52 57 66 58
REMARK SMILES IDX 41 59 42 60 51 62 67 63 44 64 33 65 34 66 38 67 35 68 37 69
REMARK SMILES IDX 36 70 55 71 56 72 60 73 57 74 59 75 58 76 45 77 46 78 50 79
REMARK SMILES IDX 47 80 49 81 48 82
REMARK H PARENT 16 6 12 11 12 12 75 23 21 31 65 50 43 61
REMARK Flexibility Score: inf
ROOT
ATOM      1  C   UNL A   1      31.960  29.443  25.738  1.00  0.00     0.023 C 
ENDROOT
BRANCH   1   2
ATOM      2  C   UNL A   1      32.286  28.252  26.639  1.00  0.00     0.116 C 
BRANCH   2   3
ATOM      3  N   UNL A   1      31.166  27.353  26.803  1.00  0.00    -0.351 N 
ATOM      4  C   UNL A   1      30.881  26.172  26.183  1.00  0.00     0.279 C 
ATOM      5  O   UNL A   1      29.851  25.588  26.538  1.00  0.00    -0.268 OA
ATOM      6  H   UNL A   1      30.501  27.639  27.470  1.00  0.00     0.163 HD
BRANCH   4   7
ATOM      7  C   UNL A   1      31.795  25.538  25.121  1.00  0.00     0.283 C 
ATOM      8  C   UNL A   1      32.296  23.188  24.789  1.00  0.00     0.278 C 
ATOM      9  N   UNL A   1      32.533  24.352  25.653  1.00  0.00    -0.320 N 
ATOM     10  S   UNL A   1      32.060  23.873  23.138  1.00  0.00    -0.087 SA
ATOM     11  H   UNL A   1      33.531  24.558  25.678  1.00  0.00     0.348 HD
ATOM     12  H   UNL A   1      32.200  24.144  26.594  1.00  0.00     0.348 HD
ATOM     13  C   UNL A   1      31.093  25.249  23.800  1.00  0.00     0.151 C 
BRANCH   8  14
ATOM     14  C   UNL A   1      33.308  22.060  24.959  1.00  0.00     0.073 A 
ATOM     15  C   UNL A   1      35.610  21.179  24.905  1.00  0.00     0.167 A 
ATOM     16  C   UNL A   1      35.113  19.871  24.886  1.00  0.00     0.136 A 
ATOM     17  C   UNL A   1      34.709  22.263  24.941  1.00  0.00     0.168 A 
ATOM     18  C   UNL A   1      33.739  19.645  24.885  1.00  0.00     0.273 A 
ATOM     19  C   UNL A   1      32.845  20.723  24.915  1.00  0.00     0.100 A 
BRANCH  15  20
ATOM     20  O   UNL A   1      36.978  21.206  24.872  1.00  0.00    -0.493 OA
ATOM     21  C   UNL A   1      37.692  19.980  24.830  1.00  0.00     0.278 C 
ENDBRANCH  15  20
BRANCH  17  22
ATOM     22  O   UNL A   1      35.217  23.533  24.909  1.00  0.00    -0.504 OA
ATOM     23  H   UNL A   1      36.125  23.671  24.719  1.00  0.00     0.293 HD
ENDBRANCH  17  22
BRANCH  18  24
ATOM     24  N   UNL A   1      33.226  18.271  24.804  1.00  0.00     0.062 N 
ATOM     25  O   UNL A   1      34.032  17.365  24.553  1.00  0.00    -0.258 OA
ATOM     26  O   UNL A   1      32.012  18.100  24.990  1.00  0.00    -0.258 OA
ENDBRANCH  18  24
ENDBRANCH   8  14
ENDBRANCH   4   7
ENDBRANCH   2   3
ENDBRANCH   1   2
BRANCH   1  27
ATOM     27  C   UNL A   1      31.567  30.720  26.484  1.00  0.00     0.023 C 
BRANCH  27  28
ATOM     28  C   UNL A   1      32.734  31.586  26.945  1.00  0.00     0.116 C 
BRANCH  28  29
ATOM     29  N   UNL A   1      32.342  32.929  27.346  1.00  0.00    -0.352 N 
ATOM     30  C   UNL A   1      33.017  33.806  28.161  1.00  0.00     0.251 C 
ATOM     31  H   UNL A   1      31.483  33.250  26.988  1.00  0.00     0.163 HD
ATOM     32  O   UNL A   1      32.505  34.873  28.482  1.00  0.00    -0.269 OA
BRANCH  30  33
ATOM     33  C   UNL A   1      34.347  33.434  28.687  1.00  0.00     0.039 A 
ATOM     34  C   UNL A   1      34.418  32.742  29.898  1.00  0.00     0.014 A 
ATOM     35  C   UNL A   1      35.513  33.740  27.981  1.00  0.00     0.014 A 
ATOM     36  C   UNL A   1      35.655  32.301  30.369  1.00  0.00     0.010 A 
ATOM     37  C   UNL A   1      36.737  33.239  28.414  1.00  0.00     0.010 A 
ATOM     38  C   UNL A   1      36.821  32.515  29.613  1.00  0.00    -0.014 A 
BRANCH  38  39
ATOM     39  C   UNL A   1      38.130  31.986  30.069  1.00  0.00     0.031 A 
ATOM     40  C   UNL A   1      38.634  30.665  29.561  1.00  0.00     0.074 A 
ATOM     41  C   UNL A   1      38.851  32.684  30.970  1.00  0.00     0.049 A 
ATOM     42  N   UNL A   1      39.752  30.043  29.845  1.00  0.00    -0.248 NA
ATOM     43  C   UNL A   1      37.762  29.933  28.627  1.00  0.00     0.031 C 
ATOM     44  C   UNL A   1      38.453  33.959  31.572  1.00  0.00     0.029 A 
ATOM     45  N   UNL A   1      40.074  32.420  31.530  1.00  0.00    -0.354 N 
ATOM     46  C   UNL A   1      39.714  28.854  29.130  1.00  0.00     0.074 A 
ATOM     47  C   UNL A   1      38.441  28.810  28.446  1.00  0.00     0.031 C 
ATOM     48  C   UNL A   1      39.433  34.385  32.385  1.00  0.00     0.029 A 
ATOM     49  C   UNL A   1      40.509  33.400  32.389  1.00  0.00     0.049 A 
ATOM     50  H   UNL A   1      40.592  31.605  31.336  1.00  0.00     0.167 HD
ATOM     51  C   UNL A   1      40.665  27.895  29.027  1.00  0.00     0.031 A 
ATOM     52  C   UNL A   1      41.652  33.498  33.094  1.00  0.00     0.031 A 
ATOM     53  C   UNL A   1      41.935  27.937  29.702  1.00  0.00     0.049 A 
ATOM     54  C   UNL A   1      42.682  32.409  32.976  1.00  0.00     0.074 A 
ATOM     55  C   UNL A   1      42.978  27.030  29.636  1.00  0.00     0.029 A 
ATOM     56  N   UNL A   1      42.334  28.946  30.566  1.00  0.00    -0.354 N 
ATOM     57  N   UNL A   1      42.657  31.320  32.246  1.00  0.00    -0.248 NA
ATOM     58  C   UNL A   1      43.907  32.573  33.772  1.00  0.00     0.031 C 
ATOM     59  C   UNL A   1      43.994  27.469  30.491  1.00  0.00     0.029 A 
ATOM     60  C   UNL A   1      43.603  28.675  31.049  1.00  0.00     0.049 A 
ATOM     61  H   UNL A   1      41.796  29.736  30.800  1.00  0.00     0.167 HD
ATOM     62  C   UNL A   1      43.872  30.688  32.469  1.00  0.00     0.074 A 
ATOM     63  C   UNL A   1      44.619  31.523  33.387  1.00  0.00     0.031 C 
ATOM     64  C   UNL A   1      44.332  29.519  31.959  1.00  0.00     0.031 A 
BRANCH  51  65
ATOM     65  C   UNL A   1      40.367  26.719  28.140  1.00  0.00    -0.014 A 
ATOM     66  C   UNL A   1      40.848  26.669  26.822  1.00  0.00     0.009 A 
ATOM     67  C   UNL A   1      39.629  25.633  28.635  1.00  0.00     0.009 A 
ATOM     68  C   UNL A   1      40.570  25.570  26.007  1.00  0.00     0.001 A 
ATOM     69  C   UNL A   1      39.377  24.523  27.828  1.00  0.00     0.001 A 
ATOM     70  C   UNL A   1      39.839  24.496  26.513  1.00  0.00     0.000 A 
ENDBRANCH  51  65
BRANCH  52  71
ATOM     71  C   UNL A   1      41.906  34.682  33.956  1.00  0.00    -0.014 A 
ATOM     72  C   UNL A   1      42.540  35.819  33.432  1.00  0.00     0.009 A 
ATOM     73  C   UNL A   1      41.544  34.672  35.312  1.00  0.00     0.009 A 
ATOM     74  C   UNL A   1      42.841  36.905  34.255  1.00  0.00     0.001 A 
ATOM     75  C   UNL A   1      41.819  35.773  36.126  1.00  0.00     0.001 A 
ATOM     76  C   UNL A   1      42.478  36.883  35.601  1.00  0.00     0.000 A 
ENDBRANCH  52  71
BRANCH  64  77
ATOM     77  C   UNL A   1      45.720  29.102  32.353  1.00  0.00    -0.014 A 
ATOM     78  C   UNL A   1      45.949  28.307  33.486  1.00  0.00     0.009 A 
ATOM     79  C   UNL A   1      46.812  29.491  31.562  1.00  0.00     0.009 A 
ATOM     80  C   UNL A   1      47.249  27.944  33.842  1.00  0.00     0.001 A 
ATOM     81  C   UNL A   1      48.108  29.102  31.903  1.00  0.00     0.001 A 
ATOM     82  C   UNL A   1      48.327  28.339  33.049  1.00  0.00     0.000 A 
ENDBRANCH  64  77
ENDBRANCH  38  39
ENDBRANCH  30  33
ENDBRANCH  28  29
ENDBRANCH  27  28
ENDBRANCH   1  27
TORSDOF 15
ENDMDL
MODEL 3
REMARK VINA RESULT:     -10.6      3.209      9.205
REMARK SMILES COc1cc([N+](=O)[O-])cc([C@H]2[NH2+][C@H](C(=O)NCCCCNC(=O)c3ccc(-c4c5nc(c(-c6ccccc6)c6ccc([nH]6)c(-c6ccccc6)c6nc(c(-c7ccccc7)c7ccc4[nH]7)C=C6)C=C5)cc3)CS2)c1O
REMARK SMILES IDX 18 1 17 2 16 3 14 4 15 5 13 7 11 8 12 9 73 10 72 13 10 14
REMARK SMILES IDX 3 15 4 16 74 17 5 18 9 19 2 20 1 21 75 22 6 24 7 25 8 26
REMARK SMILES IDX 19 27 20 28 21 29 22 30 23 32 24 33 25 34 71 35 26 36 70 37
REMARK SMILES IDX 27 38 28 39 29 40 64 41 30 42 69 43 63 44 65 45 31 46 68 47
REMARK SMILES IDX 62 48 61 49 32 51 54 52 39 53 53 54 40 55 43 56 52 57 66 58
REMARK SMILES IDX 41 59 42 60 51 62 67 63 44 64 33 65 34 66 38 67 35 68 37 69
REMARK SMILES IDX 36 70 55 71 56 72 60 73 57 74 59 75 58 76 45 77 46 78 50 79
REMARK SMILES IDX 47 80 49 81 48 82
REMARK H PARENT 16 6 12 11 12 12 75 23 21 31 65 50 43 61
REMARK Flexibility Score: inf
ROOT
ATOM      1  C   UNL A   1      36.056  20.253  25.009  1.00  0.00     0.023 C 
ENDROOT
BRANCH   1   2
ATOM      2  C   UNL A   1      35.121  21.460  24.934  1.00  0.00     0.116 C 
BRANCH   2   3
ATOM      3  N   UNL A   1      34.003  21.247  24.043  1.00  0.00    -0.351 N 
ATOM      4  C   UNL A   1      32.770  21.828  24.014  1.00  0.00     0.279 C 
ATOM      5  O   UNL A   1      32.003  21.469  23.113  1.00  0.00    -0.268 OA
ATOM      6  H   UNL A   1      34.158  20.572  23.343  1.00  0.00     0.163 HD
BRANCH   4   7
ATOM      7  C   UNL A   1      32.330  22.916  25.007  1.00  0.00     0.283 C 
ATOM      8  C   UNL A   1      30.697  24.678  24.670  1.00  0.00     0.278 C 
ATOM      9  N   UNL A   1      32.048  24.217  24.325  1.00  0.00    -0.320 N 
ATOM     10  S   UNL A   1      30.401  24.052  26.335  1.00  0.00    -0.087 SA
ATOM     11  H   UNL A   1      32.730  24.911  24.627  1.00  0.00     0.348 HD
ATOM     12  H   UNL A   1      32.110  24.086  23.316  1.00  0.00     0.348 HD
ATOM     13  C   UNL A   1      31.201  22.482  25.935  1.00  0.00     0.151 C 
BRANCH   8  14
ATOM     14  C   UNL A   1      30.450  26.159  24.406  1.00  0.00     0.073 A 
ATOM     15  C   UNL A   1      29.132  28.003  23.436  1.00  0.00     0.167 A 
ATOM     16  C   UNL A   1      30.222  28.867  23.583  1.00  0.00     0.136 A 
ATOM     17  C   UNL A   1      29.250  26.659  23.845  1.00  0.00     0.168 A 
ATOM     18  C   UNL A   1      31.421  28.395  24.115  1.00  0.00     0.273 A 
ATOM     19  C   UNL A   1      31.538  27.058  24.517  1.00  0.00     0.100 A 
BRANCH  15  20
ATOM     20  O   UNL A   1      28.055  28.632  22.870  1.00  0.00    -0.493 OA
ATOM     21  C   UNL A   1      28.272  29.781  22.065  1.00  0.00     0.278 C 
ENDBRANCH  15  20
BRANCH  17  22
ATOM     22  O   UNL A   1      28.186  25.821  23.646  1.00  0.00    -0.504 OA
ATOM     23  H   UNL A   1      28.305  24.892  23.697  1.00  0.00     0.293 HD
ENDBRANCH  17  22
BRANCH  18  24
ATOM     24  N   UNL A   1      32.580  29.292  24.210  1.00  0.00     0.062 N 
ATOM     25  O   UNL A   1      33.410  29.267  23.291  1.00  0.00    -0.258 OA
ATOM     26  O   UNL A   1      32.659  30.022  25.209  1.00  0.00    -0.258 OA
ENDBRANCH  18  24
ENDBRANCH   8  14
ENDBRANCH   4   7
ENDBRANCH   2   3
ENDBRANCH   1   2
BRANCH   1  27
ATOM     27  C   UNL A   1      37.496  20.534  24.574  1.00  0.00     0.023 C 
BRANCH  27  28
ATOM     28  C   UNL A   1      38.511  20.618  25.708  1.00  0.00     0.116 C 
BRANCH  28  29
ATOM     29  N   UNL A   1      39.556  19.609  25.632  1.00  0.00    -0.352 N 
ATOM     30  C   UNL A   1      40.881  19.727  25.979  1.00  0.00     0.251 C 
ATOM     31  H   UNL A   1      39.280  18.729  25.288  1.00  0.00     0.163 HD
ATOM     32  O   UNL A   1      41.662  18.806  25.765  1.00  0.00    -0.269 OA
BRANCH  30  33
ATOM     33  C   UNL A   1      41.369  20.990  26.569  1.00  0.00     0.039 A 
ATOM     34  C   UNL A   1      41.907  21.961  25.722  1.00  0.00     0.014 A 
ATOM     35  C   UNL A   1      41.273  21.228  27.943  1.00  0.00     0.014 A 
ATOM     36  C   UNL A   1      42.290  23.197  26.245  1.00  0.00     0.010 A 
ATOM     37  C   UNL A   1      41.588  22.485  28.452  1.00  0.00     0.010 A 
ATOM     38  C   UNL A   1      42.101  23.481  27.608  1.00  0.00    -0.014 A 
BRANCH  38  39
ATOM     39  C   UNL A   1      42.437  24.818  28.159  1.00  0.00     0.031 A 
ATOM     40  C   UNL A   1      43.855  25.153  28.529  1.00  0.00     0.074 A 
ATOM     41  C   UNL A   1      41.455  25.720  28.358  1.00  0.00     0.049 A 
ATOM     42  N   UNL A   1      44.338  26.266  29.022  1.00  0.00    -0.248 NA
ATOM     43  C   UNL A   1      44.862  24.095  28.340  1.00  0.00     0.031 C 
ATOM     44  C   UNL A   1      40.034  25.503  28.080  1.00  0.00     0.029 A 
ATOM     45  N   UNL A   1      41.508  27.004  28.836  1.00  0.00    -0.354 N 
ATOM     46  C   UNL A   1      45.696  26.040  29.203  1.00  0.00     0.074 A 
ATOM     47  C   UNL A   1      45.952  24.668  28.825  1.00  0.00     0.031 C 
ATOM     48  C   UNL A   1      39.356  26.629  28.353  1.00  0.00     0.029 A 
ATOM     49  C   UNL A   1      40.287  27.634  28.856  1.00  0.00     0.049 A 
ATOM     50  H   UNL A   1      42.341  27.435  29.136  1.00  0.00     0.167 HD
ATOM     51  C   UNL A   1      46.652  26.904  29.620  1.00  0.00     0.031 A 
ATOM     52  C   UNL A   1      39.956  28.884  29.231  1.00  0.00     0.031 A 
ATOM     53  C   UNL A   1      46.402  28.271  29.992  1.00  0.00     0.049 A 
ATOM     54  C   UNL A   1      41.035  29.816  29.709  1.00  0.00     0.074 A 
ATOM     55  C   UNL A   1      47.309  29.236  30.396  1.00  0.00     0.029 A 
ATOM     56  N   UNL A   1      45.151  28.868  30.003  1.00  0.00    -0.354 N 
ATOM     57  N   UNL A   1      42.325  29.605  29.814  1.00  0.00    -0.248 NA
ATOM     58  C   UNL A   1      40.610  31.167  30.104  1.00  0.00     0.031 C 
ATOM     59  C   UNL A   1      46.601  30.405  30.690  1.00  0.00     0.029 A 
ATOM     60  C   UNL A   1      45.261  30.184  30.420  1.00  0.00     0.049 A 
ATOM     61  H   UNL A   1      44.310  28.423  29.752  1.00  0.00     0.167 HD
ATOM     62  C   UNL A   1      42.868  30.804  30.256  1.00  0.00     0.074 A 
ATOM     63  C   UNL A   1      41.771  31.742  30.381  1.00  0.00     0.031 C 
ATOM     64  C   UNL A   1      44.160  31.104  30.534  1.00  0.00     0.031 A 
BRANCH  51  65
ATOM     65  C   UNL A   1      48.064  26.393  29.684  1.00  0.00    -0.014 A 
ATOM     66  C   UNL A   1      48.560  25.788  30.850  1.00  0.00     0.009 A 
ATOM     67  C   UNL A   1      48.896  26.482  28.557  1.00  0.00     0.009 A 
ATOM     68  C   UNL A   1      49.872  25.312  30.898  1.00  0.00     0.001 A 
ATOM     69  C   UNL A   1      50.198  25.979  28.599  1.00  0.00     0.001 A 
ATOM     70  C   UNL A   1      50.687  25.403  29.770  1.00  0.00     0.000 A 
ENDBRANCH  51  65
BRANCH  52  71
ATOM     71  C   UNL A   1      38.546  29.347  29.146  1.00  0.00    -0.014 A 
ATOM     72  C   UNL A   1      38.058  29.926  27.964  1.00  0.00     0.009 A 
ATOM     73  C   UNL A   1      37.690  29.243  30.253  1.00  0.00     0.009 A 
ATOM     74  C   UNL A   1      36.756  30.423  27.903  1.00  0.00     0.001 A 
ATOM     75  C   UNL A   1      36.378  29.715  30.179  1.00  0.00     0.001 A 
ATOM     76  C   UNL A   1      35.915  30.315  29.009  1.00  0.00     0.000 A 
ENDBRANCH  52  71
BRANCH  64  77
ATOM     77  C   UNL A   1      44.458  32.513  30.960  1.00  0.00    -0.014 A 
ATOM     78  C   UNL A   1      44.742  33.515  30.020  1.00  0.00     0.009 A 
ATOM     79  C   UNL A   1      44.431  32.846  32.324  1.00  0.00     0.009 A 
ATOM     80  C   UNL A   1      45.032  34.814  30.439  1.00  0.00     0.001 A 
ATOM     81  C   UNL A   1      44.692  34.152  32.738  1.00  0.00     0.001 A 
ATOM     82  C   UNL A   1      45.004  35.132  31.798  1.00  0.00     0.000 A 
ENDBRANCH  64  77
ENDBRANCH  38  39
ENDBRANCH  30  33
ENDBRANCH  28  29
ENDBRANCH  27  28
ENDBRANCH   1  27
TORSDOF 15
ENDMDL
