MODEL 1
REMARK VINA RESULT:     -10.0      0.000      0.000
REMARK SMILES O=C(NCCCCNC(=O)c1cc(SCCn2cccn2)cs1)c1ccc(-c2c3nc(c(-c4ccccc4)c4ccc([nH]4)c(-c4ccccc4)c4nc(c(-c5ccccc5)c5ccc2[nH]5)C=C4)C=C3)cc1
REMARK SMILES IDX 6 1 5 2 4 3 3 4 1 5 2 6 24 8 25 9 71 10 26 11 70 12 27 13
REMARK SMILES IDX 28 14 29 15 64 16 30 17 69 18 63 19 65 20 31 21 68 22 62 23
REMARK SMILES IDX 61 24 32 26 54 27 39 28 53 29 40 30 43 31 52 32 66 33 41 34
REMARK SMILES IDX 42 35 51 37 67 38 44 39 33 40 34 41 38 42 35 43 37 44 36 45
REMARK SMILES IDX 55 46 56 47 60 48 57 49 59 50 58 51 45 52 46 53 50 54 47 55
REMARK SMILES IDX 49 56 48 57 7 58 8 59 9 60 10 62 11 63 12 64 23 65 13 66
REMARK SMILES IDX 22 67 14 68 15 69 16 70 17 71 18 72 21 73 19 74 20 75
REMARK H PARENT 3 7 65 25 43 36 8 61
REMARK Flexibility Score: inf
ROOT
ATOM      1  C   UNL A   1      40.735  20.652  26.608  1.00  0.00     0.023 C 
ENDROOT
BRANCH   1   2
ATOM      2  C   UNL A   1      41.272  19.394  25.919  1.00  0.00     0.023 C 
BRANCH   2   3
ATOM      3  C   UNL A   1      42.748  19.025  26.121  1.00  0.00     0.116 C 
BRANCH   3   4
ATOM      4  N   UNL A   1      43.677  19.414  25.074  1.00  0.00    -0.352 N 
ATOM      5  O   UNL A   1      45.452  20.311  24.103  1.00  0.00    -0.269 OA
ATOM      6  C   UNL A   1      44.512  20.487  24.883  1.00  0.00     0.251 C 
ATOM      7  H   UNL A   1      43.715  18.763  24.335  1.00  0.00     0.163 HD
BRANCH   6   8
ATOM      8  C   UNL A   1      44.330  21.845  25.468  1.00  0.00     0.039 A 
ATOM      9  C   UNL A   1      45.085  22.382  26.506  1.00  0.00     0.014 A 
ATOM     10  C   UNL A   1      43.255  22.609  24.964  1.00  0.00     0.014 A 
ATOM     11  C   UNL A   1      44.715  23.591  27.095  1.00  0.00     0.010 A 
ATOM     12  C   UNL A   1      42.897  23.832  25.532  1.00  0.00     0.010 A 
ATOM     13  C   UNL A   1      43.604  24.306  26.631  1.00  0.00    -0.014 A 
BRANCH  13  14
ATOM     14  C   UNL A   1      43.302  25.580  27.286  1.00  0.00     0.031 A 
ATOM     15  C   UNL A   1      44.252  26.699  27.013  1.00  0.00     0.074 A 
ATOM     16  C   UNL A   1      42.202  25.841  28.019  1.00  0.00     0.049 A 
ATOM     17  N   UNL A   1      44.985  27.356  27.855  1.00  0.00    -0.248 NA
ATOM     18  C   UNL A   1      44.433  27.103  25.612  1.00  0.00     0.031 C 
ATOM     19  C   UNL A   1      40.987  25.039  28.167  1.00  0.00     0.029 A 
ATOM     20  N   UNL A   1      41.919  26.972  28.734  1.00  0.00    -0.354 N 
ATOM     21  C   UNL A   1      45.631  28.347  27.117  1.00  0.00     0.074 A 
ATOM     22  C   UNL A   1      45.314  28.097  25.732  1.00  0.00     0.031 C 
ATOM     23  C   UNL A   1      40.023  25.796  28.740  1.00  0.00     0.029 A 
ATOM     24  C   UNL A   1      40.595  27.075  29.128  1.00  0.00     0.049 A 
ATOM     25  H   UNL A   1      42.596  27.653  28.949  1.00  0.00     0.167 HD
ATOM     26  C   UNL A   1      46.276  29.400  27.691  1.00  0.00     0.031 A 
ATOM     27  C   UNL A   1      39.999  28.155  29.687  1.00  0.00     0.031 A 
ATOM     28  C   UNL A   1      46.557  29.188  29.082  1.00  0.00     0.049 A 
ATOM     29  C   UNL A   1      41.048  29.034  30.245  1.00  0.00     0.074 A 
ATOM     30  C   UNL A   1      47.312  28.284  29.801  1.00  0.00     0.029 A 
ATOM     31  N   UNL A   1      45.763  29.822  30.005  1.00  0.00    -0.354 N 
ATOM     32  N   UNL A   1      41.763  28.741  31.292  1.00  0.00    -0.248 NA
ATOM     33  C   UNL A   1      41.562  30.119  29.424  1.00  0.00     0.031 C 
ATOM     34  C   UNL A   1      46.587  28.077  31.012  1.00  0.00     0.029 A 
ATOM     35  C   UNL A   1      45.451  28.888  30.958  1.00  0.00     0.049 A 
ATOM     36  H   UNL A   1      45.473  30.763  29.985  1.00  0.00     0.167 HD
ATOM     37  C   UNL A   1      43.006  29.300  31.042  1.00  0.00     0.074 A 
ATOM     38  C   UNL A   1      42.785  30.237  29.947  1.00  0.00     0.031 C 
ATOM     39  C   UNL A   1      44.145  28.750  31.560  1.00  0.00     0.031 A 
BRANCH  26  40
ATOM     40  C   UNL A   1      46.398  30.759  27.054  1.00  0.00    -0.014 A 
ATOM     41  C   UNL A   1      47.642  31.415  27.054  1.00  0.00     0.009 A 
ATOM     42  C   UNL A   1      45.275  31.525  26.685  1.00  0.00     0.009 A 
ATOM     43  C   UNL A   1      47.750  32.775  26.740  1.00  0.00     0.001 A 
ATOM     44  C   UNL A   1      45.386  32.873  26.332  1.00  0.00     0.001 A 
ATOM     45  C   UNL A   1      46.621  33.504  26.381  1.00  0.00     0.000 A 
ENDBRANCH  26  40
BRANCH  27  46
ATOM     46  C   UNL A   1      38.597  28.598  29.563  1.00  0.00    -0.014 A 
ATOM     47  C   UNL A   1      37.830  28.902  30.698  1.00  0.00     0.009 A 
ATOM     48  C   UNL A   1      38.092  28.979  28.306  1.00  0.00     0.009 A 
ATOM     49  C   UNL A   1      36.617  29.592  30.579  1.00  0.00     0.001 A 
ATOM     50  C   UNL A   1      36.881  29.665  28.188  1.00  0.00     0.001 A 
ATOM     51  C   UNL A   1      36.150  29.984  29.326  1.00  0.00     0.000 A 
ENDBRANCH  27  46
BRANCH  39  52
ATOM     52  C   UNL A   1      43.996  27.680  32.615  1.00  0.00    -0.014 A 
ATOM     53  C   UNL A   1      44.095  26.309  32.320  1.00  0.00     0.009 A 
ATOM     54  C   UNL A   1      43.902  28.064  33.961  1.00  0.00     0.009 A 
ATOM     55  C   UNL A   1      44.062  25.350  33.337  1.00  0.00     0.001 A 
ATOM     56  C   UNL A   1      43.893  27.107  34.978  1.00  0.00     0.001 A 
ATOM     57  C   UNL A   1      43.966  25.751  34.667  1.00  0.00     0.000 A 
ENDBRANCH  39  52
ENDBRANCH  13  14
ENDBRANCH   6   8
ENDBRANCH   3   4
ENDBRANCH   2   3
ENDBRANCH   1   2
BRANCH   1  58
ATOM     58  C   UNL A   1      39.445  21.261  26.076  1.00  0.00     0.116 C 
BRANCH  58  59
ATOM     59  N   UNL A   1      39.290  22.692  26.109  1.00  0.00    -0.351 N 
ATOM     60  C   UNL A   1      38.082  23.378  26.026  1.00  0.00     0.261 C 
ATOM     61  H   UNL A   1      40.109  23.231  26.200  1.00  0.00     0.163 HD
ATOM     62  O   UNL A   1      38.078  24.559  26.366  1.00  0.00    -0.268 OA
BRANCH  60  63
ATOM     63  C   UNL A   1      36.888  22.698  25.526  1.00  0.00     0.093 A 
ATOM     64  C   UNL A   1      35.780  22.192  26.202  1.00  0.00     0.040 A 
ATOM     65  S   UNL A   1      36.656  22.637  23.827  1.00  0.00    -0.137 S 
ATOM     66  C   UNL A   1      34.772  21.690  25.311  1.00  0.00     0.019 A 
ATOM     67  C   UNL A   1      35.117  21.918  23.995  1.00  0.00     0.080 A 
BRANCH  66  68
ATOM     68  S   UNL A   1      33.184  21.018  25.702  1.00  0.00    -0.123 SA
BRANCH  68  69
ATOM     69  C   UNL A   1      32.010  22.391  25.943  1.00  0.00     0.098 C 
BRANCH  69  70
ATOM     70  C   UNL A   1      32.589  23.655  26.593  1.00  0.00     0.155 C 
BRANCH  70  71
ATOM     71  N   UNL A   1      31.804  24.809  26.222  1.00  0.00    -0.272 N 
ATOM     72  C   UNL A   1      32.037  25.643  25.171  1.00  0.00     0.108 A 
ATOM     73  N   UNL A   1      30.563  24.905  26.724  1.00  0.00    -0.182 NA
ATOM     74  C   UNL A   1      30.799  26.119  24.817  1.00  0.00     0.042 A 
ATOM     75  C   UNL A   1      29.928  25.627  25.806  1.00  0.00     0.135 A 
ENDBRANCH  70  71
ENDBRANCH  69  70
ENDBRANCH  68  69
ENDBRANCH  66  68
ENDBRANCH  60  63
ENDBRANCH  58  59
ENDBRANCH   1  58
TORSDOF 15
ENDMDL
MODEL 2
REMARK VINA RESULT:      -9.9      2.459      3.314
REMARK SMILES O=C(NCCCCNC(=O)c1cc(SCCn2cccn2)cs1)c1ccc(-c2c3nc(c(-c4ccccc4)c4ccc([nH]4)c(-c4ccccc4)c4nc(c(-c5ccccc5)c5ccc2[nH]5)C=C4)C=C3)cc1
REMARK SMILES IDX 6 1 5 2 4 3 3 4 1 5 2 6 24 8 25 9 71 10 26 11 70 12 27 13
REMARK SMILES IDX 28 14 29 15 64 16 30 17 69 18 63 19 65 20 31 21 68 22 62 23
REMARK SMILES IDX 61 24 32 26 54 27 39 28 53 29 40 30 43 31 52 32 66 33 41 34
REMARK SMILES IDX 42 35 51 37 67 38 44 39 33 40 34 41 38 42 35 43 37 44 36 45
REMARK SMILES IDX 55 46 56 47 60 48 57 49 59 50 58 51 45 52 46 53 50 54 47 55
REMARK SMILES IDX 49 56 48 57 7 58 8 59 9 60 10 62 11 63 12 64 23 65 13 66
REMARK SMILES IDX 22 67 14 68 15 69 16 70 17 71 18 72 21 73 19 74 20 75
REMARK H PARENT 3 7 65 25 43 36 8 61
REMARK Flexibility Score: inf
ROOT
ATOM      1  C   UNL A   1      39.219  23.375  26.795  1.00  0.00     0.023 C 
ENDROOT
BRANCH   1   2
ATOM      2  C   UNL A   1      39.760  21.982  26.462  1.00  0.00     0.023 C 
BRANCH   2   3
ATOM      3  C   UNL A   1      41.274  21.746  26.550  1.00  0.00     0.116 C 
BRANCH   3   4
ATOM      4  N   UNL A   1      42.087  22.256  25.458  1.00  0.00    -0.352 N 
ATOM      5  O   UNL A   1      43.730  23.303  24.409  1.00  0.00    -0.269 OA
ATOM      6  C   UNL A   1      42.861  23.376  25.282  1.00  0.00     0.251 C 
ATOM      7  H   UNL A   1      42.081  21.666  24.670  1.00  0.00     0.163 HD
BRANCH   6   8
ATOM      8  C   UNL A   1      42.683  24.676  25.988  1.00  0.00     0.039 A 
ATOM      9  C   UNL A   1      43.189  24.983  27.248  1.00  0.00     0.014 A 
ATOM     10  C   UNL A   1      41.875  25.637  25.344  1.00  0.00     0.014 A 
ATOM     11  C   UNL A   1      42.814  26.162  27.891  1.00  0.00     0.010 A 
ATOM     12  C   UNL A   1      41.519  26.831  25.971  1.00  0.00     0.010 A 
ATOM     13  C   UNL A   1      41.955  27.077  27.269  1.00  0.00    -0.014 A 
BRANCH  13  14
ATOM     14  C   UNL A   1      41.633  28.304  28.000  1.00  0.00     0.031 A 
ATOM     15  C   UNL A   1      42.647  29.397  27.922  1.00  0.00     0.074 A 
ATOM     16  C   UNL A   1      40.475  28.552  28.642  1.00  0.00     0.049 A 
ATOM     17  N   UNL A   1      43.313  29.948  28.887  1.00  0.00    -0.248 NA
ATOM     18  C   UNL A   1      42.985  29.909  26.586  1.00  0.00     0.031 C 
ATOM     19  C   UNL A   1      39.223  27.796  28.598  1.00  0.00     0.029 A 
ATOM     20  N   UNL A   1      40.162  29.630  29.421  1.00  0.00    -0.354 N 
ATOM     21  C   UNL A   1      44.067  30.967  28.305  1.00  0.00     0.074 A 
ATOM     22  C   UNL A   1      43.884  30.849  26.880  1.00  0.00     0.031 C 
ATOM     23  C   UNL A   1      38.234  28.545  29.137  1.00  0.00     0.029 A 
ATOM     24  C   UNL A   1      38.809  29.760  29.691  1.00  0.00     0.049 A 
ATOM     25  H   UNL A   1      40.838  30.260  29.762  1.00  0.00     0.167 HD
ATOM     26  C   UNL A   1      44.688  31.938  29.031  1.00  0.00     0.031 A 
ATOM     27  C   UNL A   1      38.199  30.815  30.281  1.00  0.00     0.031 A 
ATOM     28  C   UNL A   1      44.818  31.598  30.419  1.00  0.00     0.049 A 
ATOM     29  C   UNL A   1      39.217  31.596  31.015  1.00  0.00     0.074 A 
ATOM     30  C   UNL A   1      45.462  30.603  31.126  1.00  0.00     0.029 A 
ATOM     31  N   UNL A   1      43.957  32.187  31.311  1.00  0.00    -0.354 N 
ATOM     32  N   UNL A   1      39.810  31.184  32.098  1.00  0.00    -0.248 NA
ATOM     33  C   UNL A   1      39.851  32.721  30.347  1.00  0.00     0.031 C 
ATOM     34  C   UNL A   1      44.610  30.328  32.237  1.00  0.00     0.029 A 
ATOM     35  C   UNL A   1      43.516  31.191  32.144  1.00  0.00     0.049 A 
ATOM     36  H   UNL A   1      43.706  33.138  31.346  1.00  0.00     0.167 HD
ATOM     37  C   UNL A   1      41.092  31.705  32.022  1.00  0.00     0.074 A 
ATOM     38  C   UNL A   1      41.018  32.740  30.997  1.00  0.00     0.031 C 
ATOM     39  C   UNL A   1      42.151  31.062  32.599  1.00  0.00     0.031 A 
BRANCH  26  40
ATOM     40  C   UNL A   1      44.924  33.339  28.531  1.00  0.00    -0.014 A 
ATOM     41  C   UNL A   1      43.828  34.201  28.345  1.00  0.00     0.009 A 
ATOM     42  C   UNL A   1      46.156  33.752  27.991  1.00  0.00     0.009 A 
ATOM     43  C   UNL A   1      43.953  35.394  27.622  1.00  0.00     0.001 A 
ATOM     44  C   UNL A   1      46.293  34.962  27.304  1.00  0.00     0.001 A 
ATOM     45  C   UNL A   1      45.185  35.773  27.100  1.00  0.00     0.000 A 
ENDBRANCH  26  40
BRANCH  27  46
ATOM     46  C   UNL A   1      36.834  31.329  30.059  1.00  0.00    -0.014 A 
ATOM     47  C   UNL A   1      36.021  31.715  31.135  1.00  0.00     0.009 A 
ATOM     48  C   UNL A   1      36.426  31.693  28.762  1.00  0.00     0.009 A 
ATOM     49  C   UNL A   1      34.858  32.467  30.922  1.00  0.00     0.001 A 
ATOM     50  C   UNL A   1      35.264  32.439  28.550  1.00  0.00     0.001 A 
ATOM     51  C   UNL A   1      34.488  32.839  29.631  1.00  0.00     0.000 A 
ENDBRANCH  27  46
BRANCH  39  52
ATOM     52  C   UNL A   1      41.856  29.915  33.536  1.00  0.00    -0.014 A 
ATOM     53  C   UNL A   1      41.689  28.594  33.084  1.00  0.00     0.009 A 
ATOM     54  C   UNL A   1      41.895  30.144  34.919  1.00  0.00     0.009 A 
ATOM     55  C   UNL A   1      41.527  27.540  33.987  1.00  0.00     0.001 A 
ATOM     56  C   UNL A   1      41.757  29.087  35.822  1.00  0.00     0.001 A 
ATOM     57  C   UNL A   1      41.566  27.787  35.358  1.00  0.00     0.000 A 
ENDBRANCH  39  52
ENDBRANCH  13  14
ENDBRANCH   6   8
ENDBRANCH   3   4
ENDBRANCH   2   3
ENDBRANCH   1   2
BRANCH   1  58
ATOM     58  C   UNL A   1      37.981  23.857  26.050  1.00  0.00     0.116 C 
BRANCH  58  59
ATOM     59  N   UNL A   1      37.751  23.382  24.711  1.00  0.00    -0.351 N 
ATOM     60  C   UNL A   1      36.504  23.154  24.135  1.00  0.00     0.261 C 
ATOM     61  H   UNL A   1      38.543  23.204  24.154  1.00  0.00     0.163 HD
ATOM     62  O   UNL A   1      36.458  23.042  22.913  1.00  0.00    -0.268 OA
BRANCH  60  63
ATOM     63  C   UNL A   1      35.319  23.034  24.983  1.00  0.00     0.093 A 
ATOM     64  C   UNL A   1      34.303  23.946  25.261  1.00  0.00     0.040 A 
ATOM     65  S   UNL A   1      34.954  21.488  25.631  1.00  0.00    -0.137 S 
ATOM     66  C   UNL A   1      33.260  23.381  26.070  1.00  0.00     0.019 A 
ATOM     67  C   UNL A   1      33.482  22.039  26.297  1.00  0.00     0.080 A 
BRANCH  66  68
ATOM     68  S   UNL A   1      31.755  24.131  26.617  1.00  0.00    -0.123 SA
BRANCH  68  69
ATOM     69  C   UNL A   1      31.529  25.706  25.729  1.00  0.00     0.098 C 
BRANCH  69  70
ATOM     70  C   UNL A   1      32.595  26.777  25.993  1.00  0.00     0.155 C 
BRANCH  70  71
ATOM     71  N   UNL A   1      31.971  28.066  26.180  1.00  0.00    -0.272 N 
ATOM     72  C   UNL A   1      31.887  28.764  27.346  1.00  0.00     0.108 A 
ATOM     73  N   UNL A   1      31.739  28.809  25.086  1.00  0.00    -0.182 NA
ATOM     74  C   UNL A   1      31.850  30.083  26.966  1.00  0.00     0.042 A 
ATOM     75  C   UNL A   1      31.765  30.050  25.562  1.00  0.00     0.135 A 
ENDBRANCH  70  71
ENDBRANCH  69  70
ENDBRANCH  68  69
ENDBRANCH  66  68
ENDBRANCH  60  63
ENDBRANCH  58  59
ENDBRANCH   1  58
TORSDOF 15
ENDMDL
MODEL 3
REMARK VINA RESULT:      -9.7      2.501      3.965
REMARK SMILES O=C(NCCCCNC(=O)c1cc(SCCn2cccn2)cs1)c1ccc(-c2c3nc(c(-c4ccccc4)c4ccc([nH]4)c(-c4ccccc4)c4nc(c(-c5ccccc5)c5ccc2[nH]5)C=C4)C=C3)cc1
REMARK SMILES IDX 6 1 5 2 4 3 3 4 1 5 2 6 24 8 25 9 71 10 26 11 70 12 27 13
REMARK SMILES IDX 28 14 29 15 64 16 30 17 69 18 63 19 65 20 31 21 68 22 62 23
REMARK SMILES IDX 61 24 32 26 54 27 39 28 53 29 40 30 43 31 52 32 66 33 41 34
REMARK SMILES IDX 42 35 51 37 67 38 44 39 33 40 34 41 38 42 35 43 37 44 36 45
REMARK SMILES IDX 55 46 56 47 60 48 57 49 59 50 58 51 45 52 46 53 50 54 47 55
REMARK SMILES IDX 49 56 48 57 7 58 8 59 9 60 10 62 11 63 12 64 23 65 13 66
REMARK SMILES IDX 22 67 14 68 15 69 16 70 17 71 18 72 21 73 19 74 20 75
REMARK H PARENT 3 7 65 25 43 36 8 61
REMARK Flexibility Score: inf
ROOT
ATOM      1  C   UNL A   1      35.563  21.506  25.325  1.00  0.00     0.023 C 
ENDROOT
BRANCH   1   2
ATOM      2  C   UNL A   1      36.994  21.042  25.035  1.00  0.00     0.023 C 
BRANCH   2   3
ATOM      3  C   UNL A   1      38.149  22.003  25.346  1.00  0.00     0.116 C 
BRANCH   3   4
ATOM      4  N   UNL A   1      39.298  21.452  26.044  1.00  0.00    -0.352 N 
ATOM      5  O   UNL A   1      40.721  21.027  27.685  1.00  0.00    -0.269 OA
ATOM      6  C   UNL A   1      40.105  21.896  27.062  1.00  0.00     0.251 C 
ATOM      7  H   UNL A   1      39.556  20.561  25.712  1.00  0.00     0.163 HD
BRANCH   6   8
ATOM      8  C   UNL A   1      40.354  23.322  27.414  1.00  0.00     0.039 A 
ATOM      9  C   UNL A   1      41.535  23.822  27.955  1.00  0.00     0.014 A 
ATOM     10  C   UNL A   1      39.272  24.212  27.244  1.00  0.00     0.014 A 
ATOM     11  C   UNL A   1      41.600  25.138  28.412  1.00  0.00     0.010 A 
ATOM     12  C   UNL A   1      39.340  25.537  27.675  1.00  0.00     0.010 A 
ATOM     13  C   UNL A   1      40.495  25.992  28.301  1.00  0.00    -0.014 A 
BRANCH  13  14
ATOM     14  C   UNL A   1      40.656  27.367  28.780  1.00  0.00     0.031 A 
ATOM     15  C   UNL A   1      41.763  28.151  28.157  1.00  0.00     0.074 A 
ATOM     16  C   UNL A   1      39.837  27.994  29.646  1.00  0.00     0.049 A 
ATOM     17  N   UNL A   1      42.797  28.680  28.732  1.00  0.00    -0.248 NA
ATOM     18  C   UNL A   1      41.727  28.330  26.699  1.00  0.00     0.031 C 
ATOM     19  C   UNL A   1      38.527  27.569  30.141  1.00  0.00     0.029 A 
ATOM     20  N   UNL A   1      39.994  29.233  30.201  1.00  0.00    -0.354 N 
ATOM     21  C   UNL A   1      43.484  29.370  27.735  1.00  0.00     0.074 A 
ATOM     22  C   UNL A   1      42.824  29.059  26.491  1.00  0.00     0.031 C 
ATOM     23  C   UNL A   1      37.921  28.617  30.745  1.00  0.00     0.029 A 
ATOM     24  C   UNL A   1      38.852  29.732  30.806  1.00  0.00     0.049 A 
ATOM     25  H   UNL A   1      40.845  29.728  30.175  1.00  0.00     0.167 HD
ATOM     26  C   UNL A   1      44.471  30.270  28.001  1.00  0.00     0.031 A 
ATOM     27  C   UNL A   1      38.667  30.988  31.276  1.00  0.00     0.031 A 
ATOM     28  C   UNL A   1      44.989  30.151  29.333  1.00  0.00     0.049 A 
ATOM     29  C   UNL A   1      39.991  31.612  31.481  1.00  0.00     0.074 A 
ATOM     30  C   UNL A   1      45.644  29.166  30.044  1.00  0.00     0.029 A 
ATOM     31  N   UNL A   1      44.590  31.075  30.266  1.00  0.00    -0.354 N 
ATOM     32  N   UNL A   1      40.825  31.259  32.416  1.00  0.00    -0.248 NA
ATOM     33  C   UNL A   1      40.558  32.418  30.413  1.00  0.00     0.031 C 
ATOM     34  C   UNL A   1      45.171  29.300  31.383  1.00  0.00     0.029 A 
ATOM     35  C   UNL A   1      44.278  30.374  31.402  1.00  0.00     0.049 A 
ATOM     36  H   UNL A   1      44.536  32.051  30.144  1.00  0.00     0.167 HD
ATOM     37  C   UNL A   1      42.081  31.432  31.856  1.00  0.00     0.074 A 
ATOM     38  C   UNL A   1      41.858  32.264  30.679  1.00  0.00     0.031 C 
ATOM     39  C   UNL A   1      43.140  30.660  32.245  1.00  0.00     0.031 A 
BRANCH  26  40
ATOM     40  C   UNL A   1      44.773  31.465  27.135  1.00  0.00    -0.014 A 
ATOM     41  C   UNL A   1      46.101  31.911  27.009  1.00  0.00     0.009 A 
ATOM     42  C   UNL A   1      43.766  32.322  26.650  1.00  0.00     0.009 A 
ATOM     43  C   UNL A   1      46.401  33.165  26.462  1.00  0.00     0.001 A 
ATOM     44  C   UNL A   1      44.065  33.556  26.067  1.00  0.00     0.001 A 
ATOM     45  C   UNL A   1      45.383  33.988  25.993  1.00  0.00     0.000 A 
ENDBRANCH  26  40
BRANCH  27  46
ATOM     46  C   UNL A   1      37.419  31.773  31.335  1.00  0.00    -0.014 A 
ATOM     47  C   UNL A   1      36.792  32.226  30.165  1.00  0.00     0.009 A 
ATOM     48  C   UNL A   1      36.699  31.851  32.541  1.00  0.00     0.009 A 
ATOM     49  C   UNL A   1      35.477  32.708  30.198  1.00  0.00     0.001 A 
ATOM     50  C   UNL A   1      35.388  32.335  32.574  1.00  0.00     0.001 A 
ATOM     51  C   UNL A   1      34.772  32.751  31.399  1.00  0.00     0.000 A 
ENDBRANCH  27  46
BRANCH  39  52
ATOM     52  C   UNL A   1      42.972  29.796  33.471  1.00  0.00    -0.014 A 
ATOM     53  C   UNL A   1      42.320  28.551  33.436  1.00  0.00     0.009 A 
ATOM     54  C   UNL A   1      43.615  30.176  34.659  1.00  0.00     0.009 A 
ATOM     55  C   UNL A   1      42.280  27.728  34.565  1.00  0.00     0.001 A 
ATOM     56  C   UNL A   1      43.595  29.343  35.780  1.00  0.00     0.001 A 
ATOM     57  C   UNL A   1      42.921  28.123  35.737  1.00  0.00     0.000 A 
ENDBRANCH  39  52
ENDBRANCH  13  14
ENDBRANCH   6   8
ENDBRANCH   3   4
ENDBRANCH   2   3
ENDBRANCH   1   2
BRANCH   1  58
ATOM     58  C   UNL A   1      35.376  22.739  26.199  1.00  0.00     0.116 C 
BRANCH  58  59
ATOM     59  N   UNL A   1      34.540  22.639  27.366  1.00  0.00    -0.351 N 
ATOM     60  C   UNL A   1      33.166  22.861  27.400  1.00  0.00     0.261 C 
ATOM     61  H   UNL A   1      34.977  22.392  28.213  1.00  0.00     0.163 HD
ATOM     62  O   UNL A   1      32.551  22.451  28.381  1.00  0.00    -0.268 OA
BRANCH  60  63
ATOM     63  C   UNL A   1      32.515  23.577  26.304  1.00  0.00     0.093 A 
ATOM     64  C   UNL A   1      32.619  24.906  25.897  1.00  0.00     0.040 A 
ATOM     65  S   UNL A   1      31.599  22.658  25.182  1.00  0.00    -0.137 S 
ATOM     66  C   UNL A   1      31.881  25.174  24.695  1.00  0.00     0.019 A 
ATOM     67  C   UNL A   1      31.322  24.019  24.189  1.00  0.00     0.080 A 
BRANCH  66  68
ATOM     68  S   UNL A   1      31.768  26.682  23.778  1.00  0.00    -0.123 SA
BRANCH  68  69
ATOM     69  C   UNL A   1      31.403  28.043  24.934  1.00  0.00     0.098 C 
BRANCH  69  70
ATOM     70  C   UNL A   1      32.373  29.231  24.889  1.00  0.00     0.155 C 
BRANCH  70  71
ATOM     71  N   UNL A   1      33.084  29.341  26.142  1.00  0.00    -0.272 N 
ATOM     72  C   UNL A   1      34.152  28.593  26.536  1.00  0.00     0.108 A 
ATOM     73  N   UNL A   1      32.921  30.468  26.853  1.00  0.00    -0.182 NA
ATOM     74  C   UNL A   1      34.863  29.410  27.380  1.00  0.00     0.042 A 
ATOM     75  C   UNL A   1      34.059  30.554  27.535  1.00  0.00     0.135 A 
ENDBRANCH  70  71
ENDBRANCH  69  70
ENDBRANCH  68  69
ENDBRANCH  66  68
ENDBRANCH  60  63
ENDBRANCH  58  59
ENDBRANCH   1  58
TORSDOF 15
ENDMDL
