MODEL 1
REMARK VINA RESULT:     -12.3      0.000      0.000
REMARK SMILES Cc1c(NC(=O)c2ccc(Br)cc2N)cccc1C(=O)NCCCCNC(=O)c1ccc(-c2c3nc(c(-c4ccccc4)c4ccc([nH]4)c(-c4ccccc4)c4nc(c(-c5ccccc5)c5ccc2[nH]5)C=C4)C=C3)cc1
REMARK SMILES IDX 23 1 22 2 21 3 19 4 20 5 18 7 1 8 2 9 3 10 15 11 17 12 16 13
REMARK SMILES IDX 4 14 5 15 6 17 7 18 8 19 13 20 9 21 12 22 10 23 11 24 14 25
REMARK SMILES IDX 24 28 25 29 26 30 27 31 28 33 29 34 30 35 76 36 31 37 75 38
REMARK SMILES IDX 32 39 33 40 34 41 69 42 35 43 74 44 68 45 70 46 36 47 73 48
REMARK SMILES IDX 67 49 66 50 37 52 59 53 44 54 58 55 45 56 48 57 57 58 71 59
REMARK SMILES IDX 46 60 47 61 56 63 72 64 49 65 38 66 39 67 43 68 40 69 42 70
REMARK SMILES IDX 41 71 60 72 61 73 65 74 62 75 64 76 63 77 50 78 51 79 55 80
REMARK SMILES IDX 52 81 54 82 53 83
REMARK H PARENT 21 6 4 16 14 26 14 27 26 32 70 51 48 62
REMARK Flexibility Score: inf
ROOT
ATOM      1  C   UNL A   1      37.960  20.961  25.164  1.00  0.00     0.023 C 
ENDROOT
BRANCH   1   2
ATOM      2  C   UNL A   1      36.442  20.715  25.041  1.00  0.00     0.116 C 
BRANCH   2   3
ATOM      3  N   UNL A   1      35.750  21.230  26.205  1.00  0.00    -0.352 N 
ATOM      4  C   UNL A   1      34.688  22.059  26.441  1.00  0.00     0.251 C 
ATOM      5  O   UNL A   1      34.478  22.272  27.642  1.00  0.00    -0.269 OA
ATOM      6  H   UNL A   1      36.146  20.896  27.043  1.00  0.00     0.163 HD
BRANCH   4   7
ATOM      7  C   UNL A   1      33.739  22.685  25.448  1.00  0.00     0.044 A 
ATOM      8  C   UNL A   1      35.384  23.890  23.890  1.00  0.00     0.047 C 
ATOM      9  C   UNL A   1      34.006  23.459  24.295  1.00  0.00    -0.015 A 
ATOM     10  C   UNL A   1      32.925  24.045  23.576  1.00  0.00     0.045 A 
ATOM     11  C   UNL A   1      31.612  23.949  24.030  1.00  0.00     0.026 A 
ATOM     12  C   UNL A   1      32.385  22.587  25.857  1.00  0.00     0.014 A 
ATOM     13  C   UNL A   1      31.342  23.220  25.176  1.00  0.00     0.003 A 
BRANCH  10  14
ATOM     14  N   UNL A   1      33.224  24.733  22.389  1.00  0.00    -0.322 N 
ATOM     15  C   UNL A   1      33.107  26.058  22.046  1.00  0.00     0.257 C 
ATOM     16  H   UNL A   1      33.582  24.162  21.671  1.00  0.00     0.170 HD
ATOM     17  O   UNL A   1      33.278  26.373  20.867  1.00  0.00    -0.269 OA
BRANCH  15  18
ATOM     18  C   UNL A   1      32.862  27.132  23.043  1.00  0.00     0.063 A 
ATOM     19  C   UNL A   1      33.887  27.302  23.991  1.00  0.00     0.017 A 
ATOM     20  C   UNL A   1      31.676  27.891  23.145  1.00  0.00     0.045 A 
ATOM     21  C   UNL A   1      33.765  28.241  25.013  1.00  0.00     0.016 A 
ATOM     22  C   UNL A   1      31.580  28.842  24.175  1.00  0.00     0.042 A 
ATOM     23  C   UNL A   1      32.616  29.017  25.091  1.00  0.00     0.020 A 
ATOM     24  Br  UNL A   1      32.433  30.285  26.479  1.00  0.00    -0.051 Br
BRANCH  20  25
ATOM     25  N   UNL A   1      30.517  27.637  22.415  1.00  0.00    -0.398 N 
ATOM     26  H   UNL A   1      29.903  28.375  22.193  1.00  0.00     0.156 HD
ATOM     27  H   UNL A   1      30.310  26.720  22.121  1.00  0.00     0.156 HD
ENDBRANCH  20  25
ENDBRANCH  15  18
ENDBRANCH  10  14
ENDBRANCH   4   7
ENDBRANCH   2   3
ENDBRANCH   1   2
BRANCH   1  28
ATOM     28  C   UNL A   1      38.362  22.167  26.006  1.00  0.00     0.023 C 
BRANCH  28  29
ATOM     29  C   UNL A   1      39.777  22.060  26.538  1.00  0.00     0.116 C 
BRANCH  29  30
ATOM     30  N   UNL A   1      40.560  20.953  25.996  1.00  0.00    -0.352 N 
ATOM     31  C   UNL A   1      41.933  20.766  26.009  1.00  0.00     0.251 C 
ATOM     32  H   UNL A   1      40.039  20.240  25.561  1.00  0.00     0.163 HD
ATOM     33  O   UNL A   1      42.428  19.796  25.437  1.00  0.00    -0.269 OA
BRANCH  31  34
ATOM     34  C   UNL A   1      42.785  21.637  26.858  1.00  0.00     0.039 A 
ATOM     35  C   UNL A   1      42.540  21.622  28.236  1.00  0.00     0.014 A 
ATOM     36  C   UNL A   1      43.530  22.668  26.298  1.00  0.00     0.014 A 
ATOM     37  C   UNL A   1      42.736  22.788  28.968  1.00  0.00     0.010 A 
ATOM     38  C   UNL A   1      43.578  23.867  26.975  1.00  0.00     0.010 A 
ATOM     39  C   UNL A   1      43.094  23.945  28.283  1.00  0.00    -0.014 A 
BRANCH  39  40
ATOM     40  C   UNL A   1      42.844  25.285  28.804  1.00  0.00     0.031 A 
ATOM     41  C   UNL A   1      41.690  26.066  28.297  1.00  0.00     0.074 A 
ATOM     42  C   UNL A   1      43.613  25.773  29.808  1.00  0.00     0.049 A 
ATOM     43  N   UNL A   1      41.606  27.353  28.337  1.00  0.00    -0.248 NA
ATOM     44  C   UNL A   1      40.544  25.443  27.641  1.00  0.00     0.031 C 
ATOM     45  C   UNL A   1      43.354  26.977  30.599  1.00  0.00     0.029 A 
ATOM     46  N   UNL A   1      44.897  25.396  30.219  1.00  0.00    -0.354 N 
ATOM     47  C   UNL A   1      40.303  27.690  28.043  1.00  0.00     0.074 A 
ATOM     48  C   UNL A   1      39.722  26.486  27.500  1.00  0.00     0.031 C 
ATOM     49  C   UNL A   1      44.517  27.410  31.115  1.00  0.00     0.029 A 
ATOM     50  C   UNL A   1      45.566  26.592  30.533  1.00  0.00     0.049 A 
ATOM     51  H   UNL A   1      45.258  24.482  30.277  1.00  0.00     0.167 HD
ATOM     52  C   UNL A   1      39.816  28.897  28.450  1.00  0.00     0.031 A 
ATOM     53  C   UNL A   1      46.636  27.082  29.837  1.00  0.00     0.031 A 
ATOM     54  C   UNL A   1      40.875  29.746  28.998  1.00  0.00     0.049 A 
ATOM     55  C   UNL A   1      46.402  28.476  29.271  1.00  0.00     0.074 A 
ATOM     56  C   UNL A   1      41.233  30.100  30.290  1.00  0.00     0.029 A 
ATOM     57  N   UNL A   1      41.934  30.126  28.180  1.00  0.00    -0.354 N 
ATOM     58  N   UNL A   1      45.221  29.023  29.164  1.00  0.00    -0.248 NA
ATOM     59  C   UNL A   1      47.453  29.334  28.724  1.00  0.00     0.031 C 
ATOM     60  C   UNL A   1      42.557  30.611  30.253  1.00  0.00     0.029 A 
ATOM     61  C   UNL A   1      42.988  30.599  28.938  1.00  0.00     0.049 A 
ATOM     62  H   UNL A   1      41.933  30.065  27.198  1.00  0.00     0.167 HD
ATOM     63  C   UNL A   1      45.325  30.245  28.557  1.00  0.00     0.074 A 
ATOM     64  C   UNL A   1      46.747  30.403  28.309  1.00  0.00     0.031 C 
ATOM     65  C   UNL A   1      44.229  31.014  28.292  1.00  0.00     0.031 A 
BRANCH  52  66
ATOM     66  C   UNL A   1      38.338  29.185  28.637  1.00  0.00    -0.014 A 
ATOM     67  C   UNL A   1      37.581  29.663  27.549  1.00  0.00     0.009 A 
ATOM     68  C   UNL A   1      37.645  29.098  29.858  1.00  0.00     0.009 A 
ATOM     69  C   UNL A   1      36.261  30.116  27.696  1.00  0.00     0.001 A 
ATOM     70  C   UNL A   1      36.336  29.572  30.022  1.00  0.00     0.001 A 
ATOM     71  C   UNL A   1      35.647  30.096  28.941  1.00  0.00     0.000 A 
ENDBRANCH  52  66
BRANCH  53  72
ATOM     72  C   UNL A   1      47.485  26.051  29.182  1.00  0.00    -0.014 A 
ATOM     73  C   UNL A   1      47.226  25.725  27.838  1.00  0.00     0.009 A 
ATOM     74  C   UNL A   1      48.712  25.669  29.740  1.00  0.00     0.009 A 
ATOM     75  C   UNL A   1      48.216  25.146  27.038  1.00  0.00     0.001 A 
ATOM     76  C   UNL A   1      49.699  25.081  28.936  1.00  0.00     0.001 A 
ATOM     77  C   UNL A   1      49.465  24.858  27.580  1.00  0.00     0.000 A 
ENDBRANCH  53  72
BRANCH  65  78
ATOM     78  C   UNL A   1      44.205  32.261  27.445  1.00  0.00    -0.014 A 
ATOM     79  C   UNL A   1      44.349  32.271  26.052  1.00  0.00     0.009 A 
ATOM     80  C   UNL A   1      43.876  33.492  28.059  1.00  0.00     0.009 A 
ATOM     81  C   UNL A   1      44.211  33.456  25.316  1.00  0.00     0.001 A 
ATOM     82  C   UNL A   1      43.694  34.666  27.324  1.00  0.00     0.001 A 
ATOM     83  C   UNL A   1      43.874  34.649  25.948  1.00  0.00     0.000 A 
ENDBRANCH  65  78
ENDBRANCH  39  40
ENDBRANCH  31  34
ENDBRANCH  29  30
ENDBRANCH  28  29
ENDBRANCH   1  28
TORSDOF 14
ENDMDL
MODEL 2
REMARK VINA RESULT:     -12.0      3.972      8.979
REMARK SMILES Cc1c(NC(=O)c2ccc(Br)cc2N)cccc1C(=O)NCCCCNC(=O)c1ccc(-c2c3nc(c(-c4ccccc4)c4ccc([nH]4)c(-c4ccccc4)c4nc(c(-c5ccccc5)c5ccc2[nH]5)C=C4)C=C3)cc1
REMARK SMILES IDX 23 1 22 2 21 3 19 4 20 5 18 7 1 8 2 9 3 10 15 11 17 12 16 13
REMARK SMILES IDX 4 14 5 15 6 17 7 18 8 19 13 20 9 21 12 22 10 23 11 24 14 25
REMARK SMILES IDX 24 28 25 29 26 30 27 31 28 33 29 34 30 35 76 36 31 37 75 38
REMARK SMILES IDX 32 39 33 40 34 41 69 42 35 43 74 44 68 45 70 46 36 47 73 48
REMARK SMILES IDX 67 49 66 50 37 52 59 53 44 54 58 55 45 56 48 57 57 58 71 59
REMARK SMILES IDX 46 60 47 61 56 63 72 64 49 65 38 66 39 67 43 68 40 69 42 70
REMARK SMILES IDX 41 71 60 72 61 73 65 74 62 75 64 76 63 77 50 78 51 79 55 80
REMARK SMILES IDX 52 81 54 82 53 83
REMARK H PARENT 21 6 4 16 14 26 14 27 26 32 70 51 48 62
REMARK Flexibility Score: inf
ROOT
ATOM      1  C   UNL A   1      33.399  29.599  26.673  1.00  0.00     0.023 C 
ENDROOT
BRANCH   1   2
ATOM      2  C   UNL A   1      33.391  29.493  25.134  1.00  0.00     0.116 C 
BRANCH   2   3
ATOM      3  N   UNL A   1      32.070  29.783  24.614  1.00  0.00    -0.352 N 
ATOM      4  C   UNL A   1      30.982  29.059  24.211  1.00  0.00     0.251 C 
ATOM      5  O   UNL A   1      30.056  29.752  23.769  1.00  0.00    -0.269 OA
ATOM      6  H   UNL A   1      31.915  30.752  24.530  1.00  0.00     0.163 HD
BRANCH   4   7
ATOM      7  C   UNL A   1      30.760  27.568  24.285  1.00  0.00     0.044 A 
ATOM      8  C   UNL A   1      31.104  27.144  26.791  1.00  0.00     0.047 C 
ATOM      9  C   UNL A   1      30.764  26.700  25.401  1.00  0.00    -0.015 A 
ATOM     10  C   UNL A   1      30.645  25.294  25.199  1.00  0.00     0.045 A 
ATOM     11  C   UNL A   1      30.612  24.744  23.920  1.00  0.00     0.026 A 
ATOM     12  C   UNL A   1      30.692  26.967  23.002  1.00  0.00     0.014 A 
ATOM     13  C   UNL A   1      30.639  25.583  22.819  1.00  0.00     0.003 A 
BRANCH  10  14
ATOM     14  N   UNL A   1      30.566  24.473  26.335  1.00  0.00    -0.322 N 
ATOM     15  C   UNL A   1      31.348  23.429  26.765  1.00  0.00     0.257 C 
ATOM     16  H   UNL A   1      29.812  24.683  26.933  1.00  0.00     0.170 HD
ATOM     17  O   UNL A   1      30.953  22.758  27.719  1.00  0.00    -0.269 OA
BRANCH  15  18
ATOM     18  C   UNL A   1      32.680  23.125  26.181  1.00  0.00     0.063 A 
ATOM     19  C   UNL A   1      33.570  24.214  26.143  1.00  0.00     0.017 A 
ATOM     20  C   UNL A   1      33.053  21.890  25.606  1.00  0.00     0.045 A 
ATOM     21  C   UNL A   1      34.836  24.081  25.577  1.00  0.00     0.016 A 
ATOM     22  C   UNL A   1      34.339  21.774  25.054  1.00  0.00     0.042 A 
ATOM     23  C   UNL A   1      35.219  22.856  25.047  1.00  0.00     0.020 A 
ATOM     24  Br  UNL A   1      36.929  22.665  24.266  1.00  0.00    -0.051 Br
BRANCH  20  25
ATOM     25  N   UNL A   1      32.174  20.834  25.378  1.00  0.00    -0.398 N 
ATOM     26  H   UNL A   1      32.461  19.908  25.552  1.00  0.00     0.156 HD
ATOM     27  H   UNL A   1      31.266  21.013  25.041  1.00  0.00     0.156 HD
ENDBRANCH  20  25
ENDBRANCH  15  18
ENDBRANCH  10  14
ENDBRANCH   4   7
ENDBRANCH   2   3
ENDBRANCH   1   2
BRANCH   1  28
ATOM     28  C   UNL A   1      34.765  29.453  27.334  1.00  0.00     0.023 C 
BRANCH  28  29
ATOM     29  C   UNL A   1      35.388  30.788  27.686  1.00  0.00     0.116 C 
BRANCH  29  30
ATOM     30  N   UNL A   1      34.448  31.900  27.795  1.00  0.00    -0.352 N 
ATOM     31  C   UNL A   1      34.429  32.941  28.709  1.00  0.00     0.251 C 
ATOM     32  H   UNL A   1      33.727  31.912  27.125  1.00  0.00     0.163 HD
ATOM     33  O   UNL A   1      33.511  33.759  28.692  1.00  0.00    -0.269 OA
BRANCH  31  34
ATOM     34  C   UNL A   1      35.603  33.167  29.591  1.00  0.00     0.039 A 
ATOM     35  C   UNL A   1      36.681  33.876  29.048  1.00  0.00     0.014 A 
ATOM     36  C   UNL A   1      35.777  32.420  30.749  1.00  0.00     0.014 A 
ATOM     37  C   UNL A   1      37.971  33.558  29.458  1.00  0.00     0.010 A 
ATOM     38  C   UNL A   1      37.051  31.986  31.048  1.00  0.00     0.010 A 
ATOM     39  C   UNL A   1      38.141  32.491  30.335  1.00  0.00    -0.014 A 
BRANCH  39  40
ATOM     40  C   UNL A   1      39.390  31.746  30.446  1.00  0.00     0.031 A 
ATOM     41  C   UNL A   1      39.531  30.442  29.754  1.00  0.00     0.074 A 
ATOM     42  C   UNL A   1      40.443  32.287  31.106  1.00  0.00     0.049 A 
ATOM     43  N   UNL A   1      40.363  29.518  30.100  1.00  0.00    -0.248 NA
ATOM     44  C   UNL A   1      38.685  30.051  28.629  1.00  0.00     0.031 C 
ATOM     45  C   UNL A   1      41.821  31.792  31.107  1.00  0.00     0.029 A 
ATOM     46  N   UNL A   1      40.472  33.299  32.074  1.00  0.00    -0.354 N 
ATOM     47  C   UNL A   1      40.402  28.596  29.078  1.00  0.00     0.074 A 
ATOM     48  C   UNL A   1      39.259  28.906  28.254  1.00  0.00     0.031 C 
ATOM     49  C   UNL A   1      42.438  32.243  32.212  1.00  0.00     0.029 A 
ATOM     50  C   UNL A   1      41.425  32.896  33.023  1.00  0.00     0.049 A 
ATOM     51  H   UNL A   1      39.934  34.124  32.086  1.00  0.00     0.167 HD
ATOM     52  C   UNL A   1      41.492  27.785  28.950  1.00  0.00     0.031 A 
ATOM     53  C   UNL A   1      41.133  32.560  34.317  1.00  0.00     0.031 A 
ATOM     54  C   UNL A   1      42.397  27.918  30.093  1.00  0.00     0.049 A 
ATOM     55  C   UNL A   1      41.563  31.148  34.687  1.00  0.00     0.074 A 
ATOM     56  C   UNL A   1      43.612  28.561  30.271  1.00  0.00     0.029 A 
ATOM     57  N   UNL A   1      41.941  27.585  31.364  1.00  0.00    -0.354 N 
ATOM     58  N   UNL A   1      41.873  30.234  33.808  1.00  0.00    -0.248 NA
ATOM     59  C   UNL A   1      41.615  30.631  36.054  1.00  0.00     0.031 C 
ATOM     60  C   UNL A   1      43.836  28.697  31.666  1.00  0.00     0.029 A 
ATOM     61  C   UNL A   1      42.777  28.106  32.333  1.00  0.00     0.049 A 
ATOM     62  H   UNL A   1      41.133  27.054  31.548  1.00  0.00     0.167 HD
ATOM     63  C   UNL A   1      42.148  29.052  34.440  1.00  0.00     0.074 A 
ATOM     64  C   UNL A   1      41.985  29.352  35.851  1.00  0.00     0.031 C 
ATOM     65  C   UNL A   1      42.468  27.920  33.746  1.00  0.00     0.031 A 
BRANCH  52  66
ATOM     66  C   UNL A   1      41.886  27.109  27.650  1.00  0.00    -0.014 A 
ATOM     67  C   UNL A   1      42.112  25.720  27.630  1.00  0.00     0.009 A 
ATOM     68  C   UNL A   1      42.140  27.776  26.437  1.00  0.00     0.009 A 
ATOM     69  C   UNL A   1      42.648  25.063  26.512  1.00  0.00     0.001 A 
ATOM     70  C   UNL A   1      42.701  27.135  25.324  1.00  0.00     0.001 A 
ATOM     71  C   UNL A   1      42.970  25.777  25.366  1.00  0.00     0.000 A 
ENDBRANCH  52  66
BRANCH  53  72
ATOM     72  C   UNL A   1      39.941  33.243  34.887  1.00  0.00    -0.014 A 
ATOM     73  C   UNL A   1      38.668  32.705  34.620  1.00  0.00     0.009 A 
ATOM     74  C   UNL A   1      40.072  34.165  35.934  1.00  0.00     0.009 A 
ATOM     75  C   UNL A   1      37.583  32.983  35.457  1.00  0.00     0.001 A 
ATOM     76  C   UNL A   1      38.980  34.448  36.766  1.00  0.00     0.001 A 
ATOM     77  C   UNL A   1      37.750  33.828  36.551  1.00  0.00     0.000 A 
ENDBRANCH  53  72
BRANCH  65  78
ATOM     78  C   UNL A   1      42.578  26.530  34.320  1.00  0.00    -0.014 A 
ATOM     79  C   UNL A   1      41.598  25.929  35.120  1.00  0.00     0.009 A 
ATOM     80  C   UNL A   1      43.661  25.714  33.921  1.00  0.00     0.009 A 
ATOM     81  C   UNL A   1      41.716  24.594  35.533  1.00  0.00     0.001 A 
ATOM     82  C   UNL A   1      43.760  24.371  34.293  1.00  0.00     0.001 A 
ATOM     83  C   UNL A   1      42.789  23.813  35.112  1.00  0.00     0.000 A 
ENDBRANCH  65  78
ENDBRANCH  39  40
ENDBRANCH  31  34
ENDBRANCH  29  30
ENDBRANCH  28  29
ENDBRANCH   1  28
TORSDOF 14
ENDMDL
MODEL 3
REMARK VINA RESULT:     -11.9      2.458      3.742
REMARK SMILES Cc1c(NC(=O)c2ccc(Br)cc2N)cccc1C(=O)NCCCCNC(=O)c1ccc(-c2c3nc(c(-c4ccccc4)c4ccc([nH]4)c(-c4ccccc4)c4nc(c(-c5ccccc5)c5ccc2[nH]5)C=C4)C=C3)cc1
REMARK SMILES IDX 23 1 22 2 21 3 19 4 20 5 18 7 1 8 2 9 3 10 15 11 17 12 16 13
REMARK SMILES IDX 4 14 5 15 6 17 7 18 8 19 13 20 9 21 12 22 10 23 11 24 14 25
REMARK SMILES IDX 24 28 25 29 26 30 27 31 28 33 29 34 30 35 76 36 31 37 75 38
REMARK SMILES IDX 32 39 33 40 34 41 69 42 35 43 74 44 68 45 70 46 36 47 73 48
REMARK SMILES IDX 67 49 66 50 37 52 59 53 44 54 58 55 45 56 48 57 57 58 71 59
REMARK SMILES IDX 46 60 47 61 56 63 72 64 49 65 38 66 39 67 43 68 40 69 42 70
REMARK SMILES IDX 41 71 60 72 61 73 65 74 62 75 64 76 63 77 50 78 51 79 55 80
REMARK SMILES IDX 52 81 54 82 53 83
REMARK H PARENT 21 6 4 16 14 26 14 27 26 32 70 51 48 62
REMARK Flexibility Score: inf
ROOT
ATOM      1  C   UNL A   1      37.956  22.750  25.749  1.00  0.00     0.023 C 
ENDROOT
BRANCH   1   2
ATOM      2  C   UNL A   1      37.039  22.587  24.520  1.00  0.00     0.116 C 
BRANCH   2   3
ATOM      3  N   UNL A   1      36.361  21.307  24.562  1.00  0.00    -0.352 N 
ATOM      4  C   UNL A   1      35.153  20.839  25.003  1.00  0.00     0.251 C 
ATOM      5  O   UNL A   1      35.018  19.614  24.882  1.00  0.00    -0.269 OA
ATOM      6  H   UNL A   1      36.910  20.589  24.171  1.00  0.00     0.163 HD
BRANCH   4   7
ATOM      7  C   UNL A   1      33.982  21.617  25.553  1.00  0.00     0.044 A 
ATOM      8  C   UNL A   1      33.100  22.748  23.427  1.00  0.00     0.047 C 
ATOM      9  C   UNL A   1      33.036  22.431  24.891  1.00  0.00    -0.015 A 
ATOM     10  C   UNL A   1      32.082  23.165  25.654  1.00  0.00     0.045 A 
ATOM     11  C   UNL A   1      32.114  23.170  27.046  1.00  0.00     0.026 A 
ATOM     12  C   UNL A   1      33.959  21.627  26.971  1.00  0.00     0.014 A 
ATOM     13  C   UNL A   1      33.058  22.401  27.706  1.00  0.00     0.003 A 
BRANCH  10  14
ATOM     14  N   UNL A   1      31.105  23.893  24.956  1.00  0.00    -0.322 N 
ATOM     15  C   UNL A   1      30.835  25.238  24.899  1.00  0.00     0.257 C 
ATOM     16  H   UNL A   1      30.502  23.338  24.410  1.00  0.00     0.170 HD
ATOM     17  O   UNL A   1      29.798  25.602  24.341  1.00  0.00    -0.269 OA
BRANCH  15  18
ATOM     18  C   UNL A   1      31.772  26.273  25.408  1.00  0.00     0.063 A 
ATOM     19  C   UNL A   1      31.348  26.926  26.579  1.00  0.00     0.017 A 
ATOM     20  C   UNL A   1      32.960  26.681  24.763  1.00  0.00     0.045 A 
ATOM     21  C   UNL A   1      32.108  27.952  27.138  1.00  0.00     0.016 A 
ATOM     22  C   UNL A   1      33.717  27.708  25.352  1.00  0.00     0.042 A 
ATOM     23  C   UNL A   1      33.297  28.328  26.527  1.00  0.00     0.020 A 
ATOM     24  Br  UNL A   1      34.331  29.726  27.268  1.00  0.00    -0.051 Br
BRANCH  20  25
ATOM     25  N   UNL A   1      33.341  26.272  23.488  1.00  0.00    -0.398 N 
ATOM     26  H   UNL A   1      34.195  25.799  23.357  1.00  0.00     0.156 HD
ATOM     27  H   UNL A   1      32.758  26.456  22.716  1.00  0.00     0.156 HD
ENDBRANCH  20  25
ENDBRANCH  15  18
ENDBRANCH  10  14
ENDBRANCH   4   7
ENDBRANCH   2   3
ENDBRANCH   1   2
BRANCH   1  28
ATOM     28  C   UNL A   1      39.098  21.745  25.853  1.00  0.00     0.023 C 
BRANCH  28  29
ATOM     29  C   UNL A   1      40.014  22.023  27.028  1.00  0.00     0.116 C 
BRANCH  29  30
ATOM     30  N   UNL A   1      41.326  22.558  26.677  1.00  0.00    -0.352 N 
ATOM     31  C   UNL A   1      41.699  23.872  26.440  1.00  0.00     0.251 C 
ATOM     32  H   UNL A   1      42.047  21.893  26.598  1.00  0.00     0.163 HD
ATOM     33  O   UNL A   1      42.847  24.132  26.084  1.00  0.00    -0.269 OA
BRANCH  31  34
ATOM     34  C   UNL A   1      40.765  24.974  26.784  1.00  0.00     0.039 A 
ATOM     35  C   UNL A   1      40.902  26.172  26.073  1.00  0.00     0.014 A 
ATOM     36  C   UNL A   1      40.045  24.952  27.972  1.00  0.00     0.014 A 
ATOM     37  C   UNL A   1      40.625  27.372  26.716  1.00  0.00     0.010 A 
ATOM     38  C   UNL A   1      39.918  26.134  28.669  1.00  0.00     0.010 A 
ATOM     39  C   UNL A   1      40.297  27.338  28.068  1.00  0.00    -0.014 A 
BRANCH  39  40
ATOM     40  C   UNL A   1      40.478  28.479  28.959  1.00  0.00     0.031 A 
ATOM     41  C   UNL A   1      39.390  29.474  29.107  1.00  0.00     0.074 A 
ATOM     42  C   UNL A   1      41.603  28.577  29.709  1.00  0.00     0.049 A 
ATOM     43  N   UNL A   1      39.563  30.694  29.492  1.00  0.00    -0.248 NA
ATOM     44  C   UNL A   1      38.000  29.178  28.770  1.00  0.00     0.031 C 
ATOM     45  C   UNL A   1      41.837  29.511  30.812  1.00  0.00     0.029 A 
ATOM     46  N   UNL A   1      42.858  27.984  29.528  1.00  0.00    -0.354 N 
ATOM     47  C   UNL A   1      38.321  31.216  29.776  1.00  0.00     0.074 A 
ATOM     48  C   UNL A   1      37.385  30.285  29.195  1.00  0.00     0.031 C 
ATOM     49  C   UNL A   1      43.163  29.666  30.969  1.00  0.00     0.029 A 
ATOM     50  C   UNL A   1      43.801  28.968  29.868  1.00  0.00     0.049 A 
ATOM     51  H   UNL A   1      43.042  27.065  29.225  1.00  0.00     0.167 HD
ATOM     52  C   UNL A   1      38.221  32.287  30.615  1.00  0.00     0.031 A 
ATOM     53  C   UNL A   1      44.667  29.546  28.981  1.00  0.00     0.031 A 
ATOM     54  C   UNL A   1      39.537  32.838  30.942  1.00  0.00     0.049 A 
ATOM     55  C   UNL A   1      44.528  31.060  28.900  1.00  0.00     0.074 A 
ATOM     56  C   UNL A   1      40.346  32.760  32.064  1.00  0.00     0.029 A 
ATOM     57  N   UNL A   1      40.333  33.348  29.921  1.00  0.00    -0.354 N 
ATOM     58  N   UNL A   1      43.497  31.716  29.361  1.00  0.00    -0.248 NA
ATOM     59  C   UNL A   1      45.491  31.945  28.245  1.00  0.00     0.031 C 
ATOM     60  C   UNL A   1      41.661  33.139  31.686  1.00  0.00     0.029 A 
ATOM     61  C   UNL A   1      41.642  33.480  30.344  1.00  0.00     0.049 A 
ATOM     62  H   UNL A   1      40.009  33.582  29.021  1.00  0.00     0.167 HD
ATOM     63  C   UNL A   1      43.628  33.049  29.079  1.00  0.00     0.074 A 
ATOM     64  C   UNL A   1      44.901  33.147  28.389  1.00  0.00     0.031 C 
ATOM     65  C   UNL A   1      42.667  33.956  29.422  1.00  0.00     0.031 A 
BRANCH  52  66
ATOM     66  C   UNL A   1      36.959  32.636  31.382  1.00  0.00    -0.014 A 
ATOM     67  C   UNL A   1      35.988  33.462  30.782  1.00  0.00     0.009 A 
ATOM     68  C   UNL A   1      36.696  32.271  32.714  1.00  0.00     0.009 A 
ATOM     69  C   UNL A   1      34.890  33.966  31.494  1.00  0.00     0.001 A 
ATOM     70  C   UNL A   1      35.616  32.790  33.443  1.00  0.00     0.001 A 
ATOM     71  C   UNL A   1      34.718  33.652  32.835  1.00  0.00     0.000 A 
ENDBRANCH  52  66
BRANCH  53  72
ATOM     72  C   UNL A   1      45.057  28.685  27.832  1.00  0.00    -0.014 A 
ATOM     73  C   UNL A   1      46.043  27.702  28.036  1.00  0.00     0.009 A 
ATOM     74  C   UNL A   1      44.247  28.595  26.692  1.00  0.00     0.009 A 
ATOM     75  C   UNL A   1      46.132  26.591  27.192  1.00  0.00     0.001 A 
ATOM     76  C   UNL A   1      44.344  27.484  25.844  1.00  0.00     0.001 A 
ATOM     77  C   UNL A   1      45.258  26.466  26.116  1.00  0.00     0.000 A 
ENDBRANCH  53  72
BRANCH  65  78
ATOM     78  C   UNL A   1      42.608  35.395  28.978  1.00  0.00    -0.014 A 
ATOM     79  C   UNL A   1      43.243  36.452  29.643  1.00  0.00     0.009 A 
ATOM     80  C   UNL A   1      42.000  35.699  27.738  1.00  0.00     0.009 A 
ATOM     81  C   UNL A   1      43.235  37.752  29.116  1.00  0.00     0.001 A 
ATOM     82  C   UNL A   1      42.028  36.983  27.188  1.00  0.00     0.001 A 
ATOM     83  C   UNL A   1      42.639  38.015  27.886  1.00  0.00     0.000 A 
ENDBRANCH  65  78
ENDBRANCH  39  40
ENDBRANCH  31  34
ENDBRANCH  29  30
ENDBRANCH  28  29
ENDBRANCH   1  28
TORSDOF 14
ENDMDL
