MODEL 1
REMARK VINA RESULT:     -11.3      0.000      0.000
REMARK SMILES C#Cc1ccc2c(c1)C=C(C(=O)NCCCCNC(=O)c1ccc(-c3c4nc(c(-c5ccccc5)c5ccc([nH]5)c(-c5ccccc5)c5nc(c(-c6ccccc6)c6ccc3[nH]6)C=C5)C=C4)cc1)[C@@H](C(F)(F)F)O2
REMARK SMILES IDX 16 1 15 2 14 3 13 4 11 5 12 6 10 8 3 9 4 10 8 11 5 12 7 13
REMARK SMILES IDX 6 14 9 15 74 16 69 17 2 18 1 19 70 20 71 21 72 22 73 23
REMARK SMILES IDX 17 24 18 25 19 26 20 28 21 29 22 30 68 31 23 32 67 33 24 34
REMARK SMILES IDX 25 35 26 36 61 37 27 38 66 39 60 40 62 41 28 42 65 43 59 44
REMARK SMILES IDX 58 45 29 47 51 48 36 49 50 50 37 51 40 52 49 53 63 54 38 55
REMARK SMILES IDX 39 56 48 58 64 59 41 60 30 61 31 62 35 63 32 64 34 65 33 66
REMARK SMILES IDX 52 67 53 68 57 69 54 70 56 71 55 72 42 73 43 74 47 75 44 76
REMARK SMILES IDX 46 77 45 78
REMARK H PARENT 13 7 18 27 62 46 40 57
REMARK Flexibility Score: inf
ROOT
ATOM      1  C   UNL A   1      37.664  21.075  25.092  1.00  0.00     0.023 C 
ENDROOT
BRANCH   1   2
ATOM      2  C   UNL A   1      36.628  22.040  25.649  1.00  0.00     0.023 C 
BRANCH   2   3
ATOM      3  C   UNL A   1      36.640  23.393  24.953  1.00  0.00     0.116 C 
BRANCH   3   4
ATOM      4  N   UNL A   1      35.701  23.453  23.845  1.00  0.00    -0.352 N 
ATOM      5  C   UNL A   1      34.507  24.046  23.594  1.00  0.00     0.251 C 
ATOM      6  O   UNL A   1      34.054  23.874  22.459  1.00  0.00    -0.270 OA
ATOM      7  H   UNL A   1      36.014  22.926  23.074  1.00  0.00     0.163 HD
BRANCH   5   8
ATOM      8  C   UNL A   1      33.740  24.859  24.586  1.00  0.00     0.067 C 
ATOM      9  C   UNL A   1      33.102  29.026  26.953  1.00  0.00     0.025 A 
ATOM     10  C   UNL A   1      31.886  28.553  27.454  1.00  0.00     0.021 A 
ATOM     11  C   UNL A   1      33.869  28.232  26.093  1.00  0.00     0.029 A 
ATOM     12  C   UNL A   1      31.438  27.286  27.099  1.00  0.00     0.048 A 
ATOM     13  C   UNL A   1      33.421  26.956  25.733  1.00  0.00     0.018 A 
ATOM     14  C   UNL A   1      32.210  26.497  26.253  1.00  0.00     0.128 A 
ATOM     15  C   UNL A   1      34.159  26.121  24.792  1.00  0.00     0.025 C 
ATOM     16  O   UNL A   1      31.676  25.285  25.942  1.00  0.00    -0.475 OA
ATOM     17  C   UNL A   1      32.567  24.316  25.349  1.00  0.00     0.314 C 
BRANCH   9  18
ATOM     18  C   UNL A   1      33.541  30.334  27.321  1.00  0.00    -0.070 C 
ATOM     19  C   UNL A   1      33.923  31.421  27.665  1.00  0.00     0.010 C 
ENDBRANCH   9  18
BRANCH  17  20
ATOM     20  C   UNL A   1      32.990  23.297  26.426  1.00  0.00     0.429 C 
ATOM     21  F   UNL A   1      32.010  23.160  27.354  1.00  0.00    -0.167 F 
ATOM     22  F   UNL A   1      33.209  22.058  25.924  1.00  0.00    -0.167 F 
ATOM     23  F   UNL A   1      34.118  23.661  27.074  1.00  0.00    -0.167 F 
ENDBRANCH  17  20
ENDBRANCH   5   8
ENDBRANCH   3   4
ENDBRANCH   2   3
ENDBRANCH   1   2
BRANCH   1  24
ATOM     24  C   UNL A   1      39.008  21.118  25.803  1.00  0.00     0.116 C 
BRANCH  24  25
ATOM     25  N   UNL A   1      39.722  19.843  25.806  1.00  0.00    -0.352 N 
ATOM     26  C   UNL A   1      41.058  19.628  26.070  1.00  0.00     0.251 C 
ATOM     27  H   UNL A   1      39.186  19.045  25.595  1.00  0.00     0.163 HD
ATOM     28  O   UNL A   1      41.566  18.523  25.937  1.00  0.00    -0.269 OA
BRANCH  26  29
ATOM     29  C   UNL A   1      41.870  20.794  26.466  1.00  0.00     0.039 A 
ATOM     30  C   UNL A   1      41.996  21.102  27.820  1.00  0.00     0.014 A 
ATOM     31  C   UNL A   1      42.333  21.670  25.483  1.00  0.00     0.014 A 
ATOM     32  C   UNL A   1      42.361  22.387  28.183  1.00  0.00     0.010 A 
ATOM     33  C   UNL A   1      42.832  22.916  25.866  1.00  0.00     0.010 A 
ATOM     34  C   UNL A   1      42.787  23.312  27.213  1.00  0.00    -0.014 A 
BRANCH  34  35
ATOM     35  C   UNL A   1      43.188  24.678  27.640  1.00  0.00     0.031 A 
ATOM     36  C   UNL A   1      44.633  25.102  27.655  1.00  0.00     0.074 A 
ATOM     37  C   UNL A   1      42.222  25.559  27.967  1.00  0.00     0.049 A 
ATOM     38  N   UNL A   1      45.140  26.264  27.989  1.00  0.00    -0.248 NA
ATOM     39  C   UNL A   1      45.641  24.109  27.252  1.00  0.00     0.031 C 
ATOM     40  C   UNL A   1      40.786  25.268  27.962  1.00  0.00     0.029 A 
ATOM     41  N   UNL A   1      42.291  26.878  28.334  1.00  0.00    -0.354 N 
ATOM     42  C   UNL A   1      46.517  26.133  27.857  1.00  0.00     0.074 A 
ATOM     43  C   UNL A   1      46.774  24.770  27.448  1.00  0.00     0.031 C 
ATOM     44  C   UNL A   1      40.110  26.388  28.238  1.00  0.00     0.029 A 
ATOM     45  C   UNL A   1      41.060  27.452  28.543  1.00  0.00     0.049 A 
ATOM     46  H   UNL A   1      43.139  27.367  28.438  1.00  0.00     0.167 HD
ATOM     47  C   UNL A   1      47.476  27.071  28.047  1.00  0.00     0.031 A 
ATOM     48  C   UNL A   1      40.720  28.686  28.959  1.00  0.00     0.031 A 
ATOM     49  C   UNL A   1      47.205  28.430  28.443  1.00  0.00     0.049 A 
ATOM     50  C   UNL A   1      41.807  29.684  29.229  1.00  0.00     0.074 A 
ATOM     51  C   UNL A   1      48.110  29.460  28.631  1.00  0.00     0.029 A 
ATOM     52  N   UNL A   1      45.947  28.950  28.711  1.00  0.00    -0.354 N 
ATOM     53  N   UNL A   1      43.102  29.553  29.070  1.00  0.00    -0.248 NA
ATOM     54  C   UNL A   1      41.391  31.002  29.728  1.00  0.00     0.031 C 
ATOM     55  C   UNL A   1      47.414  30.572  29.105  1.00  0.00     0.029 A 
ATOM     56  C   UNL A   1      46.060  30.273  29.107  1.00  0.00     0.049 A 
ATOM     57  H   UNL A   1      45.101  28.453  28.631  1.00  0.00     0.167 HD
ATOM     58  C   UNL A   1      43.655  30.775  29.427  1.00  0.00     0.074 A 
ATOM     59  C   UNL A   1      42.551  31.643  29.786  1.00  0.00     0.031 C 
ATOM     60  C   UNL A   1      44.960  31.137  29.458  1.00  0.00     0.031 A 
BRANCH  47  61
ATOM     61  C   UNL A   1      48.919  26.684  27.844  1.00  0.00    -0.014 A 
ATOM     62  C   UNL A   1      49.470  26.705  26.550  1.00  0.00     0.009 A 
ATOM     63  C   UNL A   1      49.693  26.168  28.895  1.00  0.00     0.009 A 
ATOM     64  C   UNL A   1      50.744  26.189  26.309  1.00  0.00     0.001 A 
ATOM     65  C   UNL A   1      50.985  25.689  28.657  1.00  0.00     0.001 A 
ATOM     66  C   UNL A   1      51.502  25.684  27.362  1.00  0.00     0.000 A 
ENDBRANCH  47  61
BRANCH  48  67
ATOM     67  C   UNL A   1      39.280  29.021  29.129  1.00  0.00    -0.014 A 
ATOM     68  C   UNL A   1      38.631  28.786  30.354  1.00  0.00     0.009 A 
ATOM     69  C   UNL A   1      38.524  29.496  28.048  1.00  0.00     0.009 A 
ATOM     70  C   UNL A   1      37.252  28.970  30.479  1.00  0.00     0.001 A 
ATOM     71  C   UNL A   1      37.152  29.723  28.188  1.00  0.00     0.001 A 
ATOM     72  C   UNL A   1      36.516  29.444  29.397  1.00  0.00     0.000 A 
ENDBRANCH  48  67
BRANCH  60  73
ATOM     73  C   UNL A   1      45.299  32.543  29.879  1.00  0.00    -0.014 A 
ATOM     74  C   UNL A   1      45.429  33.549  28.905  1.00  0.00     0.009 A 
ATOM     75  C   UNL A   1      45.619  32.848  31.210  1.00  0.00     0.009 A 
ATOM     76  C   UNL A   1      45.905  34.814  29.247  1.00  0.00     0.001 A 
ATOM     77  C   UNL A   1      46.054  34.129  31.558  1.00  0.00     0.001 A 
ATOM     78  C   UNL A   1      46.213  35.105  30.574  1.00  0.00     0.000 A 
ENDBRANCH  60  73
ENDBRANCH  34  35
ENDBRANCH  26  29
ENDBRANCH  24  25
ENDBRANCH   1  24
TORSDOF 13
ENDMDL
MODEL 2
REMARK VINA RESULT:     -11.3      4.071      9.223
REMARK SMILES C#Cc1ccc2c(c1)C=C(C(=O)NCCCCNC(=O)c1ccc(-c3c4nc(c(-c5ccccc5)c5ccc([nH]5)c(-c5ccccc5)c5nc(c(-c6ccccc6)c6ccc3[nH]6)C=C5)C=C4)cc1)[C@@H](C(F)(F)F)O2
REMARK SMILES IDX 16 1 15 2 14 3 13 4 11 5 12 6 10 8 3 9 4 10 8 11 5 12 7 13
REMARK SMILES IDX 6 14 9 15 74 16 69 17 2 18 1 19 70 20 71 21 72 22 73 23
REMARK SMILES IDX 17 24 18 25 19 26 20 28 21 29 22 30 68 31 23 32 67 33 24 34
REMARK SMILES IDX 25 35 26 36 61 37 27 38 66 39 60 40 62 41 28 42 65 43 59 44
REMARK SMILES IDX 58 45 29 47 51 48 36 49 50 50 37 51 40 52 49 53 63 54 38 55
REMARK SMILES IDX 39 56 48 58 64 59 41 60 30 61 31 62 35 63 32 64 34 65 33 66
REMARK SMILES IDX 52 67 53 68 57 69 54 70 56 71 55 72 42 73 43 74 47 75 44 76
REMARK SMILES IDX 46 77 45 78
REMARK H PARENT 13 7 18 27 62 46 40 57
REMARK Flexibility Score: inf
ROOT
ATOM      1  C   UNL A   1      32.320  30.935  26.912  1.00  0.00     0.023 C 
ENDROOT
BRANCH   1   2
ATOM      2  C   UNL A   1      32.931  29.865  26.019  1.00  0.00     0.023 C 
BRANCH   2   3
ATOM      3  C   UNL A   1      33.320  28.606  26.780  1.00  0.00     0.116 C 
BRANCH   3   4
ATOM      4  N   UNL A   1      32.241  27.634  26.827  1.00  0.00    -0.352 N 
ATOM      5  C   UNL A   1      32.014  26.386  26.345  1.00  0.00     0.251 C 
ATOM      6  O   UNL A   1      30.939  25.875  26.673  1.00  0.00    -0.270 OA
ATOM      7  H   UNL A   1      31.473  27.968  27.346  1.00  0.00     0.163 HD
BRANCH   5   8
ATOM      8  C   UNL A   1      32.959  25.633  25.466  1.00  0.00     0.067 C 
ATOM      9  C   UNL A   1      36.868  22.827  24.993  1.00  0.00     0.025 A 
ATOM     10  C   UNL A   1      36.570  22.642  23.641  1.00  0.00     0.021 A 
ATOM     11  C   UNL A   1      36.033  23.607  25.802  1.00  0.00     0.029 A 
ATOM     12  C   UNL A   1      35.440  23.239  23.095  1.00  0.00     0.048 A 
ATOM     13  C   UNL A   1      34.894  24.208  25.256  1.00  0.00     0.018 A 
ATOM     14  C   UNL A   1      34.619  24.021  23.900  1.00  0.00     0.128 A 
ATOM     15  C   UNL A   1      33.964  24.978  26.076  1.00  0.00     0.025 C 
ATOM     16  O   UNL A   1      33.524  24.540  23.283  1.00  0.00    -0.475 OA
ATOM     17  C   UNL A   1      32.834  25.607  23.971  1.00  0.00     0.314 C 
BRANCH   9  18
ATOM     18  C   UNL A   1      38.028  22.198  25.539  1.00  0.00    -0.070 C 
ATOM     19  C   UNL A   1      39.025  21.677  25.966  1.00  0.00     0.010 C 
ENDBRANCH   9  18
BRANCH  17  20
ATOM     20  C   UNL A   1      33.220  26.953  23.328  1.00  0.00     0.429 C 
ATOM     21  F   UNL A   1      34.307  27.477  23.951  1.00  0.00    -0.167 F 
ATOM     22  F   UNL A   1      33.556  26.836  22.021  1.00  0.00    -0.167 F 
ATOM     23  F   UNL A   1      32.229  27.868  23.396  1.00  0.00    -0.167 F 
ENDBRANCH  17  20
ENDBRANCH   5   8
ENDBRANCH   3   4
ENDBRANCH   2   3
ENDBRANCH   1   2
BRANCH   1  24
ATOM     24  C   UNL A   1      33.313  31.963  27.430  1.00  0.00     0.116 C 
BRANCH  24  25
ATOM     25  N   UNL A   1      32.733  33.281  27.680  1.00  0.00    -0.352 N 
ATOM     26  C   UNL A   1      33.186  34.248  28.551  1.00  0.00     0.251 C 
ATOM     27  H   UNL A   1      31.923  33.502  27.166  1.00  0.00     0.163 HD
ATOM     28  O   UNL A   1      32.552  35.275  28.753  1.00  0.00    -0.269 OA
BRANCH  26  29
ATOM     29  C   UNL A   1      34.441  33.976  29.277  1.00  0.00     0.039 A 
ATOM     30  C   UNL A   1      35.652  34.362  28.703  1.00  0.00     0.014 A 
ATOM     31  C   UNL A   1      34.410  33.176  30.420  1.00  0.00     0.014 A 
ATOM     32  C   UNL A   1      36.819  33.750  29.126  1.00  0.00     0.010 A 
ATOM     33  C   UNL A   1      35.609  32.673  30.928  1.00  0.00     0.010 A 
ATOM     34  C   UNL A   1      36.816  32.899  30.246  1.00  0.00    -0.014 A 
BRANCH  34  35
ATOM     35  C   UNL A   1      38.090  32.272  30.683  1.00  0.00     0.031 A 
ATOM     36  C   UNL A   1      38.890  32.837  31.828  1.00  0.00     0.074 A 
ATOM     37  C   UNL A   1      38.496  31.145  30.068  1.00  0.00     0.049 A 
ATOM     38  N   UNL A   1      40.014  32.395  32.336  1.00  0.00    -0.248 NA
ATOM     39  C   UNL A   1      38.377  34.049  32.486  1.00  0.00     0.031 C 
ATOM     40  C   UNL A   1      37.787  30.490  28.965  1.00  0.00     0.029 A 
ATOM     41  N   UNL A   1      39.578  30.332  30.294  1.00  0.00    -0.354 N 
ATOM     42  C   UNL A   1      40.350  33.281  33.353  1.00  0.00     0.074 A 
ATOM     43  C   UNL A   1      39.333  34.309  33.369  1.00  0.00     0.031 C 
ATOM     44  C   UNL A   1      38.410  29.346  28.661  1.00  0.00     0.029 A 
ATOM     45  C   UNL A   1      39.618  29.233  29.470  1.00  0.00     0.049 A 
ATOM     46  H   UNL A   1      40.259  30.518  30.980  1.00  0.00     0.167 HD
ATOM     47  C   UNL A   1      41.404  33.230  34.202  1.00  0.00     0.031 A 
ATOM     48  C   UNL A   1      40.532  28.253  29.350  1.00  0.00     0.031 A 
ATOM     49  C   UNL A   1      42.405  32.193  34.182  1.00  0.00     0.049 A 
ATOM     50  C   UNL A   1      41.726  28.260  30.258  1.00  0.00     0.074 A 
ATOM     51  C   UNL A   1      43.494  32.042  35.023  1.00  0.00     0.029 A 
ATOM     52  N   UNL A   1      42.444  31.136  33.285  1.00  0.00    -0.354 N 
ATOM     53  N   UNL A   1      42.012  29.088  31.233  1.00  0.00    -0.248 NA
ATOM     54  C   UNL A   1      42.721  27.198  30.057  1.00  0.00     0.031 C 
ATOM     55  C   UNL A   1      44.242  30.954  34.576  1.00  0.00     0.029 A 
ATOM     56  C   UNL A   1      43.565  30.357  33.525  1.00  0.00     0.049 A 
ATOM     57  H   UNL A   1      41.775  30.965  32.583  1.00  0.00     0.167 HD
ATOM     58  C   UNL A   1      43.206  28.637  31.778  1.00  0.00     0.074 A 
ATOM     59  C   UNL A   1      43.577  27.446  31.041  1.00  0.00     0.031 C 
ATOM     60  C   UNL A   1      43.929  29.169  32.794  1.00  0.00     0.031 A 
BRANCH  47  61
ATOM     61  C   UNL A   1      41.559  34.323  35.230  1.00  0.00    -0.014 A 
ATOM     62  C   UNL A   1      40.899  34.212  36.467  1.00  0.00     0.009 A 
ATOM     63  C   UNL A   1      42.235  35.516  34.933  1.00  0.00     0.009 A 
ATOM     64  C   UNL A   1      40.884  35.280  37.366  1.00  0.00     0.001 A 
ATOM     65  C   UNL A   1      42.251  36.570  35.853  1.00  0.00     0.001 A 
ATOM     66  C   UNL A   1      41.562  36.457  37.060  1.00  0.00     0.000 A 
ENDBRANCH  47  61
BRANCH  48  67
ATOM     67  C   UNL A   1      40.323  27.190  28.328  1.00  0.00    -0.014 A 
ATOM     68  C   UNL A   1      39.609  26.021  28.649  1.00  0.00     0.009 A 
ATOM     69  C   UNL A   1      40.904  27.296  27.057  1.00  0.00     0.009 A 
ATOM     70  C   UNL A   1      39.525  24.965  27.740  1.00  0.00     0.001 A 
ATOM     71  C   UNL A   1      40.780  26.255  26.132  1.00  0.00     0.001 A 
ATOM     72  C   UNL A   1      40.106  25.086  26.481  1.00  0.00     0.000 A 
ENDBRANCH  48  67
BRANCH  60  73
ATOM     73  C   UNL A   1      45.200  28.473  33.204  1.00  0.00    -0.014 A 
ATOM     74  C   UNL A   1      46.405  28.784  32.551  1.00  0.00     0.009 A 
ATOM     75  C   UNL A   1      45.188  27.423  34.134  1.00  0.00     0.009 A 
ATOM     76  C   UNL A   1      47.559  28.038  32.792  1.00  0.00     0.001 A 
ATOM     77  C   UNL A   1      46.355  26.705  34.406  1.00  0.00     0.001 A 
ATOM     78  C   UNL A   1      47.534  27.002  33.723  1.00  0.00     0.000 A 
ENDBRANCH  60  73
ENDBRANCH  34  35
ENDBRANCH  26  29
ENDBRANCH  24  25
ENDBRANCH   1  24
TORSDOF 13
ENDMDL
MODEL 3
REMARK VINA RESULT:     -11.3      3.018      7.446
REMARK SMILES C#Cc1ccc2c(c1)C=C(C(=O)NCCCCNC(=O)c1ccc(-c3c4nc(c(-c5ccccc5)c5ccc([nH]5)c(-c5ccccc5)c5nc(c(-c6ccccc6)c6ccc3[nH]6)C=C5)C=C4)cc1)[C@@H](C(F)(F)F)O2
REMARK SMILES IDX 16 1 15 2 14 3 13 4 11 5 12 6 10 8 3 9 4 10 8 11 5 12 7 13
REMARK SMILES IDX 6 14 9 15 74 16 69 17 2 18 1 19 70 20 71 21 72 22 73 23
REMARK SMILES IDX 17 24 18 25 19 26 20 28 21 29 22 30 68 31 23 32 67 33 24 34
REMARK SMILES IDX 25 35 26 36 61 37 27 38 66 39 60 40 62 41 28 42 65 43 59 44
REMARK SMILES IDX 58 45 29 47 51 48 36 49 50 50 37 51 40 52 49 53 63 54 38 55
REMARK SMILES IDX 39 56 48 58 64 59 41 60 30 61 31 62 35 63 32 64 34 65 33 66
REMARK SMILES IDX 52 67 53 68 57 69 54 70 56 71 55 72 42 73 43 74 47 75 44 76
REMARK SMILES IDX 46 77 45 78
REMARK H PARENT 13 7 18 27 62 46 40 57
REMARK Flexibility Score: inf
ROOT
ATOM      1  C   UNL A   1      33.232  29.141  25.769  1.00  0.00     0.023 C 
ENDROOT
BRANCH   1   2
ATOM      2  C   UNL A   1      34.122  28.156  25.027  1.00  0.00     0.023 C 
BRANCH   2   3
ATOM      3  C   UNL A   1      33.878  26.710  25.433  1.00  0.00     0.116 C 
BRANCH   3   4
ATOM      4  N   UNL A   1      33.622  25.851  24.289  1.00  0.00    -0.352 N 
ATOM      5  C   UNL A   1      32.602  25.645  23.417  1.00  0.00     0.251 C 
ATOM      6  O   UNL A   1      32.822  24.823  22.523  1.00  0.00    -0.270 OA
ATOM      7  H   UNL A   1      34.389  25.265  24.094  1.00  0.00     0.163 HD
BRANCH   5   8
ATOM      8  C   UNL A   1      31.276  26.330  23.488  1.00  0.00     0.067 C 
ATOM      9  C   UNL A   1      28.491  30.133  22.413  1.00  0.00     0.025 A 
ATOM     10  C   UNL A   1      27.370  29.442  22.879  1.00  0.00     0.021 A 
ATOM     11  C   UNL A   1      29.753  29.527  22.428  1.00  0.00     0.029 A 
ATOM     12  C   UNL A   1      27.509  28.147  23.365  1.00  0.00     0.048 A 
ATOM     13  C   UNL A   1      29.897  28.224  22.915  1.00  0.00     0.018 A 
ATOM     14  C   UNL A   1      28.767  27.553  23.387  1.00  0.00     0.128 A 
ATOM     15  C   UNL A   1      31.182  27.532  22.891  1.00  0.00     0.025 C 
ATOM     16  O   UNL A   1      28.797  26.276  23.853  1.00  0.00    -0.475 OA
ATOM     17  C   UNL A   1      30.094  25.742  24.202  1.00  0.00     0.314 C 
BRANCH   9  18
ATOM     18  C   UNL A   1      28.327  31.459  21.910  1.00  0.00    -0.070 C 
ATOM     19  C   UNL A   1      28.151  32.571  21.485  1.00  0.00     0.010 C 
ENDBRANCH   9  18
BRANCH  17  20
ATOM     20  C   UNL A   1      30.258  25.779  25.734  1.00  0.00     0.429 C 
ATOM     21  F   UNL A   1      30.684  27.005  26.132  1.00  0.00    -0.167 F 
ATOM     22  F   UNL A   1      29.096  25.552  26.394  1.00  0.00    -0.167 F 
ATOM     23  F   UNL A   1      31.148  24.870  26.186  1.00  0.00    -0.167 F 
ENDBRANCH  17  20
ENDBRANCH   5   8
ENDBRANCH   3   4
ENDBRANCH   2   3
ENDBRANCH   1   2
BRANCH   1  24
ATOM     24  C   UNL A   1      33.420  29.145  27.278  1.00  0.00     0.116 C 
BRANCH  24  25
ATOM     25  N   UNL A   1      33.549  30.478  27.860  1.00  0.00    -0.352 N 
ATOM     26  C   UNL A   1      34.653  31.023  28.480  1.00  0.00     0.251 C 
ATOM     27  H   UNL A   1      32.753  31.055  27.804  1.00  0.00     0.163 HD
ATOM     28  O   UNL A   1      34.606  32.118  29.025  1.00  0.00    -0.269 OA
BRANCH  26  29
ATOM     29  C   UNL A   1      35.885  30.212  28.511  1.00  0.00     0.039 A 
ATOM     30  C   UNL A   1      36.249  29.580  29.700  1.00  0.00     0.014 A 
ATOM     31  C   UNL A   1      36.755  30.246  27.421  1.00  0.00     0.014 A 
ATOM     32  C   UNL A   1      37.567  29.200  29.880  1.00  0.00     0.010 A 
ATOM     33  C   UNL A   1      38.044  29.732  27.565  1.00  0.00     0.010 A 
ATOM     34  C   UNL A   1      38.484  29.267  28.815  1.00  0.00    -0.014 A 
BRANCH  34  35
ATOM     35  C   UNL A   1      39.888  28.834  29.039  1.00  0.00     0.031 A 
ATOM     36  C   UNL A   1      40.880  29.725  29.739  1.00  0.00     0.074 A 
ATOM     37  C   UNL A   1      40.249  27.596  28.651  1.00  0.00     0.049 A 
ATOM     38  N   UNL A   1      42.137  29.483  30.023  1.00  0.00    -0.248 NA
ATOM     39  C   UNL A   1      40.418  31.052  30.175  1.00  0.00     0.031 C 
ATOM     40  C   UNL A   1      39.363  26.634  27.988  1.00  0.00     0.029 A 
ATOM     41  N   UNL A   1      41.434  26.919  28.780  1.00  0.00    -0.354 N 
ATOM     42  C   UNL A   1      42.616  30.629  30.647  1.00  0.00     0.074 A 
ATOM     43  C   UNL A   1      41.529  31.583  30.669  1.00  0.00     0.031 C 
ATOM     44  C   UNL A   1      40.012  25.474  27.835  1.00  0.00     0.029 A 
ATOM     45  C   UNL A   1      41.388  25.636  28.289  1.00  0.00     0.049 A 
ATOM     46  H   UNL A   1      42.241  27.314  29.185  1.00  0.00     0.167 HD
ATOM     47  C   UNL A   1      43.848  30.856  31.163  1.00  0.00     0.031 A 
ATOM     48  C   UNL A   1      42.345  24.695  28.186  1.00  0.00     0.031 A 
ATOM     49  C   UNL A   1      44.919  29.892  31.144  1.00  0.00     0.049 A 
ATOM     50  C   UNL A   1      43.719  25.000  28.704  1.00  0.00     0.074 A 
ATOM     51  C   UNL A   1      46.192  30.021  31.670  1.00  0.00     0.029 A 
ATOM     52  N   UNL A   1      44.849  28.629  30.575  1.00  0.00    -0.354 N 
ATOM     53  N   UNL A   1      44.146  26.076  29.318  1.00  0.00    -0.248 NA
ATOM     54  C   UNL A   1      44.743  23.961  28.526  1.00  0.00     0.031 C 
ATOM     55  C   UNL A   1      46.921  28.881  31.336  1.00  0.00     0.029 A 
ATOM     56  C   UNL A   1      46.072  27.990  30.698  1.00  0.00     0.049 A 
ATOM     57  H   UNL A   1      44.049  28.245  30.148  1.00  0.00     0.167 HD
ATOM     58  C   UNL A   1      45.480  25.839  29.619  1.00  0.00     0.074 A 
ATOM     59  C   UNL A   1      45.784  24.504  29.143  1.00  0.00     0.031 C 
ATOM     60  C   UNL A   1      46.370  26.659  30.229  1.00  0.00     0.031 A 
BRANCH  47  61
ATOM     61  C   UNL A   1      44.134  32.197  31.793  1.00  0.00    -0.014 A 
ATOM     62  C   UNL A   1      43.829  32.407  33.149  1.00  0.00     0.009 A 
ATOM     63  C   UNL A   1      44.568  33.288  31.025  1.00  0.00     0.009 A 
ATOM     64  C   UNL A   1      43.921  33.681  33.712  1.00  0.00     0.001 A 
ATOM     65  C   UNL A   1      44.698  34.555  31.602  1.00  0.00     0.001 A 
ATOM     66  C   UNL A   1      44.358  34.754  32.940  1.00  0.00     0.000 A 
ENDBRANCH  47  61
BRANCH  48  67
ATOM     67  C   UNL A   1      42.005  23.384  27.569  1.00  0.00    -0.014 A 
ATOM     68  C   UNL A   1      41.452  22.351  28.347  1.00  0.00     0.009 A 
ATOM     69  C   UNL A   1      42.309  23.125  26.225  1.00  0.00     0.009 A 
ATOM     70  C   UNL A   1      41.257  21.077  27.808  1.00  0.00     0.001 A 
ATOM     71  C   UNL A   1      42.071  21.862  25.676  1.00  0.00     0.001 A 
ATOM     72  C   UNL A   1      41.561  20.836  26.471  1.00  0.00     0.000 A 
ENDBRANCH  48  67
BRANCH  60  73
ATOM     73  C   UNL A   1      47.771  26.152  30.447  1.00  0.00    -0.014 A 
ATOM     74  C   UNL A   1      48.150  25.678  31.716  1.00  0.00     0.009 A 
ATOM     75  C   UNL A   1      48.751  26.263  29.449  1.00  0.00     0.009 A 
ATOM     76  C   UNL A   1      49.481  25.363  31.990  1.00  0.00     0.001 A 
ATOM     77  C   UNL A   1      50.075  25.906  29.713  1.00  0.00     0.001 A 
ATOM     78  C   UNL A   1      50.441  25.473  30.988  1.00  0.00     0.000 A 
ENDBRANCH  60  73
ENDBRANCH  34  35
ENDBRANCH  26  29
ENDBRANCH  24  25
ENDBRANCH   1  24
TORSDOF 13
ENDMDL
