MODEL 1
REMARK VINA RESULT:     -12.0      0.000      0.000
REMARK SMILES CCc1ccnc(C(=O)c2[nH]c3ccc(OC(F)(F)F)cc3c2CC(=O)NCCCCNC(=O)c2ccc(-c3c4nc(c(-c5ccccc5)c5ccc([nH]5)c(-c5ccccc5)c5nc(c(-c6ccccc6)c6ccc3[nH]6)C=C5)C=C4)cc2)c1
REMARK SMILES IDX 28 1 27 2 25 3 26 4 24 6 23 7 10 8 11 9 12 10 22 12 13 13
REMARK SMILES IDX 21 14 14 15 15 16 8 17 9 18 7 19 3 20 4 21 83 22 5 23 6 24
REMARK SMILES IDX 2 25 1 26 16 27 17 28 18 29 19 30 20 31 29 32 30 33 31 34
REMARK SMILES IDX 32 35 33 36 34 38 35 39 36 40 82 41 37 42 81 43 38 44 39 45
REMARK SMILES IDX 40 46 75 47 41 48 80 49 74 50 76 51 42 52 79 53 73 54 72 55
REMARK SMILES IDX 43 57 65 58 50 59 64 60 51 61 54 62 63 63 77 64 52 65 53 66
REMARK SMILES IDX 62 68 78 69 55 70 44 71 45 72 49 73 46 74 48 75 47 76 66 77
REMARK SMILES IDX 67 78 71 79 68 80 70 81 69 82 56 83 57 84 61 85 58 86 60 87
REMARK SMILES IDX 59 88
REMARK H PARENT 27 5 11 11 32 37 76 56 54 67
REMARK Flexibility Score: inf
ROOT
ATOM      1  C   UNL A   1      33.111  30.379  26.656  1.00  0.00     0.116 C 
ENDROOT
BRANCH   1   2
ATOM      2  N   UNL A   1      33.621  29.702  25.483  1.00  0.00    -0.356 N 
ATOM      3  C   UNL A   1      33.457  28.402  25.094  1.00  0.00     0.224 C 
ATOM      4  O   UNL A   1      33.846  28.089  23.966  1.00  0.00    -0.275 OA
ATOM      5  H   UNL A   1      34.164  30.258  24.878  1.00  0.00     0.163 HD
BRANCH   3   6
ATOM      6  C   UNL A   1      32.699  27.407  25.961  1.00  0.00     0.138 C 
BRANCH   6   7
ATOM      7  C   UNL A   1      31.429  26.867  25.364  1.00  0.00    -0.002 A 
ATOM      8  C   UNL A   1      30.918  25.578  25.486  1.00  0.00     0.093 A 
ATOM      9  N   UNL A   1      29.689  25.563  24.865  1.00  0.00    -0.352 N 
ATOM     10  C   UNL A   1      29.446  26.759  24.238  1.00  0.00     0.046 A 
ATOM     11  H   UNL A   1      29.069  24.799  24.872  1.00  0.00     0.167 HD
ATOM     12  C   UNL A   1      30.527  27.591  24.511  1.00  0.00     0.008 A 
ATOM     13  C   UNL A   1      28.350  27.168  23.472  1.00  0.00     0.030 A 
ATOM     14  C   UNL A   1      30.514  28.895  23.972  1.00  0.00     0.057 A 
ATOM     15  C   UNL A   1      28.359  28.472  22.961  1.00  0.00     0.049 A 
ATOM     16  C   UNL A   1      29.426  29.335  23.203  1.00  0.00     0.130 A 
BRANCH   8  17
ATOM     17  C   UNL A   1      31.462  24.434  26.201  1.00  0.00     0.227 C 
ATOM     18  O   UNL A   1      30.970  24.062  27.260  1.00  0.00    -0.285 OA
BRANCH  17  19
ATOM     19  C   UNL A   1      32.626  23.689  25.586  1.00  0.00     0.113 A 
ATOM     20  C   UNL A   1      34.987  23.221  25.362  1.00  0.00    -0.044 A 
ATOM     21  C   UNL A   1      34.652  22.321  24.345  1.00  0.00     0.024 A 
ATOM     22  C   UNL A   1      33.942  23.888  26.012  1.00  0.00     0.036 A 
ATOM     23  C   UNL A   1      33.320  22.157  24.002  1.00  0.00     0.112 A 
ATOM     24  N   UNL A   1      32.309  22.832  24.582  1.00  0.00    -0.253 NA
BRANCH  20  25
ATOM     25  C   UNL A   1      36.445  23.410  25.710  1.00  0.00     0.032 C 
ATOM     26  C   UNL A   1      37.452  22.618  24.882  1.00  0.00     0.009 C 
ENDBRANCH  20  25
ENDBRANCH  17  19
ENDBRANCH   8  17
BRANCH  16  27
ATOM     27  O   UNL A   1      29.545  30.623  22.764  1.00  0.00    -0.406 OA
BRANCH  27  28
ATOM     28  C   UNL A   1      28.530  31.544  23.126  1.00  0.00     0.573 C 
ATOM     29  F   UNL A   1      27.839  31.108  24.201  1.00  0.00    -0.132 F 
ATOM     30  F   UNL A   1      29.049  32.763  23.387  1.00  0.00    -0.132 F 
ATOM     31  F   UNL A   1      27.667  31.666  22.093  1.00  0.00    -0.132 F 
ENDBRANCH  27  28
ENDBRANCH  16  27
ENDBRANCH   6   7
ENDBRANCH   3   6
ENDBRANCH   1   2
BRANCH   1  32
ATOM     32  C   UNL A   1      31.684  30.894  26.473  1.00  0.00     0.023 C 
BRANCH  32  33
ATOM     33  C   UNL A   1      31.455  32.355  26.869  1.00  0.00     0.023 C 
BRANCH  33  34
ATOM     34  C   UNL A   1      32.711  33.197  27.052  1.00  0.00     0.116 C 
BRANCH  34  35
ATOM     35  N   UNL A   1      32.529  34.316  27.963  1.00  0.00    -0.352 N 
ATOM     36  C   UNL A   1      33.288  34.697  29.040  1.00  0.00     0.251 C 
ATOM     37  H   UNL A   1      31.745  34.883  27.780  1.00  0.00     0.163 HD
ATOM     38  O   UNL A   1      32.919  35.635  29.742  1.00  0.00    -0.269 OA
BRANCH  36  39
ATOM     39  C   UNL A   1      34.527  33.967  29.389  1.00  0.00     0.039 A 
ATOM     40  C   UNL A   1      35.686  34.244  28.655  1.00  0.00     0.014 A 
ATOM     41  C   UNL A   1      34.558  33.006  30.404  1.00  0.00     0.014 A 
ATOM     42  C   UNL A   1      36.885  33.602  28.973  1.00  0.00     0.010 A 
ATOM     43  C   UNL A   1      35.765  32.400  30.753  1.00  0.00     0.010 A 
ATOM     44  C   UNL A   1      36.936  32.695  30.042  1.00  0.00    -0.014 A 
BRANCH  44  45
ATOM     45  C   UNL A   1      38.215  32.054  30.430  1.00  0.00     0.031 A 
ATOM     46  C   UNL A   1      39.120  32.706  31.435  1.00  0.00     0.074 A 
ATOM     47  C   UNL A   1      38.587  30.906  29.835  1.00  0.00     0.049 A 
ATOM     48  N   UNL A   1      40.289  32.310  31.869  1.00  0.00    -0.248 NA
ATOM     49  C   UNL A   1      38.659  33.978  32.014  1.00  0.00     0.031 C 
ATOM     50  C   UNL A   1      37.821  30.192  28.811  1.00  0.00     0.029 A 
ATOM     51  N   UNL A   1      39.712  30.139  30.005  1.00  0.00    -0.354 N 
ATOM     52  C   UNL A   1      40.715  33.292  32.752  1.00  0.00     0.074 A 
ATOM     53  C   UNL A   1      39.689  34.314  32.777  1.00  0.00     0.031 C 
ATOM     54  C   UNL A   1      38.489  29.082  28.458  1.00  0.00     0.029 A 
ATOM     55  C   UNL A   1      39.736  29.018  29.215  1.00  0.00     0.049 A 
ATOM     56  H   UNL A   1      40.433  30.373  30.634  1.00  0.00     0.167 HD
ATOM     57  C   UNL A   1      41.853  33.339  33.484  1.00  0.00     0.031 A 
ATOM     58  C   UNL A   1      40.658  28.043  29.114  1.00  0.00     0.031 A 
ATOM     59  C   UNL A   1      42.866  32.318  33.484  1.00  0.00     0.049 A 
ATOM     60  C   UNL A   1      41.891  28.097  29.965  1.00  0.00     0.074 A 
ATOM     61  C   UNL A   1      44.027  32.254  34.237  1.00  0.00     0.029 A 
ATOM     62  N   UNL A   1      42.836  31.182  32.695  1.00  0.00    -0.354 N 
ATOM     63  N   UNL A   1      42.254  29.007  30.834  1.00  0.00    -0.248 NA
ATOM     64  C   UNL A   1      42.838  26.979  29.828  1.00  0.00     0.031 C 
ATOM     65  C   UNL A   1      44.710  31.083  33.887  1.00  0.00     0.029 A 
ATOM     66  C   UNL A   1      43.961  30.411  32.935  1.00  0.00     0.049 A 
ATOM     67  H   UNL A   1      42.122  30.955  32.057  1.00  0.00     0.167 HD
ATOM     68  C   UNL A   1      43.462  28.567  31.358  1.00  0.00     0.074 A 
ATOM     69  C   UNL A   1      43.765  27.304  30.718  1.00  0.00     0.031 C 
ATOM     70  C   UNL A   1      44.248  29.159  32.289  1.00  0.00     0.031 A 
BRANCH  57  71
ATOM     71  C   UNL A   1      42.060  34.549  34.345  1.00  0.00    -0.014 A 
ATOM     72  C   UNL A   1      42.672  35.702  33.832  1.00  0.00     0.009 A 
ATOM     73  C   UNL A   1      41.623  34.540  35.678  1.00  0.00     0.009 A 
ATOM     74  C   UNL A   1      42.870  36.817  34.649  1.00  0.00     0.001 A 
ATOM     75  C   UNL A   1      41.808  35.663  36.487  1.00  0.00     0.001 A 
ATOM     76  C   UNL A   1      42.436  36.796  35.974  1.00  0.00     0.000 A 
ENDBRANCH  57  71
BRANCH  58  77
ATOM     77  C   UNL A   1      40.433  26.911  28.185  1.00  0.00    -0.014 A 
ATOM     78  C   UNL A   1      39.702  25.789  28.605  1.00  0.00     0.009 A 
ATOM     79  C   UNL A   1      40.939  26.950  26.878  1.00  0.00     0.009 A 
ATOM     80  C   UNL A   1      39.499  24.716  27.736  1.00  0.00     0.001 A 
ATOM     81  C   UNL A   1      40.720  25.881  26.007  1.00  0.00     0.001 A 
ATOM     82  C   UNL A   1      40.006  24.763  26.438  1.00  0.00     0.000 A 
ENDBRANCH  58  77
BRANCH  70  83
ATOM     83  C   UNL A   1      45.499  28.433  32.678  1.00  0.00    -0.014 A 
ATOM     84  C   UNL A   1      45.491  27.498  33.725  1.00  0.00     0.009 A 
ATOM     85  C   UNL A   1      46.690  28.668  31.978  1.00  0.00     0.009 A 
ATOM     86  C   UNL A   1      46.663  26.830  34.079  1.00  0.00     0.001 A 
ATOM     87  C   UNL A   1      47.858  27.987  32.325  1.00  0.00     0.001 A 
ATOM     88  C   UNL A   1      47.845  27.073  33.378  1.00  0.00     0.000 A 
ENDBRANCH  70  83
ENDBRANCH  44  45
ENDBRANCH  36  39
ENDBRANCH  34  35
ENDBRANCH  33  34
ENDBRANCH  32  33
ENDBRANCH   1  32
TORSDOF 17
ENDMDL
MODEL 2
REMARK VINA RESULT:     -12.0      1.317      5.761
REMARK SMILES CCc1ccnc(C(=O)c2[nH]c3ccc(OC(F)(F)F)cc3c2CC(=O)NCCCCNC(=O)c2ccc(-c3c4nc(c(-c5ccccc5)c5ccc([nH]5)c(-c5ccccc5)c5nc(c(-c6ccccc6)c6ccc3[nH]6)C=C5)C=C4)cc2)c1
REMARK SMILES IDX 28 1 27 2 25 3 26 4 24 6 23 7 10 8 11 9 12 10 22 12 13 13
REMARK SMILES IDX 21 14 14 15 15 16 8 17 9 18 7 19 3 20 4 21 83 22 5 23 6 24
REMARK SMILES IDX 2 25 1 26 16 27 17 28 18 29 19 30 20 31 29 32 30 33 31 34
REMARK SMILES IDX 32 35 33 36 34 38 35 39 36 40 82 41 37 42 81 43 38 44 39 45
REMARK SMILES IDX 40 46 75 47 41 48 80 49 74 50 76 51 42 52 79 53 73 54 72 55
REMARK SMILES IDX 43 57 65 58 50 59 64 60 51 61 54 62 63 63 77 64 52 65 53 66
REMARK SMILES IDX 62 68 78 69 55 70 44 71 45 72 49 73 46 74 48 75 47 76 66 77
REMARK SMILES IDX 67 78 71 79 68 80 70 81 69 82 56 83 57 84 61 85 58 86 60 87
REMARK SMILES IDX 59 88
REMARK H PARENT 27 5 11 11 32 37 76 56 54 67
REMARK Flexibility Score: inf
ROOT
ATOM      1  C   UNL A   1      32.996  30.119  26.459  1.00  0.00     0.116 C 
ENDROOT
BRANCH   1   2
ATOM      2  N   UNL A   1      33.550  29.562  25.244  1.00  0.00    -0.356 N 
ATOM      3  C   UNL A   1      33.589  28.261  24.828  1.00  0.00     0.224 C 
ATOM      4  O   UNL A   1      33.964  28.040  23.673  1.00  0.00    -0.275 OA
ATOM      5  H   UNL A   1      33.956  30.214  24.628  1.00  0.00     0.163 HD
BRANCH   3   6
ATOM      6  C   UNL A   1      33.059  27.134  25.703  1.00  0.00     0.138 C 
BRANCH   6   7
ATOM      7  C   UNL A   1      31.729  26.568  25.292  1.00  0.00    -0.002 A 
ATOM      8  C   UNL A   1      31.229  25.298  25.566  1.00  0.00     0.093 A 
ATOM      9  N   UNL A   1      29.939  25.252  25.087  1.00  0.00    -0.352 N 
ATOM     10  C   UNL A   1      29.633  26.401  24.401  1.00  0.00     0.046 A 
ATOM     11  H   UNL A   1      29.319  24.499  25.219  1.00  0.00     0.167 HD
ATOM     12  C   UNL A   1      30.741  27.237  24.490  1.00  0.00     0.008 A 
ATOM     13  C   UNL A   1      28.462  26.766  23.731  1.00  0.00     0.030 A 
ATOM     14  C   UNL A   1      30.675  28.497  23.859  1.00  0.00     0.057 A 
ATOM     15  C   UNL A   1      28.419  28.027  23.125  1.00  0.00     0.049 A 
ATOM     16  C   UNL A   1      29.511  28.892  23.183  1.00  0.00     0.130 A 
BRANCH   8  17
ATOM     17  C   UNL A   1      31.843  24.204  26.302  1.00  0.00     0.227 C 
ATOM     18  O   UNL A   1      31.503  23.949  27.452  1.00  0.00    -0.285 OA
BRANCH  17  19
ATOM     19  C   UNL A   1      32.885  23.361  25.600  1.00  0.00     0.113 A 
ATOM     20  C   UNL A   1      35.153  22.920  24.888  1.00  0.00    -0.044 A 
ATOM     21  C   UNL A   1      34.664  21.783  24.236  1.00  0.00     0.024 A 
ATOM     22  C   UNL A   1      34.241  23.699  25.610  1.00  0.00     0.036 A 
ATOM     23  C   UNL A   1      33.310  21.500  24.299  1.00  0.00     0.112 A 
ATOM     24  N   UNL A   1      32.413  22.270  24.945  1.00  0.00    -0.253 NA
BRANCH  20  25
ATOM     25  C   UNL A   1      36.628  23.232  24.792  1.00  0.00     0.032 C 
ATOM     26  C   UNL A   1      37.274  23.859  26.023  1.00  0.00     0.009 C 
ENDBRANCH  20  25
ENDBRANCH  17  19
ENDBRANCH   8  17
BRANCH  16  27
ATOM     27  O   UNL A   1      29.586  30.142  22.636  1.00  0.00    -0.406 OA
BRANCH  27  28
ATOM     28  C   UNL A   1      28.678  31.126  23.101  1.00  0.00     0.573 C 
ATOM     29  F   UNL A   1      28.756  32.250  22.358  1.00  0.00    -0.132 F 
ATOM     30  F   UNL A   1      27.409  30.663  23.088  1.00  0.00    -0.132 F 
ATOM     31  F   UNL A   1      28.997  31.442  24.376  1.00  0.00    -0.132 F 
ENDBRANCH  27  28
ENDBRANCH  16  27
ENDBRANCH   6   7
ENDBRANCH   3   6
ENDBRANCH   1   2
BRANCH   1  32
ATOM     32  C   UNL A   1      31.586  30.674  26.271  1.00  0.00     0.023 C 
BRANCH  32  33
ATOM     33  C   UNL A   1      31.414  32.161  26.592  1.00  0.00     0.023 C 
BRANCH  33  34
ATOM     34  C   UNL A   1      32.625  32.850  27.211  1.00  0.00     0.116 C 
BRANCH  34  35
ATOM     35  N   UNL A   1      32.341  34.190  27.697  1.00  0.00    -0.352 N 
ATOM     36  C   UNL A   1      33.001  34.934  28.643  1.00  0.00     0.251 C 
ATOM     37  H   UNL A   1      31.561  34.629  27.287  1.00  0.00     0.163 HD
ATOM     38  O   UNL A   1      32.552  36.028  28.977  1.00  0.00    -0.269 OA
BRANCH  36  39
ATOM     39  C   UNL A   1      34.225  34.417  29.294  1.00  0.00     0.039 A 
ATOM     40  C   UNL A   1      34.087  33.726  30.503  1.00  0.00     0.014 A 
ATOM     41  C   UNL A   1      35.496  34.623  28.750  1.00  0.00     0.014 A 
ATOM     42  C   UNL A   1      35.212  33.192  31.135  1.00  0.00     0.010 A 
ATOM     43  C   UNL A   1      36.614  34.049  29.355  1.00  0.00     0.010 A 
ATOM     44  C   UNL A   1      36.480  33.329  30.550  1.00  0.00    -0.014 A 
BRANCH  44  45
ATOM     45  C   UNL A   1      37.674  32.715  31.179  1.00  0.00     0.031 A 
ATOM     46  C   UNL A   1      38.346  31.533  30.542  1.00  0.00     0.074 A 
ATOM     47  C   UNL A   1      38.123  33.191  32.354  1.00  0.00     0.049 A 
ATOM     48  N   UNL A   1      39.376  30.846  30.964  1.00  0.00    -0.248 NA
ATOM     49  C   UNL A   1      37.773  31.048  29.275  1.00  0.00     0.031 C 
ATOM     50  C   UNL A   1      37.534  34.307  33.099  1.00  0.00     0.029 A 
ATOM     51  N   UNL A   1      39.179  32.791  33.131  1.00  0.00    -0.354 N 
ATOM     52  C   UNL A   1      39.563  29.835  30.031  1.00  0.00     0.074 A 
ATOM     53  C   UNL A   1      38.527  29.985  29.031  1.00  0.00     0.031 C 
ATOM     54  C   UNL A   1      38.250  34.512  34.217  1.00  0.00     0.029 A 
ATOM     55  C   UNL A   1      39.331  33.533  34.275  1.00  0.00     0.049 A 
ATOM     56  H   UNL A   1      39.771  32.040  32.892  1.00  0.00     0.167 HD
ATOM     57  C   UNL A   1      40.515  28.873  30.002  1.00  0.00     0.031 A 
ATOM     58  C   UNL A   1      40.244  33.440  35.259  1.00  0.00     0.031 A 
ATOM     59  C   UNL A   1      41.562  28.730  30.978  1.00  0.00     0.049 A 
ATOM     60  C   UNL A   1      41.312  32.391  35.184  1.00  0.00     0.074 A 
ATOM     61  C   UNL A   1      42.604  27.819  30.999  1.00  0.00     0.029 A 
ATOM     62  N   UNL A   1      41.700  29.525  32.103  1.00  0.00    -0.354 N 
ATOM     63  N   UNL A   1      41.506  31.476  34.268  1.00  0.00    -0.248 NA
ATOM     64  C   UNL A   1      42.297  32.371  36.277  1.00  0.00     0.031 C 
ATOM     65  C   UNL A   1      43.365  28.052  32.151  1.00  0.00     0.029 A 
ATOM     66  C   UNL A   1      42.807  29.121  32.831  1.00  0.00     0.049 A 
ATOM     67  H   UNL A   1      41.102  30.266  32.349  1.00  0.00     0.167 HD
ATOM     68  C   UNL A   1      42.640  30.780  34.663  1.00  0.00     0.074 A 
ATOM     69  C   UNL A   1      43.097  31.385  35.897  1.00  0.00     0.031 C 
ATOM     70  C   UNL A   1      43.247  29.733  34.056  1.00  0.00     0.031 A 
BRANCH  57  71
ATOM     71  C   UNL A   1      40.456  27.891  28.871  1.00  0.00    -0.014 A 
ATOM     72  C   UNL A   1      39.757  26.681  29.003  1.00  0.00     0.009 A 
ATOM     73  C   UNL A   1      41.092  28.185  27.656  1.00  0.00     0.009 A 
ATOM     74  C   UNL A   1      39.721  25.770  27.946  1.00  0.00     0.001 A 
ATOM     75  C   UNL A   1      41.040  27.279  26.596  1.00  0.00     0.001 A 
ATOM     76  C   UNL A   1      40.361  26.071  26.744  1.00  0.00     0.000 A 
ENDBRANCH  57  71
BRANCH  58  77
ATOM     77  C   UNL A   1      40.202  34.393  36.394  1.00  0.00    -0.014 A 
ATOM     78  C   UNL A   1      39.480  34.074  37.554  1.00  0.00     0.009 A 
ATOM     79  C   UNL A   1      40.884  35.615  36.324  1.00  0.00     0.009 A 
ATOM     80  C   UNL A   1      39.428  34.974  38.619  1.00  0.00     0.001 A 
ATOM     81  C   UNL A   1      40.841  36.506  37.398  1.00  0.00     0.001 A 
ATOM     82  C   UNL A   1      40.110  36.188  38.541  1.00  0.00     0.000 A 
ENDBRANCH  58  77
BRANCH  70  83
ATOM     83  C   UNL A   1      44.481  29.194  34.711  1.00  0.00    -0.014 A 
ATOM     84  C   UNL A   1      44.400  28.167  35.664  1.00  0.00     0.009 A 
ATOM     85  C   UNL A   1      45.739  29.702  34.356  1.00  0.00     0.009 A 
ATOM     86  C   UNL A   1      45.557  27.675  36.268  1.00  0.00     0.001 A 
ATOM     87  C   UNL A   1      46.896  29.197  34.951  1.00  0.00     0.001 A 
ATOM     88  C   UNL A   1      46.804  28.189  35.910  1.00  0.00     0.000 A 
ENDBRANCH  70  83
ENDBRANCH  44  45
ENDBRANCH  36  39
ENDBRANCH  34  35
ENDBRANCH  33  34
ENDBRANCH  32  33
ENDBRANCH   1  32
TORSDOF 17
ENDMDL
MODEL 3
REMARK VINA RESULT:     -12.0      2.387      3.481
REMARK SMILES CCc1ccnc(C(=O)c2[nH]c3ccc(OC(F)(F)F)cc3c2CC(=O)NCCCCNC(=O)c2ccc(-c3c4nc(c(-c5ccccc5)c5ccc([nH]5)c(-c5ccccc5)c5nc(c(-c6ccccc6)c6ccc3[nH]6)C=C5)C=C4)cc2)c1
REMARK SMILES IDX 28 1 27 2 25 3 26 4 24 6 23 7 10 8 11 9 12 10 22 12 13 13
REMARK SMILES IDX 21 14 14 15 15 16 8 17 9 18 7 19 3 20 4 21 83 22 5 23 6 24
REMARK SMILES IDX 2 25 1 26 16 27 17 28 18 29 19 30 20 31 29 32 30 33 31 34
REMARK SMILES IDX 32 35 33 36 34 38 35 39 36 40 82 41 37 42 81 43 38 44 39 45
REMARK SMILES IDX 40 46 75 47 41 48 80 49 74 50 76 51 42 52 79 53 73 54 72 55
REMARK SMILES IDX 43 57 65 58 50 59 64 60 51 61 54 62 63 63 77 64 52 65 53 66
REMARK SMILES IDX 62 68 78 69 55 70 44 71 45 72 49 73 46 74 48 75 47 76 66 77
REMARK SMILES IDX 67 78 71 79 68 80 70 81 69 82 56 83 57 84 61 85 58 86 60 87
REMARK SMILES IDX 59 88
REMARK H PARENT 27 5 11 11 32 37 76 56 54 67
REMARK Flexibility Score: inf
ROOT
ATOM      1  C   UNL A   1      33.725  26.612  25.218  1.00  0.00     0.116 C 
ENDROOT
BRANCH   1   2
ATOM      2  N   UNL A   1      33.957  27.529  24.124  1.00  0.00    -0.356 N 
ATOM      3  C   UNL A   1      33.639  27.396  22.801  1.00  0.00     0.224 C 
ATOM      4  O   UNL A   1      33.785  28.383  22.075  1.00  0.00    -0.275 OA
ATOM      5  H   UNL A   1      34.408  28.370  24.366  1.00  0.00     0.163 HD
BRANCH   3   6
ATOM      6  C   UNL A   1      32.999  26.123  22.266  1.00  0.00     0.138 C 
BRANCH   6   7
ATOM      7  C   UNL A   1      31.659  25.778  22.853  1.00  0.00    -0.002 A 
ATOM      8  C   UNL A   1      31.256  24.554  23.381  1.00  0.00     0.093 A 
ATOM      9  N   UNL A   1      29.990  24.726  23.895  1.00  0.00    -0.352 N 
ATOM     10  C   UNL A   1      29.512  25.980  23.605  1.00  0.00     0.046 A 
ATOM     11  H   UNL A   1      29.496  24.043  24.404  1.00  0.00     0.167 HD
ATOM     12  C   UNL A   1      30.524  26.656  22.932  1.00  0.00     0.008 A 
ATOM     13  C   UNL A   1      28.278  26.565  23.902  1.00  0.00     0.030 A 
ATOM     14  C   UNL A   1      30.276  27.984  22.522  1.00  0.00     0.057 A 
ATOM     15  C   UNL A   1      28.065  27.887  23.495  1.00  0.00     0.049 A 
ATOM     16  C   UNL A   1      29.049  28.599  22.810  1.00  0.00     0.130 A 
BRANCH   8  17
ATOM     17  C   UNL A   1      32.001  23.311  23.501  1.00  0.00     0.227 C 
ATOM     18  O   UNL A   1      31.757  22.359  22.769  1.00  0.00    -0.285 OA
BRANCH  17  19
ATOM     19  C   UNL A   1      33.112  23.235  24.524  1.00  0.00     0.113 A 
ATOM     20  C   UNL A   1      35.443  23.058  25.141  1.00  0.00    -0.044 A 
ATOM     21  C   UNL A   1      35.027  23.034  26.475  1.00  0.00     0.024 A 
ATOM     22  C   UNL A   1      34.460  23.196  24.154  1.00  0.00     0.036 A 
ATOM     23  C   UNL A   1      33.674  23.107  26.762  1.00  0.00     0.112 A 
ATOM     24  N   UNL A   1      32.714  23.186  25.821  1.00  0.00    -0.253 NA
BRANCH  20  25
ATOM     25  C   UNL A   1      36.920  22.952  24.840  1.00  0.00     0.032 C 
ATOM     26  C   UNL A   1      37.870  23.570  25.861  1.00  0.00     0.009 C 
ENDBRANCH  20  25
ENDBRANCH  17  19
ENDBRANCH   8  17
BRANCH  16  27
ATOM     27  O   UNL A   1      28.959  29.888  22.367  1.00  0.00    -0.406 OA
BRANCH  27  28
ATOM     28  C   UNL A   1      28.944  30.923  23.335  1.00  0.00     0.573 C 
ATOM     29  F   UNL A   1      29.842  30.684  24.315  1.00  0.00    -0.132 F 
ATOM     30  F   UNL A   1      29.200  32.123  22.771  1.00  0.00    -0.132 F 
ATOM     31  F   UNL A   1      27.715  30.975  23.895  1.00  0.00    -0.132 F 
ENDBRANCH  27  28
ENDBRANCH  16  27
ENDBRANCH   6   7
ENDBRANCH   3   6
ENDBRANCH   1   2
BRANCH   1  32
ATOM     32  C   UNL A   1      32.436  26.911  25.982  1.00  0.00     0.023 C 
BRANCH  32  33
ATOM     33  C   UNL A   1      32.365  28.292  26.640  1.00  0.00     0.023 C 
BRANCH  33  34
ATOM     34  C   UNL A   1      33.598  28.716  27.428  1.00  0.00     0.116 C 
BRANCH  34  35
ATOM     35  N   UNL A   1      33.586  30.118  27.811  1.00  0.00    -0.352 N 
ATOM     36  C   UNL A   1      34.587  30.884  28.353  1.00  0.00     0.251 C 
ATOM     37  H   UNL A   1      32.733  30.587  27.660  1.00  0.00     0.163 HD
ATOM     38  O   UNL A   1      34.352  32.043  28.687  1.00  0.00    -0.269 OA
BRANCH  36  39
ATOM     39  C   UNL A   1      35.936  30.319  28.576  1.00  0.00     0.039 A 
ATOM     40  C   UNL A   1      36.845  30.340  27.512  1.00  0.00     0.014 A 
ATOM     41  C   UNL A   1      36.308  29.752  29.799  1.00  0.00     0.014 A 
ATOM     42  C   UNL A   1      38.140  29.848  27.689  1.00  0.00     0.010 A 
ATOM     43  C   UNL A   1      37.615  29.305  29.990  1.00  0.00     0.010 A 
ATOM     44  C   UNL A   1      38.540  29.350  28.938  1.00  0.00    -0.014 A 
BRANCH  44  45
ATOM     45  C   UNL A   1      39.929  28.882  29.157  1.00  0.00     0.031 A 
ATOM     46  C   UNL A   1      40.949  29.791  29.779  1.00  0.00     0.074 A 
ATOM     47  C   UNL A   1      40.286  27.652  28.745  1.00  0.00     0.049 A 
ATOM     48  N   UNL A   1      42.217  29.566  30.016  1.00  0.00    -0.248 NA
ATOM     49  C   UNL A   1      40.491  31.134  30.169  1.00  0.00     0.031 C 
ATOM     50  C   UNL A   1      39.402  26.687  28.087  1.00  0.00     0.029 A 
ATOM     51  N   UNL A   1      41.492  27.005  28.816  1.00  0.00    -0.354 N 
ATOM     52  C   UNL A   1      42.713  30.742  30.559  1.00  0.00     0.074 A 
ATOM     53  C   UNL A   1      41.616  31.686  30.599  1.00  0.00     0.031 C 
ATOM     54  C   UNL A   1      40.093  25.563  27.832  1.00  0.00     0.029 A 
ATOM     55  C   UNL A   1      41.468  25.738  28.290  1.00  0.00     0.049 A 
ATOM     56  H   UNL A   1      42.300  27.412  29.207  1.00  0.00     0.167 HD
ATOM     57  C   UNL A   1      43.966  31.012  30.995  1.00  0.00     0.031 A 
ATOM     58  C   UNL A   1      42.443  24.817  28.192  1.00  0.00     0.031 A 
ATOM     59  C   UNL A   1      45.056  30.074  30.981  1.00  0.00     0.049 A 
ATOM     60  C   UNL A   1      43.813  25.125  28.718  1.00  0.00     0.074 A 
ATOM     61  C   UNL A   1      46.346  30.243  31.454  1.00  0.00     0.029 A 
ATOM     62  N   UNL A   1      44.980  28.790  30.471  1.00  0.00    -0.354 N 
ATOM     63  N   UNL A   1      44.252  26.225  29.277  1.00  0.00    -0.248 NA
ATOM     64  C   UNL A   1      44.819  24.058  28.608  1.00  0.00     0.031 C 
ATOM     65  C   UNL A   1      47.058  29.061  31.212  1.00  0.00     0.029 A 
ATOM     66  C   UNL A   1      46.202  28.154  30.610  1.00  0.00     0.049 A 
ATOM     67  H   UNL A   1      44.176  28.388  30.069  1.00  0.00     0.167 HD
ATOM     68  C   UNL A   1      45.579  25.980  29.600  1.00  0.00     0.074 A 
ATOM     69  C   UNL A   1      45.871  24.624  29.183  1.00  0.00     0.031 C 
ATOM     70  C   UNL A   1      46.476  26.807  30.189  1.00  0.00     0.031 A 
BRANCH  57  71
ATOM     71  C   UNL A   1      44.222  32.394  31.519  1.00  0.00    -0.014 A 
ATOM     72  C   UNL A   1      44.547  33.446  30.650  1.00  0.00     0.009 A 
ATOM     73  C   UNL A   1      44.120  32.649  32.895  1.00  0.00     0.009 A 
ATOM     74  C   UNL A   1      44.795  34.724  31.153  1.00  0.00     0.001 A 
ATOM     75  C   UNL A   1      44.352  33.932  33.393  1.00  0.00     0.001 A 
ATOM     76  C   UNL A   1      44.695  34.965  32.522  1.00  0.00     0.000 A 
ENDBRANCH  57  71
BRANCH  58  77
ATOM     77  C   UNL A   1      42.148  23.495  27.590  1.00  0.00    -0.014 A 
ATOM     78  C   UNL A   1      41.537  22.492  28.358  1.00  0.00     0.009 A 
ATOM     79  C   UNL A   1      42.469  23.233  26.251  1.00  0.00     0.009 A 
ATOM     80  C   UNL A   1      41.268  21.242  27.798  1.00  0.00     0.001 A 
ATOM     81  C   UNL A   1      42.185  21.986  25.690  1.00  0.00     0.001 A 
ATOM     82  C   UNL A   1      41.591  20.991  26.465  1.00  0.00     0.000 A 
ENDBRANCH  58  77
BRANCH  70  83
ATOM     83  C   UNL A   1      47.846  26.254  30.434  1.00  0.00    -0.014 A 
ATOM     84  C   UNL A   1      48.196  25.728  31.687  1.00  0.00     0.009 A 
ATOM     85  C   UNL A   1      48.789  26.240  29.396  1.00  0.00     0.009 A 
ATOM     86  C   UNL A   1      49.477  25.218  31.902  1.00  0.00     0.001 A 
ATOM     87  C   UNL A   1      50.064  25.716  29.610  1.00  0.00     0.001 A 
ATOM     88  C   UNL A   1      50.409  25.211  30.863  1.00  0.00     0.000 A 
ENDBRANCH  70  83
ENDBRANCH  44  45
ENDBRANCH  36  39
ENDBRANCH  34  35
ENDBRANCH  33  34
ENDBRANCH  32  33
ENDBRANCH   1  32
TORSDOF 17
ENDMDL
