MODEL 1
REMARK VINA RESULT:     -10.1      0.000      0.000
REMARK SMILES CCOC(=O)N[C@H]1C=C[C@H](C(=O)NCCCCNC(=O)c2ccc(-c3c4nc(c(-c5ccccc5)c5ccc([nH]5)c(-c5ccccc5)c5nc(c(-c6ccccc6)c6ccc3[nH]6)C=C5)C=C4)cc2)C1
REMARK SMILES IDX 15 1 14 2 13 3 11 4 12 5 10 7 7 8 8 9 69 10 9 11 6 12 4 13
REMARK SMILES IDX 5 14 3 16 2 17 1 18 16 19 17 20 18 21 19 22 20 24 21 25
REMARK SMILES IDX 22 26 68 27 23 28 67 29 24 30 25 31 26 32 61 33 27 34 66 35
REMARK SMILES IDX 60 36 62 37 28 38 65 39 59 40 58 41 29 43 51 44 36 45 50 46
REMARK SMILES IDX 37 47 40 48 49 49 63 50 38 51 39 52 48 54 64 55 41 56 30 57
REMARK SMILES IDX 31 58 35 59 32 60 34 61 33 62 52 63 53 64 57 65 54 66 56 67
REMARK SMILES IDX 55 68 42 69 43 70 47 71 44 72 46 73 45 74
REMARK H PARENT 13 6 6 15 18 23 62 42 40 53
REMARK Flexibility Score: inf
ROOT
ATOM      1  C   UNL A   1      39.345  22.492  26.446  1.00  0.00     0.023 C 
ENDROOT
BRANCH   1   2
ATOM      2  C   UNL A   1      38.110  23.340  26.125  1.00  0.00     0.116 C 
BRANCH   2   3
ATOM      3  N   UNL A   1      37.778  23.258  24.718  1.00  0.00    -0.356 N 
ATOM      4  C   UNL A   1      36.623  22.848  24.116  1.00  0.00     0.227 C 
ATOM      5  O   UNL A   1      36.611  22.820  22.884  1.00  0.00    -0.274 OA
ATOM      6  H   UNL A   1      38.493  23.540  24.102  1.00  0.00     0.163 HD
BRANCH   4   7
ATOM      7  C   UNL A   1      35.379  22.550  24.971  1.00  0.00     0.103 C 
ATOM      8  C   UNL A   1      34.356  20.335  24.650  1.00  0.00     0.109 C 
ATOM      9  C   UNL A   1      33.558  21.406  23.992  1.00  0.00    -0.006 C 
ATOM     10  C   UNL A   1      35.293  21.135  25.556  1.00  0.00     0.047 C 
ATOM     11  C   UNL A   1      34.117  22.611  24.156  1.00  0.00    -0.016 C 
BRANCH   8  12
ATOM     12  N   UNL A   1      33.482  19.491  25.421  1.00  0.00    -0.315 N 
ATOM     13  C   UNL A   1      32.895  18.338  24.998  1.00  0.00     0.407 C 
ATOM     14  O   UNL A   1      32.154  17.695  25.732  1.00  0.00    -0.225 OA
ATOM     15  H   UNL A   1      33.291  19.774  26.344  1.00  0.00     0.167 HD
BRANCH  13  16
ATOM     16  O   UNL A   1      33.198  18.017  23.717  1.00  0.00    -0.450 OA
BRANCH  16  17
ATOM     17  C   UNL A   1      33.907  16.783  23.536  1.00  0.00     0.231 C 
ATOM     18  C   UNL A   1      34.776  16.455  24.735  1.00  0.00     0.049 C 
ENDBRANCH  16  17
ENDBRANCH  13  16
ENDBRANCH   8  12
ENDBRANCH   4   7
ENDBRANCH   2   3
ENDBRANCH   1   2
BRANCH   1  19
ATOM     19  C   UNL A   1      39.381  21.135  25.749  1.00  0.00     0.023 C 
BRANCH  19  20
ATOM     20  C   UNL A   1      39.979  20.015  26.582  1.00  0.00     0.116 C 
BRANCH  20  21
ATOM     21  N   UNL A   1      41.160  19.426  25.969  1.00  0.00    -0.352 N 
ATOM     22  C   UNL A   1      42.386  20.003  25.744  1.00  0.00     0.251 C 
ATOM     23  H   UNL A   1      41.068  18.491  25.678  1.00  0.00     0.163 HD
ATOM     24  O   UNL A   1      43.234  19.419  25.079  1.00  0.00    -0.269 OA
BRANCH  22  25
ATOM     25  C   UNL A   1      42.659  21.349  26.287  1.00  0.00     0.039 A 
ATOM     26  C   UNL A   1      42.885  22.403  25.401  1.00  0.00     0.014 A 
ATOM     27  C   UNL A   1      42.659  21.571  27.667  1.00  0.00     0.014 A 
ATOM     28  C   UNL A   1      43.060  23.694  25.901  1.00  0.00     0.010 A 
ATOM     29  C   UNL A   1      42.735  22.868  28.156  1.00  0.00     0.010 A 
ATOM     30  C   UNL A   1      42.957  23.940  27.280  1.00  0.00    -0.014 A 
BRANCH  30  31
ATOM     31  C   UNL A   1      43.111  25.308  27.832  1.00  0.00     0.031 A 
ATOM     32  C   UNL A   1      44.479  25.820  28.197  1.00  0.00     0.074 A 
ATOM     33  C   UNL A   1      42.023  26.068  28.055  1.00  0.00     0.049 A 
ATOM     34  N   UNL A   1      44.818  26.974  28.712  1.00  0.00    -0.248 NA
ATOM     35  C   UNL A   1      45.610  24.903  27.982  1.00  0.00     0.031 C 
ATOM     36  C   UNL A   1      40.640  25.675  27.777  1.00  0.00     0.029 A 
ATOM     37  N   UNL A   1      41.912  27.338  28.564  1.00  0.00    -0.354 N 
ATOM     38  C   UNL A   1      46.193  26.909  28.904  1.00  0.00     0.074 A 
ATOM     39  C   UNL A   1      46.615  25.584  28.509  1.00  0.00     0.031 C 
ATOM     40  C   UNL A   1      39.824  26.701  28.072  1.00  0.00     0.029 A 
ATOM     41  C   UNL A   1      40.620  27.803  28.604  1.00  0.00     0.049 A 
ATOM     42  H   UNL A   1      42.684  27.864  28.872  1.00  0.00     0.167 HD
ATOM     43  C   UNL A   1      47.035  27.871  29.350  1.00  0.00     0.031 A 
ATOM     44  C   UNL A   1      40.133  28.987  29.017  1.00  0.00     0.031 A 
ATOM     45  C   UNL A   1      46.615  29.191  29.736  1.00  0.00     0.049 A 
ATOM     46  C   UNL A   1      41.083  30.032  29.533  1.00  0.00     0.074 A 
ATOM     47  C   UNL A   1      47.393  30.261  30.139  1.00  0.00     0.029 A 
ATOM     48  N   UNL A   1      45.295  29.616  29.779  1.00  0.00    -0.354 N 
ATOM     49  N   UNL A   1      42.390  29.986  29.633  1.00  0.00    -0.248 NA
ATOM     50  C   UNL A   1      40.488  31.298  29.983  1.00  0.00     0.031 C 
ATOM     51  C   UNL A   1      46.540  31.312  30.491  1.00  0.00     0.029 A 
ATOM     52  C   UNL A   1      45.235  30.923  30.235  1.00  0.00     0.049 A 
ATOM     53  H   UNL A   1      44.516  29.071  29.522  1.00  0.00     0.167 HD
ATOM     54  C   UNL A   1      42.777  31.229  30.118  1.00  0.00     0.074 A 
ATOM     55  C   UNL A   1      41.566  32.008  30.281  1.00  0.00     0.031 C 
ATOM     56  C   UNL A   1      44.023  31.686  30.395  1.00  0.00     0.031 A 
BRANCH  43  57
ATOM     57  C   UNL A   1      48.493  27.513  29.468  1.00  0.00    -0.014 A 
ATOM     58  C   UNL A   1      49.390  27.716  28.405  1.00  0.00     0.009 A 
ATOM     59  C   UNL A   1      48.978  26.964  30.665  1.00  0.00     0.009 A 
ATOM     60  C   UNL A   1      50.726  27.328  28.521  1.00  0.00     0.001 A 
ATOM     61  C   UNL A   1      50.323  26.611  30.792  1.00  0.00     0.001 A 
ATOM     62  C   UNL A   1      51.193  26.779  29.715  1.00  0.00     0.000 A 
ENDBRANCH  43  57
BRANCH  44  63
ATOM     63  C   UNL A   1      38.675  29.269  28.921  1.00  0.00    -0.014 A 
ATOM     64  C   UNL A   1      37.850  29.113  30.046  1.00  0.00     0.009 A 
ATOM     65  C   UNL A   1      38.100  29.690  27.712  1.00  0.00     0.009 A 
ATOM     66  C   UNL A   1      36.477  29.346  29.955  1.00  0.00     0.001 A 
ATOM     67  C   UNL A   1      36.731  29.953  27.633  1.00  0.00     0.001 A 
ATOM     68  C   UNL A   1      35.919  29.771  28.750  1.00  0.00     0.000 A 
ENDBRANCH  44  63
BRANCH  56  69
ATOM     69  C   UNL A   1      44.146  33.113  30.857  1.00  0.00    -0.014 A 
ATOM     70  C   UNL A   1      44.273  34.175  29.949  1.00  0.00     0.009 A 
ATOM     71  C   UNL A   1      44.097  33.398  32.231  1.00  0.00     0.009 A 
ATOM     72  C   UNL A   1      44.391  35.488  30.410  1.00  0.00     0.001 A 
ATOM     73  C   UNL A   1      44.178  34.714  32.688  1.00  0.00     0.001 A 
ATOM     74  C   UNL A   1      44.338  35.756  31.778  1.00  0.00     0.000 A 
ENDBRANCH  56  69
ENDBRANCH  30  31
ENDBRANCH  22  25
ENDBRANCH  20  21
ENDBRANCH  19  20
ENDBRANCH   1  19
TORSDOF 14
ENDMDL
MODEL 2
REMARK VINA RESULT:     -10.0      5.376     10.012
REMARK SMILES CCOC(=O)N[C@H]1C=C[C@H](C(=O)NCCCCNC(=O)c2ccc(-c3c4nc(c(-c5ccccc5)c5ccc([nH]5)c(-c5ccccc5)c5nc(c(-c6ccccc6)c6ccc3[nH]6)C=C5)C=C4)cc2)C1
REMARK SMILES IDX 15 1 14 2 13 3 11 4 12 5 10 7 7 8 8 9 69 10 9 11 6 12 4 13
REMARK SMILES IDX 5 14 3 16 2 17 1 18 16 19 17 20 18 21 19 22 20 24 21 25
REMARK SMILES IDX 22 26 68 27 23 28 67 29 24 30 25 31 26 32 61 33 27 34 66 35
REMARK SMILES IDX 60 36 62 37 28 38 65 39 59 40 58 41 29 43 51 44 36 45 50 46
REMARK SMILES IDX 37 47 40 48 49 49 63 50 38 51 39 52 48 54 64 55 41 56 30 57
REMARK SMILES IDX 31 58 35 59 32 60 34 61 33 62 52 63 53 64 57 65 54 66 56 67
REMARK SMILES IDX 55 68 42 69 43 70 47 71 44 72 46 73 45 74
REMARK H PARENT 13 6 6 15 18 23 62 42 40 53
REMARK Flexibility Score: inf
ROOT
ATOM      1  C   UNL A   1      34.831  31.147  27.894  1.00  0.00     0.023 C 
ENDROOT
BRANCH   1   2
ATOM      2  C   UNL A   1      34.656  29.727  27.349  1.00  0.00     0.116 C 
BRANCH   2   3
ATOM      3  N   UNL A   1      33.467  29.106  27.896  1.00  0.00    -0.356 N 
ATOM      4  C   UNL A   1      32.451  28.455  27.258  1.00  0.00     0.227 C 
ATOM      5  O   UNL A   1      31.514  28.059  27.954  1.00  0.00    -0.274 OA
ATOM      6  H   UNL A   1      33.378  29.163  28.875  1.00  0.00     0.163 HD
BRANCH   4   7
ATOM      7  C   UNL A   1      32.562  28.150  25.754  1.00  0.00     0.103 C 
ATOM      8  C   UNL A   1      30.619  28.775  24.381  1.00  0.00     0.109 C 
ATOM      9  C   UNL A   1      30.676  27.306  24.609  1.00  0.00    -0.006 C 
ATOM     10  C   UNL A   1      32.014  29.228  24.811  1.00  0.00     0.047 C 
ATOM     11  C   UNL A   1      31.727  26.962  25.364  1.00  0.00    -0.016 C 
BRANCH   8  12
ATOM     12  N   UNL A   1      30.395  29.035  22.984  1.00  0.00    -0.315 N 
ATOM     13  C   UNL A   1      29.527  29.945  22.461  1.00  0.00     0.407 C 
ATOM     14  O   UNL A   1      29.402  30.082  21.250  1.00  0.00    -0.225 OA
ATOM     15  H   UNL A   1      30.921  28.504  22.343  1.00  0.00     0.167 HD
BRANCH  13  16
ATOM     16  O   UNL A   1      28.835  30.632  23.402  1.00  0.00    -0.450 OA
BRANCH  16  17
ATOM     17  C   UNL A   1      28.035  31.719  22.916  1.00  0.00     0.231 C 
ATOM     18  C   UNL A   1      28.779  33.039  22.993  1.00  0.00     0.049 C 
ENDBRANCH  16  17
ENDBRANCH  13  16
ENDBRANCH   8  12
ENDBRANCH   4   7
ENDBRANCH   2   3
ENDBRANCH   1   2
BRANCH   1  19
ATOM     19  C   UNL A   1      33.554  31.983  27.909  1.00  0.00     0.023 C 
BRANCH  19  20
ATOM     20  C   UNL A   1      33.765  33.460  27.627  1.00  0.00     0.116 C 
BRANCH  20  21
ATOM     21  N   UNL A   1      33.227  34.316  28.673  1.00  0.00    -0.352 N 
ATOM     22  C   UNL A   1      33.645  34.442  29.976  1.00  0.00     0.251 C 
ATOM     23  H   UNL A   1      32.463  34.879  28.414  1.00  0.00     0.163 HD
ATOM     24  O   UNL A   1      32.990  35.098  30.778  1.00  0.00    -0.269 OA
BRANCH  22  25
ATOM     25  C   UNL A   1      34.877  33.752  30.406  1.00  0.00     0.039 A 
ATOM     26  C   UNL A   1      34.776  32.672  31.283  1.00  0.00     0.014 A 
ATOM     27  C   UNL A   1      36.123  34.154  29.917  1.00  0.00     0.014 A 
ATOM     28  C   UNL A   1      35.926  31.960  31.631  1.00  0.00     0.010 A 
ATOM     29  C   UNL A   1      37.248  33.386  30.185  1.00  0.00     0.010 A 
ATOM     30  C   UNL A   1      37.166  32.294  31.060  1.00  0.00    -0.014 A 
BRANCH  30  31
ATOM     31  C   UNL A   1      38.396  31.534  31.392  1.00  0.00     0.031 A 
ATOM     32  C   UNL A   1      39.204  31.909  32.605  1.00  0.00     0.074 A 
ATOM     33  C   UNL A   1      38.814  30.547  30.578  1.00  0.00     0.049 A 
ATOM     34  N   UNL A   1      40.318  31.383  33.049  1.00  0.00    -0.248 NA
ATOM     35  C   UNL A   1      38.714  33.041  33.406  1.00  0.00     0.031 C 
ATOM     36  C   UNL A   1      38.139  30.110  29.354  1.00  0.00     0.029 A 
ATOM     37  N   UNL A   1      39.910  29.726  30.663  1.00  0.00    -0.354 N 
ATOM     38  C   UNL A   1      40.669  32.137  34.162  1.00  0.00     0.074 A 
ATOM     39  C   UNL A   1      39.688  33.190  34.289  1.00  0.00     0.031 C 
ATOM     40  C   UNL A   1      38.808  29.070  28.831  1.00  0.00     0.029 A 
ATOM     41  C   UNL A   1      39.982  28.798  29.654  1.00  0.00     0.049 A 
ATOM     42  H   UNL A   1      40.581  29.796  31.380  1.00  0.00     0.167 HD
ATOM     43  C   UNL A   1      41.704  31.958  35.017  1.00  0.00     0.031 A 
ATOM     44  C   UNL A   1      40.891  27.832  29.421  1.00  0.00     0.031 A 
ATOM     45  C   UNL A   1      42.676  30.905  34.893  1.00  0.00     0.049 A 
ATOM     46  C   UNL A   1      42.046  27.669  30.368  1.00  0.00     0.074 A 
ATOM     47  C   UNL A   1      43.724  30.594  35.740  1.00  0.00     0.029 A 
ATOM     48  N   UNL A   1      42.724  29.997  33.846  1.00  0.00    -0.354 N 
ATOM     49  N   UNL A   1      42.322  28.336  31.463  1.00  0.00    -0.248 NA
ATOM     50  C   UNL A   1      43.011  26.606  30.051  1.00  0.00     0.031 C 
ATOM     51  C   UNL A   1      44.448  29.542  35.170  1.00  0.00     0.029 A 
ATOM     52  C   UNL A   1      43.806  29.147  34.007  1.00  0.00     0.049 A 
ATOM     53  H   UNL A   1      42.083  29.960  33.099  1.00  0.00     0.167 HD
ATOM     54  C   UNL A   1      43.467  27.750  31.987  1.00  0.00     0.074 A 
ATOM     55  C   UNL A   1      43.827  26.667  31.094  1.00  0.00     0.031 C 
ATOM     56  C   UNL A   1      44.154  28.074  33.110  1.00  0.00     0.031 A 
BRANCH  43  57
ATOM     57  C   UNL A   1      41.847  32.945  36.144  1.00  0.00    -0.014 A 
ATOM     58  C   UNL A   1      42.610  34.118  36.006  1.00  0.00     0.009 A 
ATOM     59  C   UNL A   1      41.203  32.700  37.368  1.00  0.00     0.009 A 
ATOM     60  C   UNL A   1      42.769  34.992  37.083  1.00  0.00     0.001 A 
ATOM     61  C   UNL A   1      41.333  33.594  38.431  1.00  0.00     0.001 A 
ATOM     62  C   UNL A   1      42.127  34.732  38.294  1.00  0.00     0.000 A 
ENDBRANCH  43  57
BRANCH  44  63
ATOM     63  C   UNL A   1      40.723  26.914  28.262  1.00  0.00    -0.014 A 
ATOM     64  C   UNL A   1      41.322  27.216  27.028  1.00  0.00     0.009 A 
ATOM     65  C   UNL A   1      39.966  25.738  28.378  1.00  0.00     0.009 A 
ATOM     66  C   UNL A   1      41.143  26.375  25.930  1.00  0.00     0.001 A 
ATOM     67  C   UNL A   1      39.816  24.882  27.285  1.00  0.00     0.001 A 
ATOM     68  C   UNL A   1      40.395  25.206  26.060  1.00  0.00     0.000 A 
ENDBRANCH  44  63
BRANCH  56  69
ATOM     69  C   UNL A   1      45.337  27.216  33.466  1.00  0.00    -0.014 A 
ATOM     70  C   UNL A   1      46.637  27.540  33.048  1.00  0.00     0.009 A 
ATOM     71  C   UNL A   1      45.147  26.078  34.267  1.00  0.00     0.009 A 
ATOM     72  C   UNL A   1      47.714  26.720  33.390  1.00  0.00     0.001 A 
ATOM     73  C   UNL A   1      46.229  25.280  34.638  1.00  0.00     0.001 A 
ATOM     74  C   UNL A   1      47.510  25.595  34.189  1.00  0.00     0.000 A 
ENDBRANCH  56  69
ENDBRANCH  30  31
ENDBRANCH  22  25
ENDBRANCH  20  21
ENDBRANCH  19  20
ENDBRANCH   1  19
TORSDOF 14
ENDMDL
MODEL 3
REMARK VINA RESULT:     -10.0      2.503      7.485
REMARK SMILES CCOC(=O)N[C@H]1C=C[C@H](C(=O)NCCCCNC(=O)c2ccc(-c3c4nc(c(-c5ccccc5)c5ccc([nH]5)c(-c5ccccc5)c5nc(c(-c6ccccc6)c6ccc3[nH]6)C=C5)C=C4)cc2)C1
REMARK SMILES IDX 15 1 14 2 13 3 11 4 12 5 10 7 7 8 8 9 69 10 9 11 6 12 4 13
REMARK SMILES IDX 5 14 3 16 2 17 1 18 16 19 17 20 18 21 19 22 20 24 21 25
REMARK SMILES IDX 22 26 68 27 23 28 67 29 24 30 25 31 26 32 61 33 27 34 66 35
REMARK SMILES IDX 60 36 62 37 28 38 65 39 59 40 58 41 29 43 51 44 36 45 50 46
REMARK SMILES IDX 37 47 40 48 49 49 63 50 38 51 39 52 48 54 64 55 41 56 30 57
REMARK SMILES IDX 31 58 35 59 32 60 34 61 33 62 52 63 53 64 57 65 54 66 56 67
REMARK SMILES IDX 55 68 42 69 43 70 47 71 44 72 46 73 45 74
REMARK H PARENT 13 6 6 15 18 23 62 42 40 53
REMARK Flexibility Score: inf
ROOT
ATOM      1  C   UNL A   1      32.356  26.864  25.901  1.00  0.00     0.023 C 
ENDROOT
BRANCH   1   2
ATOM      2  C   UNL A   1      31.181  25.884  25.965  1.00  0.00     0.116 C 
BRANCH   2   3
ATOM      3  N   UNL A   1      31.414  24.861  26.964  1.00  0.00    -0.356 N 
ATOM      4  C   UNL A   1      31.921  23.602  26.822  1.00  0.00     0.227 C 
ATOM      5  O   UNL A   1      31.968  22.899  27.833  1.00  0.00    -0.274 OA
ATOM      6  H   UNL A   1      31.170  25.113  27.884  1.00  0.00     0.163 HD
BRANCH   4   7
ATOM      7  C   UNL A   1      32.499  23.158  25.467  1.00  0.00     0.103 C 
ATOM      8  C   UNL A   1      32.585  20.730  25.075  1.00  0.00     0.109 C 
ATOM      9  C   UNL A   1      33.932  21.281  25.388  1.00  0.00    -0.006 C 
ATOM     10  C   UNL A   1      31.776  21.993  24.781  1.00  0.00     0.047 C 
ATOM     11  C   UNL A   1      33.888  22.600  25.612  1.00  0.00    -0.016 C 
BRANCH   8  12
ATOM     12  N   UNL A   1      32.670  19.884  23.915  1.00  0.00    -0.315 N 
ATOM     13  C   UNL A   1      32.414  18.547  23.871  1.00  0.00     0.407 C 
ATOM     14  O   UNL A   1      32.528  17.912  22.829  1.00  0.00    -0.225 OA
ATOM     15  H   UNL A   1      32.940  20.313  23.071  1.00  0.00     0.167 HD
BRANCH  13  16
ATOM     16  O   UNL A   1      32.056  18.027  25.070  1.00  0.00    -0.450 OA
BRANCH  16  17
ATOM     17  C   UNL A   1      32.977  17.084  25.638  1.00  0.00     0.231 C 
ATOM     18  C   UNL A   1      32.457  15.663  25.535  1.00  0.00     0.049 C 
ENDBRANCH  16  17
ENDBRANCH  13  16
ENDBRANCH   8  12
ENDBRANCH   4   7
ENDBRANCH   2   3
ENDBRANCH   1   2
BRANCH   1  19
ATOM     19  C   UNL A   1      32.275  28.017  26.899  1.00  0.00     0.023 C 
BRANCH  19  20
ATOM     20  C   UNL A   1      33.621  28.554  27.351  1.00  0.00     0.116 C 
BRANCH  20  21
ATOM     21  N   UNL A   1      33.572  29.961  27.717  1.00  0.00    -0.352 N 
ATOM     22  C   UNL A   1      34.553  30.732  28.292  1.00  0.00     0.251 C 
ATOM     23  H   UNL A   1      32.723  30.422  27.528  1.00  0.00     0.163 HD
ATOM     24  O   UNL A   1      34.304  31.869  28.677  1.00  0.00    -0.269 OA
BRANCH  22  25
ATOM     25  C   UNL A   1      35.904  30.164  28.468  1.00  0.00     0.039 A 
ATOM     26  C   UNL A   1      36.821  30.262  27.420  1.00  0.00     0.014 A 
ATOM     27  C   UNL A   1      36.271  29.566  29.676  1.00  0.00     0.014 A 
ATOM     28  C   UNL A   1      38.127  29.804  27.605  1.00  0.00     0.010 A 
ATOM     29  C   UNL A   1      37.593  29.202  29.892  1.00  0.00     0.010 A 
ATOM     30  C   UNL A   1      38.530  29.298  28.853  1.00  0.00    -0.014 A 
BRANCH  30  31
ATOM     31  C   UNL A   1      39.919  28.832  29.082  1.00  0.00     0.031 A 
ATOM     32  C   UNL A   1      40.918  29.747  29.740  1.00  0.00     0.074 A 
ATOM     33  C   UNL A   1      40.298  27.614  28.653  1.00  0.00     0.049 A 
ATOM     34  N   UNL A   1      42.181  29.535  30.006  1.00  0.00    -0.248 NA
ATOM     35  C   UNL A   1      40.441  31.086  30.121  1.00  0.00     0.031 C 
ATOM     36  C   UNL A   1      39.436  26.647  27.971  1.00  0.00     0.029 A 
ATOM     37  N   UNL A   1      41.512  26.978  28.733  1.00  0.00    -0.354 N 
ATOM     38  C   UNL A   1      42.651  30.719  30.560  1.00  0.00     0.074 A 
ATOM     39  C   UNL A   1      41.557  31.663  30.535  1.00  0.00     0.031 C 
ATOM     40  C   UNL A   1      40.133  25.523  27.740  1.00  0.00     0.029 A 
ATOM     41  C   UNL A   1      41.502  25.707  28.214  1.00  0.00     0.049 A 
ATOM     42  H   UNL A   1      42.313  27.394  29.126  1.00  0.00     0.167 HD
ATOM     43  C   UNL A   1      43.878  30.993  31.065  1.00  0.00     0.031 A 
ATOM     44  C   UNL A   1      42.485  24.791  28.133  1.00  0.00     0.031 A 
ATOM     45  C   UNL A   1      44.963  30.050  31.095  1.00  0.00     0.049 A 
ATOM     46  C   UNL A   1      43.846  25.127  28.676  1.00  0.00     0.074 A 
ATOM     47  C   UNL A   1      46.224  30.204  31.642  1.00  0.00     0.029 A 
ATOM     48  N   UNL A   1      44.918  28.779  30.542  1.00  0.00    -0.354 N 
ATOM     49  N   UNL A   1      44.254  26.221  29.271  1.00  0.00    -0.248 NA
ATOM     50  C   UNL A   1      44.880  24.090  28.545  1.00  0.00     0.031 C 
ATOM     51  C   UNL A   1      46.965  29.052  31.360  1.00  0.00     0.029 A 
ATOM     52  C   UNL A   1      46.142  28.150  30.704  1.00  0.00     0.049 A 
ATOM     53  H   UNL A   1      44.133  28.382  30.100  1.00  0.00     0.167 HD
ATOM     54  C   UNL A   1      45.578  25.991  29.622  1.00  0.00     0.074 A 
ATOM     55  C   UNL A   1      45.900  24.649  29.180  1.00  0.00     0.031 C 
ATOM     56  C   UNL A   1      46.448  26.814  30.259  1.00  0.00     0.031 A 
BRANCH  43  57
ATOM     57  C   UNL A   1      44.110  32.382  31.599  1.00  0.00    -0.014 A 
ATOM     58  C   UNL A   1      43.864  32.705  32.944  1.00  0.00     0.009 A 
ATOM     59  C   UNL A   1      44.588  33.384  30.740  1.00  0.00     0.009 A 
ATOM     60  C   UNL A   1      44.039  34.012  33.403  1.00  0.00     0.001 A 
ATOM     61  C   UNL A   1      44.798  34.682  31.210  1.00  0.00     0.001 A 
ATOM     62  C   UNL A   1      44.509  34.999  32.536  1.00  0.00     0.000 A 
ENDBRANCH  43  57
BRANCH  44  63
ATOM     63  C   UNL A   1      42.209  23.450  27.552  1.00  0.00    -0.014 A 
ATOM     64  C   UNL A   1      41.675  22.428  28.353  1.00  0.00     0.009 A 
ATOM     65  C   UNL A   1      42.480  23.180  26.201  1.00  0.00     0.009 A 
ATOM     66  C   UNL A   1      41.443  21.159  27.822  1.00  0.00     0.001 A 
ATOM     67  C   UNL A   1      42.217  21.918  25.665  1.00  0.00     0.001 A 
ATOM     68  C   UNL A   1      41.709  20.906  26.476  1.00  0.00     0.000 A 
ENDBRANCH  44  63
BRANCH  56  69
ATOM     69  C   UNL A   1      47.817  26.268  30.562  1.00  0.00    -0.014 A 
ATOM     70  C   UNL A   1      48.144  25.754  31.825  1.00  0.00     0.009 A 
ATOM     71  C   UNL A   1      48.786  26.238  29.546  1.00  0.00     0.009 A 
ATOM     72  C   UNL A   1      49.425  25.259  32.077  1.00  0.00     0.001 A 
ATOM     73  C   UNL A   1      50.055  25.710  29.789  1.00  0.00     0.001 A 
ATOM     74  C   UNL A   1      50.376  25.233  31.057  1.00  0.00     0.000 A 
ENDBRANCH  56  69
ENDBRANCH  30  31
ENDBRANCH  22  25
ENDBRANCH  20  21
ENDBRANCH  19  20
ENDBRANCH   1  19
TORSDOF 14
ENDMDL
