MODEL 1
REMARK VINA RESULT:     -10.5      0.000      0.000
REMARK SMILES CC(C)N1C[C@@H](C(=O)N[C@@H](C)CC(=O)NCCCCNC(=O)c2ccc(-c3c4nc(c(-c5ccccc5)c5ccc([nH]5)c(-c5ccccc5)c5nc(c(-c6ccccc6)c6ccc3[nH]6)C=C5)C=C4)cc2)CC1=O
REMARK SMILES IDX 16 1 15 2 13 3 14 4 12 6 10 7 11 8 9 9 7 10 8 11 6 13 4 14
REMARK SMILES IDX 5 15 72 16 71 17 73 18 2 19 1 20 3 21 17 22 18 23 19 24
REMARK SMILES IDX 20 25 21 26 22 28 23 29 24 30 70 31 25 32 69 33 26 34 27 35
REMARK SMILES IDX 28 36 63 37 29 38 68 39 62 40 64 41 30 42 67 43 61 44 60 45
REMARK SMILES IDX 31 47 53 48 38 49 52 50 39 51 42 52 51 53 65 54 40 55 41 56
REMARK SMILES IDX 50 58 66 59 43 60 32 61 33 62 37 63 34 64 36 65 35 66 54 67
REMARK SMILES IDX 55 68 59 69 56 70 58 71 57 72 44 73 45 74 49 75 46 76 48 77
REMARK SMILES IDX 47 78
REMARK H PARENT 15 5 9 12 20 27 64 46 42 57
REMARK Flexibility Score: inf
ROOT
ATOM      1  C   UNL A   1      32.844  28.887  23.405  1.00  0.00     0.116 C 
ENDROOT
BRANCH   1   2
ATOM      2  N   UNL A   1      33.459  27.913  22.521  1.00  0.00    -0.356 N 
ATOM      3  C   UNL A   1      33.225  26.574  22.427  1.00  0.00     0.222 C 
ATOM      4  O   UNL A   1      33.995  25.890  21.751  1.00  0.00    -0.275 OA
ATOM      5  H   UNL A   1      34.139  28.269  21.905  1.00  0.00     0.163 HD
BRANCH   3   6
ATOM      6  C   UNL A   1      32.038  25.948  23.129  1.00  0.00     0.124 C 
BRANCH   6   7
ATOM      7  C   UNL A   1      32.365  24.676  23.929  1.00  0.00     0.088 C 
ATOM      8  C   UNL A   1      31.774  23.468  23.193  1.00  0.00     0.031 C 
BRANCH   7   9
ATOM      9  N   UNL A   1      31.780  24.693  25.270  1.00  0.00    -0.353 N 
ATOM     10  C   UNL A   1      32.088  24.053  26.426  1.00  0.00     0.225 C 
ATOM     11  O   UNL A   1      31.279  24.186  27.352  1.00  0.00    -0.275 OA
ATOM     12  H   UNL A   1      31.003  25.292  25.351  1.00  0.00     0.163 HD
BRANCH  10  13
ATOM     13  C   UNL A   1      33.327  23.208  26.644  1.00  0.00     0.107 C 
ATOM     14  N   UNL A   1      35.318  22.509  25.587  1.00  0.00    -0.339 N 
ATOM     15  C   UNL A   1      34.637  23.698  26.056  1.00  0.00     0.133 C 
ATOM     16  C   UNL A   1      34.450  21.423  25.517  1.00  0.00     0.223 C 
ATOM     17  C   UNL A   1      33.129  21.801  26.123  1.00  0.00     0.115 C 
ATOM     18  O   UNL A   1      34.664  20.329  25.032  1.00  0.00    -0.275 OA
BRANCH  14  19
ATOM     19  C   UNL A   1      36.623  22.569  24.897  1.00  0.00     0.078 C 
ATOM     20  C   UNL A   1      36.505  23.022  23.437  1.00  0.00     0.031 C 
ATOM     21  C   UNL A   1      37.638  23.479  25.600  1.00  0.00     0.031 C 
ENDBRANCH  14  19
ENDBRANCH  10  13
ENDBRANCH   7   9
ENDBRANCH   6   7
ENDBRANCH   3   6
ENDBRANCH   1   2
BRANCH   1  22
ATOM     22  C   UNL A   1      33.590  28.946  24.732  1.00  0.00     0.023 C 
BRANCH  22  23
ATOM     23  C   UNL A   1      32.851  29.593  25.888  1.00  0.00     0.023 C 
BRANCH  23  24
ATOM     24  C   UNL A   1      33.553  29.470  27.225  1.00  0.00     0.116 C 
BRANCH  24  25
ATOM     25  N   UNL A   1      33.735  30.746  27.907  1.00  0.00    -0.352 N 
ATOM     26  C   UNL A   1      34.830  31.203  28.605  1.00  0.00     0.251 C 
ATOM     27  H   UNL A   1      32.972  31.364  27.863  1.00  0.00     0.163 HD
ATOM     28  O   UNL A   1      34.794  32.270  29.205  1.00  0.00    -0.269 OA
BRANCH  26  29
ATOM     29  C   UNL A   1      36.035  30.354  28.664  1.00  0.00     0.039 A 
ATOM     30  C   UNL A   1      36.911  30.346  27.578  1.00  0.00     0.014 A 
ATOM     31  C   UNL A   1      36.354  29.673  29.841  1.00  0.00     0.014 A 
ATOM     32  C   UNL A   1      38.163  29.748  27.715  1.00  0.00     0.010 A 
ATOM     33  C   UNL A   1      37.640  29.185  30.014  1.00  0.00     0.010 A 
ATOM     34  C   UNL A   1      38.562  29.224  28.956  1.00  0.00    -0.014 A 
BRANCH  34  35
ATOM     35  C   UNL A   1      39.944  28.738  29.186  1.00  0.00     0.031 A 
ATOM     36  C   UNL A   1      40.987  29.673  29.733  1.00  0.00     0.074 A 
ATOM     37  C   UNL A   1      40.284  27.490  28.807  1.00  0.00     0.049 A 
ATOM     38  N   UNL A   1      42.265  29.466  29.915  1.00  0.00    -0.248 NA
ATOM     39  C   UNL A   1      40.539  31.029  30.088  1.00  0.00     0.031 C 
ATOM     40  C   UNL A   1      39.380  26.508  28.205  1.00  0.00     0.029 A 
ATOM     41  N   UNL A   1      41.493  26.840  28.858  1.00  0.00    -0.354 N 
ATOM     42  C   UNL A   1      42.776  30.671  30.379  1.00  0.00     0.074 A 
ATOM     43  C   UNL A   1      41.684  31.619  30.393  1.00  0.00     0.031 C 
ATOM     44  C   UNL A   1      40.057  25.374  27.966  1.00  0.00     0.029 A 
ATOM     45  C   UNL A   1      41.452  25.564  28.349  1.00  0.00     0.049 A 
ATOM     46  H   UNL A   1      42.310  27.249  29.224  1.00  0.00     0.167 HD
ATOM     47  C   UNL A   1      44.038  30.959  30.775  1.00  0.00     0.031 A 
ATOM     48  C   UNL A   1      42.432  24.653  28.190  1.00  0.00     0.031 A 
ATOM     49  C   UNL A   1      45.119  30.011  30.765  1.00  0.00     0.049 A 
ATOM     50  C   UNL A   1      43.827  24.996  28.628  1.00  0.00     0.074 A 
ATOM     51  C   UNL A   1      46.414  30.178  31.223  1.00  0.00     0.029 A 
ATOM     52  N   UNL A   1      45.033  28.723  30.260  1.00  0.00    -0.354 N 
ATOM     53  N   UNL A   1      44.275  26.109  29.157  1.00  0.00    -0.248 NA
ATOM     54  C   UNL A   1      44.851  23.957  28.453  1.00  0.00     0.031 C 
ATOM     55  C   UNL A   1      47.130  29.014  30.929  1.00  0.00     0.029 A 
ATOM     56  C   UNL A   1      46.265  28.098  30.351  1.00  0.00     0.049 A 
ATOM     57  H   UNL A   1      44.218  28.314  29.890  1.00  0.00     0.167 HD
ATOM     58  C   UNL A   1      45.628  25.901  29.392  1.00  0.00     0.074 A 
ATOM     59  C   UNL A   1      45.922  24.547  28.968  1.00  0.00     0.031 C 
ATOM     60  C   UNL A   1      46.545  26.755  29.909  1.00  0.00     0.031 A 
BRANCH  47  61
ATOM     61  C   UNL A   1      44.313  32.366  31.232  1.00  0.00    -0.014 A 
ATOM     62  C   UNL A   1      44.725  33.363  30.332  1.00  0.00     0.009 A 
ATOM     63  C   UNL A   1      44.148  32.702  32.584  1.00  0.00     0.009 A 
ATOM     64  C   UNL A   1      45.013  34.652  30.786  1.00  0.00     0.001 A 
ATOM     65  C   UNL A   1      44.402  34.000  33.030  1.00  0.00     0.001 A 
ATOM     66  C   UNL A   1      44.848  34.970  32.133  1.00  0.00     0.000 A 
ENDBRANCH  47  61
BRANCH  48  67
ATOM     67  C   UNL A   1      42.120  23.333  27.579  1.00  0.00    -0.014 A 
ATOM     68  C   UNL A   1      41.559  22.302  28.347  1.00  0.00     0.009 A 
ATOM     69  C   UNL A   1      42.363  23.107  26.214  1.00  0.00     0.009 A 
ATOM     70  C   UNL A   1      41.264  21.066  27.765  1.00  0.00     0.001 A 
ATOM     71  C   UNL A   1      42.039  21.881  25.629  1.00  0.00     0.001 A 
ATOM     72  C   UNL A   1      41.497  20.860  26.405  1.00  0.00     0.000 A 
ENDBRANCH  48  67
BRANCH  60  73
ATOM     73  C   UNL A   1      47.952  26.250  30.055  1.00  0.00    -0.014 A 
ATOM     74  C   UNL A   1      48.864  26.324  28.990  1.00  0.00     0.009 A 
ATOM     75  C   UNL A   1      48.387  25.746  31.290  1.00  0.00     0.009 A 
ATOM     76  C   UNL A   1      50.178  25.878  29.154  1.00  0.00     0.001 A 
ATOM     77  C   UNL A   1      49.709  25.331  31.459  1.00  0.00     0.001 A 
ATOM     78  C   UNL A   1      50.600  25.390  30.390  1.00  0.00     0.000 A 
ENDBRANCH  60  73
ENDBRANCH  34  35
ENDBRANCH  26  29
ENDBRANCH  24  25
ENDBRANCH  23  24
ENDBRANCH  22  23
ENDBRANCH   1  22
TORSDOF 15
ENDMDL
MODEL 2
REMARK VINA RESULT:     -10.5      2.616      4.164
REMARK SMILES CC(C)N1C[C@@H](C(=O)N[C@@H](C)CC(=O)NCCCCNC(=O)c2ccc(-c3c4nc(c(-c5ccccc5)c5ccc([nH]5)c(-c5ccccc5)c5nc(c(-c6ccccc6)c6ccc3[nH]6)C=C5)C=C4)cc2)CC1=O
REMARK SMILES IDX 16 1 15 2 13 3 14 4 12 6 10 7 11 8 9 9 7 10 8 11 6 13 4 14
REMARK SMILES IDX 5 15 72 16 71 17 73 18 2 19 1 20 3 21 17 22 18 23 19 24
REMARK SMILES IDX 20 25 21 26 22 28 23 29 24 30 70 31 25 32 69 33 26 34 27 35
REMARK SMILES IDX 28 36 63 37 29 38 68 39 62 40 64 41 30 42 67 43 61 44 60 45
REMARK SMILES IDX 31 47 53 48 38 49 52 50 39 51 42 52 51 53 65 54 40 55 41 56
REMARK SMILES IDX 50 58 66 59 43 60 32 61 33 62 37 63 34 64 36 65 35 66 54 67
REMARK SMILES IDX 55 68 59 69 56 70 58 71 57 72 44 73 45 74 49 75 46 76 48 77
REMARK SMILES IDX 47 78
REMARK H PARENT 15 5 9 12 20 27 64 46 42 57
REMARK Flexibility Score: inf
ROOT
ATOM      1  C   UNL A   1      33.434  29.073  26.576  1.00  0.00     0.116 C 
ENDROOT
BRANCH   1   2
ATOM      2  N   UNL A   1      33.640  29.472  25.196  1.00  0.00    -0.356 N 
ATOM      3  C   UNL A   1      33.115  28.930  24.061  1.00  0.00     0.222 C 
ATOM      4  O   UNL A   1      33.572  29.289  22.975  1.00  0.00    -0.275 OA
ATOM      5  H   UNL A   1      34.241  30.239  25.061  1.00  0.00     0.163 HD
BRANCH   3   6
ATOM      6  C   UNL A   1      31.990  27.920  24.138  1.00  0.00     0.124 C 
BRANCH   6   7
ATOM      7  C   UNL A   1      31.152  27.794  22.855  1.00  0.00     0.088 C 
ATOM      8  C   UNL A   1      29.851  27.056  23.187  1.00  0.00     0.031 C 
BRANCH   7   9
ATOM      9  N   UNL A   1      31.834  27.020  21.816  1.00  0.00    -0.353 N 
ATOM     10  C   UNL A   1      32.602  25.903  21.845  1.00  0.00     0.225 C 
ATOM     11  O   UNL A   1      33.153  25.595  20.781  1.00  0.00    -0.275 OA
ATOM     12  H   UNL A   1      31.708  27.384  20.910  1.00  0.00     0.163 HD
BRANCH  10  13
ATOM     13  C   UNL A   1      32.823  25.034  23.067  1.00  0.00     0.107 C 
ATOM     14  N   UNL A   1      34.352  23.511  24.021  1.00  0.00    -0.339 N 
ATOM     15  C   UNL A   1      34.239  24.889  23.592  1.00  0.00     0.133 C 
ATOM     16  C   UNL A   1      33.309  22.737  23.519  1.00  0.00     0.223 C 
ATOM     17  C   UNL A   1      32.308  23.629  22.841  1.00  0.00     0.115 C 
ATOM     18  O   UNL A   1      33.187  21.528  23.570  1.00  0.00    -0.275 OA
BRANCH  14  19
ATOM     19  C   UNL A   1      35.611  22.954  24.555  1.00  0.00     0.078 C 
ATOM     20  C   UNL A   1      36.663  22.708  23.467  1.00  0.00     0.031 C 
ATOM     21  C   UNL A   1      36.246  23.826  25.646  1.00  0.00     0.031 C 
ENDBRANCH  14  19
ENDBRANCH  10  13
ENDBRANCH   7   9
ENDBRANCH   6   7
ENDBRANCH   3   6
ENDBRANCH   1   2
BRANCH   1  22
ATOM     22  C   UNL A   1      32.199  29.758  27.150  1.00  0.00     0.023 C 
BRANCH  22  23
ATOM     23  C   UNL A   1      32.032  31.229  26.814  1.00  0.00     0.023 C 
BRANCH  23  24
ATOM     24  C   UNL A   1      33.123  32.122  27.368  1.00  0.00     0.116 C 
BRANCH  24  25
ATOM     25  N   UNL A   1      32.667  33.470  27.687  1.00  0.00    -0.352 N 
ATOM     26  C   UNL A   1      33.240  34.400  28.524  1.00  0.00     0.251 C 
ATOM     27  H   UNL A   1      31.836  33.754  27.242  1.00  0.00     0.163 HD
ATOM     28  O   UNL A   1      32.681  35.464  28.761  1.00  0.00    -0.269 OA
BRANCH  26  29
ATOM     29  C   UNL A   1      34.518  34.066  29.180  1.00  0.00     0.039 A 
ATOM     30  C   UNL A   1      34.496  33.382  30.396  1.00  0.00     0.014 A 
ATOM     31  C   UNL A   1      35.727  34.317  28.526  1.00  0.00     0.014 A 
ATOM     32  C   UNL A   1      35.682  32.849  30.901  1.00  0.00     0.010 A 
ATOM     33  C   UNL A   1      36.880  33.687  28.968  1.00  0.00     0.010 A 
ATOM     34  C   UNL A   1      36.869  32.939  30.156  1.00  0.00    -0.014 A 
BRANCH  34  35
ATOM     35  C   UNL A   1      38.105  32.237  30.576  1.00  0.00     0.031 A 
ATOM     36  C   UNL A   1      39.046  32.891  31.549  1.00  0.00     0.074 A 
ATOM     37  C   UNL A   1      38.431  31.060  30.006  1.00  0.00     0.049 A 
ATOM     38  N   UNL A   1      40.217  32.484  31.965  1.00  0.00    -0.248 NA
ATOM     39  C   UNL A   1      38.631  34.193  32.098  1.00  0.00     0.031 C 
ATOM     40  C   UNL A   1      37.635  30.352  29.000  1.00  0.00     0.029 A 
ATOM     41  N   UNL A   1      39.533  30.258  30.178  1.00  0.00    -0.354 N 
ATOM     42  C   UNL A   1      40.687  33.488  32.801  1.00  0.00     0.074 A 
ATOM     43  C   UNL A   1      39.705  34.549  32.785  1.00  0.00     0.031 C 
ATOM     44  C   UNL A   1      38.259  29.212  28.666  1.00  0.00     0.029 A 
ATOM     45  C   UNL A   1      39.523  29.133  29.391  1.00  0.00     0.049 A 
ATOM     46  H   UNL A   1      40.261  30.471  30.806  1.00  0.00     0.167 HD
ATOM     47  C   UNL A   1      41.827  33.518  33.531  1.00  0.00     0.031 A 
ATOM     48  C   UNL A   1      40.436  28.152  29.252  1.00  0.00     0.031 A 
ATOM     49  C   UNL A   1      42.797  32.457  33.548  1.00  0.00     0.049 A 
ATOM     50  C   UNL A   1      41.698  28.209  30.066  1.00  0.00     0.074 A 
ATOM     51  C   UNL A   1      43.943  32.353  34.315  1.00  0.00     0.029 A 
ATOM     52  N   UNL A   1      42.741  31.324  32.751  1.00  0.00    -0.354 N 
ATOM     53  N   UNL A   1      42.084  29.119  30.927  1.00  0.00    -0.248 NA
ATOM     54  C   UNL A   1      42.648  27.102  29.892  1.00  0.00     0.031 C 
ATOM     55  C   UNL A   1      44.618  31.190  33.931  1.00  0.00     0.029 A 
ATOM     56  C   UNL A   1      43.857  30.536  32.973  1.00  0.00     0.049 A 
ATOM     57  H   UNL A   1      42.016  31.113  32.119  1.00  0.00     0.167 HD
ATOM     58  C   UNL A   1      43.313  28.689  31.410  1.00  0.00     0.074 A 
ATOM     59  C   UNL A   1      43.597  27.425  30.761  1.00  0.00     0.031 C 
ATOM     60  C   UNL A   1      44.133  29.289  32.307  1.00  0.00     0.031 A 
BRANCH  47  61
ATOM     61  C   UNL A   1      42.086  34.751  34.353  1.00  0.00    -0.014 A 
ATOM     62  C   UNL A   1      41.650  34.851  35.684  1.00  0.00     0.009 A 
ATOM     63  C   UNL A   1      42.788  35.827  33.788  1.00  0.00     0.009 A 
ATOM     64  C   UNL A   1      41.867  36.021  36.416  1.00  0.00     0.001 A 
ATOM     65  C   UNL A   1      43.036  36.981  34.532  1.00  0.00     0.001 A 
ATOM     66  C   UNL A   1      42.563  37.084  35.839  1.00  0.00     0.000 A 
ENDBRANCH  47  61
BRANCH  48  67
ATOM     67  C   UNL A   1      40.186  27.040  28.297  1.00  0.00    -0.014 A 
ATOM     68  C   UNL A   1      40.693  27.090  26.990  1.00  0.00     0.009 A 
ATOM     69  C   UNL A   1      39.453  25.910  28.697  1.00  0.00     0.009 A 
ATOM     70  C   UNL A   1      40.457  26.039  26.099  1.00  0.00     0.001 A 
ATOM     71  C   UNL A   1      39.246  24.849  27.814  1.00  0.00     0.001 A 
ATOM     72  C   UNL A   1      39.742  24.917  26.515  1.00  0.00     0.000 A 
ENDBRANCH  48  67
BRANCH  60  73
ATOM     73  C   UNL A   1      45.415  28.581  32.649  1.00  0.00    -0.014 A 
ATOM     74  C   UNL A   1      45.467  27.632  33.681  1.00  0.00     0.009 A 
ATOM     75  C   UNL A   1      46.569  28.826  31.889  1.00  0.00     0.009 A 
ATOM     76  C   UNL A   1      46.660  26.962  33.963  1.00  0.00     0.001 A 
ATOM     77  C   UNL A   1      47.750  28.131  32.153  1.00  0.00     0.001 A 
ATOM     78  C   UNL A   1      47.797  27.206  33.194  1.00  0.00     0.000 A 
ENDBRANCH  60  73
ENDBRANCH  34  35
ENDBRANCH  26  29
ENDBRANCH  24  25
ENDBRANCH  23  24
ENDBRANCH  22  23
ENDBRANCH   1  22
TORSDOF 15
ENDMDL
MODEL 3
REMARK VINA RESULT:     -10.4      3.681      7.687
REMARK SMILES CC(C)N1C[C@@H](C(=O)N[C@@H](C)CC(=O)NCCCCNC(=O)c2ccc(-c3c4nc(c(-c5ccccc5)c5ccc([nH]5)c(-c5ccccc5)c5nc(c(-c6ccccc6)c6ccc3[nH]6)C=C5)C=C4)cc2)CC1=O
REMARK SMILES IDX 16 1 15 2 13 3 14 4 12 6 10 7 11 8 9 9 7 10 8 11 6 13 4 14
REMARK SMILES IDX 5 15 72 16 71 17 73 18 2 19 1 20 3 21 17 22 18 23 19 24
REMARK SMILES IDX 20 25 21 26 22 28 23 29 24 30 70 31 25 32 69 33 26 34 27 35
REMARK SMILES IDX 28 36 63 37 29 38 68 39 62 40 64 41 30 42 67 43 61 44 60 45
REMARK SMILES IDX 31 47 53 48 38 49 52 50 39 51 42 52 51 53 65 54 40 55 41 56
REMARK SMILES IDX 50 58 66 59 43 60 32 61 33 62 37 63 34 64 36 65 35 66 54 67
REMARK SMILES IDX 55 68 59 69 56 70 58 71 57 72 44 73 45 74 49 75 46 76 48 77
REMARK SMILES IDX 47 78
REMARK H PARENT 15 5 9 12 20 27 64 46 42 57
REMARK Flexibility Score: inf
ROOT
ATOM      1  C   UNL A   1      33.165  30.197  26.575  1.00  0.00     0.116 C 
ENDROOT
BRANCH   1   2
ATOM      2  N   UNL A   1      33.453  29.767  25.220  1.00  0.00    -0.356 N 
ATOM      3  C   UNL A   1      33.853  28.542  24.776  1.00  0.00     0.222 C 
ATOM      4  O   UNL A   1      34.238  28.437  23.610  1.00  0.00    -0.275 OA
ATOM      5  H   UNL A   1      33.345  30.455  24.524  1.00  0.00     0.163 HD
BRANCH   3   6
ATOM      6  C   UNL A   1      33.813  27.339  25.695  1.00  0.00     0.124 C 
BRANCH   6   7
ATOM      7  C   UNL A   1      33.006  26.147  25.155  1.00  0.00     0.088 C 
ATOM      8  C   UNL A   1      33.219  24.947  26.085  1.00  0.00     0.031 C 
BRANCH   7   9
ATOM      9  N   UNL A   1      33.440  25.738  23.818  1.00  0.00    -0.353 N 
ATOM     10  C   UNL A   1      32.793  25.600  22.633  1.00  0.00     0.225 C 
ATOM     11  O   UNL A   1      33.443  25.081  21.717  1.00  0.00    -0.275 OA
ATOM     12  H   UNL A   1      34.398  25.519  23.767  1.00  0.00     0.163 HD
BRANCH  10  13
ATOM     13  C   UNL A   1      31.362  26.026  22.373  1.00  0.00     0.107 C 
ATOM     14  N   UNL A   1      29.740  27.609  23.028  1.00  0.00    -0.339 N 
ATOM     15  C   UNL A   1      31.043  27.509  22.407  1.00  0.00     0.133 C 
ATOM     16  C   UNL A   1      29.389  26.422  23.664  1.00  0.00     0.223 C 
ATOM     17  C   UNL A   1      30.408  25.365  23.343  1.00  0.00     0.115 C 
ATOM     18  O   UNL A   1      28.438  26.220  24.394  1.00  0.00    -0.275 OA
BRANCH  14  19
ATOM     19  C   UNL A   1      29.090  28.910  23.291  1.00  0.00     0.078 C 
ATOM     20  C   UNL A   1      30.098  30.039  23.537  1.00  0.00     0.031 C 
ATOM     21  C   UNL A   1      28.140  29.351  22.171  1.00  0.00     0.031 C 
ENDBRANCH  14  19
ENDBRANCH  10  13
ENDBRANCH   7   9
ENDBRANCH   6   7
ENDBRANCH   3   6
ENDBRANCH   1   2
BRANCH   1  22
ATOM     22  C   UNL A   1      31.674  30.467  26.742  1.00  0.00     0.023 C 
BRANCH  22  23
ATOM     23  C   UNL A   1      31.258  31.926  26.788  1.00  0.00     0.023 C 
BRANCH  23  24
ATOM     24  C   UNL A   1      32.408  32.905  26.670  1.00  0.00     0.116 C 
BRANCH  24  25
ATOM     25  N   UNL A   1      32.274  34.068  27.539  1.00  0.00    -0.352 N 
ATOM     26  C   UNL A   1      33.089  34.473  28.572  1.00  0.00     0.251 C 
ATOM     27  H   UNL A   1      31.495  34.643  27.364  1.00  0.00     0.163 HD
ATOM     28  O   UNL A   1      32.789  35.431  29.273  1.00  0.00    -0.269 OA
BRANCH  26  29
ATOM     29  C   UNL A   1      34.309  33.693  28.856  1.00  0.00     0.039 A 
ATOM     30  C   UNL A   1      35.555  34.283  28.639  1.00  0.00     0.014 A 
ATOM     31  C   UNL A   1      34.212  32.435  29.454  1.00  0.00     0.014 A 
ATOM     32  C   UNL A   1      36.701  33.657  29.129  1.00  0.00     0.010 A 
ATOM     33  C   UNL A   1      35.336  31.875  30.042  1.00  0.00     0.010 A 
ATOM     34  C   UNL A   1      36.592  32.484  29.893  1.00  0.00    -0.014 A 
BRANCH  34  35
ATOM     35  C   UNL A   1      37.766  31.888  30.574  1.00  0.00     0.031 A 
ATOM     36  C   UNL A   1      38.561  30.810  29.892  1.00  0.00     0.074 A 
ATOM     37  C   UNL A   1      38.054  32.242  31.842  1.00  0.00     0.049 A 
ATOM     38  N   UNL A   1      39.558  30.102  30.356  1.00  0.00    -0.248 NA
ATOM     39  C   UNL A   1      38.159  30.457  28.521  1.00  0.00     0.031 C 
ATOM     40  C   UNL A   1      37.319  33.230  32.637  1.00  0.00     0.029 A 
ATOM     41  N   UNL A   1      39.035  31.796  32.694  1.00  0.00    -0.354 N 
ATOM     42  C   UNL A   1      39.882  29.206  29.346  1.00  0.00     0.074 A 
ATOM     43  C   UNL A   1      38.940  29.418  28.270  1.00  0.00     0.031 C 
ATOM     44  C   UNL A   1      37.889  33.333  33.847  1.00  0.00     0.029 A 
ATOM     45  C   UNL A   1      38.994  32.385  33.935  1.00  0.00     0.049 A 
ATOM     46  H   UNL A   1      39.702  31.120  32.439  1.00  0.00     0.167 HD
ATOM     47  C   UNL A   1      40.887  28.299  29.308  1.00  0.00     0.031 A 
ATOM     48  C   UNL A   1      39.751  32.174  35.029  1.00  0.00     0.031 A 
ATOM     49  C   UNL A   1      41.826  28.096  30.379  1.00  0.00     0.049 A 
ATOM     50  C   UNL A   1      40.855  31.156  34.969  1.00  0.00     0.074 A 
ATOM     51  C   UNL A   1      42.929  27.262  30.408  1.00  0.00     0.029 A 
ATOM     52  N   UNL A   1      41.763  28.726  31.612  1.00  0.00    -0.354 N 
ATOM     53  N   UNL A   1      41.212  30.385  33.971  1.00  0.00    -0.248 NA
ATOM     54  C   UNL A   1      41.663  30.984  36.184  1.00  0.00     0.031 C 
ATOM     55  C   UNL A   1      43.492  27.334  31.686  1.00  0.00     0.029 A 
ATOM     56  C   UNL A   1      42.781  28.264  32.429  1.00  0.00     0.049 A 
ATOM     57  H   UNL A   1      41.094  29.400  31.869  1.00  0.00     0.167 HD
ATOM     58  C   UNL A   1      42.294  29.646  34.430  1.00  0.00     0.074 A 
ATOM     59  C   UNL A   1      42.549  30.079  35.789  1.00  0.00     0.031 C 
ATOM     60  C   UNL A   1      43.011  28.693  33.785  1.00  0.00     0.031 A 
BRANCH  47  61
ATOM     61  C   UNL A   1      41.001  27.447  28.074  1.00  0.00    -0.014 A 
ATOM     62  C   UNL A   1      41.761  27.856  26.966  1.00  0.00     0.009 A 
ATOM     63  C   UNL A   1      40.343  26.208  28.022  1.00  0.00     0.009 A 
ATOM     64  C   UNL A   1      41.819  27.067  25.815  1.00  0.00     0.001 A 
ATOM     65  C   UNL A   1      40.432  25.404  26.884  1.00  0.00     0.001 A 
ATOM     66  C   UNL A   1      41.157  25.841  25.777  1.00  0.00     0.000 A 
ENDBRANCH  47  61
BRANCH  48  67
ATOM     67  C   UNL A   1      39.478  32.941  36.273  1.00  0.00    -0.014 A 
ATOM     68  C   UNL A   1      40.153  34.142  36.538  1.00  0.00     0.009 A 
ATOM     69  C   UNL A   1      38.522  32.483  37.195  1.00  0.00     0.009 A 
ATOM     70  C   UNL A   1      39.888  34.860  37.708  1.00  0.00     0.001 A 
ATOM     71  C   UNL A   1      38.237  33.218  38.348  1.00  0.00     0.001 A 
ATOM     72  C   UNL A   1      38.925  34.401  38.607  1.00  0.00     0.000 A 
ENDBRANCH  48  67
BRANCH  60  73
ATOM     73  C   UNL A   1      44.146  28.057  34.537  1.00  0.00    -0.014 A 
ATOM     74  C   UNL A   1      43.955  26.885  35.285  1.00  0.00     0.009 A 
ATOM     75  C   UNL A   1      45.434  28.607  34.449  1.00  0.00     0.009 A 
ATOM     76  C   UNL A   1      45.029  26.291  35.952  1.00  0.00     0.001 A 
ATOM     77  C   UNL A   1      46.511  27.993  35.091  1.00  0.00     0.001 A 
ATOM     78  C   UNL A   1      46.306  26.841  35.847  1.00  0.00     0.000 A 
ENDBRANCH  60  73
ENDBRANCH  34  35
ENDBRANCH  26  29
ENDBRANCH  24  25
ENDBRANCH  23  24
ENDBRANCH  22  23
ENDBRANCH   1  22
TORSDOF 15
ENDMDL
