MODEL 1
REMARK VINA RESULT:     -10.8      0.000      0.000
REMARK SMILES CS(=O)(=O)Nc1cc(NS(C)(=O)=O)cc(C(=O)NCCCCNC(=O)c2ccc(-c3c4nc(c(-c5ccccc5)c5ccc([nH]5)c(-c5ccccc5)c5nc(c(-c6ccccc6)c6ccc3[nH]6)C=C5)C=C4)cc2)c1
REMARK SMILES IDX 20 1 19 2 18 3 16 4 17 5 15 7 6 8 7 9 74 10 8 11 14 12 5 13
REMARK SMILES IDX 2 15 1 16 3 17 4 18 9 19 10 21 11 22 12 23 13 24 21 25 22 26
REMARK SMILES IDX 23 27 24 28 25 30 26 31 27 32 73 33 28 34 72 35 29 36 30 37
REMARK SMILES IDX 31 38 66 39 32 40 71 41 65 42 67 43 33 44 70 45 64 46 63 47
REMARK SMILES IDX 34 49 56 50 41 51 55 52 42 53 45 54 54 55 68 56 43 57 44 58
REMARK SMILES IDX 53 60 69 61 46 62 35 63 36 64 40 65 37 66 39 67 38 68 57 69
REMARK SMILES IDX 58 70 62 71 59 72 61 73 60 74 47 75 48 76 52 77 49 78 51 79
REMARK SMILES IDX 50 80
REMARK H PARENT 18 6 5 14 9 20 23 29 67 48 45 59
REMARK Flexibility Score: inf
ROOT
ATOM      1  C   UNL A   1      37.116  21.573  24.548  1.00  0.00     0.023 C 
ENDROOT
BRANCH   1   2
ATOM      2  C   UNL A   1      36.692  22.412  25.753  1.00  0.00     0.116 C 
BRANCH   2   3
ATOM      3  N   UNL A   1      35.595  21.782  26.459  1.00  0.00    -0.352 N 
ATOM      4  C   UNL A   1      34.249  22.036  26.525  1.00  0.00     0.251 C 
ATOM      5  O   UNL A   1      33.574  21.282  27.228  1.00  0.00    -0.269 OA
ATOM      6  H   UNL A   1      35.872  21.012  27.005  1.00  0.00     0.163 HD
BRANCH   4   7
ATOM      7  C   UNL A   1      33.552  23.103  25.748  1.00  0.00     0.043 A 
ATOM      8  C   UNL A   1      32.754  24.105  23.700  1.00  0.00     0.051 A 
ATOM      9  C   UNL A   1      31.923  24.953  24.434  1.00  0.00     0.053 A 
ATOM     10  C   UNL A   1      33.638  23.266  24.368  1.00  0.00     0.040 A 
ATOM     11  C   UNL A   1      31.997  24.983  25.824  1.00  0.00     0.051 A 
ATOM     12  C   UNL A   1      32.739  23.992  26.471  1.00  0.00     0.040 A 
BRANCH   8  13
ATOM     13  N   UNL A   1      32.649  24.151  22.284  1.00  0.00    -0.284 N 
ATOM     14  H   UNL A   1      32.402  23.316  21.823  1.00  0.00     0.180 HD
BRANCH  13  15
ATOM     15  S   UNL A   1      32.906  25.498  21.337  1.00  0.00     0.229 S 
ATOM     16  C   UNL A   1      31.439  26.485  21.588  1.00  0.00     0.183 C 
ATOM     17  O   UNL A   1      32.954  25.100  19.947  1.00  0.00    -0.207 OA
ATOM     18  O   UNL A   1      34.017  26.195  21.948  1.00  0.00    -0.207 OA
ENDBRANCH  13  15
ENDBRANCH   8  13
BRANCH  11  19
ATOM     19  N   UNL A   1      31.192  25.853  26.640  1.00  0.00    -0.284 N 
ATOM     20  H   UNL A   1      30.443  25.487  27.162  1.00  0.00     0.180 HD
BRANCH  19  21
ATOM     21  S   UNL A   1      31.542  27.520  26.696  1.00  0.00     0.229 S 
ATOM     22  C   UNL A   1      33.311  27.449  26.555  1.00  0.00     0.183 C 
ATOM     23  O   UNL A   1      31.014  28.083  25.469  1.00  0.00    -0.207 OA
ATOM     24  O   UNL A   1      31.229  28.085  27.986  1.00  0.00    -0.207 OA
ENDBRANCH  19  21
ENDBRANCH  11  19
ENDBRANCH   4   7
ENDBRANCH   2   3
ENDBRANCH   1   2
BRANCH   1  25
ATOM     25  C   UNL A   1      37.895  20.315  24.933  1.00  0.00     0.023 C 
BRANCH  25  26
ATOM     26  C   UNL A   1      39.127  20.572  25.793  1.00  0.00     0.116 C 
BRANCH  26  27
ATOM     27  N   UNL A   1      40.099  19.489  25.763  1.00  0.00    -0.352 N 
ATOM     28  C   UNL A   1      41.431  19.541  26.098  1.00  0.00     0.251 C 
ATOM     29  H   UNL A   1      39.762  18.612  25.467  1.00  0.00     0.163 HD
ATOM     30  O   UNL A   1      42.165  18.572  25.939  1.00  0.00    -0.269 OA
BRANCH  28  31
ATOM     31  C   UNL A   1      41.979  20.811  26.611  1.00  0.00     0.039 A 
ATOM     32  C   UNL A   1      42.434  21.764  25.700  1.00  0.00     0.014 A 
ATOM     33  C   UNL A   1      41.949  21.087  27.981  1.00  0.00     0.014 A 
ATOM     34  C   UNL A   1      42.793  23.030  26.160  1.00  0.00     0.010 A 
ATOM     35  C   UNL A   1      42.219  22.377  28.423  1.00  0.00     0.010 A 
ATOM     36  C   UNL A   1      42.644  23.360  27.519  1.00  0.00    -0.014 A 
BRANCH  36  37
ATOM     37  C   UNL A   1      42.913  24.738  28.001  1.00  0.00     0.031 A 
ATOM     38  C   UNL A   1      44.312  25.160  28.350  1.00  0.00     0.074 A 
ATOM     39  C   UNL A   1      41.886  25.590  28.183  1.00  0.00     0.049 A 
ATOM     40  N   UNL A   1      44.738  26.314  28.797  1.00  0.00    -0.248 NA
ATOM     41  C   UNL A   1      45.367  24.144  28.207  1.00  0.00     0.031 C 
ATOM     42  C   UNL A   1      40.475  25.283  27.936  1.00  0.00     0.029 A 
ATOM     43  N   UNL A   1      41.871  26.892  28.616  1.00  0.00    -0.354 N 
ATOM     44  C   UNL A   1      46.102  26.157  29.002  1.00  0.00     0.074 A 
ATOM     45  C   UNL A   1      46.422  24.782  28.690  1.00  0.00     0.031 C 
ATOM     46  C   UNL A   1      39.738  26.376  28.186  1.00  0.00     0.029 A 
ATOM     47  C   UNL A   1      40.614  27.446  28.651  1.00  0.00     0.049 A 
ATOM     48  H   UNL A   1      42.683  27.382  28.878  1.00  0.00     0.167 HD
ATOM     49  C   UNL A   1      47.013  27.080  29.393  1.00  0.00     0.031 A 
ATOM     50  C   UNL A   1      40.210  28.676  29.020  1.00  0.00     0.031 A 
ATOM     51  C   UNL A   1      46.690  28.447  29.705  1.00  0.00     0.049 A 
ATOM     52  C   UNL A   1      41.235  29.682  29.460  1.00  0.00     0.074 A 
ATOM     53  C   UNL A   1      47.549  29.479  30.044  1.00  0.00     0.029 A 
ATOM     54  N   UNL A   1      45.406  28.970  29.728  1.00  0.00    -0.354 N 
ATOM     55  N   UNL A   1      42.536  29.547  29.559  1.00  0.00    -0.248 NA
ATOM     56  C   UNL A   1      40.738  31.015  29.827  1.00  0.00     0.031 C 
ATOM     57  C   UNL A   1      46.776  30.606  30.342  1.00  0.00     0.029 A 
ATOM     58  C   UNL A   1      45.444  30.300  30.115  1.00  0.00     0.049 A 
ATOM     59  H   UNL A   1      44.588  28.471  29.501  1.00  0.00     0.167 HD
ATOM     60  C   UNL A   1      43.015  30.781  29.979  1.00  0.00     0.074 A 
ATOM     61  C   UNL A   1      41.867  31.657  30.093  1.00  0.00     0.031 C 
ATOM     62  C   UNL A   1      44.292  31.155  30.243  1.00  0.00     0.031 A 
BRANCH  49  63
ATOM     63  C   UNL A   1      48.441  26.624  29.530  1.00  0.00    -0.014 A 
ATOM     64  C   UNL A   1      48.923  26.067  30.727  1.00  0.00     0.009 A 
ATOM     65  C   UNL A   1      49.318  26.744  28.440  1.00  0.00     0.009 A 
ATOM     66  C   UNL A   1      50.263  25.690  30.844  1.00  0.00     0.001 A 
ATOM     67  C   UNL A   1      50.647  26.333  28.550  1.00  0.00     0.001 A 
ATOM     68  C   UNL A   1      51.122  25.820  29.755  1.00  0.00     0.000 A 
ENDBRANCH  49  63
BRANCH  50  69
ATOM     69  C   UNL A   1      38.765  29.023  28.970  1.00  0.00    -0.014 A 
ATOM     70  C   UNL A   1      37.972  28.956  30.126  1.00  0.00     0.009 A 
ATOM     71  C   UNL A   1      38.174  29.443  27.767  1.00  0.00     0.009 A 
ATOM     72  C   UNL A   1      36.615  29.283  30.074  1.00  0.00     0.001 A 
ATOM     73  C   UNL A   1      36.826  29.801  27.725  1.00  0.00     0.001 A 
ATOM     74  C   UNL A   1      36.045  29.713  28.876  1.00  0.00     0.000 A 
ENDBRANCH  50  69
BRANCH  62  75
ATOM     75  C   UNL A   1      44.517  32.583  30.662  1.00  0.00    -0.014 A 
ATOM     76  C   UNL A   1      44.599  32.945  32.016  1.00  0.00     0.009 A 
ATOM     77  C   UNL A   1      44.685  33.575  29.684  1.00  0.00     0.009 A 
ATOM     78  C   UNL A   1      44.806  34.277  32.380  1.00  0.00     0.001 A 
ATOM     79  C   UNL A   1      44.927  34.900  30.050  1.00  0.00     0.001 A 
ATOM     80  C   UNL A   1      44.976  35.252  31.397  1.00  0.00     0.000 A 
ENDBRANCH  62  75
ENDBRANCH  36  37
ENDBRANCH  28  31
ENDBRANCH  26  27
ENDBRANCH  25  26
ENDBRANCH   1  25
TORSDOF 15
ENDMDL
MODEL 2
REMARK VINA RESULT:     -10.8      3.416      4.661
REMARK SMILES CS(=O)(=O)Nc1cc(NS(C)(=O)=O)cc(C(=O)NCCCCNC(=O)c2ccc(-c3c4nc(c(-c5ccccc5)c5ccc([nH]5)c(-c5ccccc5)c5nc(c(-c6ccccc6)c6ccc3[nH]6)C=C5)C=C4)cc2)c1
REMARK SMILES IDX 20 1 19 2 18 3 16 4 17 5 15 7 6 8 7 9 74 10 8 11 14 12 5 13
REMARK SMILES IDX 2 15 1 16 3 17 4 18 9 19 10 21 11 22 12 23 13 24 21 25 22 26
REMARK SMILES IDX 23 27 24 28 25 30 26 31 27 32 73 33 28 34 72 35 29 36 30 37
REMARK SMILES IDX 31 38 66 39 32 40 71 41 65 42 67 43 33 44 70 45 64 46 63 47
REMARK SMILES IDX 34 49 56 50 41 51 55 52 42 53 45 54 54 55 68 56 43 57 44 58
REMARK SMILES IDX 53 60 69 61 46 62 35 63 36 64 40 65 37 66 39 67 38 68 57 69
REMARK SMILES IDX 58 70 62 71 59 72 61 73 60 74 47 75 48 76 52 77 49 78 51 79
REMARK SMILES IDX 50 80
REMARK H PARENT 18 6 5 14 9 20 23 29 67 48 45 59
REMARK Flexibility Score: inf
ROOT
ATOM      1  C   UNL A   1      38.734  23.380  26.627  1.00  0.00     0.023 C 
ENDROOT
BRANCH   1   2
ATOM      2  C   UNL A   1      37.387  23.816  26.051  1.00  0.00     0.116 C 
BRANCH   2   3
ATOM      3  N   UNL A   1      37.346  23.603  24.618  1.00  0.00    -0.352 N 
ATOM      4  C   UNL A   1      36.436  23.010  23.781  1.00  0.00     0.251 C 
ATOM      5  O   UNL A   1      36.706  23.006  22.579  1.00  0.00    -0.269 OA
ATOM      6  H   UNL A   1      38.135  23.956  24.147  1.00  0.00     0.163 HD
BRANCH   4   7
ATOM      7  C   UNL A   1      35.125  22.449  24.221  1.00  0.00     0.043 A 
ATOM      8  C   UNL A   1      33.736  20.737  25.210  1.00  0.00     0.051 A 
ATOM      9  C   UNL A   1      32.690  21.652  25.333  1.00  0.00     0.053 A 
ATOM     10  C   UNL A   1      34.903  21.115  24.557  1.00  0.00     0.040 A 
ATOM     11  C   UNL A   1      32.798  22.926  24.783  1.00  0.00     0.051 A 
ATOM     12  C   UNL A   1      34.048  23.345  24.319  1.00  0.00     0.040 A 
BRANCH   8  13
ATOM     13  N   UNL A   1      33.544  19.444  25.766  1.00  0.00    -0.284 N 
ATOM     14  H   UNL A   1      33.682  19.346  26.736  1.00  0.00     0.180 HD
BRANCH  13  15
ATOM     15  S   UNL A   1      33.104  18.079  24.916  1.00  0.00     0.229 S 
ATOM     16  C   UNL A   1      34.662  17.385  24.384  1.00  0.00     0.183 C 
ATOM     17  O   UNL A   1      32.358  18.473  23.741  1.00  0.00    -0.207 OA
ATOM     18  O   UNL A   1      32.531  17.180  25.893  1.00  0.00    -0.207 OA
ENDBRANCH  13  15
ENDBRANCH   8  13
BRANCH  11  19
ATOM     19  N   UNL A   1      31.748  23.908  24.849  1.00  0.00    -0.284 N 
ATOM     20  H   UNL A   1      31.105  23.994  24.109  1.00  0.00     0.180 HD
BRANCH  19  21
ATOM     21  S   UNL A   1      31.624  24.921  26.214  1.00  0.00     0.229 S 
ATOM     22  C   UNL A   1      30.156  25.819  25.773  1.00  0.00     0.183 C 
ATOM     23  O   UNL A   1      31.306  24.055  27.330  1.00  0.00    -0.207 OA
ATOM     24  O   UNL A   1      32.712  25.867  26.273  1.00  0.00    -0.207 OA
ENDBRANCH  19  21
ENDBRANCH  11  19
ENDBRANCH   4   7
ENDBRANCH   2   3
ENDBRANCH   1   2
BRANCH   1  25
ATOM     25  C   UNL A   1      39.254  22.076  26.021  1.00  0.00     0.023 C 
BRANCH  25  26
ATOM     26  C   UNL A   1      40.634  21.655  26.514  1.00  0.00     0.116 C 
BRANCH  26  27
ATOM     27  N   UNL A   1      41.685  21.814  25.520  1.00  0.00    -0.352 N 
ATOM     28  C   UNL A   1      42.593  22.840  25.408  1.00  0.00     0.251 C 
ATOM     29  H   UNL A   1      41.755  21.099  24.846  1.00  0.00     0.163 HD
ATOM     30  O   UNL A   1      43.372  22.899  24.464  1.00  0.00    -0.269 OA
BRANCH  28  31
ATOM     31  C   UNL A   1      42.580  23.905  26.428  1.00  0.00     0.039 A 
ATOM     32  C   UNL A   1      42.791  25.224  26.025  1.00  0.00     0.014 A 
ATOM     33  C   UNL A   1      42.265  23.604  27.755  1.00  0.00     0.014 A 
ATOM     34  C   UNL A   1      42.612  26.255  26.946  1.00  0.00     0.010 A 
ATOM     35  C   UNL A   1      41.998  24.638  28.645  1.00  0.00     0.010 A 
ATOM     36  C   UNL A   1      42.169  25.973  28.251  1.00  0.00    -0.014 A 
BRANCH  36  37
ATOM     37  C   UNL A   1      41.865  27.068  29.205  1.00  0.00     0.031 A 
ATOM     38  C   UNL A   1      42.768  27.325  30.378  1.00  0.00     0.074 A 
ATOM     39  C   UNL A   1      40.740  27.792  29.048  1.00  0.00     0.049 A 
ATOM     40  N   UNL A   1      42.659  28.226  31.321  1.00  0.00    -0.248 NA
ATOM     41  C   UNL A   1      43.931  26.436  30.529  1.00  0.00     0.031 C 
ATOM     42  C   UNL A   1      39.751  27.602  27.984  1.00  0.00     0.029 A 
ATOM     43  N   UNL A   1      40.239  28.836  29.785  1.00  0.00    -0.354 N 
ATOM     44  C   UNL A   1      43.725  28.001  32.180  1.00  0.00     0.074 A 
ATOM     45  C   UNL A   1      44.434  26.843  31.683  1.00  0.00     0.031 C 
ATOM     46  C   UNL A   1      38.783  28.523  28.116  1.00  0.00     0.029 A 
ATOM     47  C   UNL A   1      39.058  29.338  29.294  1.00  0.00     0.049 A 
ATOM     48  H   UNL A   1      40.683  29.190  30.589  1.00  0.00     0.167 HD
ATOM     49  C   UNL A   1      44.097  28.708  33.275  1.00  0.00     0.031 A 
ATOM     50  C   UNL A   1      38.280  30.341  29.744  1.00  0.00     0.031 A 
ATOM     51  C   UNL A   1      43.388  29.859  33.768  1.00  0.00     0.049 A 
ATOM     52  C   UNL A   1      38.705  31.106  30.965  1.00  0.00     0.074 A 
ATOM     53  C   UNL A   1      43.720  30.686  34.827  1.00  0.00     0.029 A 
ATOM     54  N   UNL A   1      42.197  30.338  33.244  1.00  0.00    -0.354 N 
ATOM     55  N   UNL A   1      39.768  30.941  31.715  1.00  0.00    -0.248 NA
ATOM     56  C   UNL A   1      37.829  32.204  31.394  1.00  0.00     0.031 C 
ATOM     57  C   UNL A   1      42.691  31.620  34.988  1.00  0.00     0.029 A 
ATOM     58  C   UNL A   1      41.758  31.424  33.982  1.00  0.00     0.049 A 
ATOM     59  H   UNL A   1      41.732  29.962  32.461  1.00  0.00     0.167 HD
ATOM     60  C   UNL A   1      39.700  31.926  32.691  1.00  0.00     0.074 A 
ATOM     61  C   UNL A   1      38.504  32.698  32.423  1.00  0.00     0.031 C 
ATOM     62  C   UNL A   1      40.554  32.171  33.716  1.00  0.00     0.031 A 
BRANCH  49  63
ATOM     63  C   UNL A   1      45.312  28.231  34.023  1.00  0.00    -0.014 A 
ATOM     64  C   UNL A   1      45.211  27.305  35.076  1.00  0.00     0.009 A 
ATOM     65  C   UNL A   1      46.583  28.709  33.664  1.00  0.00     0.009 A 
ATOM     66  C   UNL A   1      46.349  26.909  35.784  1.00  0.00     0.001 A 
ATOM     67  C   UNL A   1      47.721  28.284  34.350  1.00  0.00     0.001 A 
ATOM     68  C   UNL A   1      47.603  27.396  35.418  1.00  0.00     0.000 A 
ENDBRANCH  49  63
BRANCH  50  69
ATOM     69  C   UNL A   1      37.028  30.684  29.019  1.00  0.00    -0.014 A 
ATOM     70  C   UNL A   1      36.820  31.979  28.521  1.00  0.00     0.009 A 
ATOM     71  C   UNL A   1      36.040  29.709  28.804  1.00  0.00     0.009 A 
ATOM     72  C   UNL A   1      35.641  32.295  27.841  1.00  0.00     0.001 A 
ATOM     73  C   UNL A   1      34.878  30.020  28.096  1.00  0.00     0.001 A 
ATOM     74  C   UNL A   1      34.676  31.314  27.622  1.00  0.00     0.000 A 
ENDBRANCH  50  69
BRANCH  62  75
ATOM     75  C   UNL A   1      40.236  33.337  34.613  1.00  0.00    -0.014 A 
ATOM     76  C   UNL A   1      39.453  33.179  35.768  1.00  0.00     0.009 A 
ATOM     77  C   UNL A   1      40.757  34.605  34.314  1.00  0.00     0.009 A 
ATOM     78  C   UNL A   1      39.169  34.277  36.584  1.00  0.00     0.001 A 
ATOM     79  C   UNL A   1      40.501  35.693  35.150  1.00  0.00     0.001 A 
ATOM     80  C   UNL A   1      39.698  35.531  36.277  1.00  0.00     0.000 A 
ENDBRANCH  62  75
ENDBRANCH  36  37
ENDBRANCH  28  31
ENDBRANCH  26  27
ENDBRANCH  25  26
ENDBRANCH   1  25
TORSDOF 15
ENDMDL
MODEL 3
REMARK VINA RESULT:     -10.8      2.174      6.702
REMARK SMILES CS(=O)(=O)Nc1cc(NS(C)(=O)=O)cc(C(=O)NCCCCNC(=O)c2ccc(-c3c4nc(c(-c5ccccc5)c5ccc([nH]5)c(-c5ccccc5)c5nc(c(-c6ccccc6)c6ccc3[nH]6)C=C5)C=C4)cc2)c1
REMARK SMILES IDX 20 1 19 2 18 3 16 4 17 5 15 7 6 8 7 9 74 10 8 11 14 12 5 13
REMARK SMILES IDX 2 15 1 16 3 17 4 18 9 19 10 21 11 22 12 23 13 24 21 25 22 26
REMARK SMILES IDX 23 27 24 28 25 30 26 31 27 32 73 33 28 34 72 35 29 36 30 37
REMARK SMILES IDX 31 38 66 39 32 40 71 41 65 42 67 43 33 44 70 45 64 46 63 47
REMARK SMILES IDX 34 49 56 50 41 51 55 52 42 53 45 54 54 55 68 56 43 57 44 58
REMARK SMILES IDX 53 60 69 61 46 62 35 63 36 64 40 65 37 66 39 67 38 68 57 69
REMARK SMILES IDX 58 70 62 71 59 72 61 73 60 74 47 75 48 76 52 77 49 78 51 79
REMARK SMILES IDX 50 80
REMARK H PARENT 18 6 5 14 9 20 23 29 67 48 45 59
REMARK Flexibility Score: inf
ROOT
ATOM      1  C   UNL A   1      36.880  21.094  25.188  1.00  0.00     0.023 C 
ENDROOT
BRANCH   1   2
ATOM      2  C   UNL A   1      36.573  22.439  25.846  1.00  0.00     0.116 C 
BRANCH   2   3
ATOM      3  N   UNL A   1      35.567  22.290  26.879  1.00  0.00    -0.352 N 
ATOM      4  C   UNL A   1      34.227  22.000  26.852  1.00  0.00     0.251 C 
ATOM      5  O   UNL A   1      33.650  21.933  27.938  1.00  0.00    -0.269 OA
ATOM      6  H   UNL A   1      35.918  22.426  27.788  1.00  0.00     0.163 HD
BRANCH   4   7
ATOM      7  C   UNL A   1      33.456  21.687  25.613  1.00  0.00     0.043 A 
ATOM      8  C   UNL A   1      32.542  22.240  23.446  1.00  0.00     0.051 A 
ATOM      9  C   UNL A   1      32.315  20.886  23.192  1.00  0.00     0.053 A 
ATOM     10  C   UNL A   1      33.008  22.634  24.695  1.00  0.00     0.040 A 
ATOM     11  C   UNL A   1      32.526  19.937  24.188  1.00  0.00     0.051 A 
ATOM     12  C   UNL A   1      33.185  20.333  25.354  1.00  0.00     0.040 A 
BRANCH   8  13
ATOM     13  N   UNL A   1      32.274  23.157  22.394  1.00  0.00    -0.284 N 
ATOM     14  H   UNL A   1      31.679  22.852  21.672  1.00  0.00     0.180 HD
BRANCH  13  15
ATOM     15  S   UNL A   1      32.881  24.705  22.282  1.00  0.00     0.229 S 
ATOM     16  C   UNL A   1      32.553  25.172  20.589  1.00  0.00     0.183 C 
ATOM     17  O   UNL A   1      34.314  24.667  22.474  1.00  0.00    -0.207 OA
ATOM     18  O   UNL A   1      32.039  25.515  23.134  1.00  0.00    -0.207 OA
ENDBRANCH  13  15
ENDBRANCH   8  13
BRANCH  11  19
ATOM     19  N   UNL A   1      32.286  18.530  24.003  1.00  0.00    -0.284 N 
ATOM     20  H   UNL A   1      31.367  18.178  24.034  1.00  0.00     0.180 HD
BRANCH  19  21
ATOM     21  S   UNL A   1      33.599  17.478  23.731  1.00  0.00     0.229 S 
ATOM     22  C   UNL A   1      33.070  16.098  24.718  1.00  0.00     0.183 C 
ATOM     23  O   UNL A   1      33.522  17.092  22.337  1.00  0.00    -0.207 OA
ATOM     24  O   UNL A   1      34.817  17.988  24.311  1.00  0.00    -0.207 OA
ENDBRANCH  19  21
ENDBRANCH  11  19
ENDBRANCH   4   7
ENDBRANCH   2   3
ENDBRANCH   1   2
BRANCH   1  25
ATOM     25  C   UNL A   1      38.373  20.867  24.947  1.00  0.00     0.023 C 
BRANCH  25  26
ATOM     26  C   UNL A   1      39.168  20.502  26.194  1.00  0.00     0.116 C 
BRANCH  26  27
ATOM     27  N   UNL A   1      40.054  19.363  26.012  1.00  0.00    -0.352 N 
ATOM     28  C   UNL A   1      41.428  19.342  26.081  1.00  0.00     0.251 C 
ATOM     29  H   UNL A   1      39.619  18.502  25.815  1.00  0.00     0.163 HD
ATOM     30  O   UNL A   1      42.062  18.328  25.814  1.00  0.00    -0.269 OA
BRANCH  28  31
ATOM     31  C   UNL A   1      42.133  20.587  26.438  1.00  0.00     0.039 A 
ATOM     32  C   UNL A   1      42.592  21.417  25.416  1.00  0.00     0.014 A 
ATOM     33  C   UNL A   1      42.250  20.970  27.777  1.00  0.00     0.014 A 
ATOM     34  C   UNL A   1      43.105  22.672  25.735  1.00  0.00     0.010 A 
ATOM     35  C   UNL A   1      42.676  22.257  28.085  1.00  0.00     0.010 A 
ATOM     36  C   UNL A   1      43.108  23.120  27.068  1.00  0.00    -0.014 A 
BRANCH  36  37
ATOM     37  C   UNL A   1      43.545  24.497  27.407  1.00  0.00     0.031 A 
ATOM     38  C   UNL A   1      42.535  25.541  27.791  1.00  0.00     0.074 A 
ATOM     39  C   UNL A   1      44.848  24.824  27.309  1.00  0.00     0.049 A 
ATOM     40  N   UNL A   1      42.726  26.797  28.108  1.00  0.00    -0.248 NA
ATOM     41  C   UNL A   1      41.122  25.130  27.791  1.00  0.00     0.031 C 
ATOM     42  C   UNL A   1      45.920  23.917  26.890  1.00  0.00     0.029 A 
ATOM     43  N   UNL A   1      45.494  26.009  27.556  1.00  0.00    -0.354 N 
ATOM     44  C   UNL A   1      41.461  27.325  28.329  1.00  0.00     0.074 A 
ATOM     45  C   UNL A   1      40.508  26.273  28.050  1.00  0.00     0.031 C 
ATOM     46  C   UNL A   1      47.092  24.569  26.947  1.00  0.00     0.029 A 
ATOM     47  C   UNL A   1      46.852  25.946  27.361  1.00  0.00     0.049 A 
ATOM     48  H   UNL A   1      45.028  26.826  27.846  1.00  0.00     0.167 HD
ATOM     49  C   UNL A   1      41.122  28.568  28.747  1.00  0.00     0.031 A 
ATOM     50  C   UNL A   1      47.800  26.893  27.497  1.00  0.00     0.031 A 
ATOM     51  C   UNL A   1      42.073  29.612  29.021  1.00  0.00     0.049 A 
ATOM     52  C   UNL A   1      47.402  28.268  27.953  1.00  0.00     0.074 A 
ATOM     53  C   UNL A   1      41.837  30.883  29.515  1.00  0.00     0.029 A 
ATOM     54  N   UNL A   1      43.440  29.510  28.812  1.00  0.00    -0.354 N 
ATOM     55  N   UNL A   1      46.209  28.727  28.249  1.00  0.00    -0.248 NA
ATOM     56  C   UNL A   1      48.482  29.252  28.106  1.00  0.00     0.031 C 
ATOM     57  C   UNL A   1      43.054  31.574  29.535  1.00  0.00     0.029 A 
ATOM     58  C   UNL A   1      44.057  30.709  29.128  1.00  0.00     0.049 A 
ATOM     59  H   UNL A   1      43.904  28.704  28.488  1.00  0.00     0.167 HD
ATOM     60  C   UNL A   1      46.398  30.045  28.643  1.00  0.00     0.074 A 
ATOM     61  C   UNL A   1      47.821  30.304  28.570  1.00  0.00     0.031 C 
ATOM     62  C   UNL A   1      45.473  30.959  29.033  1.00  0.00     0.031 A 
BRANCH  49  63
ATOM     63  C   UNL A   1      39.655  28.865  28.905  1.00  0.00    -0.014 A 
ATOM     64  C   UNL A   1      38.979  28.614  30.112  1.00  0.00     0.009 A 
ATOM     65  C   UNL A   1      38.937  29.416  27.832  1.00  0.00     0.009 A 
ATOM     66  C   UNL A   1      37.608  28.859  30.222  1.00  0.00     0.001 A 
ATOM     67  C   UNL A   1      37.574  29.693  27.957  1.00  0.00     0.001 A 
ATOM     68  C   UNL A   1      36.908  29.401  29.145  1.00  0.00     0.000 A 
ENDBRANCH  49  63
BRANCH  50  69
ATOM     69  C   UNL A   1      49.220  26.560  27.211  1.00  0.00    -0.014 A 
ATOM     70  C   UNL A   1      50.070  26.106  28.232  1.00  0.00     0.009 A 
ATOM     71  C   UNL A   1      49.730  26.676  25.908  1.00  0.00     0.009 A 
ATOM     72  C   UNL A   1      51.404  25.794  27.957  1.00  0.00     0.001 A 
ATOM     73  C   UNL A   1      51.055  26.332  25.630  1.00  0.00     0.001 A 
ATOM     74  C   UNL A   1      51.892  25.900  26.656  1.00  0.00     0.000 A 
ENDBRANCH  50  69
BRANCH  62  75
ATOM     75  C   UNL A   1      45.978  32.319  29.432  1.00  0.00    -0.014 A 
ATOM     76  C   UNL A   1      46.374  32.595  30.751  1.00  0.00     0.009 A 
ATOM     77  C   UNL A   1      46.091  33.329  28.465  1.00  0.00     0.009 A 
ATOM     78  C   UNL A   1      46.837  33.866  31.098  1.00  0.00     0.001 A 
ATOM     79  C   UNL A   1      46.586  34.588  28.807  1.00  0.00     0.001 A 
ATOM     80  C   UNL A   1      46.948  34.860  30.125  1.00  0.00     0.000 A 
ENDBRANCH  62  75
ENDBRANCH  36  37
ENDBRANCH  28  31
ENDBRANCH  26  27
ENDBRANCH  25  26
ENDBRANCH   1  25
TORSDOF 15
ENDMDL
