MODEL 1
REMARK VINA RESULT:     -11.9      0.000      0.000
REMARK SMILES CC(C)c1ccc(-c2cnc([C@@H]3[NH2+][C@H](C(=O)NCCCCNC(=O)c4ccc(-c5c6nc(c(-c7ccccc7)c7ccc([nH]7)c(-c7ccccc7)c7nc(c(-c8ccccc8)c8ccc5[nH]8)C=C7)C=C6)cc4)C(C)(C)S3)s2)cc1
REMARK SMILES IDX 19 1 18 2 17 3 15 4 16 5 14 7 12 8 13 9 76 10 73 13 74 14
REMARK SMILES IDX 75 15 11 16 8 17 9 18 77 19 10 20 7 21 4 22 5 23 79 24 6 25
REMARK SMILES IDX 78 26 2 27 1 28 3 29 20 30 21 31 22 32 23 33 24 35 25 36
REMARK SMILES IDX 26 37 72 38 27 39 71 40 28 41 29 42 30 43 65 44 31 45 70 46
REMARK SMILES IDX 64 47 66 48 32 49 69 50 63 51 62 52 33 54 55 55 40 56 54 57
REMARK SMILES IDX 41 58 44 59 53 60 67 61 42 62 43 63 52 65 68 66 45 67 34 68
REMARK SMILES IDX 35 69 39 70 36 71 38 72 37 73 56 74 57 75 61 76 58 77 60 78
REMARK SMILES IDX 59 79 46 80 47 81 51 82 48 83 50 84 49 85
REMARK H PARENT 17 6 13 11 13 12 22 34 66 53 44 64
REMARK Flexibility Score: inf
ROOT
ATOM      1  C   UNL A   1      31.655  30.525  26.715  1.00  0.00     0.023 C 
ENDROOT
BRANCH   1   2
ATOM      2  C   UNL A   1      33.088  30.056  26.440  1.00  0.00     0.116 C 
BRANCH   2   3
ATOM      3  N   UNL A   1      33.127  28.631  26.191  1.00  0.00    -0.351 N 
ATOM      4  C   UNL A   1      32.403  27.951  25.250  1.00  0.00     0.279 C 
ATOM      5  O   UNL A   1      31.859  26.925  25.646  1.00  0.00    -0.268 OA
ATOM      6  H   UNL A   1      33.735  28.098  26.752  1.00  0.00     0.163 HD
BRANCH   4   7
ATOM      7  C   UNL A   1      32.362  28.490  23.799  1.00  0.00     0.289 C 
ATOM      8  C   UNL A   1      33.104  26.729  22.300  1.00  0.00     0.304 C 
ATOM      9  N   UNL A   1      33.517  27.966  23.001  1.00  0.00    -0.318 N 
ATOM     10  S   UNL A   1      31.311  26.799  22.006  1.00  0.00    -0.079 SA
ATOM     11  H   UNL A   1      33.806  28.666  22.317  1.00  0.00     0.348 HD
ATOM     12  H   UNL A   1      34.300  27.761  23.624  1.00  0.00     0.348 HD
ATOM     13  C   UNL A   1      31.050  28.293  23.011  1.00  0.00     0.078 C 
ATOM     14  C   UNL A   1      30.843  29.461  22.026  1.00  0.00     0.030 C 
ATOM     15  C   UNL A   1      29.793  28.141  23.866  1.00  0.00     0.030 C 
BRANCH   8  16
ATOM     16  C   UNL A   1      33.529  25.445  22.983  1.00  0.00     0.162 A 
ATOM     17  C   UNL A   1      33.792  23.127  23.709  1.00  0.00     0.055 A 
ATOM     18  C   UNL A   1      34.607  24.060  24.321  1.00  0.00     0.132 A 
ATOM     19  S   UNL A   1      32.827  23.928  22.535  1.00  0.00    -0.112 S 
ATOM     20  N   UNL A   1      34.397  25.365  23.969  1.00  0.00    -0.242 NA
BRANCH  17  21
ATOM     21  C   UNL A   1      33.701  21.694  24.001  1.00  0.00    -0.007 A 
ATOM     22  C   UNL A   1      33.707  18.894  24.495  1.00  0.00    -0.045 A 
ATOM     23  C   UNL A   1      32.632  19.512  23.839  1.00  0.00     0.004 A 
ATOM     24  C   UNL A   1      34.763  19.707  24.930  1.00  0.00     0.004 A 
ATOM     25  C   UNL A   1      32.628  20.896  23.597  1.00  0.00     0.010 A 
ATOM     26  C   UNL A   1      34.762  21.079  24.682  1.00  0.00     0.010 A 
BRANCH  22  27
ATOM     27  C   UNL A   1      33.791  17.397  24.760  1.00  0.00     0.013 C 
ATOM     28  C   UNL A   1      32.595  16.794  25.503  1.00  0.00     0.012 C 
ATOM     29  C   UNL A   1      34.012  16.622  23.452  1.00  0.00     0.012 C 
ENDBRANCH  22  27
ENDBRANCH  17  21
ENDBRANCH   8  16
ENDBRANCH   4   7
ENDBRANCH   2   3
ENDBRANCH   1   2
BRANCH   1  30
ATOM     30  C   UNL A   1      31.471  32.043  26.837  1.00  0.00     0.023 C 
BRANCH  30  31
ATOM     31  C   UNL A   1      32.748  32.843  27.058  1.00  0.00     0.116 C 
BRANCH  31  32
ATOM     32  N   UNL A   1      32.502  34.129  27.689  1.00  0.00    -0.352 N 
ATOM     33  C   UNL A   1      33.178  34.742  28.711  1.00  0.00     0.251 C 
ATOM     34  H   UNL A   1      31.737  34.634  27.330  1.00  0.00     0.163 HD
ATOM     35  O   UNL A   1      32.734  35.783  29.199  1.00  0.00    -0.269 OA
BRANCH  33  36
ATOM     36  C   UNL A   1      34.420  34.151  29.254  1.00  0.00     0.039 A 
ATOM     37  C   UNL A   1      34.327  33.298  30.357  1.00  0.00     0.014 A 
ATOM     38  C   UNL A   1      35.668  34.438  28.694  1.00  0.00     0.014 A 
ATOM     39  C   UNL A   1      35.477  32.686  30.862  1.00  0.00     0.010 A 
ATOM     40  C   UNL A   1      36.804  33.775  29.156  1.00  0.00     0.010 A 
ATOM     41  C   UNL A   1      36.720  32.895  30.244  1.00  0.00    -0.014 A 
BRANCH  41  42
ATOM     42  C   UNL A   1      37.941  32.202  30.726  1.00  0.00     0.031 A 
ATOM     43  C   UNL A   1      38.744  32.779  31.858  1.00  0.00     0.074 A 
ATOM     44  C   UNL A   1      38.363  31.081  30.107  1.00  0.00     0.049 A 
ATOM     45  N   UNL A   1      39.869  32.354  32.375  1.00  0.00    -0.248 NA
ATOM     46  C   UNL A   1      38.224  34.008  32.480  1.00  0.00     0.031 C 
ATOM     47  C   UNL A   1      37.693  30.433  28.976  1.00  0.00     0.029 A 
ATOM     48  N   UNL A   1      39.460  30.291  30.340  1.00  0.00    -0.354 N 
ATOM     49  C   UNL A   1      40.199  33.267  33.367  1.00  0.00     0.074 A 
ATOM     50  C   UNL A   1      39.180  34.295  33.352  1.00  0.00     0.031 C 
ATOM     51  C   UNL A   1      38.380  29.331  28.633  1.00  0.00     0.029 A 
ATOM     52  C   UNL A   1      39.558  29.217  29.489  1.00  0.00     0.049 A 
ATOM     53  H   UNL A   1      40.116  30.476  31.051  1.00  0.00     0.167 HD
ATOM     54  C   UNL A   1      41.245  33.247  34.228  1.00  0.00     0.031 A 
ATOM     55  C   UNL A   1      40.493  28.254  29.401  1.00  0.00     0.031 A 
ATOM     56  C   UNL A   1      42.254  32.222  34.254  1.00  0.00     0.049 A 
ATOM     57  C   UNL A   1      41.655  28.265  30.353  1.00  0.00     0.074 A 
ATOM     58  C   UNL A   1      43.327  32.090  35.119  1.00  0.00     0.029 A 
ATOM     59  N   UNL A   1      42.314  31.152  33.376  1.00  0.00    -0.354 N 
ATOM     60  N   UNL A   1      41.922  29.107  31.322  1.00  0.00    -0.248 NA
ATOM     61  C   UNL A   1      42.642  27.186  30.204  1.00  0.00     0.031 C 
ATOM     62  C   UNL A   1      44.062  30.963  34.736  1.00  0.00     0.029 A 
ATOM     63  C   UNL A   1      43.417  30.366  33.666  1.00  0.00     0.049 A 
ATOM     64  H   UNL A   1      41.669  30.977  32.653  1.00  0.00     0.167 HD
ATOM     65  C   UNL A   1      43.089  28.643  31.916  1.00  0.00     0.074 A 
ATOM     66  C   UNL A   1      43.470  27.439  31.208  1.00  0.00     0.031 C 
ATOM     67  C   UNL A   1      43.780  29.167  32.956  1.00  0.00     0.031 A 
BRANCH  54  68
ATOM     68  C   UNL A   1      41.349  34.374  35.216  1.00  0.00    -0.014 A 
ATOM     69  C   UNL A   1      42.068  35.540  34.910  1.00  0.00     0.009 A 
ATOM     70  C   UNL A   1      40.691  34.286  36.452  1.00  0.00     0.009 A 
ATOM     71  C   UNL A   1      42.155  36.581  35.838  1.00  0.00     0.001 A 
ATOM     72  C   UNL A   1      40.756  35.339  37.366  1.00  0.00     0.001 A 
ATOM     73  C   UNL A   1      41.495  36.481  37.062  1.00  0.00     0.000 A 
ENDBRANCH  54  68
BRANCH  55  74
ATOM     74  C   UNL A   1      40.366  27.181  28.381  1.00  0.00    -0.014 A 
ATOM     75  C   UNL A   1      40.939  27.340  27.109  1.00  0.00     0.009 A 
ATOM     76  C   UNL A   1      39.657  26.003  28.664  1.00  0.00     0.009 A 
ATOM     77  C   UNL A   1      40.780  26.354  26.133  1.00  0.00     0.001 A 
ATOM     78  C   UNL A   1      39.524  25.006  27.695  1.00  0.00     0.001 A 
ATOM     79  C   UNL A   1      40.076  25.188  26.427  1.00  0.00     0.000 A 
ENDBRANCH  55  74
BRANCH  67  80
ATOM     80  C   UNL A   1      44.998  28.419  33.417  1.00  0.00    -0.014 A 
ATOM     81  C   UNL A   1      46.272  28.716  32.910  1.00  0.00     0.009 A 
ATOM     82  C   UNL A   1      44.870  27.427  34.401  1.00  0.00     0.009 A 
ATOM     83  C   UNL A   1      47.391  28.010  33.357  1.00  0.00     0.001 A 
ATOM     84  C   UNL A   1      45.994  26.742  34.866  1.00  0.00     0.001 A 
ATOM     85  C   UNL A   1      47.252  27.028  34.338  1.00  0.00     0.000 A 
ENDBRANCH  67  80
ENDBRANCH  41  42
ENDBRANCH  33  36
ENDBRANCH  31  32
ENDBRANCH  30  31
ENDBRANCH   1  30
TORSDOF 14
ENDMDL
MODEL 2
REMARK VINA RESULT:     -11.9      1.152      5.854
REMARK SMILES CC(C)c1ccc(-c2cnc([C@@H]3[NH2+][C@H](C(=O)NCCCCNC(=O)c4ccc(-c5c6nc(c(-c7ccccc7)c7ccc([nH]7)c(-c7ccccc7)c7nc(c(-c8ccccc8)c8ccc5[nH]8)C=C7)C=C6)cc4)C(C)(C)S3)s2)cc1
REMARK SMILES IDX 19 1 18 2 17 3 15 4 16 5 14 7 12 8 13 9 76 10 73 13 74 14
REMARK SMILES IDX 75 15 11 16 8 17 9 18 77 19 10 20 7 21 4 22 5 23 79 24 6 25
REMARK SMILES IDX 78 26 2 27 1 28 3 29 20 30 21 31 22 32 23 33 24 35 25 36
REMARK SMILES IDX 26 37 72 38 27 39 71 40 28 41 29 42 30 43 65 44 31 45 70 46
REMARK SMILES IDX 64 47 66 48 32 49 69 50 63 51 62 52 33 54 55 55 40 56 54 57
REMARK SMILES IDX 41 58 44 59 53 60 67 61 42 62 43 63 52 65 68 66 45 67 34 68
REMARK SMILES IDX 35 69 39 70 36 71 38 72 37 73 56 74 57 75 61 76 58 77 60 78
REMARK SMILES IDX 59 79 46 80 47 81 51 82 48 83 50 84 49 85
REMARK H PARENT 17 6 13 11 13 12 22 34 66 53 44 64
REMARK Flexibility Score: inf
ROOT
ATOM      1  C   UNL A   1      31.565  30.529  26.598  1.00  0.00     0.023 C 
ENDROOT
BRANCH   1   2
ATOM      2  C   UNL A   1      33.001  29.993  26.585  1.00  0.00     0.116 C 
BRANCH   2   3
ATOM      3  N   UNL A   1      33.019  28.567  26.339  1.00  0.00    -0.351 N 
ATOM      4  C   UNL A   1      32.328  27.903  25.363  1.00  0.00     0.279 C 
ATOM      5  O   UNL A   1      31.740  26.891  25.731  1.00  0.00    -0.268 OA
ATOM      6  H   UNL A   1      33.583  28.021  26.933  1.00  0.00     0.163 HD
BRANCH   4   7
ATOM      7  C   UNL A   1      32.377  28.439  23.911  1.00  0.00     0.289 C 
ATOM      8  C   UNL A   1      33.192  26.670  22.461  1.00  0.00     0.304 C 
ATOM      9  N   UNL A   1      33.573  27.905  23.183  1.00  0.00    -0.318 N 
ATOM     10  S   UNL A   1      31.420  26.752  22.062  1.00  0.00    -0.079 SA
ATOM     11  H   UNL A   1      33.906  28.602  22.516  1.00  0.00     0.348 HD
ATOM     12  H   UNL A   1      34.316  27.696  23.851  1.00  0.00     0.348 HD
ATOM     13  C   UNL A   1      31.111  28.251  23.048  1.00  0.00     0.078 C 
ATOM     14  C   UNL A   1      30.971  29.417  22.051  1.00  0.00     0.030 C 
ATOM     15  C   UNL A   1      29.806  28.109  23.828  1.00  0.00     0.030 C 
BRANCH   8  16
ATOM     16  C   UNL A   1      33.566  25.384  23.169  1.00  0.00     0.162 A 
ATOM     17  C   UNL A   1      33.796  23.060  23.890  1.00  0.00     0.055 A 
ATOM     18  C   UNL A   1      34.522  23.999  24.597  1.00  0.00     0.132 A 
ATOM     19  S   UNL A   1      32.947  23.861  22.629  1.00  0.00    -0.112 S 
ATOM     20  N   UNL A   1      34.324  25.305  24.242  1.00  0.00    -0.242 NA
BRANCH  17  21
ATOM     21  C   UNL A   1      33.703  21.622  24.152  1.00  0.00    -0.007 A 
ATOM     22  C   UNL A   1      33.693  18.809  24.564  1.00  0.00    -0.045 A 
ATOM     23  C   UNL A   1      32.558  19.475  24.079  1.00  0.00     0.004 A 
ATOM     24  C   UNL A   1      34.821  19.580  24.872  1.00  0.00     0.004 A 
ATOM     25  C   UNL A   1      32.561  20.866  23.878  1.00  0.00     0.010 A 
ATOM     26  C   UNL A   1      34.828  20.959  24.664  1.00  0.00     0.010 A 
BRANCH  22  27
ATOM     27  C   UNL A   1      33.767  17.302  24.774  1.00  0.00     0.013 C 
ATOM     28  C   UNL A   1      32.555  16.677  25.471  1.00  0.00     0.012 C 
ATOM     29  C   UNL A   1      34.011  16.577  23.442  1.00  0.00     0.012 C 
ENDBRANCH  22  27
ENDBRANCH  17  21
ENDBRANCH   8  16
ENDBRANCH   4   7
ENDBRANCH   2   3
ENDBRANCH   1   2
BRANCH   1  30
ATOM     30  C   UNL A   1      31.431  32.052  26.730  1.00  0.00     0.023 C 
BRANCH  30  31
ATOM     31  C   UNL A   1      32.674  32.778  27.228  1.00  0.00     0.116 C 
BRANCH  31  32
ATOM     32  N   UNL A   1      32.400  34.150  27.622  1.00  0.00    -0.352 N 
ATOM     33  C   UNL A   1      33.001  34.916  28.587  1.00  0.00     0.251 C 
ATOM     34  H   UNL A   1      31.678  34.595  27.123  1.00  0.00     0.163 HD
ATOM     35  O   UNL A   1      32.537  36.024  28.862  1.00  0.00    -0.269 OA
BRANCH  33  36
ATOM     36  C   UNL A   1      34.182  34.413  29.321  1.00  0.00     0.039 A 
ATOM     37  C   UNL A   1      33.997  33.887  30.602  1.00  0.00     0.014 A 
ATOM     38  C   UNL A   1      35.462  34.467  28.764  1.00  0.00     0.014 A 
ATOM     39  C   UNL A   1      35.086  33.360  31.301  1.00  0.00     0.010 A 
ATOM     40  C   UNL A   1      36.535  33.880  29.434  1.00  0.00     0.010 A 
ATOM     41  C   UNL A   1      36.357  33.323  30.708  1.00  0.00    -0.014 A 
BRANCH  41  42
ATOM     42  C   UNL A   1      37.513  32.707  31.409  1.00  0.00     0.031 A 
ATOM     43  C   UNL A   1      38.206  31.510  30.820  1.00  0.00     0.074 A 
ATOM     44  C   UNL A   1      37.904  33.189  32.605  1.00  0.00     0.049 A 
ATOM     45  N   UNL A   1      39.189  30.799  31.312  1.00  0.00    -0.248 NA
ATOM     46  C   UNL A   1      37.719  31.039  29.513  1.00  0.00     0.031 C 
ATOM     47  C   UNL A   1      37.297  34.326  33.303  1.00  0.00     0.029 A 
ATOM     48  N   UNL A   1      38.904  32.777  33.449  1.00  0.00    -0.354 N 
ATOM     49  C   UNL A   1      39.425  29.790  30.388  1.00  0.00     0.074 A 
ATOM     50  C   UNL A   1      38.455  29.953  29.326  1.00  0.00     0.031 C 
ATOM     51  C   UNL A   1      37.955  34.536  34.454  1.00  0.00     0.029 A 
ATOM     52  C   UNL A   1      39.000  33.526  34.597  1.00  0.00     0.049 A 
ATOM     53  H   UNL A   1      39.498  32.017  33.252  1.00  0.00     0.167 HD
ATOM     54  C   UNL A   1      40.375  28.824  30.408  1.00  0.00     0.031 A 
ATOM     55  C   UNL A   1      39.830  33.409  35.650  1.00  0.00     0.031 A 
ATOM     56  C   UNL A   1      41.347  28.665  31.456  1.00  0.00     0.049 A 
ATOM     57  C   UNL A   1      40.861  32.316  35.659  1.00  0.00     0.074 A 
ATOM     58  C   UNL A   1      42.378  27.744  31.544  1.00  0.00     0.029 A 
ATOM     59  N   UNL A   1      41.410  29.445  32.599  1.00  0.00    -0.354 N 
ATOM     60  N   UNL A   1      41.106  31.403  34.750  1.00  0.00    -0.248 NA
ATOM     61  C   UNL A   1      41.736  32.242  36.838  1.00  0.00     0.031 C 
ATOM     62  C   UNL A   1      43.038  27.941  32.761  1.00  0.00     0.029 A 
ATOM     63  C   UNL A   1      42.450  29.016  33.407  1.00  0.00     0.049 A 
ATOM     64  H   UNL A   1      40.805  30.194  32.807  1.00  0.00     0.167 HD
ATOM     65  C   UNL A   1      42.181  30.668  35.233  1.00  0.00     0.074 A 
ATOM     66  C   UNL A   1      42.549  31.249  36.507  1.00  0.00     0.031 C 
ATOM     67  C   UNL A   1      42.807  29.607  34.670  1.00  0.00     0.031 A 
BRANCH  54  68
ATOM     68  C   UNL A   1      40.404  27.859  29.256  1.00  0.00    -0.014 A 
ATOM     69  C   UNL A   1      41.244  28.076  28.152  1.00  0.00     0.009 A 
ATOM     70  C   UNL A   1      39.611  26.703  29.291  1.00  0.00     0.009 A 
ATOM     71  C   UNL A   1      41.262  27.170  27.090  1.00  0.00     0.001 A 
ATOM     72  C   UNL A   1      39.652  25.784  28.241  1.00  0.00     0.001 A 
ATOM     73  C   UNL A   1      40.470  26.023  27.137  1.00  0.00     0.000 A 
ENDBRANCH  54  68
BRANCH  55  74
ATOM     74  C   UNL A   1      39.736  34.364  36.785  1.00  0.00    -0.014 A 
ATOM     75  C   UNL A   1      40.431  35.584  36.745  1.00  0.00     0.009 A 
ATOM     76  C   UNL A   1      38.971  34.055  37.920  1.00  0.00     0.009 A 
ATOM     77  C   UNL A   1      40.382  36.461  37.830  1.00  0.00     0.001 A 
ATOM     78  C   UNL A   1      38.903  34.947  38.992  1.00  0.00     0.001 A 
ATOM     79  C   UNL A   1      39.617  36.144  38.950  1.00  0.00     0.000 A 
ENDBRANCH  55  74
BRANCH  67  80
ATOM     80  C   UNL A   1      43.982  29.032  35.408  1.00  0.00    -0.014 A 
ATOM     81  C   UNL A   1      43.821  27.990  36.335  1.00  0.00     0.009 A 
ATOM     82  C   UNL A   1      45.272  29.516  35.145  1.00  0.00     0.009 A 
ATOM     83  C   UNL A   1      44.928  27.467  37.006  1.00  0.00     0.001 A 
ATOM     84  C   UNL A   1      46.379  28.973  35.797  1.00  0.00     0.001 A 
ATOM     85  C   UNL A   1      46.206  27.955  36.733  1.00  0.00     0.000 A 
ENDBRANCH  67  80
ENDBRANCH  41  42
ENDBRANCH  33  36
ENDBRANCH  31  32
ENDBRANCH  30  31
ENDBRANCH   1  30
TORSDOF 14
ENDMDL
MODEL 3
REMARK VINA RESULT:     -11.7      3.885      9.434
REMARK SMILES CC(C)c1ccc(-c2cnc([C@@H]3[NH2+][C@H](C(=O)NCCCCNC(=O)c4ccc(-c5c6nc(c(-c7ccccc7)c7ccc([nH]7)c(-c7ccccc7)c7nc(c(-c8ccccc8)c8ccc5[nH]8)C=C7)C=C6)cc4)C(C)(C)S3)s2)cc1
REMARK SMILES IDX 19 1 18 2 17 3 15 4 16 5 14 7 12 8 13 9 76 10 73 13 74 14
REMARK SMILES IDX 75 15 11 16 8 17 9 18 77 19 10 20 7 21 4 22 5 23 79 24 6 25
REMARK SMILES IDX 78 26 2 27 1 28 3 29 20 30 21 31 22 32 23 33 24 35 25 36
REMARK SMILES IDX 26 37 72 38 27 39 71 40 28 41 29 42 30 43 65 44 31 45 70 46
REMARK SMILES IDX 64 47 66 48 32 49 69 50 63 51 62 52 33 54 55 55 40 56 54 57
REMARK SMILES IDX 41 58 44 59 53 60 67 61 42 62 43 63 52 65 68 66 45 67 34 68
REMARK SMILES IDX 35 69 39 70 36 71 38 72 37 73 56 74 57 75 61 76 58 77 60 78
REMARK SMILES IDX 59 79 46 80 47 81 51 82 48 83 50 84 49 85
REMARK H PARENT 17 6 13 11 13 12 22 34 66 53 44 64
REMARK Flexibility Score: inf
ROOT
ATOM      1  C   UNL A   1      37.283  22.048  24.704  1.00  0.00     0.023 C 
ENDROOT
BRANCH   1   2
ATOM      2  C   UNL A   1      36.811  22.453  23.302  1.00  0.00     0.116 C 
BRANCH   2   3
ATOM      3  N   UNL A   1      35.664  23.332  23.376  1.00  0.00    -0.351 N 
ATOM      4  C   UNL A   1      34.374  22.963  23.643  1.00  0.00     0.279 C 
ATOM      5  O   UNL A   1      33.525  23.444  22.899  1.00  0.00    -0.268 OA
ATOM      6  H   UNL A   1      35.827  24.290  23.218  1.00  0.00     0.163 HD
BRANCH   4   7
ATOM      7  C   UNL A   1      34.093  22.033  24.848  1.00  0.00     0.289 C 
ATOM      8  C   UNL A   1      32.531  23.147  26.337  1.00  0.00     0.304 C 
ATOM      9  N   UNL A   1      33.958  22.823  26.114  1.00  0.00    -0.318 N 
ATOM     10  S   UNL A   1      31.513  21.861  25.552  1.00  0.00    -0.079 SA
ATOM     11  H   UNL A   1      34.310  22.274  26.899  1.00  0.00     0.348 HD
ATOM     12  H   UNL A   1      34.498  23.686  26.039  1.00  0.00     0.348 HD
ATOM     13  C   UNL A   1      32.911  21.048  24.718  1.00  0.00     0.078 C 
ATOM     14  C   UNL A   1      33.208  19.757  25.505  1.00  0.00     0.030 C 
ATOM     15  C   UNL A   1      32.528  20.677  23.287  1.00  0.00     0.030 C 
BRANCH   8  16
ATOM     16  C   UNL A   1      32.127  24.544  25.911  1.00  0.00     0.162 A 
ATOM     17  C   UNL A   1      31.003  26.498  24.966  1.00  0.00     0.055 A 
ATOM     18  C   UNL A   1      32.162  26.738  25.678  1.00  0.00     0.132 A 
ATOM     19  S   UNL A   1      30.675  24.812  25.008  1.00  0.00    -0.112 S 
ATOM     20  N   UNL A   1      32.830  25.634  26.133  1.00  0.00    -0.242 NA
BRANCH  17  21
ATOM     21  C   UNL A   1      30.178  27.473  24.248  1.00  0.00    -0.007 A 
ATOM     22  C   UNL A   1      28.607  29.490  23.005  1.00  0.00    -0.045 A 
ATOM     23  C   UNL A   1      28.134  28.175  23.128  1.00  0.00     0.004 A 
ATOM     24  C   UNL A   1      29.894  29.769  23.484  1.00  0.00     0.004 A 
ATOM     25  C   UNL A   1      28.911  27.177  23.740  1.00  0.00     0.010 A 
ATOM     26  C   UNL A   1      30.662  28.780  24.100  1.00  0.00     0.010 A 
BRANCH  22  27
ATOM     27  C   UNL A   1      27.805  30.625  22.383  1.00  0.00     0.013 C 
ATOM     28  C   UNL A   1      27.778  31.927  23.188  1.00  0.00     0.012 C 
ATOM     29  C   UNL A   1      28.298  30.924  20.959  1.00  0.00     0.012 C 
ENDBRANCH  22  27
ENDBRANCH  17  21
ENDBRANCH   8  16
ENDBRANCH   4   7
ENDBRANCH   2   3
ENDBRANCH   1   2
BRANCH   1  30
ATOM     30  C   UNL A   1      37.950  20.671  24.802  1.00  0.00     0.023 C 
BRANCH  30  31
ATOM     31  C   UNL A   1      38.706  20.399  26.097  1.00  0.00     0.116 C 
BRANCH  31  32
ATOM     32  N   UNL A   1      39.813  19.474  25.916  1.00  0.00    -0.352 N 
ATOM     33  C   UNL A   1      41.158  19.683  26.072  1.00  0.00     0.251 C 
ATOM     34  H   UNL A   1      39.559  18.564  25.641  1.00  0.00     0.163 HD
ATOM     35  O   UNL A   1      41.954  18.803  25.743  1.00  0.00    -0.269 OA
BRANCH  33  36
ATOM     36  C   UNL A   1      41.664  20.968  26.602  1.00  0.00     0.039 A 
ATOM     37  C   UNL A   1      42.037  21.964  25.697  1.00  0.00     0.014 A 
ATOM     38  C   UNL A   1      41.783  21.190  27.977  1.00  0.00     0.014 A 
ATOM     39  C   UNL A   1      42.473  23.205  26.168  1.00  0.00     0.010 A 
ATOM     40  C   UNL A   1      42.153  22.450  28.446  1.00  0.00     0.010 A 
ATOM     41  C   UNL A   1      42.503  23.468  27.547  1.00  0.00    -0.014 A 
BRANCH  41  42
ATOM     42  C   UNL A   1      42.900  24.802  28.064  1.00  0.00     0.031 A 
ATOM     43  C   UNL A   1      41.860  25.856  28.319  1.00  0.00     0.074 A 
ATOM     44  C   UNL A   1      44.204  25.085  28.252  1.00  0.00     0.049 A 
ATOM     45  N   UNL A   1      42.017  27.096  28.709  1.00  0.00    -0.248 NA
ATOM     46  C   UNL A   1      40.457  25.474  28.086  1.00  0.00     0.031 C 
ATOM     47  C   UNL A   1      45.317  24.162  28.014  1.00  0.00     0.029 A 
ATOM     48  N   UNL A   1      44.814  26.237  28.682  1.00  0.00    -0.354 N 
ATOM     49  C   UNL A   1      40.742  27.644  28.752  1.00  0.00     0.074 A 
ATOM     50  C   UNL A   1      39.825  26.617  28.306  1.00  0.00     0.031 C 
ATOM     51  C   UNL A   1      46.470  24.776  28.327  1.00  0.00     0.029 A 
ATOM     52  C   UNL A   1      46.184  26.144  28.747  1.00  0.00     0.049 A 
ATOM     53  H   UNL A   1      44.318  27.052  28.923  1.00  0.00     0.167 HD
ATOM     54  C   UNL A   1      40.363  28.884  29.145  1.00  0.00     0.031 A 
ATOM     55  C   UNL A   1      47.106  27.060  29.096  1.00  0.00     0.031 A 
ATOM     56  C   UNL A   1      41.270  29.904  29.600  1.00  0.00     0.049 A 
ATOM     57  C   UNL A   1      46.661  28.435  29.507  1.00  0.00     0.074 A 
ATOM     58  C   UNL A   1      40.975  31.176  30.061  1.00  0.00     0.029 A 
ATOM     59  N   UNL A   1      42.647  29.768  29.650  1.00  0.00    -0.354 N 
ATOM     60  N   UNL A   1      45.446  28.920  29.594  1.00  0.00    -0.248 NA
ATOM     61  C   UNL A   1      47.717  29.389  29.876  1.00  0.00     0.031 C 
ATOM     62  C   UNL A   1      42.180  31.825  30.351  1.00  0.00     0.029 A 
ATOM     63  C   UNL A   1      43.220  30.940  30.118  1.00  0.00     0.049 A 
ATOM     64  H   UNL A   1      43.146  28.959  29.392  1.00  0.00     0.167 HD
ATOM     65  C   UNL A   1      45.589  30.222  30.056  1.00  0.00     0.074 A 
ATOM     66  C   UNL A   1      47.008  30.447  30.244  1.00  0.00     0.031 C 
ATOM     67  C   UNL A   1      44.632  31.147  30.304  1.00  0.00     0.031 A 
BRANCH  54  68
ATOM     68  C   UNL A   1      38.895  29.205  29.097  1.00  0.00    -0.014 A 
ATOM     69  C   UNL A   1      38.079  29.029  30.225  1.00  0.00     0.009 A 
ATOM     70  C   UNL A   1      38.330  29.723  27.923  1.00  0.00     0.009 A 
ATOM     71  C   UNL A   1      36.717  29.333  30.166  1.00  0.00     0.001 A 
ATOM     72  C   UNL A   1      36.974  30.053  27.875  1.00  0.00     0.001 A 
ATOM     73  C   UNL A   1      36.167  29.849  28.994  1.00  0.00     0.000 A 
ENDBRANCH  54  68
BRANCH  55  74
ATOM     74  C   UNL A   1      48.549  26.706  29.090  1.00  0.00    -0.014 A 
ATOM     75  C   UNL A   1      49.331  26.937  27.947  1.00  0.00     0.009 A 
ATOM     76  C   UNL A   1      49.147  26.120  30.216  1.00  0.00     0.009 A 
ATOM     77  C   UNL A   1      50.676  26.561  27.922  1.00  0.00     0.001 A 
ATOM     78  C   UNL A   1      50.500  25.771  30.197  1.00  0.00     0.001 A 
ATOM     79  C   UNL A   1      51.259  25.982  29.047  1.00  0.00     0.000 A 
ENDBRANCH  55  74
BRANCH  67  80
ATOM     80  C   UNL A   1      45.083  32.473  30.844  1.00  0.00    -0.014 A 
ATOM     81  C   UNL A   1      45.383  33.545  29.989  1.00  0.00     0.009 A 
ATOM     82  C   UNL A   1      45.172  32.664  32.231  1.00  0.00     0.009 A 
ATOM     83  C   UNL A   1      45.796  34.771  30.513  1.00  0.00     0.001 A 
ATOM     84  C   UNL A   1      45.559  33.898  32.753  1.00  0.00     0.001 A 
ATOM     85  C   UNL A   1      45.878  34.948  31.894  1.00  0.00     0.000 A 
ENDBRANCH  67  80
ENDBRANCH  41  42
ENDBRANCH  33  36
ENDBRANCH  31  32
ENDBRANCH  30  31
ENDBRANCH   1  30
TORSDOF 14
ENDMDL
