MODEL 1
REMARK VINA RESULT:     -10.6      0.000      0.000
REMARK SMILES COc1ccccc1C[N@@H+](C)[C@@H](C)c1ccc(C(=O)NCCCCNC(=O)c2ccc(-c3c4nc(c(-c5ccccc5)c5ccc([nH]5)c(-c5ccccc5)c5nc(c(-c6ccccc6)c6ccc3[nH]6)C=C5)C=C4)cc2)o1
REMARK SMILES IDX 21 1 20 2 18 3 19 4 17 6 14 7 15 8 76 9 16 10 12 11 13 12
REMARK SMILES IDX 10 13 11 14 9 16 8 17 3 18 4 19 5 20 7 21 6 22 2 23 1 24
REMARK SMILES IDX 22 25 23 26 24 27 25 28 26 29 27 31 28 32 29 33 75 34 30 35
REMARK SMILES IDX 74 36 31 37 32 38 33 39 68 40 34 41 73 42 67 43 69 44 35 45
REMARK SMILES IDX 72 46 66 47 65 48 36 50 58 51 43 52 57 53 44 54 47 55 56 56
REMARK SMILES IDX 70 57 45 58 46 59 55 61 71 62 48 63 37 64 38 65 42 66 39 67
REMARK SMILES IDX 41 68 40 69 59 70 60 71 64 72 61 73 63 74 62 75 49 76 50 77
REMARK SMILES IDX 54 78 51 79 53 80 52 81
REMARK H PARENT 20 5 10 15 25 30 69 49 47 60
REMARK Flexibility Score: inf
ROOT
ATOM      1  C   UNL A   1      36.043  21.416  25.616  1.00  0.00     0.116 C 
ENDROOT
BRANCH   1   2
ATOM      2  N   UNL A   1      35.130  20.292  25.655  1.00  0.00    -0.349 N 
ATOM      3  C   UNL A   1      33.985  20.104  24.910  1.00  0.00     0.287 C 
ATOM      4  O   UNL A   1      33.512  18.968  24.881  1.00  0.00    -0.266 OA
ATOM      5  H   UNL A   1      35.354  19.575  26.292  1.00  0.00     0.163 HD
BRANCH   3   6
ATOM      6  C   UNL A   1      33.402  21.233  24.223  1.00  0.00     0.191 A 
ATOM      7  C   UNL A   1      31.948  22.873  23.958  1.00  0.00     0.161 A 
ATOM      8  C   UNL A   1      32.840  22.960  22.907  1.00  0.00     0.053 A 
ATOM      9  O   UNL A   1      32.309  21.840  24.777  1.00  0.00    -0.450 OA
ATOM     10  C   UNL A   1      33.766  21.906  23.072  1.00  0.00     0.057 A 
BRANCH   7  11
ATOM     11  C   UNL A   1      30.775  23.726  24.365  1.00  0.00     0.248 C 
ATOM     12  C   UNL A   1      30.284  24.641  23.234  1.00  0.00     0.084 C 
BRANCH  11  13
ATOM     13  N   UNL A   1      31.010  24.386  25.680  1.00  0.00    -0.325 N 
ATOM     14  C   UNL A   1      30.377  23.619  26.757  1.00  0.00     0.333 C 
ATOM     15  H   UNL A   1      32.024  24.401  25.790  1.00  0.00     0.348 HD
BRANCH  13  16
ATOM     16  C   UNL A   1      30.571  25.795  25.756  1.00  0.00     0.303 C 
BRANCH  16  17
ATOM     17  C   UNL A   1      31.624  26.777  26.220  1.00  0.00     0.048 A 
ATOM     18  C   UNL A   1      32.903  26.825  25.649  1.00  0.00     0.127 A 
ATOM     19  C   UNL A   1      33.856  27.749  26.088  1.00  0.00     0.047 A 
ATOM     20  C   UNL A   1      33.526  28.679  27.071  1.00  0.00     0.004 A 
ATOM     21  C   UNL A   1      31.305  27.734  27.201  1.00  0.00     0.013 A 
ATOM     22  C   UNL A   1      32.248  28.674  27.624  1.00  0.00     0.001 A 
BRANCH  18  23
ATOM     23  O   UNL A   1      33.269  25.935  24.676  1.00  0.00    -0.496 OA
ATOM     24  C   UNL A   1      33.537  26.606  23.444  1.00  0.00     0.278 C 
ENDBRANCH  18  23
ENDBRANCH  16  17
ENDBRANCH  13  16
ENDBRANCH  11  13
ENDBRANCH   7  11
ENDBRANCH   3   6
ENDBRANCH   1   2
BRANCH   1  25
ATOM     25  C   UNL A   1      37.160  21.260  24.587  1.00  0.00     0.023 C 
BRANCH  25  26
ATOM     26  C   UNL A   1      38.032  20.007  24.728  1.00  0.00     0.023 C 
BRANCH  26  27
ATOM     27  C   UNL A   1      38.878  19.906  25.998  1.00  0.00     0.116 C 
BRANCH  27  28
ATOM     28  N   UNL A   1      40.132  19.204  25.792  1.00  0.00    -0.352 N 
ATOM     29  C   UNL A   1      41.427  19.604  25.998  1.00  0.00     0.251 C 
ATOM     30  H   UNL A   1      40.036  18.286  25.448  1.00  0.00     0.163 HD
ATOM     31  O   UNL A   1      42.340  18.853  25.662  1.00  0.00    -0.269 OA
BRANCH  29  32
ATOM     32  C   UNL A   1      41.757  20.925  26.587  1.00  0.00     0.039 A 
ATOM     33  C   UNL A   1      42.109  21.960  25.711  1.00  0.00     0.014 A 
ATOM     34  C   UNL A   1      41.797  21.147  27.967  1.00  0.00     0.014 A 
ATOM     35  C   UNL A   1      42.448  23.221  26.208  1.00  0.00     0.010 A 
ATOM     36  C   UNL A   1      42.105  22.418  28.464  1.00  0.00     0.010 A 
ATOM     37  C   UNL A   1      42.430  23.464  27.588  1.00  0.00    -0.014 A 
BRANCH  37  38
ATOM     38  C   UNL A   1      42.738  24.814  28.118  1.00  0.00     0.031 A 
ATOM     39  C   UNL A   1      44.145  25.197  28.478  1.00  0.00     0.074 A 
ATOM     40  C   UNL A   1      41.739  25.697  28.304  1.00  0.00     0.049 A 
ATOM     41  N   UNL A   1      44.584  26.313  29.002  1.00  0.00    -0.248 NA
ATOM     42  C   UNL A   1      45.189  24.192  28.229  1.00  0.00     0.031 C 
ATOM     43  C   UNL A   1      40.325  25.449  28.022  1.00  0.00     0.029 A 
ATOM     44  N   UNL A   1      41.766  26.983  28.781  1.00  0.00    -0.354 N 
ATOM     45  C   UNL A   1      45.950  26.135  29.178  1.00  0.00     0.074 A 
ATOM     46  C   UNL A   1      46.267  24.807  28.697  1.00  0.00     0.031 C 
ATOM     47  C   UNL A   1      39.621  26.554  28.319  1.00  0.00     0.029 A 
ATOM     48  C   UNL A   1      40.532  27.578  28.822  1.00  0.00     0.049 A 
ATOM     49  H   UNL A   1      42.593  27.435  29.067  1.00  0.00     0.167 HD
ATOM     50  C   UNL A   1      46.856  26.995  29.698  1.00  0.00     0.031 A 
ATOM     51  C   UNL A   1      40.169  28.810  29.221  1.00  0.00     0.031 A 
ATOM     52  C   UNL A   1      46.567  28.330  30.146  1.00  0.00     0.049 A 
ATOM     53  C   UNL A   1      41.205  29.770  29.723  1.00  0.00     0.074 A 
ATOM     54  C   UNL A   1      47.435  29.277  30.663  1.00  0.00     0.029 A 
ATOM     55  N   UNL A   1      45.311  28.912  30.118  1.00  0.00    -0.354 N 
ATOM     56  N   UNL A   1      42.492  29.586  29.877  1.00  0.00    -0.248 NA
ATOM     57  C   UNL A   1      40.734  31.111  30.102  1.00  0.00     0.031 C 
ATOM     58  C   UNL A   1      46.702  30.435  30.948  1.00  0.00     0.029 A 
ATOM     59  C   UNL A   1      45.381  30.206  30.604  1.00  0.00     0.049 A 
ATOM     60  H   UNL A   1      44.490  28.470  29.802  1.00  0.00     0.167 HD
ATOM     61  C   UNL A   1      42.986  30.784  30.370  1.00  0.00     0.074 A 
ATOM     62  C   UNL A   1      41.863  31.692  30.483  1.00  0.00     0.031 C 
ATOM     63  C   UNL A   1      44.260  31.100  30.704  1.00  0.00     0.031 A 
BRANCH  50  64
ATOM     64  C   UNL A   1      48.264  26.501  29.819  1.00  0.00    -0.014 A 
ATOM     65  C   UNL A   1      49.190  26.708  28.786  1.00  0.00     0.009 A 
ATOM     66  C   UNL A   1      48.673  25.842  30.987  1.00  0.00     0.009 A 
ATOM     67  C   UNL A   1      50.500  26.246  28.916  1.00  0.00     0.001 A 
ATOM     68  C   UNL A   1      49.986  25.386  31.116  1.00  0.00     0.001 A 
ATOM     69  C   UNL A   1      50.897  25.585  30.079  1.00  0.00     0.000 A 
ENDBRANCH  50  64
BRANCH  51  70
ATOM     70  C   UNL A   1      38.747  29.214  29.147  1.00  0.00    -0.014 A 
ATOM     71  C   UNL A   1      37.912  29.060  30.262  1.00  0.00     0.009 A 
ATOM     72  C   UNL A   1      38.227  29.762  27.966  1.00  0.00     0.009 A 
ATOM     73  C   UNL A   1      36.571  29.441  30.192  1.00  0.00     0.001 A 
ATOM     74  C   UNL A   1      36.888  30.146  27.902  1.00  0.00     0.001 A 
ATOM     75  C   UNL A   1      36.061  29.983  29.013  1.00  0.00     0.000 A 
ENDBRANCH  51  70
BRANCH  63  76
ATOM     76  C   UNL A   1      44.500  32.486  31.211  1.00  0.00    -0.014 A 
ATOM     77  C   UNL A   1      44.815  33.524  30.321  1.00  0.00     0.009 A 
ATOM     78  C   UNL A   1      44.396  32.763  32.582  1.00  0.00     0.009 A 
ATOM     79  C   UNL A   1      45.036  34.816  30.800  1.00  0.00     0.001 A 
ATOM     80  C   UNL A   1      44.616  34.057  33.056  1.00  0.00     0.001 A 
ATOM     81  C   UNL A   1      44.938  35.081  32.166  1.00  0.00     0.000 A 
ENDBRANCH  63  76
ENDBRANCH  37  38
ENDBRANCH  29  32
ENDBRANCH  27  28
ENDBRANCH  26  27
ENDBRANCH  25  26
ENDBRANCH   1  25
TORSDOF 16
ENDMDL
MODEL 2
REMARK VINA RESULT:     -10.6      1.552      2.573
REMARK SMILES COc1ccccc1C[N@@H+](C)[C@@H](C)c1ccc(C(=O)NCCCCNC(=O)c2ccc(-c3c4nc(c(-c5ccccc5)c5ccc([nH]5)c(-c5ccccc5)c5nc(c(-c6ccccc6)c6ccc3[nH]6)C=C5)C=C4)cc2)o1
REMARK SMILES IDX 21 1 20 2 18 3 19 4 17 6 14 7 15 8 76 9 16 10 12 11 13 12
REMARK SMILES IDX 10 13 11 14 9 16 8 17 3 18 4 19 5 20 7 21 6 22 2 23 1 24
REMARK SMILES IDX 22 25 23 26 24 27 25 28 26 29 27 31 28 32 29 33 75 34 30 35
REMARK SMILES IDX 74 36 31 37 32 38 33 39 68 40 34 41 73 42 67 43 69 44 35 45
REMARK SMILES IDX 72 46 66 47 65 48 36 50 58 51 43 52 57 53 44 54 47 55 56 56
REMARK SMILES IDX 70 57 45 58 46 59 55 61 71 62 48 63 37 64 38 65 42 66 39 67
REMARK SMILES IDX 41 68 40 69 59 70 60 71 64 72 61 73 63 74 62 75 49 76 50 77
REMARK SMILES IDX 54 78 51 79 53 80 52 81
REMARK H PARENT 20 5 10 15 25 30 69 49 47 60
REMARK Flexibility Score: inf
ROOT
ATOM      1  C   UNL A   1      36.234  21.437  25.099  1.00  0.00     0.116 C 
ENDROOT
BRANCH   1   2
ATOM      2  N   UNL A   1      35.658  21.858  26.360  1.00  0.00    -0.349 N 
ATOM      3  C   UNL A   1      34.655  22.781  26.568  1.00  0.00     0.287 C 
ATOM      4  O   UNL A   1      34.114  22.786  27.674  1.00  0.00    -0.266 OA
ATOM      5  H   UNL A   1      36.029  21.433  27.168  1.00  0.00     0.163 HD
BRANCH   3   6
ATOM      6  C   UNL A   1      34.305  23.689  25.500  1.00  0.00     0.191 A 
ATOM      7  C   UNL A   1      33.951  25.677  24.608  1.00  0.00     0.161 A 
ATOM      8  C   UNL A   1      33.778  24.752  23.597  1.00  0.00     0.053 A 
ATOM      9  O   UNL A   1      34.302  25.032  25.761  1.00  0.00    -0.450 OA
ATOM     10  C   UNL A   1      33.998  23.479  24.170  1.00  0.00     0.057 A 
BRANCH   7  11
ATOM     11  C   UNL A   1      33.900  27.182  24.624  1.00  0.00     0.248 C 
ATOM     12  C   UNL A   1      33.794  27.759  26.043  1.00  0.00     0.084 C 
BRANCH  11  13
ATOM     13  N   UNL A   1      32.915  27.704  23.634  1.00  0.00    -0.325 N 
ATOM     14  C   UNL A   1      33.603  28.176  22.429  1.00  0.00     0.333 C 
ATOM     15  H   UNL A   1      32.309  26.913  23.422  1.00  0.00     0.348 HD
BRANCH  13  16
ATOM     16  C   UNL A   1      32.029  28.772  24.143  1.00  0.00     0.303 C 
BRANCH  16  17
ATOM     17  C   UNL A   1      30.571  28.642  23.757  1.00  0.00     0.048 A 
ATOM     18  C   UNL A   1      29.894  27.416  23.803  1.00  0.00     0.127 A 
ATOM     19  C   UNL A   1      28.544  27.323  23.452  1.00  0.00     0.047 A 
ATOM     20  C   UNL A   1      27.834  28.468  23.101  1.00  0.00     0.004 A 
ATOM     21  C   UNL A   1      29.833  29.789  23.414  1.00  0.00     0.013 A 
ATOM     22  C   UNL A   1      28.478  29.703  23.086  1.00  0.00     0.001 A 
BRANCH  18  23
ATOM     23  O   UNL A   1      30.551  26.266  24.149  1.00  0.00    -0.496 OA
ATOM     24  C   UNL A   1      30.095  25.778  25.413  1.00  0.00     0.278 C 
ENDBRANCH  18  23
ENDBRANCH  16  17
ENDBRANCH  13  16
ENDBRANCH  11  13
ENDBRANCH   7  11
ENDBRANCH   3   6
ENDBRANCH   1   2
BRANCH   1  25
ATOM     25  C   UNL A   1      36.279  19.921  24.924  1.00  0.00     0.023 C 
BRANCH  25  26
ATOM     26  C   UNL A   1      37.677  19.295  24.851  1.00  0.00     0.023 C 
BRANCH  26  27
ATOM     27  C   UNL A   1      38.760  19.947  25.712  1.00  0.00     0.116 C 
BRANCH  27  28
ATOM     28  N   UNL A   1      39.996  19.187  25.743  1.00  0.00    -0.352 N 
ATOM     29  C   UNL A   1      41.273  19.566  26.069  1.00  0.00     0.251 C 
ATOM     30  H   UNL A   1      39.902  18.240  25.488  1.00  0.00     0.163 HD
ATOM     31  O   UNL A   1      42.185  18.754  25.933  1.00  0.00    -0.269 OA
BRANCH  29  32
ATOM     32  C   UNL A   1      41.587  20.933  26.552  1.00  0.00     0.039 A 
ATOM     33  C   UNL A   1      41.418  21.197  27.917  1.00  0.00     0.014 A 
ATOM     34  C   UNL A   1      41.971  21.967  25.693  1.00  0.00     0.014 A 
ATOM     35  C   UNL A   1      41.680  22.471  28.428  1.00  0.00     0.010 A 
ATOM     36  C   UNL A   1      42.265  23.234  26.208  1.00  0.00     0.010 A 
ATOM     37  C   UNL A   1      42.124  23.494  27.580  1.00  0.00    -0.014 A 
BRANCH  37  38
ATOM     38  C   UNL A   1      42.454  24.832  28.124  1.00  0.00     0.031 A 
ATOM     39  C   UNL A   1      43.861  25.176  28.521  1.00  0.00     0.074 A 
ATOM     40  C   UNL A   1      41.474  25.740  28.290  1.00  0.00     0.049 A 
ATOM     41  N   UNL A   1      44.316  26.277  29.062  1.00  0.00    -0.248 NA
ATOM     42  C   UNL A   1      44.884  24.145  28.294  1.00  0.00     0.031 C 
ATOM     43  C   UNL A   1      40.061  25.532  27.971  1.00  0.00     0.029 A 
ATOM     44  N   UNL A   1      41.523  27.023  28.775  1.00  0.00    -0.354 N 
ATOM     45  C   UNL A   1      45.671  26.062  29.273  1.00  0.00     0.074 A 
ATOM     46  C   UNL A   1      45.966  24.728  28.792  1.00  0.00     0.031 C 
ATOM     47  C   UNL A   1      39.380  26.654  28.255  1.00  0.00     0.029 A 
ATOM     48  C   UNL A   1      40.304  27.651  28.787  1.00  0.00     0.049 A 
ATOM     49  H   UNL A   1      42.354  27.452  29.083  1.00  0.00     0.167 HD
ATOM     50  C   UNL A   1      46.587  26.896  29.819  1.00  0.00     0.031 A 
ATOM     51  C   UNL A   1      39.965  28.891  29.183  1.00  0.00     0.031 A 
ATOM     52  C   UNL A   1      46.322  28.235  30.267  1.00  0.00     0.049 A 
ATOM     53  C   UNL A   1      41.012  29.820  29.716  1.00  0.00     0.074 A 
ATOM     54  C   UNL A   1      47.202  29.156  30.811  1.00  0.00     0.029 A 
ATOM     55  N   UNL A   1      45.083  28.851  30.211  1.00  0.00    -0.354 N 
ATOM     56  N   UNL A   1      42.290  29.600  29.902  1.00  0.00    -0.248 NA
ATOM     57  C   UNL A   1      40.568  31.171  30.091  1.00  0.00     0.031 C 
ATOM     58  C   UNL A   1      46.493  30.332  31.084  1.00  0.00     0.029 A 
ATOM     59  C   UNL A   1      45.175  30.141  30.706  1.00  0.00     0.049 A 
ATOM     60  H   UNL A   1      44.259  28.433  29.872  1.00  0.00     0.167 HD
ATOM     61  C   UNL A   1      42.803  30.783  30.414  1.00  0.00     0.074 A 
ATOM     62  C   UNL A   1      41.702  31.720  30.504  1.00  0.00     0.031 C 
ATOM     63  C   UNL A   1      44.076  31.063  30.782  1.00  0.00     0.031 A 
BRANCH  50  64
ATOM     64  C   UNL A   1      47.978  26.363  29.973  1.00  0.00    -0.014 A 
ATOM     65  C   UNL A   1      48.383  25.747  31.165  1.00  0.00     0.009 A 
ATOM     66  C   UNL A   1      48.883  26.460  28.906  1.00  0.00     0.009 A 
ATOM     67  C   UNL A   1      49.682  25.251  31.291  1.00  0.00     0.001 A 
ATOM     68  C   UNL A   1      50.179  25.958  29.033  1.00  0.00     0.001 A 
ATOM     69  C   UNL A   1      50.578  25.358  30.228  1.00  0.00     0.000 A 
ENDBRANCH  50  64
BRANCH  51  70
ATOM     70  C   UNL A   1      38.556  29.332  29.076  1.00  0.00    -0.014 A 
ATOM     71  C   UNL A   1      38.062  29.825  27.860  1.00  0.00     0.009 A 
ATOM     72  C   UNL A   1      37.703  29.252  30.186  1.00  0.00     0.009 A 
ATOM     73  C   UNL A   1      36.734  30.241  27.760  1.00  0.00     0.001 A 
ATOM     74  C   UNL A   1      36.375  29.664  30.079  1.00  0.00     0.001 A 
ATOM     75  C   UNL A   1      35.892  30.160  28.869  1.00  0.00     0.000 A 
ENDBRANCH  51  70
BRANCH  63  76
ATOM     76  C   UNL A   1      44.340  32.440  31.302  1.00  0.00    -0.014 A 
ATOM     77  C   UNL A   1      44.234  32.714  32.674  1.00  0.00     0.009 A 
ATOM     78  C   UNL A   1      44.712  33.467  30.422  1.00  0.00     0.009 A 
ATOM     79  C   UNL A   1      44.482  34.001  33.154  1.00  0.00     0.001 A 
ATOM     80  C   UNL A   1      44.962  34.752  30.907  1.00  0.00     0.001 A 
ATOM     81  C   UNL A   1      44.844  35.018  32.271  1.00  0.00     0.000 A 
ENDBRANCH  63  76
ENDBRANCH  37  38
ENDBRANCH  29  32
ENDBRANCH  27  28
ENDBRANCH  26  27
ENDBRANCH  25  26
ENDBRANCH   1  25
TORSDOF 16
ENDMDL
MODEL 3
REMARK VINA RESULT:     -10.6      1.662      6.157
REMARK SMILES COc1ccccc1C[N@@H+](C)[C@@H](C)c1ccc(C(=O)NCCCCNC(=O)c2ccc(-c3c4nc(c(-c5ccccc5)c5ccc([nH]5)c(-c5ccccc5)c5nc(c(-c6ccccc6)c6ccc3[nH]6)C=C5)C=C4)cc2)o1
REMARK SMILES IDX 21 1 20 2 18 3 19 4 17 6 14 7 15 8 76 9 16 10 12 11 13 12
REMARK SMILES IDX 10 13 11 14 9 16 8 17 3 18 4 19 5 20 7 21 6 22 2 23 1 24
REMARK SMILES IDX 22 25 23 26 24 27 25 28 26 29 27 31 28 32 29 33 75 34 30 35
REMARK SMILES IDX 74 36 31 37 32 38 33 39 68 40 34 41 73 42 67 43 69 44 35 45
REMARK SMILES IDX 72 46 66 47 65 48 36 50 58 51 43 52 57 53 44 54 47 55 56 56
REMARK SMILES IDX 70 57 45 58 46 59 55 61 71 62 48 63 37 64 38 65 42 66 39 67
REMARK SMILES IDX 41 68 40 69 59 70 60 71 64 72 61 73 63 74 62 75 49 76 50 77
REMARK SMILES IDX 54 78 51 79 53 80 52 81
REMARK H PARENT 20 5 10 15 25 30 69 49 47 60
REMARK Flexibility Score: inf
ROOT
ATOM      1  C   UNL A   1      35.665  21.284  25.168  1.00  0.00     0.116 C 
ENDROOT
BRANCH   1   2
ATOM      2  N   UNL A   1      35.383  21.600  26.554  1.00  0.00    -0.349 N 
ATOM      3  C   UNL A   1      34.459  22.497  27.048  1.00  0.00     0.287 C 
ATOM      4  O   UNL A   1      34.173  22.411  28.242  1.00  0.00    -0.266 OA
ATOM      5  H   UNL A   1      35.918  21.116  27.225  1.00  0.00     0.163 HD
BRANCH   3   6
ATOM      6  C   UNL A   1      33.892  23.483  26.156  1.00  0.00     0.191 A 
ATOM      7  C   UNL A   1      32.270  24.410  24.981  1.00  0.00     0.161 A 
ATOM      8  C   UNL A   1      33.382  25.215  24.827  1.00  0.00     0.053 A 
ATOM      9  O   UNL A   1      32.572  23.371  25.816  1.00  0.00    -0.450 OA
ATOM     10  C   UNL A   1      34.422  24.618  25.574  1.00  0.00     0.057 A 
BRANCH   7  11
ATOM     11  C   UNL A   1      30.855  24.530  24.480  1.00  0.00     0.248 C 
ATOM     12  C   UNL A   1      30.676  23.968  23.062  1.00  0.00     0.084 C 
BRANCH  11  13
ATOM     13  N   UNL A   1      30.309  25.897  24.711  1.00  0.00    -0.325 N 
ATOM     14  C   UNL A   1      29.965  26.077  26.124  1.00  0.00     0.333 C 
ATOM     15  H   UNL A   1      31.058  26.531  24.434  1.00  0.00     0.348 HD
BRANCH  13  16
ATOM     16  C   UNL A   1      29.144  26.252  23.873  1.00  0.00     0.303 C 
BRANCH  16  17
ATOM     17  C   UNL A   1      29.177  27.640  23.273  1.00  0.00     0.048 A 
ATOM     18  C   UNL A   1      30.347  28.194  22.738  1.00  0.00     0.127 A 
ATOM     19  C   UNL A   1      30.351  29.475  22.179  1.00  0.00     0.047 A 
ATOM     20  C   UNL A   1      29.167  30.204  22.096  1.00  0.00     0.004 A 
ATOM     21  C   UNL A   1      27.989  28.385  23.167  1.00  0.00     0.013 A 
ATOM     22  C   UNL A   1      27.984  29.657  22.587  1.00  0.00     0.001 A 
BRANCH  18  23
ATOM     23  O   UNL A   1      31.533  27.511  22.791  1.00  0.00    -0.496 OA
ATOM     24  C   UNL A   1      32.642  28.401  22.649  1.00  0.00     0.278 C 
ENDBRANCH  18  23
ENDBRANCH  16  17
ENDBRANCH  13  16
ENDBRANCH  11  13
ENDBRANCH   7  11
ENDBRANCH   3   6
ENDBRANCH   1   2
BRANCH   1  25
ATOM     25  C   UNL A   1      36.279  19.900  24.970  1.00  0.00     0.023 C 
BRANCH  25  26
ATOM     26  C   UNL A   1      37.769  19.871  24.613  1.00  0.00     0.023 C 
BRANCH  26  27
ATOM     27  C   UNL A   1      38.746  20.206  25.740  1.00  0.00     0.116 C 
BRANCH  27  28
ATOM     28  N   UNL A   1      39.928  19.363  25.738  1.00  0.00    -0.352 N 
ATOM     29  C   UNL A   1      41.220  19.631  26.111  1.00  0.00     0.251 C 
ATOM     30  H   UNL A   1      39.776  18.445  25.416  1.00  0.00     0.163 HD
ATOM     31  O   UNL A   1      42.079  18.770  25.934  1.00  0.00    -0.269 OA
BRANCH  29  32
ATOM     32  C   UNL A   1      41.615  20.937  26.695  1.00  0.00     0.039 A 
ATOM     33  C   UNL A   1      42.033  21.944  25.816  1.00  0.00     0.014 A 
ATOM     34  C   UNL A   1      41.651  21.166  28.074  1.00  0.00     0.014 A 
ATOM     35  C   UNL A   1      42.435  23.189  26.308  1.00  0.00     0.010 A 
ATOM     36  C   UNL A   1      42.023  22.422  28.566  1.00  0.00     0.010 A 
ATOM     37  C   UNL A   1      42.415  23.443  27.686  1.00  0.00    -0.014 A 
BRANCH  37  38
ATOM     38  C   UNL A   1      42.790  24.777  28.210  1.00  0.00     0.031 A 
ATOM     39  C   UNL A   1      41.746  25.830  28.452  1.00  0.00     0.074 A 
ATOM     40  C   UNL A   1      44.085  25.057  28.445  1.00  0.00     0.049 A 
ATOM     41  N   UNL A   1      41.903  27.065  28.857  1.00  0.00    -0.248 NA
ATOM     42  C   UNL A   1      40.349  25.450  28.195  1.00  0.00     0.031 C 
ATOM     43  C   UNL A   1      45.204  24.139  28.230  1.00  0.00     0.029 A 
ATOM     44  N   UNL A   1      44.677  26.203  28.915  1.00  0.00    -0.354 N 
ATOM     45  C   UNL A   1      40.632  27.622  28.870  1.00  0.00     0.074 A 
ATOM     46  C   UNL A   1      39.713  26.587  28.442  1.00  0.00     0.031 C 
ATOM     47  C   UNL A   1      46.346  24.753  28.581  1.00  0.00     0.029 A 
ATOM     48  C   UNL A   1      46.039  26.108  29.031  1.00  0.00     0.049 A 
ATOM     49  H   UNL A   1      44.171  27.015  29.147  1.00  0.00     0.167 HD
ATOM     50  C   UNL A   1      40.261  28.880  29.203  1.00  0.00     0.031 A 
ATOM     51  C   UNL A   1      46.945  27.009  29.451  1.00  0.00     0.031 A 
ATOM     52  C   UNL A   1      41.152  29.909  29.665  1.00  0.00     0.049 A 
ATOM     53  C   UNL A   1      46.500  28.372  29.885  1.00  0.00     0.074 A 
ATOM     54  C   UNL A   1      40.852  31.206  30.048  1.00  0.00     0.029 A 
ATOM     55  N   UNL A   1      42.519  29.752  29.819  1.00  0.00    -0.354 N 
ATOM     56  N   UNL A   1      45.292  28.879  29.895  1.00  0.00    -0.248 NA
ATOM     57  C   UNL A   1      47.545  29.286  30.368  1.00  0.00     0.031 C 
ATOM     58  C   UNL A   1      42.042  31.835  30.435  1.00  0.00     0.029 A 
ATOM     59  C   UNL A   1      43.077  30.927  30.296  1.00  0.00     0.049 A 
ATOM     60  H   UNL A   1      43.020  28.929  29.618  1.00  0.00     0.167 HD
ATOM     61  C   UNL A   1      45.431  30.169  30.385  1.00  0.00     0.074 A 
ATOM     62  C   UNL A   1      46.837  30.367  30.668  1.00  0.00     0.031 C 
ATOM     63  C   UNL A   1      44.474  31.107  30.579  1.00  0.00     0.031 A 
BRANCH  50  64
ATOM     64  C   UNL A   1      38.809  29.216  29.064  1.00  0.00    -0.014 A 
ATOM     65  C   UNL A   1      38.289  29.663  27.841  1.00  0.00     0.009 A 
ATOM     66  C   UNL A   1      37.949  29.061  30.161  1.00  0.00     0.009 A 
ATOM     67  C   UNL A   1      36.932  29.967  27.726  1.00  0.00     0.001 A 
ATOM     68  C   UNL A   1      36.592  29.360  30.041  1.00  0.00     0.001 A 
ATOM     69  C   UNL A   1      36.085  29.817  28.824  1.00  0.00     0.000 A 
ENDBRANCH  50  64
BRANCH  51  70
ATOM     70  C   UNL A   1      48.378  26.640  29.494  1.00  0.00    -0.014 A 
ATOM     71  C   UNL A   1      48.914  26.027  30.635  1.00  0.00     0.009 A 
ATOM     72  C   UNL A   1      49.207  26.893  28.392  1.00  0.00     0.009 A 
ATOM     73  C   UNL A   1      50.265  25.679  30.674  1.00  0.00     0.001 A 
ATOM     74  C   UNL A   1      50.556  26.539  28.435  1.00  0.00     0.001 A 
ATOM     75  C   UNL A   1      51.084  25.935  29.575  1.00  0.00     0.000 A 
ENDBRANCH  51  70
BRANCH  63  76
ATOM     76  C   UNL A   1      44.922  32.423  31.131  1.00  0.00    -0.014 A 
ATOM     77  C   UNL A   1      44.987  32.628  32.517  1.00  0.00     0.009 A 
ATOM     78  C   UNL A   1      45.297  33.460  30.264  1.00  0.00     0.009 A 
ATOM     79  C   UNL A   1      45.407  33.857  33.026  1.00  0.00     0.001 A 
ATOM     80  C   UNL A   1      45.719  34.687  30.777  1.00  0.00     0.001 A 
ATOM     81  C   UNL A   1      45.771  34.886  32.156  1.00  0.00     0.000 A 
ENDBRANCH  63  76
ENDBRANCH  37  38
ENDBRANCH  29  32
ENDBRANCH  27  28
ENDBRANCH  26  27
ENDBRANCH  25  26
ENDBRANCH   1  25
TORSDOF 16
ENDMDL
