MODEL 1
REMARK VINA RESULT:     -13.1      0.000      0.000
REMARK SMILES COc1ccccc1[C@@H]1C[N@@H+](Cc2cc3c(cc2C)OCO3)C[C@H]1C(=O)NCCCCNC(=O)c1ccc(-c2c3nc(c(-c4ccccc4)c4ccc([nH]4)c(-c4ccccc4)c4nc(c(-c5ccccc5)c5ccc2[nH]5)C=C4)C=C3)cc1
REMARK SMILES IDX 29 1 28 2 27 3 25 4 26 5 24 7 9 8 10 9 11 10 23 11 8 13 3 14
REMARK SMILES IDX 4 15 5 16 7 17 6 18 2 19 1 20 12 21 13 22 14 23 18 24 15 25
REMARK SMILES IDX 17 26 19 27 16 28 22 29 20 30 21 31 30 32 31 33 32 34 33 35
REMARK SMILES IDX 34 37 35 38 36 39 82 40 37 41 81 42 38 43 39 44 40 45 75 46
REMARK SMILES IDX 41 47 80 48 74 49 76 50 42 51 79 52 73 53 72 54 43 56 65 57
REMARK SMILES IDX 50 58 64 59 51 60 54 61 63 62 77 63 52 64 53 65 62 67 78 68
REMARK SMILES IDX 55 69 44 70 45 71 49 72 46 73 48 74 47 75 66 76 67 77 71 78
REMARK SMILES IDX 68 79 70 80 69 81 56 82 57 83 61 84 58 85 60 86 59 87
REMARK H PARENT 27 6 11 12 32 36 76 55 54 66
REMARK Flexibility Score: inf
ROOT
ATOM      1  C   UNL A   1      38.804  23.356  26.447  1.00  0.00     0.023 C 
ENDROOT
BRANCH   1   2
ATOM      2  C   UNL A   1      37.401  23.782  25.924  1.00  0.00     0.116 C 
BRANCH   2   3
ATOM      3  N   UNL A   1      37.021  23.356  24.503  1.00  0.00    -0.356 N 
ATOM      4  C   UNL A   1      36.152  23.222  23.470  1.00  0.00     0.229 C 
ATOM      5  O   UNL A   1      36.827  22.874  22.466  1.00  0.00    -0.275 OA
ATOM      6  H   UNL A   1      37.858  22.975  24.150  1.00  0.00     0.163 HD
BRANCH   4   7
ATOM      7  C   UNL A   1      34.594  23.330  23.143  1.00  0.00     0.146 C 
ATOM      8  C   UNL A   1      33.577  22.587  24.058  1.00  0.00     0.096 C 
ATOM      9  C   UNL A   1      32.197  23.182  23.700  1.00  0.00     0.272 C 
ATOM     10  N   UNL A   1      32.433  24.569  23.292  1.00  0.00    -0.330 N 
ATOM     11  C   UNL A   1      33.777  24.557  22.657  1.00  0.00     0.276 C 
ATOM     12  H   UNL A   1      31.802  24.937  22.581  1.00  0.00     0.348 HD
BRANCH   8  13
ATOM     13  C   UNL A   1      33.498  21.074  24.224  1.00  0.00     0.004 A 
ATOM     14  C   UNL A   1      34.471  20.250  24.816  1.00  0.00     0.122 A 
ATOM     15  C   UNL A   1      34.421  18.855  24.661  1.00  0.00     0.047 A 
ATOM     16  C   UNL A   1      33.410  18.253  23.915  1.00  0.00     0.004 A 
ATOM     17  C   UNL A   1      32.465  20.428  23.501  1.00  0.00     0.008 A 
ATOM     18  C   UNL A   1      32.430  19.042  23.331  1.00  0.00     0.001 A 
BRANCH  14  19
ATOM     19  O   UNL A   1      35.634  20.719  25.366  1.00  0.00    -0.496 OA
ATOM     20  C   UNL A   1      36.783  19.966  25.001  1.00  0.00     0.278 C 
ENDBRANCH  14  19
ENDBRANCH   8  13
BRANCH  10  21
ATOM     21  C   UNL A   1      32.048  25.570  24.326  1.00  0.00     0.299 C 
BRANCH  21  22
ATOM     22  C   UNL A   1      31.700  26.954  23.807  1.00  0.00     0.013 A 
ATOM     23  C   UNL A   1      30.697  27.234  22.847  1.00  0.00     0.060 A 
ATOM     24  C   UNL A   1      32.240  28.017  24.510  1.00  0.00    -0.038 A 
ATOM     25  C   UNL A   1      30.141  28.505  22.832  1.00  0.00     0.166 A 
ATOM     26  C   UNL A   1      31.351  29.042  24.774  1.00  0.00     0.054 A 
ATOM     27  C   UNL A   1      33.665  28.007  24.967  1.00  0.00     0.045 C 
ATOM     28  C   UNL A   1      30.393  29.348  23.865  1.00  0.00     0.166 A 
ATOM     29  O   UNL A   1      29.238  29.060  21.981  1.00  0.00    -0.454 OA
ATOM     30  O   UNL A   1      29.648  30.477  23.876  1.00  0.00    -0.454 OA
ATOM     31  C   UNL A   1      29.138  30.402  22.537  1.00  0.00     0.468 C 
ENDBRANCH  21  22
ENDBRANCH  10  21
ENDBRANCH   4   7
ENDBRANCH   2   3
ENDBRANCH   1   2
BRANCH   1  32
ATOM     32  C   UNL A   1      39.425  21.998  26.142  1.00  0.00     0.023 C 
BRANCH  32  33
ATOM     33  C   UNL A   1      40.903  21.926  26.525  1.00  0.00     0.116 C 
BRANCH  33  34
ATOM     34  N   UNL A   1      41.857  22.292  25.461  1.00  0.00    -0.352 N 
ATOM     35  C   UNL A   1      42.830  23.281  25.372  1.00  0.00     0.251 C 
ATOM     36  H   UNL A   1      41.791  21.725  24.658  1.00  0.00     0.163 HD
ATOM     37  O   UNL A   1      43.527  23.390  24.383  1.00  0.00    -0.269 OA
BRANCH  35  38
ATOM     38  C   UNL A   1      42.957  24.259  26.473  1.00  0.00     0.039 A 
ATOM     39  C   UNL A   1      43.274  25.592  26.199  1.00  0.00     0.014 A 
ATOM     40  C   UNL A   1      42.601  23.880  27.754  1.00  0.00     0.014 A 
ATOM     41  C   UNL A   1      43.037  26.566  27.176  1.00  0.00     0.010 A 
ATOM     42  C   UNL A   1      42.161  24.854  28.628  1.00  0.00     0.010 A 
ATOM     43  C   UNL A   1      42.377  26.215  28.364  1.00  0.00    -0.014 A 
BRANCH  43  44
ATOM     44  C   UNL A   1      41.899  27.207  29.368  1.00  0.00     0.031 A 
ATOM     45  C   UNL A   1      42.618  27.313  30.692  1.00  0.00     0.074 A 
ATOM     46  C   UNL A   1      40.745  27.880  29.183  1.00  0.00     0.049 A 
ATOM     47  N   UNL A   1      42.221  27.865  31.811  1.00  0.00    -0.248 NA
ATOM     48  C   UNL A   1      43.907  26.608  30.801  1.00  0.00     0.031 C 
ATOM     49  C   UNL A   1      39.882  27.809  28.001  1.00  0.00     0.029 A 
ATOM     50  N   UNL A   1      40.086  28.753  30.015  1.00  0.00    -0.354 N 
ATOM     51  C   UNL A   1      43.153  27.473  32.765  1.00  0.00     0.074 A 
ATOM     52  C   UNL A   1      44.076  26.574  32.113  1.00  0.00     0.031 C 
ATOM     53  C   UNL A   1      38.841  28.644  28.161  1.00  0.00     0.029 A 
ATOM     54  C   UNL A   1      38.932  29.269  29.474  1.00  0.00     0.049 A 
ATOM     55  H   UNL A   1      40.411  28.989  30.914  1.00  0.00     0.167 HD
ATOM     56  C   UNL A   1      43.264  27.859  34.058  1.00  0.00     0.031 A 
ATOM     57  C   UNL A   1      38.047  30.148  29.982  1.00  0.00     0.031 A 
ATOM     58  C   UNL A   1      42.431  28.862  34.656  1.00  0.00     0.049 A 
ATOM     59  C   UNL A   1      38.274  30.696  31.363  1.00  0.00     0.074 A 
ATOM     60  C   UNL A   1      42.547  29.452  35.902  1.00  0.00     0.029 A 
ATOM     61  N   UNL A   1      41.349  29.456  34.025  1.00  0.00    -0.354 N 
ATOM     62  N   UNL A   1      39.202  30.376  32.234  1.00  0.00    -0.248 NA
ATOM     63  C   UNL A   1      37.345  31.736  31.826  1.00  0.00     0.031 C 
ATOM     64  C   UNL A   1      41.518  30.391  36.032  1.00  0.00     0.029 A 
ATOM     65  C   UNL A   1      40.787  30.410  34.854  1.00  0.00     0.049 A 
ATOM     66  H   UNL A   1      41.027  29.231  33.123  1.00  0.00     0.167 HD
ATOM     67  C   UNL A   1      38.983  31.191  33.336  1.00  0.00     0.074 A 
ATOM     68  C   UNL A   1      37.845  32.030  33.019  1.00  0.00     0.031 C 
ATOM     69  C   UNL A   1      39.663  31.241  34.508  1.00  0.00     0.031 A 
BRANCH  56  70
ATOM     70  C   UNL A   1      44.345  27.211  34.882  1.00  0.00    -0.014 A 
ATOM     71  C   UNL A   1      45.646  27.741  34.939  1.00  0.00     0.009 A 
ATOM     72  C   UNL A   1      44.068  26.032  35.590  1.00  0.00     0.009 A 
ATOM     73  C   UNL A   1      46.661  27.063  35.616  1.00  0.00     0.001 A 
ATOM     74  C   UNL A   1      45.075  25.378  36.304  1.00  0.00     0.001 A 
ATOM     75  C   UNL A   1      46.375  25.882  36.299  1.00  0.00     0.000 A 
ENDBRANCH  56  70
BRANCH  57  76
ATOM     76  C   UNL A   1      36.903  30.610  29.152  1.00  0.00    -0.014 A 
ATOM     77  C   UNL A   1      35.892  29.707  28.784  1.00  0.00     0.009 A 
ATOM     78  C   UNL A   1      36.795  31.949  28.749  1.00  0.00     0.009 A 
ATOM     79  C   UNL A   1      34.808  30.131  28.012  1.00  0.00     0.001 A 
ATOM     80  C   UNL A   1      35.697  32.376  27.998  1.00  0.00     0.001 A 
ATOM     81  C   UNL A   1      34.708  31.466  27.625  1.00  0.00     0.000 A 
ENDBRANCH  57  76
BRANCH  69  82
ATOM     82  C   UNL A   1      39.224  32.259  35.519  1.00  0.00    -0.014 A 
ATOM     83  C   UNL A   1      38.284  31.939  36.509  1.00  0.00     0.009 A 
ATOM     84  C   UNL A   1      39.816  33.532  35.521  1.00  0.00     0.009 A 
ATOM     85  C   UNL A   1      37.930  32.884  37.473  1.00  0.00     0.001 A 
ATOM     86  C   UNL A   1      39.479  34.465  36.500  1.00  0.00     0.001 A 
ATOM     87  C   UNL A   1      38.532  34.143  37.472  1.00  0.00     0.000 A 
ENDBRANCH  69  82
ENDBRANCH  43  44
ENDBRANCH  35  38
ENDBRANCH  33  34
ENDBRANCH  32  33
ENDBRANCH   1  32
TORSDOF 15
ENDMDL
MODEL 2
REMARK VINA RESULT:     -12.9      3.713      7.902
REMARK SMILES COc1ccccc1[C@@H]1C[N@@H+](Cc2cc3c(cc2C)OCO3)C[C@H]1C(=O)NCCCCNC(=O)c1ccc(-c2c3nc(c(-c4ccccc4)c4ccc([nH]4)c(-c4ccccc4)c4nc(c(-c5ccccc5)c5ccc2[nH]5)C=C4)C=C3)cc1
REMARK SMILES IDX 29 1 28 2 27 3 25 4 26 5 24 7 9 8 10 9 11 10 23 11 8 13 3 14
REMARK SMILES IDX 4 15 5 16 7 17 6 18 2 19 1 20 12 21 13 22 14 23 18 24 15 25
REMARK SMILES IDX 17 26 19 27 16 28 22 29 20 30 21 31 30 32 31 33 32 34 33 35
REMARK SMILES IDX 34 37 35 38 36 39 82 40 37 41 81 42 38 43 39 44 40 45 75 46
REMARK SMILES IDX 41 47 80 48 74 49 76 50 42 51 79 52 73 53 72 54 43 56 65 57
REMARK SMILES IDX 50 58 64 59 51 60 54 61 63 62 77 63 52 64 53 65 62 67 78 68
REMARK SMILES IDX 55 69 44 70 45 71 49 72 46 73 48 74 47 75 66 76 67 77 71 78
REMARK SMILES IDX 68 79 70 80 69 81 56 82 57 83 61 84 58 85 60 86 59 87
REMARK H PARENT 27 6 11 12 32 36 76 55 54 66
REMARK Flexibility Score: inf
ROOT
ATOM      1  C   UNL A   1      31.600  29.381  26.309  1.00  0.00     0.023 C 
ENDROOT
BRANCH   1   2
ATOM      2  C   UNL A   1      31.849  28.133  27.208  1.00  0.00     0.116 C 
BRANCH   2   3
ATOM      3  N   UNL A   1      32.847  27.089  26.701  1.00  0.00    -0.356 N 
ATOM      4  C   UNL A   1      33.550  26.457  25.727  1.00  0.00     0.229 C 
ATOM      5  O   UNL A   1      34.395  25.724  26.303  1.00  0.00    -0.275 OA
ATOM      6  H   UNL A   1      33.132  26.630  27.524  1.00  0.00     0.163 HD
BRANCH   4   7
ATOM      7  C   UNL A   1      33.621  26.330  24.138  1.00  0.00     0.146 C 
ATOM      8  C   UNL A   1      33.215  24.984  23.470  1.00  0.00     0.096 C 
ATOM      9  C   UNL A   1      33.047  25.309  21.969  1.00  0.00     0.272 C 
ATOM     10  N   UNL A   1      32.605  26.703  21.890  1.00  0.00    -0.330 N 
ATOM     11  C   UNL A   1      33.244  27.373  23.053  1.00  0.00     0.276 C 
ATOM     12  H   UNL A   1      32.919  27.224  21.072  1.00  0.00     0.348 HD
BRANCH   8  13
ATOM     13  C   UNL A   1      33.940  23.658  23.668  1.00  0.00     0.004 A 
ATOM     14  C   UNL A   1      33.390  22.482  24.208  1.00  0.00     0.122 A 
ATOM     15  C   UNL A   1      34.218  21.418  24.603  1.00  0.00     0.047 A 
ATOM     16  C   UNL A   1      35.603  21.503  24.474  1.00  0.00     0.004 A 
ATOM     17  C   UNL A   1      35.348  23.698  23.521  1.00  0.00     0.008 A 
ATOM     18  C   UNL A   1      36.170  22.647  23.934  1.00  0.00     0.001 A 
BRANCH  14  19
ATOM     19  O   UNL A   1      32.085  22.363  24.604  1.00  0.00    -0.496 OA
ATOM     20  C   UNL A   1      31.795  23.029  25.825  1.00  0.00     0.278 C 
ENDBRANCH  14  19
ENDBRANCH   8  13
BRANCH  10  21
ATOM     21  C   UNL A   1      31.155  26.853  21.579  1.00  0.00     0.299 C 
BRANCH  21  22
ATOM     22  C   UNL A   1      30.410  27.894  22.396  1.00  0.00     0.013 A 
ATOM     23  C   UNL A   1      30.374  29.280  22.107  1.00  0.00     0.060 A 
ATOM     24  C   UNL A   1      29.517  27.403  23.331  1.00  0.00    -0.038 A 
ATOM     25  C   UNL A   1      29.303  30.022  22.586  1.00  0.00     0.166 A 
ATOM     26  C   UNL A   1      28.291  28.042  23.347  1.00  0.00     0.054 A 
ATOM     27  C   UNL A   1      29.869  26.246  24.214  1.00  0.00     0.045 C 
ATOM     28  C   UNL A   1      28.226  29.372  23.096  1.00  0.00     0.166 A 
ATOM     29  O   UNL A   1      29.063  31.358  22.528  1.00  0.00    -0.454 OA
ATOM     30  O   UNL A   1      27.150  30.154  23.340  1.00  0.00    -0.454 OA
ATOM     31  C   UNL A   1      27.796  31.432  23.240  1.00  0.00     0.468 C 
ENDBRANCH  21  22
ENDBRANCH  10  21
ENDBRANCH   4   7
ENDBRANCH   2   3
ENDBRANCH   1   2
BRANCH   1  32
ATOM     32  C   UNL A   1      32.281  30.723  26.550  1.00  0.00     0.023 C 
BRANCH  32  33
ATOM     33  C   UNL A   1      33.683  30.575  27.142  1.00  0.00     0.116 C 
BRANCH  33  34
ATOM     34  N   UNL A   1      33.961  31.394  28.337  1.00  0.00    -0.352 N 
ATOM     35  C   UNL A   1      35.037  31.433  29.218  1.00  0.00     0.251 C 
ATOM     36  H   UNL A   1      33.247  32.036  28.553  1.00  0.00     0.163 HD
ATOM     37  O   UNL A   1      35.061  32.217  30.145  1.00  0.00    -0.269 OA
BRANCH  35  38
ATOM     38  C   UNL A   1      36.127  30.448  29.058  1.00  0.00     0.039 A 
ATOM     39  C   UNL A   1      36.877  30.410  27.880  1.00  0.00     0.014 A 
ATOM     40  C   UNL A   1      36.502  29.678  30.144  1.00  0.00     0.014 A 
ATOM     41  C   UNL A   1      38.110  29.748  27.875  1.00  0.00     0.010 A 
ATOM     42  C   UNL A   1      37.803  29.222  30.206  1.00  0.00     0.010 A 
ATOM     43  C   UNL A   1      38.632  29.238  29.074  1.00  0.00    -0.014 A 
BRANCH  43  44
ATOM     44  C   UNL A   1      40.015  28.702  29.211  1.00  0.00     0.031 A 
ATOM     45  C   UNL A   1      41.115  29.623  29.684  1.00  0.00     0.074 A 
ATOM     46  C   UNL A   1      40.329  27.470  28.760  1.00  0.00     0.049 A 
ATOM     47  N   UNL A   1      42.413  29.480  29.596  1.00  0.00    -0.248 NA
ATOM     48  C   UNL A   1      40.695  30.926  30.228  1.00  0.00     0.031 C 
ATOM     49  C   UNL A   1      39.398  26.497  28.181  1.00  0.00     0.029 A 
ATOM     50  N   UNL A   1      41.545  26.831  28.702  1.00  0.00    -0.354 N 
ATOM     51  C   UNL A   1      42.944  30.711  29.964  1.00  0.00     0.074 A 
ATOM     52  C   UNL A   1      41.831  31.603  30.191  1.00  0.00     0.031 C 
ATOM     53  C   UNL A   1      40.065  25.370  27.880  1.00  0.00     0.029 A 
ATOM     54  C   UNL A   1      41.477  25.555  28.193  1.00  0.00     0.049 A 
ATOM     55  H   UNL A   1      42.386  27.247  29.000  1.00  0.00     0.167 HD
ATOM     56  C   UNL A   1      44.239  31.062  30.146  1.00  0.00     0.031 A 
ATOM     57  C   UNL A   1      42.444  24.640  28.001  1.00  0.00     0.031 A 
ATOM     58  C   UNL A   1      45.328  30.132  30.062  1.00  0.00     0.049 A 
ATOM     59  C   UNL A   1      43.861  24.988  28.363  1.00  0.00     0.074 A 
ATOM     60  C   UNL A   1      46.659  30.328  30.379  1.00  0.00     0.029 A 
ATOM     61  N   UNL A   1      45.195  28.809  29.666  1.00  0.00    -0.354 N 
ATOM     62  N   UNL A   1      44.346  26.133  28.782  1.00  0.00    -0.248 NA
ATOM     63  C   UNL A   1      44.860  23.918  28.242  1.00  0.00     0.031 C 
ATOM     64  C   UNL A   1      47.338  29.124  30.155  1.00  0.00     0.029 A 
ATOM     65  C   UNL A   1      46.421  28.173  29.735  1.00  0.00     0.049 A 
ATOM     66  H   UNL A   1      44.355  28.386  29.379  1.00  0.00     0.167 HD
ATOM     67  C   UNL A   1      45.700  25.914  28.999  1.00  0.00     0.074 A 
ATOM     68  C   UNL A   1      45.956  24.524  28.678  1.00  0.00     0.031 C 
ATOM     69  C   UNL A   1      46.647  26.785  29.424  1.00  0.00     0.031 A 
BRANCH  56  70
ATOM     70  C   UNL A   1      44.524  32.501  30.485  1.00  0.00    -0.014 A 
ATOM     71  C   UNL A   1      44.761  33.461  29.486  1.00  0.00     0.009 A 
ATOM     72  C   UNL A   1      44.586  32.899  31.830  1.00  0.00     0.009 A 
ATOM     73  C   UNL A   1      45.134  34.763  29.825  1.00  0.00     0.001 A 
ATOM     74  C   UNL A   1      44.916  34.214  32.166  1.00  0.00     0.001 A 
ATOM     75  C   UNL A   1      45.211  35.139  31.165  1.00  0.00     0.000 A 
ENDBRANCH  56  70
BRANCH  57  76
ATOM     76  C   UNL A   1      42.093  23.285  27.498  1.00  0.00    -0.014 A 
ATOM     77  C   UNL A   1      42.250  22.978  26.137  1.00  0.00     0.009 A 
ATOM     78  C   UNL A   1      41.630  22.288  28.368  1.00  0.00     0.009 A 
ATOM     79  C   UNL A   1      41.932  21.706  25.654  1.00  0.00     0.001 A 
ATOM     80  C   UNL A   1      41.335  21.009  27.887  1.00  0.00     0.001 A 
ATOM     81  C   UNL A   1      41.481  20.721  26.530  1.00  0.00     0.000 A 
ENDBRANCH  57  76
BRANCH  69  82
ATOM     82  C   UNL A   1      48.039  26.258  29.606  1.00  0.00    -0.014 A 
ATOM     83  C   UNL A   1      48.961  26.261  28.549  1.00  0.00     0.009 A 
ATOM     84  C   UNL A   1      48.452  25.820  30.874  1.00  0.00     0.009 A 
ATOM     85  C   UNL A   1      50.268  25.816  28.755  1.00  0.00     0.001 A 
ATOM     86  C   UNL A   1      49.766  25.399  31.083  1.00  0.00     0.001 A 
ATOM     87  C   UNL A   1      50.670  25.392  30.022  1.00  0.00     0.000 A 
ENDBRANCH  69  82
ENDBRANCH  43  44
ENDBRANCH  35  38
ENDBRANCH  33  34
ENDBRANCH  32  33
ENDBRANCH   1  32
TORSDOF 15
ENDMDL
MODEL 3
REMARK VINA RESULT:     -12.8      2.876      7.714
REMARK SMILES COc1ccccc1[C@@H]1C[N@@H+](Cc2cc3c(cc2C)OCO3)C[C@H]1C(=O)NCCCCNC(=O)c1ccc(-c2c3nc(c(-c4ccccc4)c4ccc([nH]4)c(-c4ccccc4)c4nc(c(-c5ccccc5)c5ccc2[nH]5)C=C4)C=C3)cc1
REMARK SMILES IDX 29 1 28 2 27 3 25 4 26 5 24 7 9 8 10 9 11 10 23 11 8 13 3 14
REMARK SMILES IDX 4 15 5 16 7 17 6 18 2 19 1 20 12 21 13 22 14 23 18 24 15 25
REMARK SMILES IDX 17 26 19 27 16 28 22 29 20 30 21 31 30 32 31 33 32 34 33 35
REMARK SMILES IDX 34 37 35 38 36 39 82 40 37 41 81 42 38 43 39 44 40 45 75 46
REMARK SMILES IDX 41 47 80 48 74 49 76 50 42 51 79 52 73 53 72 54 43 56 65 57
REMARK SMILES IDX 50 58 64 59 51 60 54 61 63 62 77 63 52 64 53 65 62 67 78 68
REMARK SMILES IDX 55 69 44 70 45 71 49 72 46 73 48 74 47 75 66 76 67 77 71 78
REMARK SMILES IDX 68 79 70 80 69 81 56 82 57 83 61 84 58 85 60 86 59 87
REMARK H PARENT 27 6 11 12 32 36 76 55 54 66
REMARK Flexibility Score: inf
ROOT
ATOM      1  C   UNL A   1      31.729  29.386  26.558  1.00  0.00     0.023 C 
ENDROOT
BRANCH   1   2
ATOM      2  C   UNL A   1      31.801  28.008  27.282  1.00  0.00     0.116 C 
BRANCH   2   3
ATOM      3  N   UNL A   1      32.821  26.993  26.760  1.00  0.00    -0.356 N 
ATOM      4  C   UNL A   1      33.539  26.392  25.779  1.00  0.00     0.229 C 
ATOM      5  O   UNL A   1      34.396  25.665  26.344  1.00  0.00    -0.275 OA
ATOM      6  H   UNL A   1      33.112  26.524  27.576  1.00  0.00     0.163 HD
BRANCH   4   7
ATOM      7  C   UNL A   1      33.618  26.294  24.188  1.00  0.00     0.146 C 
ATOM      8  C   UNL A   1      33.232  24.955  23.494  1.00  0.00     0.096 C 
ATOM      9  C   UNL A   1      33.067  25.305  21.998  1.00  0.00     0.272 C 
ATOM     10  N   UNL A   1      32.608  26.695  21.942  1.00  0.00    -0.330 N 
ATOM     11  C   UNL A   1      33.233  27.352  23.120  1.00  0.00     0.276 C 
ATOM     12  H   UNL A   1      32.919  27.234  21.135  1.00  0.00     0.348 HD
BRANCH   8  13
ATOM     13  C   UNL A   1      33.973  23.635  23.672  1.00  0.00     0.004 A 
ATOM     14  C   UNL A   1      33.444  22.452  24.217  1.00  0.00     0.122 A 
ATOM     15  C   UNL A   1      34.289  21.394  24.590  1.00  0.00     0.047 A 
ATOM     16  C   UNL A   1      35.671  21.491  24.434  1.00  0.00     0.004 A 
ATOM     17  C   UNL A   1      35.377  23.688  23.495  1.00  0.00     0.008 A 
ATOM     18  C   UNL A   1      36.216  22.642  23.887  1.00  0.00     0.001 A 
BRANCH  14  19
ATOM     19  O   UNL A   1      32.149  22.320  24.639  1.00  0.00    -0.496 OA
ATOM     20  C   UNL A   1      31.966  22.596  26.021  1.00  0.00     0.278 C 
ENDBRANCH  14  19
ENDBRANCH   8  13
BRANCH  10  21
ATOM     21  C   UNL A   1      31.158  26.833  21.628  1.00  0.00     0.299 C 
BRANCH  21  22
ATOM     22  C   UNL A   1      30.405  27.878  22.432  1.00  0.00     0.013 A 
ATOM     23  C   UNL A   1      30.385  29.265  22.145  1.00  0.00     0.060 A 
ATOM     24  C   UNL A   1      29.490  27.392  23.349  1.00  0.00    -0.038 A 
ATOM     25  C   UNL A   1      29.311  30.014  22.605  1.00  0.00     0.166 A 
ATOM     26  C   UNL A   1      28.269  28.041  23.342  1.00  0.00     0.054 A 
ATOM     27  C   UNL A   1      29.815  26.231  24.235  1.00  0.00     0.045 C 
ATOM     28  C   UNL A   1      28.219  29.372  23.092  1.00  0.00     0.166 A 
ATOM     29  O   UNL A   1      29.083  31.352  22.545  1.00  0.00    -0.454 OA
ATOM     30  O   UNL A   1      27.145  30.162  23.317  1.00  0.00    -0.454 OA
ATOM     31  C   UNL A   1      27.802  31.435  23.233  1.00  0.00     0.468 C 
ENDBRANCH  21  22
ENDBRANCH  10  21
ENDBRANCH   4   7
ENDBRANCH   2   3
ENDBRANCH   1   2
BRANCH   1  32
ATOM     32  C   UNL A   1      32.969  30.167  26.140  1.00  0.00     0.023 C 
BRANCH  32  33
ATOM     33  C   UNL A   1      33.537  31.023  27.274  1.00  0.00     0.116 C 
BRANCH  33  34
ATOM     34  N   UNL A   1      32.858  32.312  27.501  1.00  0.00    -0.352 N 
ATOM     35  C   UNL A   1      33.228  33.457  28.198  1.00  0.00     0.251 C 
ATOM     36  H   UNL A   1      31.970  32.374  27.079  1.00  0.00     0.163 HD
ATOM     37  O   UNL A   1      32.502  34.430  28.240  1.00  0.00    -0.269 OA
BRANCH  35  38
ATOM     38  C   UNL A   1      34.495  33.451  28.960  1.00  0.00     0.039 A 
ATOM     39  C   UNL A   1      34.608  32.705  30.136  1.00  0.00     0.014 A 
ATOM     40  C   UNL A   1      35.611  34.058  28.414  1.00  0.00     0.014 A 
ATOM     41  C   UNL A   1      35.880  32.413  30.641  1.00  0.00     0.010 A 
ATOM     42  C   UNL A   1      36.857  33.588  28.779  1.00  0.00     0.010 A 
ATOM     43  C   UNL A   1      37.020  32.764  29.903  1.00  0.00    -0.014 A 
BRANCH  43  44
ATOM     44  C   UNL A   1      38.399  32.321  30.252  1.00  0.00     0.031 A 
ATOM     45  C   UNL A   1      38.944  31.059  29.626  1.00  0.00     0.074 A 
ATOM     46  C   UNL A   1      39.094  32.927  31.236  1.00  0.00     0.049 A 
ATOM     47  N   UNL A   1      39.965  30.325  29.989  1.00  0.00    -0.248 NA
ATOM     48  C   UNL A   1      38.169  30.488  28.510  1.00  0.00     0.031 C 
ATOM     49  C   UNL A   1      38.662  34.096  32.007  1.00  0.00     0.029 A 
ATOM     50  N   UNL A   1      40.322  32.620  31.773  1.00  0.00    -0.354 N 
ATOM     51  C   UNL A   1      39.876  29.167  29.225  1.00  0.00     0.074 A 
ATOM     52  C   UNL A   1      38.663  29.263  28.448  1.00  0.00     0.031 C 
ATOM     53  C   UNL A   1      39.630  34.438  32.874  1.00  0.00     0.029 A 
ATOM     54  C   UNL A   1      40.727  33.485  32.761  1.00  0.00     0.049 A 
ATOM     55  H   UNL A   1      40.862  31.851  31.475  1.00  0.00     0.167 HD
ATOM     56  C   UNL A   1      40.747  28.134  29.137  1.00  0.00     0.031 A 
ATOM     57  C   UNL A   1      41.856  33.506  33.493  1.00  0.00     0.031 A 
ATOM     58  C   UNL A   1      42.019  28.115  29.800  1.00  0.00     0.049 A 
ATOM     59  C   UNL A   1      42.892  32.441  33.267  1.00  0.00     0.074 A 
ATOM     60  C   UNL A   1      43.051  27.206  29.665  1.00  0.00     0.029 A 
ATOM     61  N   UNL A   1      42.445  29.083  30.698  1.00  0.00    -0.354 N 
ATOM     62  N   UNL A   1      42.834  31.388  32.487  1.00  0.00    -0.248 NA
ATOM     63  C   UNL A   1      44.155  32.574  34.009  1.00  0.00     0.031 C 
ATOM     64  C   UNL A   1      44.099  27.615  30.499  1.00  0.00     0.029 A 
ATOM     65  C   UNL A   1      43.729  28.797  31.122  1.00  0.00     0.049 A 
ATOM     66  H   UNL A   1      41.913  29.858  30.989  1.00  0.00     0.167 HD
ATOM     67  C   UNL A   1      44.058  30.747  32.623  1.00  0.00     0.074 A 
ATOM     68  C   UNL A   1      44.844  31.537  33.550  1.00  0.00     0.031 C 
ATOM     69  C   UNL A   1      44.494  29.607  32.035  1.00  0.00     0.031 A 
BRANCH  56  70
ATOM     70  C   UNL A   1      40.353  26.971  28.266  1.00  0.00    -0.014 A 
ATOM     71  C   UNL A   1      39.564  25.916  28.756  1.00  0.00     0.009 A 
ATOM     72  C   UNL A   1      40.804  26.913  26.938  1.00  0.00     0.009 A 
ATOM     73  C   UNL A   1      39.306  24.795  27.966  1.00  0.00     0.001 A 
ATOM     74  C   UNL A   1      40.506  25.809  26.134  1.00  0.00     0.001 A 
ATOM     75  C   UNL A   1      39.777  24.742  26.655  1.00  0.00     0.000 A 
ENDBRANCH  56  70
BRANCH  57  76
ATOM     76  C   UNL A   1      42.090  34.610  34.461  1.00  0.00    -0.014 A 
ATOM     77  C   UNL A   1      41.743  34.446  35.812  1.00  0.00     0.009 A 
ATOM     78  C   UNL A   1      42.684  35.814  34.057  1.00  0.00     0.009 A 
ATOM     79  C   UNL A   1      41.966  35.473  36.733  1.00  0.00     0.001 A 
ATOM     80  C   UNL A   1      42.929  36.831  34.985  1.00  0.00     0.001 A 
ATOM     81  C   UNL A   1      42.564  36.661  36.320  1.00  0.00     0.000 A 
ENDBRANCH  57  76
BRANCH  69  82
ATOM     82  C   UNL A   1      45.894  29.162  32.342  1.00  0.00    -0.014 A 
ATOM     83  C   UNL A   1      46.159  28.274  33.395  1.00  0.00     0.009 A 
ATOM     84  C   UNL A   1      46.949  29.582  31.517  1.00  0.00     0.009 A 
ATOM     85  C   UNL A   1      47.462  27.831  33.628  1.00  0.00     0.001 A 
ATOM     86  C   UNL A   1      48.245  29.118  31.738  1.00  0.00     0.001 A 
ATOM     87  C   UNL A   1      48.501  28.247  32.796  1.00  0.00     0.000 A 
ENDBRANCH  69  82
ENDBRANCH  43  44
ENDBRANCH  35  38
ENDBRANCH  33  34
ENDBRANCH  32  33
ENDBRANCH   1  32
TORSDOF 15
ENDMDL
