MODEL 1
REMARK VINA RESULT:     -11.4      0.000      0.000
REMARK SMILES CC(C)c1nc(C(=O)NCCCCNC(=O)c2ccc(-c3c4nc(c(-c5ccccc5)c5ccc([nH]5)c(-c5ccccc5)c5nc(c(-c6ccccc6)c6ccc3[nH]6)C=C5)C=C4)cc2)nn1-c1ccccc1F
REMARK SMILES IDX 12 1 11 2 10 3 9 4 7 5 8 6 6 8 4 9 5 10 66 11 65 12 2 13
REMARK SMILES IDX 1 14 3 15 67 16 68 17 72 18 69 19 71 20 73 21 70 22 13 23
REMARK SMILES IDX 14 24 15 25 16 27 17 28 18 29 64 30 19 31 63 32 20 33 21 34
REMARK SMILES IDX 22 35 57 36 23 37 62 38 56 39 58 40 24 41 61 42 55 43 54 44
REMARK SMILES IDX 25 46 47 47 32 48 46 49 33 50 36 51 45 52 59 53 34 54 35 55
REMARK SMILES IDX 44 57 60 58 37 59 26 60 27 61 31 62 28 63 30 64 29 65 48 66
REMARK SMILES IDX 49 67 53 68 50 69 52 70 51 71 38 72 39 73 43 74 40 75 42 76
REMARK SMILES IDX 41 77
REMARK H PARENT 9 7 14 26 58 45 36 56
REMARK Flexibility Score: inf
ROOT
ATOM      1  C   UNL A   1      34.636  31.113  27.840  1.00  0.00     0.023 C 
ENDROOT
BRANCH   1   2
ATOM      2  C   UNL A   1      35.354  29.877  27.283  1.00  0.00     0.023 C 
BRANCH   2   3
ATOM      3  C   UNL A   1      34.461  28.807  26.647  1.00  0.00     0.116 C 
BRANCH   3   4
ATOM      4  N   UNL A   1      33.188  28.638  27.337  1.00  0.00    -0.349 N 
ATOM      5  C   UNL A   1      32.191  27.687  27.182  1.00  0.00     0.290 C 
ATOM      6  O   UNL A   1      31.181  27.827  27.889  1.00  0.00    -0.266 OA
ATOM      7  H   UNL A   1      33.006  29.313  28.029  1.00  0.00     0.163 HD
BRANCH   5   8
ATOM      8  C   UNL A   1      32.320  26.584  26.201  1.00  0.00     0.239 A 
ATOM      9  C   UNL A   1      32.330  25.541  24.334  1.00  0.00     0.136 A 
ATOM     10  N   UNL A   1      31.908  26.668  24.881  1.00  0.00    -0.207 NA
ATOM     11  N   UNL A   1      33.062  24.848  25.283  1.00  0.00    -0.214 N 
ATOM     12  N   UNL A   1      32.815  25.372  26.501  1.00  0.00    -0.140 NA
BRANCH   9  13
ATOM     13  C   UNL A   1      31.940  24.977  22.995  1.00  0.00     0.051 C 
ATOM     14  C   UNL A   1      30.649  24.164  23.123  1.00  0.00     0.016 C 
ATOM     15  C   UNL A   1      31.780  26.068  21.938  1.00  0.00     0.016 C 
ENDBRANCH   9  13
BRANCH  11  16
ATOM     16  C   UNL A   1      33.992  23.799  25.165  1.00  0.00     0.102 A 
ATOM     17  C   UNL A   1      35.340  24.103  24.921  1.00  0.00     0.031 A 
ATOM     18  C   UNL A   1      33.575  22.471  25.164  1.00  0.00     0.148 A 
ATOM     19  C   UNL A   1      36.262  23.074  24.737  1.00  0.00     0.002 A 
ATOM     20  C   UNL A   1      34.492  21.443  24.962  1.00  0.00     0.041 A 
ATOM     21  F   UNL A   1      32.276  22.148  25.245  1.00  0.00    -0.205 F 
ATOM     22  C   UNL A   1      35.839  21.744  24.760  1.00  0.00     0.003 A 
ENDBRANCH  11  16
ENDBRANCH   5   8
ENDBRANCH   3   4
ENDBRANCH   2   3
ENDBRANCH   1   2
BRANCH   1  23
ATOM     23  C   UNL A   1      35.552  32.271  28.227  1.00  0.00     0.116 C 
BRANCH  23  24
ATOM     24  N   UNL A   1      35.616  32.502  29.668  1.00  0.00    -0.352 N 
ATOM     25  C   UNL A   1      36.239  31.728  30.621  1.00  0.00     0.251 C 
ATOM     26  H   UNL A   1      35.156  33.308  29.998  1.00  0.00     0.163 HD
ATOM     27  O   UNL A   1      35.914  31.816  31.811  1.00  0.00    -0.269 OA
BRANCH  25  28
ATOM     28  C   UNL A   1      37.293  30.784  30.222  1.00  0.00     0.039 A 
ATOM     29  C   UNL A   1      38.547  31.247  29.808  1.00  0.00     0.014 A 
ATOM     30  C   UNL A   1      37.026  29.416  30.275  1.00  0.00     0.014 A 
ATOM     31  C   UNL A   1      39.561  30.327  29.547  1.00  0.00     0.010 A 
ATOM     32  C   UNL A   1      38.053  28.510  30.107  1.00  0.00     0.010 A 
ATOM     33  C   UNL A   1      39.319  28.957  29.728  1.00  0.00    -0.014 A 
BRANCH  33  34
ATOM     34  C   UNL A   1      40.440  28.009  29.732  1.00  0.00     0.031 A 
ATOM     35  C   UNL A   1      41.225  27.996  31.003  1.00  0.00     0.074 A 
ATOM     36  C   UNL A   1      40.591  27.036  28.806  1.00  0.00     0.049 A 
ATOM     37  N   UNL A   1      42.491  28.205  31.165  1.00  0.00    -0.248 NA
ATOM     38  C   UNL A   1      40.485  27.832  32.269  1.00  0.00     0.031 C 
ATOM     39  C   UNL A   1      39.694  26.742  27.683  1.00  0.00     0.029 A 
ATOM     40  N   UNL A   1      41.485  26.004  28.756  1.00  0.00    -0.354 N 
ATOM     41  C   UNL A   1      42.743  28.000  32.521  1.00  0.00     0.074 A 
ATOM     42  C   UNL A   1      41.459  27.956  33.169  1.00  0.00     0.031 C 
ATOM     43  C   UNL A   1      39.929  25.489  27.236  1.00  0.00     0.029 A 
ATOM     44  C   UNL A   1      41.086  24.954  27.931  1.00  0.00     0.049 A 
ATOM     45  H   UNL A   1      42.333  26.001  29.256  1.00  0.00     0.167 HD
ATOM     46  C   UNL A   1      43.967  27.595  32.961  1.00  0.00     0.031 A 
ATOM     47  C   UNL A   1      41.625  23.713  27.850  1.00  0.00     0.031 A 
ATOM     48  C   UNL A   1      44.987  27.815  31.966  1.00  0.00     0.049 A 
ATOM     49  C   UNL A   1      42.969  23.765  28.458  1.00  0.00     0.074 A 
ATOM     50  C   UNL A   1      45.482  28.907  31.283  1.00  0.00     0.029 A 
ATOM     51  N   UNL A   1      45.410  26.708  31.275  1.00  0.00    -0.354 N 
ATOM     52  N   UNL A   1      43.981  24.381  27.924  1.00  0.00    -0.248 NA
ATOM     53  C   UNL A   1      43.107  23.437  29.867  1.00  0.00     0.031 C 
ATOM     54  C   UNL A   1      45.801  28.417  29.982  1.00  0.00     0.029 A 
ATOM     55  C   UNL A   1      45.550  27.044  29.959  1.00  0.00     0.049 A 
ATOM     56  H   UNL A   1      45.583  25.820  31.663  1.00  0.00     0.167 HD
ATOM     57  C   UNL A   1      44.656  24.930  29.002  1.00  0.00     0.074 A 
ATOM     58  C   UNL A   1      44.165  24.195  30.165  1.00  0.00     0.031 C 
ATOM     59  C   UNL A   1      45.317  26.118  28.873  1.00  0.00     0.031 A 
BRANCH  46  60
ATOM     60  C   UNL A   1      44.149  26.555  34.055  1.00  0.00    -0.014 A 
ATOM     61  C   UNL A   1      43.682  25.247  33.820  1.00  0.00     0.009 A 
ATOM     62  C   UNL A   1      44.453  26.877  35.392  1.00  0.00     0.009 A 
ATOM     63  C   UNL A   1      43.419  24.362  34.873  1.00  0.00     0.001 A 
ATOM     64  C   UNL A   1      44.237  25.979  36.441  1.00  0.00     0.001 A 
ATOM     65  C   UNL A   1      43.683  24.735  36.186  1.00  0.00     0.000 A 
ENDBRANCH  46  60
BRANCH  47  66
ATOM     66  C   UNL A   1      41.006  22.424  27.468  1.00  0.00    -0.014 A 
ATOM     67  C   UNL A   1      39.815  22.399  26.723  1.00  0.00     0.009 A 
ATOM     68  C   UNL A   1      41.722  21.221  27.594  1.00  0.00     0.009 A 
ATOM     69  C   UNL A   1      39.385  21.227  26.086  1.00  0.00     0.001 A 
ATOM     70  C   UNL A   1      41.289  20.048  26.964  1.00  0.00     0.001 A 
ATOM     71  C   UNL A   1      40.131  20.056  26.195  1.00  0.00     0.000 A 
ENDBRANCH  47  66
BRANCH  59  72
ATOM     72  C   UNL A   1      45.615  26.615  27.481  1.00  0.00    -0.014 A 
ATOM     73  C   UNL A   1      46.828  26.387  26.809  1.00  0.00     0.009 A 
ATOM     74  C   UNL A   1      44.577  27.249  26.780  1.00  0.00     0.009 A 
ATOM     75  C   UNL A   1      47.011  26.826  25.494  1.00  0.00     0.001 A 
ATOM     76  C   UNL A   1      44.750  27.662  25.459  1.00  0.00     0.001 A 
ATOM     77  C   UNL A   1      45.970  27.460  24.819  1.00  0.00     0.000 A 
ENDBRANCH  59  72
ENDBRANCH  33  34
ENDBRANCH  25  28
ENDBRANCH  23  24
ENDBRANCH   1  23
TORSDOF 13
ENDMDL
MODEL 2
REMARK VINA RESULT:     -11.4      2.823      7.585
REMARK SMILES CC(C)c1nc(C(=O)NCCCCNC(=O)c2ccc(-c3c4nc(c(-c5ccccc5)c5ccc([nH]5)c(-c5ccccc5)c5nc(c(-c6ccccc6)c6ccc3[nH]6)C=C5)C=C4)cc2)nn1-c1ccccc1F
REMARK SMILES IDX 12 1 11 2 10 3 9 4 7 5 8 6 6 8 4 9 5 10 66 11 65 12 2 13
REMARK SMILES IDX 1 14 3 15 67 16 68 17 72 18 69 19 71 20 73 21 70 22 13 23
REMARK SMILES IDX 14 24 15 25 16 27 17 28 18 29 64 30 19 31 63 32 20 33 21 34
REMARK SMILES IDX 22 35 57 36 23 37 62 38 56 39 58 40 24 41 61 42 55 43 54 44
REMARK SMILES IDX 25 46 47 47 32 48 46 49 33 50 36 51 45 52 59 53 34 54 35 55
REMARK SMILES IDX 44 57 60 58 37 59 26 60 27 61 31 62 28 63 30 64 29 65 48 66
REMARK SMILES IDX 49 67 53 68 50 69 52 70 51 71 38 72 39 73 43 74 40 75 42 76
REMARK SMILES IDX 41 77
REMARK H PARENT 9 7 14 26 58 45 36 56
REMARK Flexibility Score: inf
ROOT
ATOM      1  C   UNL A   1      39.047  21.006  25.558  1.00  0.00     0.023 C 
ENDROOT
BRANCH   1   2
ATOM      2  C   UNL A   1      39.014  22.418  26.158  1.00  0.00     0.023 C 
BRANCH   2   3
ATOM      3  C   UNL A   1      37.837  23.303  25.740  1.00  0.00     0.116 C 
BRANCH   3   4
ATOM      4  N   UNL A   1      37.477  23.153  24.335  1.00  0.00    -0.349 N 
ATOM      5  C   UNL A   1      36.269  23.344  23.682  1.00  0.00     0.290 C 
ATOM      6  O   UNL A   1      36.253  23.089  22.468  1.00  0.00    -0.266 OA
ATOM      7  H   UNL A   1      38.217  22.867  23.753  1.00  0.00     0.163 HD
BRANCH   5   8
ATOM      8  C   UNL A   1      35.061  23.801  24.409  1.00  0.00     0.239 A 
ATOM      9  C   UNL A   1      33.549  23.938  25.915  1.00  0.00     0.136 A 
ATOM     10  N   UNL A   1      34.505  23.131  25.486  1.00  0.00    -0.207 NA
ATOM     11  N   UNL A   1      33.601  25.102  25.170  1.00  0.00    -0.214 N 
ATOM     12  N   UNL A   1      34.354  24.892  24.071  1.00  0.00    -0.140 NA
BRANCH   9  13
ATOM     13  C   UNL A   1      32.453  23.610  26.892  1.00  0.00     0.051 C 
ATOM     14  C   UNL A   1      31.161  23.280  26.139  1.00  0.00     0.016 C 
ATOM     15  C   UNL A   1      32.836  22.460  27.821  1.00  0.00     0.016 C 
ENDBRANCH   9  13
BRANCH  11  16
ATOM     16  C   UNL A   1      33.072  26.385  25.401  1.00  0.00     0.102 A 
ATOM     17  C   UNL A   1      33.684  27.219  26.349  1.00  0.00     0.031 A 
ATOM     18  C   UNL A   1      31.884  26.788  24.795  1.00  0.00     0.148 A 
ATOM     19  C   UNL A   1      33.133  28.467  26.636  1.00  0.00     0.002 A 
ATOM     20  C   UNL A   1      31.324  28.027  25.095  1.00  0.00     0.041 A 
ATOM     21  F   UNL A   1      31.193  25.961  23.998  1.00  0.00    -0.205 F 
ATOM     22  C   UNL A   1      31.955  28.872  26.008  1.00  0.00     0.003 A 
ENDBRANCH  11  16
ENDBRANCH   5   8
ENDBRANCH   3   4
ENDBRANCH   2   3
ENDBRANCH   1   2
BRANCH   1  23
ATOM     23  C   UNL A   1      39.606  19.926  26.480  1.00  0.00     0.116 C 
BRANCH  23  24
ATOM     24  N   UNL A   1      40.795  19.266  25.943  1.00  0.00    -0.352 N 
ATOM     25  C   UNL A   1      42.048  19.803  25.758  1.00  0.00     0.251 C 
ATOM     26  H   UNL A   1      40.684  18.323  25.681  1.00  0.00     0.163 HD
ATOM     27  O   UNL A   1      42.845  19.280  24.971  1.00  0.00    -0.269 OA
BRANCH  25  28
ATOM     28  C   UNL A   1      42.442  21.013  26.496  1.00  0.00     0.039 A 
ATOM     29  C   UNL A   1      42.977  22.117  25.824  1.00  0.00     0.014 A 
ATOM     30  C   UNL A   1      42.260  21.046  27.879  1.00  0.00     0.014 A 
ATOM     31  C   UNL A   1      43.233  23.289  26.534  1.00  0.00     0.010 A 
ATOM     32  C   UNL A   1      42.426  22.232  28.564  1.00  0.00     0.010 A 
ATOM     33  C   UNL A   1      42.926  23.354  27.901  1.00  0.00    -0.014 A 
BRANCH  33  34
ATOM     34  C   UNL A   1      42.923  24.649  28.592  1.00  0.00     0.031 A 
ATOM     35  C   UNL A   1      41.840  25.577  28.147  1.00  0.00     0.074 A 
ATOM     36  C   UNL A   1      43.634  24.891  29.715  1.00  0.00     0.049 A 
ATOM     37  N   UNL A   1      41.956  26.773  27.671  1.00  0.00    -0.248 NA
ATOM     38  C   UNL A   1      40.456  25.065  28.132  1.00  0.00     0.031 C 
ATOM     39  C   UNL A   1      44.490  23.944  30.438  1.00  0.00     0.029 A 
ATOM     40  N   UNL A   1      43.625  25.980  30.541  1.00  0.00    -0.354 N 
ATOM     41  C   UNL A   1      40.656  27.240  27.487  1.00  0.00     0.074 A 
ATOM     42  C   UNL A   1      39.792  26.096  27.612  1.00  0.00     0.031 C 
ATOM     43  C   UNL A   1      44.698  24.393  31.695  1.00  0.00     0.029 A 
ATOM     44  C   UNL A   1      44.125  25.722  31.817  1.00  0.00     0.049 A 
ATOM     45  H   UNL A   1      43.296  26.865  30.262  1.00  0.00     0.167 HD
ATOM     46  C   UNL A   1      40.367  28.572  27.535  1.00  0.00     0.031 A 
ATOM     47  C   UNL A   1      44.037  26.510  32.916  1.00  0.00     0.031 A 
ATOM     48  C   UNL A   1      41.552  29.376  27.377  1.00  0.00     0.049 A 
ATOM     49  C   UNL A   1      43.705  27.876  32.466  1.00  0.00     0.074 A 
ATOM     50  C   UNL A   1      42.528  29.520  26.412  1.00  0.00     0.029 A 
ATOM     51  N   UNL A   1      42.058  29.943  28.520  1.00  0.00    -0.354 N 
ATOM     52  N   UNL A   1      44.530  28.645  31.820  1.00  0.00    -0.248 NA
ATOM     53  C   UNL A   1      42.307  28.268  32.408  1.00  0.00     0.031 C 
ATOM     54  C   UNL A   1      43.732  29.767  27.136  1.00  0.00     0.029 A 
ATOM     55  C   UNL A   1      43.419  29.830  28.495  1.00  0.00     0.049 A 
ATOM     56  H   UNL A   1      41.529  30.360  29.237  1.00  0.00     0.167 HD
ATOM     57  C   UNL A   1      43.731  29.315  30.908  1.00  0.00     0.074 A 
ATOM     58  C   UNL A   1      42.371  29.159  31.415  1.00  0.00     0.031 C 
ATOM     59  C   UNL A   1      44.225  29.670  29.685  1.00  0.00     0.031 A 
BRANCH  46  60
ATOM     60  C   UNL A   1      39.129  29.124  28.222  1.00  0.00    -0.014 A 
ATOM     61  C   UNL A   1      38.943  28.846  29.591  1.00  0.00     0.009 A 
ATOM     62  C   UNL A   1      38.006  29.613  27.528  1.00  0.00     0.009 A 
ATOM     63  C   UNL A   1      37.681  28.934  30.192  1.00  0.00     0.001 A 
ATOM     64  C   UNL A   1      36.755  29.748  28.137  1.00  0.00     0.001 A 
ATOM     65  C   UNL A   1      36.583  29.372  29.459  1.00  0.00     0.000 A 
ENDBRANCH  46  60
BRANCH  47  66
ATOM     66  C   UNL A   1      44.020  26.151  34.352  1.00  0.00    -0.014 A 
ATOM     67  C   UNL A   1      44.852  26.822  35.264  1.00  0.00     0.009 A 
ATOM     68  C   UNL A   1      42.995  25.345  34.875  1.00  0.00     0.009 A 
ATOM     69  C   UNL A   1      44.633  26.731  36.645  1.00  0.00     0.001 A 
ATOM     70  C   UNL A   1      42.780  25.246  36.256  1.00  0.00     0.001 A 
ATOM     71  C   UNL A   1      43.588  25.954  37.139  1.00  0.00     0.000 A 
ENDBRANCH  47  66
BRANCH  59  72
ATOM     72  C   UNL A   1      45.721  29.663  29.496  1.00  0.00    -0.014 A 
ATOM     73  C   UNL A   1      46.461  28.523  29.139  1.00  0.00     0.009 A 
ATOM     74  C   UNL A   1      46.394  30.892  29.581  1.00  0.00     0.009 A 
ATOM     75  C   UNL A   1      47.841  28.605  28.921  1.00  0.00     0.001 A 
ATOM     76  C   UNL A   1      47.765  30.979  29.336  1.00  0.00     0.001 A 
ATOM     77  C   UNL A   1      48.490  29.834  29.018  1.00  0.00     0.000 A 
ENDBRANCH  59  72
ENDBRANCH  33  34
ENDBRANCH  25  28
ENDBRANCH  23  24
ENDBRANCH   1  23
TORSDOF 13
ENDMDL
MODEL 3
REMARK VINA RESULT:     -11.4      2.639      7.331
REMARK SMILES CC(C)c1nc(C(=O)NCCCCNC(=O)c2ccc(-c3c4nc(c(-c5ccccc5)c5ccc([nH]5)c(-c5ccccc5)c5nc(c(-c6ccccc6)c6ccc3[nH]6)C=C5)C=C4)cc2)nn1-c1ccccc1F
REMARK SMILES IDX 12 1 11 2 10 3 9 4 7 5 8 6 6 8 4 9 5 10 66 11 65 12 2 13
REMARK SMILES IDX 1 14 3 15 67 16 68 17 72 18 69 19 71 20 73 21 70 22 13 23
REMARK SMILES IDX 14 24 15 25 16 27 17 28 18 29 64 30 19 31 63 32 20 33 21 34
REMARK SMILES IDX 22 35 57 36 23 37 62 38 56 39 58 40 24 41 61 42 55 43 54 44
REMARK SMILES IDX 25 46 47 47 32 48 46 49 33 50 36 51 45 52 59 53 34 54 35 55
REMARK SMILES IDX 44 57 60 58 37 59 26 60 27 61 31 62 28 63 30 64 29 65 48 66
REMARK SMILES IDX 49 67 53 68 50 69 52 70 51 71 38 72 39 73 43 74 40 75 42 76
REMARK SMILES IDX 41 77
REMARK H PARENT 9 7 14 26 58 45 36 56
REMARK Flexibility Score: inf
ROOT
ATOM      1  C   UNL A   1      37.266  20.279  25.016  1.00  0.00     0.023 C 
ENDROOT
BRANCH   1   2
ATOM      2  C   UNL A   1      36.194  21.180  25.642  1.00  0.00     0.023 C 
BRANCH   2   3
ATOM      3  C   UNL A   1      35.173  21.787  24.675  1.00  0.00     0.116 C 
BRANCH   3   4
ATOM      4  N   UNL A   1      33.803  21.371  24.952  1.00  0.00    -0.349 N 
ATOM      5  C   UNL A   1      32.622  22.096  24.975  1.00  0.00     0.290 C 
ATOM      6  O   UNL A   1      31.599  21.472  25.296  1.00  0.00    -0.266 OA
ATOM      7  H   UNL A   1      33.701  20.414  25.158  1.00  0.00     0.163 HD
BRANCH   5   8
ATOM      8  C   UNL A   1      32.597  23.544  24.662  1.00  0.00     0.239 A 
ATOM      9  C   UNL A   1      32.078  25.391  23.716  1.00  0.00     0.136 A 
ATOM     10  N   UNL A   1      31.998  24.084  23.536  1.00  0.00    -0.207 NA
ATOM     11  N   UNL A   1      32.626  25.621  24.966  1.00  0.00    -0.214 N 
ATOM     12  N   UNL A   1      33.190  24.482  25.419  1.00  0.00    -0.140 NA
BRANCH   9  13
ATOM     13  C   UNL A   1      31.825  26.468  22.697  1.00  0.00     0.051 C 
ATOM     14  C   UNL A   1      31.979  25.899  21.283  1.00  0.00     0.016 C 
ATOM     15  C   UNL A   1      30.449  27.107  22.867  1.00  0.00     0.016 C 
ENDBRANCH   9  13
BRANCH  11  16
ATOM     16  C   UNL A   1      32.631  26.761  25.791  1.00  0.00     0.102 A 
ATOM     17  C   UNL A   1      33.833  27.454  25.994  1.00  0.00     0.031 A 
ATOM     18  C   UNL A   1      31.493  27.133  26.501  1.00  0.00     0.148 A 
ATOM     19  C   UNL A   1      33.867  28.547  26.860  1.00  0.00     0.002 A 
ATOM     20  C   UNL A   1      31.531  28.213  27.380  1.00  0.00     0.041 A 
ATOM     21  F   UNL A   1      30.368  26.406  26.447  1.00  0.00    -0.205 F 
ATOM     22  C   UNL A   1      32.717  28.927  27.551  1.00  0.00     0.003 A 
ENDBRANCH  11  16
ENDBRANCH   5   8
ENDBRANCH   3   4
ENDBRANCH   2   3
ENDBRANCH   1   2
BRANCH   1  23
ATOM     23  C   UNL A   1      38.706  20.680  25.324  1.00  0.00     0.116 C 
BRANCH  23  24
ATOM     24  N   UNL A   1      39.595  19.538  25.523  1.00  0.00    -0.352 N 
ATOM     25  C   UNL A   1      40.920  19.554  25.896  1.00  0.00     0.251 C 
ATOM     26  H   UNL A   1      39.199  18.649  25.370  1.00  0.00     0.163 HD
ATOM     27  O   UNL A   1      41.647  18.579  25.671  1.00  0.00    -0.269 OA
BRANCH  25  28
ATOM     28  C   UNL A   1      41.479  20.740  26.561  1.00  0.00     0.039 A 
ATOM     29  C   UNL A   1      42.136  21.730  25.822  1.00  0.00     0.014 A 
ATOM     30  C   UNL A   1      41.330  20.869  27.942  1.00  0.00     0.014 A 
ATOM     31  C   UNL A   1      42.553  22.895  26.463  1.00  0.00     0.010 A 
ATOM     32  C   UNL A   1      41.659  22.059  28.559  1.00  0.00     0.010 A 
ATOM     33  C   UNL A   1      42.284  23.071  27.829  1.00  0.00    -0.014 A 
BRANCH  33  34
ATOM     34  C   UNL A   1      42.459  24.390  28.447  1.00  0.00     0.031 A 
ATOM     35  C   UNL A   1      41.392  25.376  28.098  1.00  0.00     0.074 A 
ATOM     36  C   UNL A   1      43.327  24.627  29.456  1.00  0.00     0.049 A 
ATOM     37  N   UNL A   1      41.525  26.540  27.551  1.00  0.00    -0.248 NA
ATOM     38  C   UNL A   1      39.987  24.967  28.288  1.00  0.00     0.031 C 
ATOM     39  C   UNL A   1      44.205  23.650  30.110  1.00  0.00     0.029 A 
ATOM     40  N   UNL A   1      43.500  25.747  30.220  1.00  0.00    -0.354 N 
ATOM     41  C   UNL A   1      40.245  27.093  27.512  1.00  0.00     0.074 A 
ATOM     42  C   UNL A   1      39.331  26.021  27.805  1.00  0.00     0.031 C 
ATOM     43  C   UNL A   1      44.606  24.135  31.305  1.00  0.00     0.029 A 
ATOM     44  C   UNL A   1      44.145  25.506  31.432  1.00  0.00     0.049 A 
ATOM     45  H   UNL A   1      43.198  26.641  29.941  1.00  0.00     0.167 HD
ATOM     46  C   UNL A   1      40.056  28.443  27.529  1.00  0.00     0.031 A 
ATOM     47  C   UNL A   1      44.256  26.344  32.492  1.00  0.00     0.031 A 
ATOM     48  C   UNL A   1      41.261  29.151  27.179  1.00  0.00     0.049 A 
ATOM     49  C   UNL A   1      43.960  27.711  32.019  1.00  0.00     0.074 A 
ATOM     50  C   UNL A   1      42.109  29.182  26.091  1.00  0.00     0.029 A 
ATOM     51  N   UNL A   1      41.951  29.726  28.217  1.00  0.00    -0.354 N 
ATOM     52  N   UNL A   1      44.743  28.389  31.234  1.00  0.00    -0.248 NA
ATOM     53  C   UNL A   1      42.596  28.201  32.121  1.00  0.00     0.031 C 
ATOM     54  C   UNL A   1      43.412  29.370  26.640  1.00  0.00     0.029 A 
ATOM     55  C   UNL A   1      43.286  29.512  28.023  1.00  0.00     0.049 A 
ATOM     56  H   UNL A   1      41.550  30.211  28.974  1.00  0.00     0.167 HD
ATOM     57  C   UNL A   1      43.878  29.078  30.399  1.00  0.00     0.074 A 
ATOM     58  C   UNL A   1      42.588  29.043  31.084  1.00  0.00     0.031 C 
ATOM     59  C   UNL A   1      44.229  29.344  29.106  1.00  0.00     0.031 A 
BRANCH  46  60
ATOM     60  C   UNL A   1      38.959  29.112  28.341  1.00  0.00    -0.014 A 
ATOM     61  C   UNL A   1      38.847  28.790  29.708  1.00  0.00     0.009 A 
ATOM     62  C   UNL A   1      37.859  29.776  27.765  1.00  0.00     0.009 A 
ATOM     63  C   UNL A   1      37.658  29.008  30.417  1.00  0.00     0.001 A 
ATOM     64  C   UNL A   1      36.688  30.038  28.483  1.00  0.00     0.001 A 
ATOM     65  C   UNL A   1      36.573  29.619  29.798  1.00  0.00     0.000 A 
ENDBRANCH  46  60
BRANCH  47  66
ATOM     66  C   UNL A   1      44.404  26.048  33.934  1.00  0.00    -0.014 A 
ATOM     67  C   UNL A   1      43.311  25.575  34.681  1.00  0.00     0.009 A 
ATOM     68  C   UNL A   1      45.679  25.963  34.520  1.00  0.00     0.009 A 
ATOM     69  C   UNL A   1      43.494  24.994  35.942  1.00  0.00     0.001 A 
ATOM     70  C   UNL A   1      45.862  25.389  35.784  1.00  0.00     0.001 A 
ATOM     71  C   UNL A   1      44.772  24.888  36.486  1.00  0.00     0.000 A 
ENDBRANCH  47  66
BRANCH  59  72
ATOM     72  C   UNL A   1      45.683  29.219  28.728  1.00  0.00    -0.014 A 
ATOM     73  C   UNL A   1      46.606  30.276  28.803  1.00  0.00     0.009 A 
ATOM     74  C   UNL A   1      46.159  27.945  28.382  1.00  0.00     0.009 A 
ATOM     75  C   UNL A   1      47.955  30.072  28.494  1.00  0.00     0.001 A 
ATOM     76  C   UNL A   1      47.509  27.735  28.101  1.00  0.00     0.001 A 
ATOM     77  C   UNL A   1      48.405  28.800  28.145  1.00  0.00     0.000 A 
ENDBRANCH  59  72
ENDBRANCH  33  34
ENDBRANCH  25  28
ENDBRANCH  23  24
ENDBRANCH   1  23
TORSDOF 13
ENDMDL
