MODEL 1
REMARK VINA RESULT:     -12.8      0.000      0.000
REMARK SMILES CC1(C)S[C@@H](c2cccc3c2sc2ccccc23)[NH2+][C@@H]1C(=O)NCCCCNC(=O)c1ccc(-c2c3nc(c(-c4ccccc4)c4ccc([nH]4)c(-c4ccccc4)c4nc(c(-c5ccccc5)c5ccc2[nH]5)C=C4)C=C3)cc1
REMARK SMILES IDX 26 1 25 2 24 3 23 4 21 5 22 6 20 8 1 9 2 10 3 11 4 12 5 13
REMARK SMILES IDX 19 14 6 17 7 18 11 19 8 20 10 21 12 22 9 23 18 24 13 25
REMARK SMILES IDX 17 26 14 27 16 28 15 29 27 30 28 31 29 32 30 34 31 35 32 36
REMARK SMILES IDX 78 37 33 38 77 39 34 40 35 41 36 42 71 43 37 44 76 45 70 46
REMARK SMILES IDX 72 47 38 48 75 49 69 50 68 51 39 53 61 54 46 55 60 56 47 57
REMARK SMILES IDX 50 58 59 59 73 60 48 61 49 62 58 64 74 65 51 66 40 67 41 68
REMARK SMILES IDX 45 69 42 70 44 71 43 72 62 73 63 74 67 75 64 76 66 77 65 78
REMARK SMILES IDX 52 79 53 80 57 81 54 82 56 83 55 84
REMARK H PARENT 23 7 19 15 19 16 28 33 72 52 50 63
REMARK Flexibility Score: inf
ROOT
ATOM      1  C   UNL A   1      31.502  31.336  26.527  1.00  0.00     0.023 C 
ENDROOT
BRANCH   1   2
ATOM      2  C   UNL A   1      31.705  29.867  26.170  1.00  0.00     0.023 C 
BRANCH   2   3
ATOM      3  C   UNL A   1      32.083  28.954  27.332  1.00  0.00     0.116 C 
BRANCH   3   4
ATOM      4  N   UNL A   1      31.419  27.665  27.264  1.00  0.00    -0.351 N 
ATOM      5  C   UNL A   1      31.692  26.547  26.529  1.00  0.00     0.279 C 
ATOM      6  O   UNL A   1      30.889  25.622  26.668  1.00  0.00    -0.268 OA
ATOM      7  H   UNL A   1      30.632  27.583  27.849  1.00  0.00     0.163 HD
BRANCH   5   8
ATOM      8  C   UNL A   1      32.851  26.503  25.490  1.00  0.00     0.289 C 
ATOM      9  C   UNL A   1      33.586  26.787  23.063  1.00  0.00     0.030 C 
ATOM     10  C   UNL A   1      32.460  26.292  23.997  1.00  0.00     0.077 C 
ATOM     11  C   UNL A   1      31.149  26.916  23.519  1.00  0.00     0.030 C 
ATOM     12  S   UNL A   1      32.382  24.466  23.829  1.00  0.00    -0.081 SA
ATOM     13  C   UNL A   1      33.255  24.160  25.389  1.00  0.00     0.276 C 
ATOM     14  N   UNL A   1      33.841  25.437  25.810  1.00  0.00    -0.320 N 
ATOM     15  H   UNL A   1      34.711  25.604  25.307  1.00  0.00     0.348 HD
ATOM     16  H   UNL A   1      34.050  25.427  26.808  1.00  0.00     0.348 HD
BRANCH  13  17
ATOM     17  C   UNL A   1      34.320  23.081  25.306  1.00  0.00     0.038 A 
ATOM     18  C   UNL A   1      35.678  23.405  25.539  1.00  0.00     0.012 A 
ATOM     19  C   UNL A   1      34.027  21.708  25.054  1.00  0.00     0.046 A 
ATOM     20  C   UNL A   1      36.682  22.451  25.510  1.00  0.00     0.001 A 
ATOM     21  C   UNL A   1      35.026  20.729  24.997  1.00  0.00     0.001 A 
ATOM     22  S   UNL A   1      32.477  20.989  24.793  1.00  0.00    -0.135 S 
ATOM     23  C   UNL A   1      36.367  21.126  25.233  1.00  0.00     0.010 A 
ATOM     24  C   UNL A   1      34.501  19.411  24.685  1.00  0.00     0.000 A 
ATOM     25  C   UNL A   1      33.114  19.418  24.561  1.00  0.00     0.036 A 
ATOM     26  C   UNL A   1      35.174  18.174  24.500  1.00  0.00     0.010 A 
ATOM     27  C   UNL A   1      32.390  18.242  24.278  1.00  0.00     0.019 A 
ATOM     28  C   UNL A   1      34.464  17.008  24.207  1.00  0.00     0.001 A 
ATOM     29  C   UNL A   1      33.082  17.042  24.102  1.00  0.00     0.002 A 
ENDBRANCH  13  17
ENDBRANCH   5   8
ENDBRANCH   3   4
ENDBRANCH   2   3
ENDBRANCH   1   2
BRANCH   1  30
ATOM     30  C   UNL A   1      32.731  32.045  27.081  1.00  0.00     0.116 C 
BRANCH  30  31
ATOM     31  N   UNL A   1      32.452  33.406  27.515  1.00  0.00    -0.352 N 
ATOM     32  C   UNL A   1      33.154  34.201  28.389  1.00  0.00     0.251 C 
ATOM     33  H   UNL A   1      31.646  33.815  27.127  1.00  0.00     0.163 HD
ATOM     34  O   UNL A   1      32.688  35.275  28.760  1.00  0.00    -0.269 OA
BRANCH  32  35
ATOM     35  C   UNL A   1      34.461  33.748  28.905  1.00  0.00     0.039 A 
ATOM     36  C   UNL A   1      34.502  32.992  30.079  1.00  0.00     0.014 A 
ATOM     37  C   UNL A   1      35.643  34.060  28.228  1.00  0.00     0.014 A 
ATOM     38  C   UNL A   1      35.723  32.494  30.538  1.00  0.00     0.010 A 
ATOM     39  C   UNL A   1      36.843  33.487  28.634  1.00  0.00     0.010 A 
ATOM     40  C   UNL A   1      36.900  32.710  29.801  1.00  0.00    -0.014 A 
BRANCH  40  41
ATOM     41  C   UNL A   1      38.204  32.156  30.246  1.00  0.00     0.031 A 
ATOM     42  C   UNL A   1      38.688  30.841  29.697  1.00  0.00     0.074 A 
ATOM     43  C   UNL A   1      38.927  32.803  31.181  1.00  0.00     0.049 A 
ATOM     44  N   UNL A   1      39.768  30.166  29.999  1.00  0.00    -0.248 NA
ATOM     45  C   UNL A   1      37.830  30.182  28.698  1.00  0.00     0.031 C 
ATOM     46  C   UNL A   1      38.554  34.067  31.820  1.00  0.00     0.029 A 
ATOM     47  N   UNL A   1      40.129  32.481  31.760  1.00  0.00    -0.354 N 
ATOM     48  C   UNL A   1      39.708  29.002  29.244  1.00  0.00     0.074 A 
ATOM     49  C   UNL A   1      38.459  29.032  28.517  1.00  0.00     0.031 C 
ATOM     50  C   UNL A   1      39.523  34.427  32.678  1.00  0.00     0.029 A 
ATOM     51  C   UNL A   1      40.562  33.403  32.681  1.00  0.00     0.049 A 
ATOM     52  H   UNL A   1      40.634  31.665  31.535  1.00  0.00     0.167 HD
ATOM     53  C   UNL A   1      40.619  28.004  29.145  1.00  0.00     0.031 A 
ATOM     54  C   UNL A   1      41.669  33.418  33.448  1.00  0.00     0.031 A 
ATOM     55  C   UNL A   1      41.866  27.976  29.861  1.00  0.00     0.049 A 
ATOM     56  C   UNL A   1      42.658  32.291  33.333  1.00  0.00     0.074 A 
ATOM     57  C   UNL A   1      42.878  27.035  29.792  1.00  0.00     0.029 A 
ATOM     58  N   UNL A   1      42.268  28.933  30.780  1.00  0.00    -0.354 N 
ATOM     59  N   UNL A   1      42.616  31.228  32.565  1.00  0.00    -0.248 NA
ATOM     60  C   UNL A   1      43.856  32.374  34.181  1.00  0.00     0.031 C 
ATOM     61  C   UNL A   1      43.869  27.393  30.712  1.00  0.00     0.029 A 
ATOM     62  C   UNL A   1      43.505  28.593  31.303  1.00  0.00     0.049 A 
ATOM     63  H   UNL A   1      41.751  29.733  31.026  1.00  0.00     0.167 HD
ATOM     64  C   UNL A   1      43.798  30.539  32.809  1.00  0.00     0.074 A 
ATOM     65  C   UNL A   1      44.540  31.311  33.785  1.00  0.00     0.031 C 
ATOM     66  C   UNL A   1      44.232  29.373  32.270  1.00  0.00     0.031 A 
BRANCH  53  67
ATOM     67  C   UNL A   1      40.290  26.857  28.228  1.00  0.00    -0.014 A 
ATOM     68  C   UNL A   1      40.791  26.802  26.917  1.00  0.00     0.009 A 
ATOM     69  C   UNL A   1      39.486  25.803  28.690  1.00  0.00     0.009 A 
ATOM     70  C   UNL A   1      40.459  25.738  26.075  1.00  0.00     0.001 A 
ATOM     71  C   UNL A   1      39.185  24.723  27.857  1.00  0.00     0.001 A 
ATOM     72  C   UNL A   1      39.661  24.697  26.547  1.00  0.00     0.000 A 
ENDBRANCH  53  67
BRANCH  54  73
ATOM     73  C   UNL A   1      41.918  34.550  34.381  1.00  0.00    -0.014 A 
ATOM     74  C   UNL A   1      42.580  35.706  33.937  1.00  0.00     0.009 A 
ATOM     75  C   UNL A   1      41.512  34.475  35.722  1.00  0.00     0.009 A 
ATOM     76  C   UNL A   1      42.860  36.748  34.825  1.00  0.00     0.001 A 
ATOM     77  C   UNL A   1      41.764  35.532  36.600  1.00  0.00     0.001 A 
ATOM     78  C   UNL A   1      42.448  36.662  36.155  1.00  0.00     0.000 A 
ENDBRANCH  54  73
BRANCH  66  79
ATOM     79  C   UNL A   1      45.596  28.890  32.681  1.00  0.00    -0.014 A 
ATOM     80  C   UNL A   1      45.779  28.061  33.800  1.00  0.00     0.009 A 
ATOM     81  C   UNL A   1      46.715  29.248  31.913  1.00  0.00     0.009 A 
ATOM     82  C   UNL A   1      47.059  27.637  34.162  1.00  0.00     0.001 A 
ATOM     83  C   UNL A   1      47.989  28.795  32.256  1.00  0.00     0.001 A 
ATOM     84  C   UNL A   1      48.161  28.000  33.389  1.00  0.00     0.000 A 
ENDBRANCH  66  79
ENDBRANCH  40  41
ENDBRANCH  32  35
ENDBRANCH  30  31
ENDBRANCH   1  30
TORSDOF 12
ENDMDL
MODEL 2
REMARK VINA RESULT:     -12.8      3.364      9.167
REMARK SMILES CC1(C)S[C@@H](c2cccc3c2sc2ccccc23)[NH2+][C@@H]1C(=O)NCCCCNC(=O)c1ccc(-c2c3nc(c(-c4ccccc4)c4ccc([nH]4)c(-c4ccccc4)c4nc(c(-c5ccccc5)c5ccc2[nH]5)C=C4)C=C3)cc1
REMARK SMILES IDX 26 1 25 2 24 3 23 4 21 5 22 6 20 8 1 9 2 10 3 11 4 12 5 13
REMARK SMILES IDX 19 14 6 17 7 18 11 19 8 20 10 21 12 22 9 23 18 24 13 25
REMARK SMILES IDX 17 26 14 27 16 28 15 29 27 30 28 31 29 32 30 34 31 35 32 36
REMARK SMILES IDX 78 37 33 38 77 39 34 40 35 41 36 42 71 43 37 44 76 45 70 46
REMARK SMILES IDX 72 47 38 48 75 49 69 50 68 51 39 53 61 54 46 55 60 56 47 57
REMARK SMILES IDX 50 58 59 59 73 60 48 61 49 62 58 64 74 65 51 66 40 67 41 68
REMARK SMILES IDX 45 69 42 70 44 71 43 72 62 73 63 74 67 75 64 76 66 77 65 78
REMARK SMILES IDX 52 79 53 80 57 81 54 82 56 83 55 84
REMARK H PARENT 23 7 19 15 19 16 28 33 72 52 50 63
REMARK Flexibility Score: inf
ROOT
ATOM      1  C   UNL A   1      37.683  19.616  24.997  1.00  0.00     0.023 C 
ENDROOT
BRANCH   1   2
ATOM      2  C   UNL A   1      36.560  20.609  24.714  1.00  0.00     0.023 C 
BRANCH   2   3
ATOM      3  C   UNL A   1      37.008  22.015  24.333  1.00  0.00     0.116 C 
BRANCH   3   4
ATOM      4  N   UNL A   1      36.121  22.637  23.366  1.00  0.00    -0.351 N 
ATOM      5  C   UNL A   1      35.047  23.465  23.528  1.00  0.00     0.279 C 
ATOM      6  O   UNL A   1      34.469  23.781  22.487  1.00  0.00    -0.268 OA
ATOM      7  H   UNL A   1      36.330  22.423  22.428  1.00  0.00     0.163 HD
BRANCH   5   8
ATOM      8  C   UNL A   1      34.514  23.861  24.937  1.00  0.00     0.289 C 
ATOM      9  C   UNL A   1      32.957  23.322  26.885  1.00  0.00     0.030 C 
ATOM     10  C   UNL A   1      33.117  23.309  25.349  1.00  0.00     0.077 C 
ATOM     11  C   UNL A   1      32.738  21.915  24.851  1.00  0.00     0.030 C 
ATOM     12  S   UNL A   1      31.949  24.554  24.675  1.00  0.00    -0.081 SA
ATOM     13  C   UNL A   1      33.241  25.796  24.391  1.00  0.00     0.276 C 
ATOM     14  N   UNL A   1      34.438  25.339  25.104  1.00  0.00    -0.320 N 
ATOM     15  H   UNL A   1      34.368  25.576  26.093  1.00  0.00     0.348 HD
ATOM     16  H   UNL A   1      35.275  25.788  24.731  1.00  0.00     0.348 HD
BRANCH  13  17
ATOM     17  C   UNL A   1      32.860  27.201  24.824  1.00  0.00     0.038 A 
ATOM     18  C   UNL A   1      33.654  27.890  25.772  1.00  0.00     0.012 A 
ATOM     19  C   UNL A   1      31.751  27.915  24.280  1.00  0.00     0.046 A 
ATOM     20  C   UNL A   1      33.369  29.186  26.172  1.00  0.00     0.001 A 
ATOM     21  C   UNL A   1      31.431  29.216  24.685  1.00  0.00     0.001 A 
ATOM     22  S   UNL A   1      30.639  27.378  23.072  1.00  0.00    -0.135 S 
ATOM     23  C   UNL A   1      32.265  29.844  25.645  1.00  0.00     0.010 A 
ATOM     24  C   UNL A   1      30.239  29.728  24.031  1.00  0.00     0.000 A 
ATOM     25  C   UNL A   1      29.717  28.819  23.113  1.00  0.00     0.036 A 
ATOM     26  C   UNL A   1      29.565  30.968  24.188  1.00  0.00     0.010 A 
ATOM     27  C   UNL A   1      28.570  29.115  22.349  1.00  0.00     0.019 A 
ATOM     28  C   UNL A   1      28.421  31.262  23.443  1.00  0.00     0.001 A 
ATOM     29  C   UNL A   1      27.931  30.344  22.527  1.00  0.00     0.002 A 
ENDBRANCH  13  17
ENDBRANCH   5   8
ENDBRANCH   3   4
ENDBRANCH   2   3
ENDBRANCH   1   2
BRANCH   1  30
ATOM     30  C   UNL A   1      38.899  20.196  25.707  1.00  0.00     0.116 C 
BRANCH  30  31
ATOM     31  N   UNL A   1      40.023  19.272  25.753  1.00  0.00    -0.352 N 
ATOM     32  C   UNL A   1      41.337  19.516  26.069  1.00  0.00     0.251 C 
ATOM     33  H   UNL A   1      39.810  18.339  25.525  1.00  0.00     0.163 HD
ATOM     34  O   UNL A   1      42.186  18.643  25.908  1.00  0.00    -0.269 OA
BRANCH  32  35
ATOM     35  C   UNL A   1      41.735  20.843  26.580  1.00  0.00     0.039 A 
ATOM     36  C   UNL A   1      42.206  21.803  25.681  1.00  0.00     0.014 A 
ATOM     37  C   UNL A   1      41.633  21.145  27.940  1.00  0.00     0.014 A 
ATOM     38  C   UNL A   1      42.515  23.086  26.138  1.00  0.00     0.010 A 
ATOM     39  C   UNL A   1      41.852  22.446  28.377  1.00  0.00     0.010 A 
ATOM     40  C   UNL A   1      42.308  23.428  27.485  1.00  0.00    -0.014 A 
BRANCH  40  41
ATOM     41  C   UNL A   1      42.590  24.797  27.988  1.00  0.00     0.031 A 
ATOM     42  C   UNL A   1      43.992  25.179  28.380  1.00  0.00     0.074 A 
ATOM     43  C   UNL A   1      41.582  25.677  28.144  1.00  0.00     0.049 A 
ATOM     44  N   UNL A   1      44.431  26.301  28.889  1.00  0.00    -0.248 NA
ATOM     45  C   UNL A   1      45.034  24.153  28.203  1.00  0.00     0.031 C 
ATOM     46  C   UNL A   1      40.173  25.422  27.836  1.00  0.00     0.029 A 
ATOM     47  N   UNL A   1      41.591  26.970  28.608  1.00  0.00    -0.354 N 
ATOM     48  C   UNL A   1      45.789  26.109  29.110  1.00  0.00     0.074 A 
ATOM     49  C   UNL A   1      46.090  24.746  28.736  1.00  0.00     0.031 C 
ATOM     50  C   UNL A   1      39.461  26.532  28.090  1.00  0.00     0.029 A 
ATOM     51  C   UNL A   1      40.351  27.561  28.615  1.00  0.00     0.049 A 
ATOM     52  H   UNL A   1      42.410  27.429  28.906  1.00  0.00     0.167 HD
ATOM     53  C   UNL A   1      46.711  26.994  29.561  1.00  0.00     0.031 A 
ATOM     54  C   UNL A   1      39.974  28.793  29.008  1.00  0.00     0.031 A 
ATOM     55  C   UNL A   1      46.415  28.353  29.925  1.00  0.00     0.049 A 
ATOM     56  C   UNL A   1      41.013  29.751  29.522  1.00  0.00     0.074 A 
ATOM     57  C   UNL A   1      47.286  29.341  30.347  1.00  0.00     0.029 A 
ATOM     58  N   UNL A   1      45.147  28.914  29.913  1.00  0.00    -0.354 N 
ATOM     59  N   UNL A   1      42.304  29.574  29.663  1.00  0.00    -0.248 NA
ATOM     60  C   UNL A   1      40.542  31.086  29.917  1.00  0.00     0.031 C 
ATOM     61  C   UNL A   1      46.538  30.485  30.644  1.00  0.00     0.029 A 
ATOM     62  C   UNL A   1      45.210  30.229  30.341  1.00  0.00     0.049 A 
ATOM     63  H   UNL A   1      44.325  28.446  29.642  1.00  0.00     0.167 HD
ATOM     64  C   UNL A   1      42.804  30.785  30.125  1.00  0.00     0.074 A 
ATOM     65  C   UNL A   1      41.679  31.692  30.226  1.00  0.00     0.031 C 
ATOM     66  C   UNL A   1      44.082  31.119  30.433  1.00  0.00     0.031 A 
BRANCH  53  67
ATOM     67  C   UNL A   1      48.129  26.507  29.690  1.00  0.00    -0.014 A 
ATOM     68  C   UNL A   1      49.038  26.613  28.625  1.00  0.00     0.009 A 
ATOM     69  C   UNL A   1      48.569  25.954  30.903  1.00  0.00     0.009 A 
ATOM     70  C   UNL A   1      50.345  26.139  28.758  1.00  0.00     0.001 A 
ATOM     71  C   UNL A   1      49.887  25.512  31.044  1.00  0.00     0.001 A 
ATOM     72  C   UNL A   1      50.770  25.594  29.969  1.00  0.00     0.000 A 
ENDBRANCH  53  67
BRANCH  54  73
ATOM     73  C   UNL A   1      38.547  29.204  28.913  1.00  0.00    -0.014 A 
ATOM     74  C   UNL A   1      38.027  29.697  27.705  1.00  0.00     0.009 A 
ATOM     75  C   UNL A   1      37.702  29.122  30.031  1.00  0.00     0.009 A 
ATOM     76  C   UNL A   1      36.702  30.132  27.629  1.00  0.00     0.001 A 
ATOM     77  C   UNL A   1      36.369  29.527  29.942  1.00  0.00     0.001 A 
ATOM     78  C   UNL A   1      35.872  30.043  28.747  1.00  0.00     0.000 A 
ENDBRANCH  54  73
BRANCH  66  79
ATOM     79  C   UNL A   1      44.340  32.540  30.855  1.00  0.00    -0.014 A 
ATOM     80  C   UNL A   1      44.290  32.929  32.203  1.00  0.00     0.009 A 
ATOM     81  C   UNL A   1      44.669  33.499  29.883  1.00  0.00     0.009 A 
ATOM     82  C   UNL A   1      44.523  34.258  32.562  1.00  0.00     0.001 A 
ATOM     83  C   UNL A   1      44.937  34.818  30.249  1.00  0.00     0.001 A 
ATOM     84  C   UNL A   1      44.852  35.200  31.587  1.00  0.00     0.000 A 
ENDBRANCH  66  79
ENDBRANCH  40  41
ENDBRANCH  32  35
ENDBRANCH  30  31
ENDBRANCH   1  30
TORSDOF 12
ENDMDL
MODEL 3
REMARK VINA RESULT:     -12.8      3.346      9.193
REMARK SMILES CC1(C)S[C@@H](c2cccc3c2sc2ccccc23)[NH2+][C@@H]1C(=O)NCCCCNC(=O)c1ccc(-c2c3nc(c(-c4ccccc4)c4ccc([nH]4)c(-c4ccccc4)c4nc(c(-c5ccccc5)c5ccc2[nH]5)C=C4)C=C3)cc1
REMARK SMILES IDX 26 1 25 2 24 3 23 4 21 5 22 6 20 8 1 9 2 10 3 11 4 12 5 13
REMARK SMILES IDX 19 14 6 17 7 18 11 19 8 20 10 21 12 22 9 23 18 24 13 25
REMARK SMILES IDX 17 26 14 27 16 28 15 29 27 30 28 31 29 32 30 34 31 35 32 36
REMARK SMILES IDX 78 37 33 38 77 39 34 40 35 41 36 42 71 43 37 44 76 45 70 46
REMARK SMILES IDX 72 47 38 48 75 49 69 50 68 51 39 53 61 54 46 55 60 56 47 57
REMARK SMILES IDX 50 58 59 59 73 60 48 61 49 62 58 64 74 65 51 66 40 67 41 68
REMARK SMILES IDX 45 69 42 70 44 71 43 72 62 73 63 74 67 75 64 76 66 77 65 78
REMARK SMILES IDX 52 79 53 80 57 81 54 82 56 83 55 84
REMARK H PARENT 23 7 19 15 19 16 28 33 72 52 50 63
REMARK Flexibility Score: inf
ROOT
ATOM      1  C   UNL A   1      37.439  20.093  24.928  1.00  0.00     0.023 C 
ENDROOT
BRANCH   1   2
ATOM      2  C   UNL A   1      36.349  21.150  24.776  1.00  0.00     0.023 C 
BRANCH   2   3
ATOM      3  C   UNL A   1      36.804  22.484  24.197  1.00  0.00     0.116 C 
BRANCH   3   4
ATOM      4  N   UNL A   1      35.844  23.037  23.258  1.00  0.00    -0.351 N 
ATOM      5  C   UNL A   1      34.721  23.789  23.454  1.00  0.00     0.279 C 
ATOM      6  O   UNL A   1      34.087  24.058  22.431  1.00  0.00    -0.268 OA
ATOM      7  H   UNL A   1      36.036  22.834  22.315  1.00  0.00     0.163 HD
BRANCH   5   8
ATOM      8  C   UNL A   1      34.208  24.153  24.879  1.00  0.00     0.289 C 
ATOM      9  C   UNL A   1      32.695  23.558  26.846  1.00  0.00     0.030 C 
ATOM     10  C   UNL A   1      32.827  23.573  25.307  1.00  0.00     0.077 C 
ATOM     11  C   UNL A   1      32.460  22.181  24.794  1.00  0.00     0.030 C 
ATOM     12  S   UNL A   1      31.628  24.810  24.675  1.00  0.00    -0.081 SA
ATOM     13  C   UNL A   1      32.895  26.076  24.388  1.00  0.00     0.276 C 
ATOM     14  N   UNL A   1      34.112  25.627  25.072  1.00  0.00    -0.320 N 
ATOM     15  H   UNL A   1      34.056  25.847  26.066  1.00  0.00     0.348 HD
ATOM     16  H   UNL A   1      34.935  26.095  24.690  1.00  0.00     0.348 HD
BRANCH  13  17
ATOM     17  C   UNL A   1      32.501  27.468  24.851  1.00  0.00     0.038 A 
ATOM     18  C   UNL A   1      33.219  28.098  25.895  1.00  0.00     0.012 A 
ATOM     19  C   UNL A   1      31.456  28.228  24.247  1.00  0.00     0.046 A 
ATOM     20  C   UNL A   1      32.922  29.380  26.329  1.00  0.00     0.001 A 
ATOM     21  C   UNL A   1      31.122  29.516  24.682  1.00  0.00     0.001 A 
ATOM     22  S   UNL A   1      30.445  27.769  22.923  1.00  0.00    -0.135 S 
ATOM     23  C   UNL A   1      31.879  30.083  25.739  1.00  0.00     0.010 A 
ATOM     24  C   UNL A   1      30.000  30.081  23.952  1.00  0.00     0.000 A 
ATOM     25  C   UNL A   1      29.547  29.225  22.950  1.00  0.00     0.036 A 
ATOM     26  C   UNL A   1      29.336  31.326  24.107  1.00  0.00     0.010 A 
ATOM     27  C   UNL A   1      28.476  29.578  22.104  1.00  0.00     0.019 A 
ATOM     28  C   UNL A   1      28.267  31.677  23.280  1.00  0.00     0.001 A 
ATOM     29  C   UNL A   1      27.844  30.810  22.283  1.00  0.00     0.002 A 
ENDBRANCH  13  17
ENDBRANCH   5   8
ENDBRANCH   3   4
ENDBRANCH   2   3
ENDBRANCH   1   2
BRANCH   1  30
ATOM     30  C   UNL A   1      38.692  20.554  25.662  1.00  0.00     0.116 C 
BRANCH  30  31
ATOM     31  N   UNL A   1      39.731  19.535  25.704  1.00  0.00    -0.352 N 
ATOM     32  C   UNL A   1      41.056  19.658  26.046  1.00  0.00     0.251 C 
ATOM     33  H   UNL A   1      39.443  18.629  25.453  1.00  0.00     0.163 HD
ATOM     34  O   UNL A   1      41.829  18.719  25.879  1.00  0.00    -0.269 OA
BRANCH  32  35
ATOM     35  C   UNL A   1      41.558  20.936  26.592  1.00  0.00     0.039 A 
ATOM     36  C   UNL A   1      42.034  21.909  25.711  1.00  0.00     0.014 A 
ATOM     37  C   UNL A   1      41.549  21.176  27.968  1.00  0.00     0.014 A 
ATOM     38  C   UNL A   1      42.442  23.150  26.206  1.00  0.00     0.010 A 
ATOM     39  C   UNL A   1      41.867  22.441  28.450  1.00  0.00     0.010 A 
ATOM     40  C   UNL A   1      42.330  23.438  27.578  1.00  0.00    -0.014 A 
BRANCH  40  41
ATOM     41  C   UNL A   1      42.718  24.763  28.124  1.00  0.00     0.031 A 
ATOM     42  C   UNL A   1      41.672  25.824  28.333  1.00  0.00     0.074 A 
ATOM     43  C   UNL A   1      44.013  25.034  28.378  1.00  0.00     0.049 A 
ATOM     44  N   UNL A   1      41.816  27.057  28.747  1.00  0.00    -0.248 NA
ATOM     45  C   UNL A   1      40.282  25.460  28.008  1.00  0.00     0.031 C 
ATOM     46  C   UNL A   1      45.131  24.106  28.184  1.00  0.00     0.029 A 
ATOM     47  N   UNL A   1      44.609  26.175  28.854  1.00  0.00    -0.354 N 
ATOM     48  C   UNL A   1      40.545  27.617  28.713  1.00  0.00     0.074 A 
ATOM     49  C   UNL A   1      39.653  26.611  28.182  1.00  0.00     0.031 C 
ATOM     50  C   UNL A   1      46.270  24.706  28.568  1.00  0.00     0.029 A 
ATOM     51  C   UNL A   1      45.971  26.069  28.993  1.00  0.00     0.049 A 
ATOM     52  H   UNL A   1      44.106  26.993  29.075  1.00  0.00     0.167 HD
ATOM     53  C   UNL A   1      40.149  28.851  29.108  1.00  0.00     0.031 A 
ATOM     54  C   UNL A   1      46.879  26.972  29.412  1.00  0.00     0.031 A 
ATOM     55  C   UNL A   1      41.032  29.850  29.644  1.00  0.00     0.049 A 
ATOM     56  C   UNL A   1      46.417  28.341  29.829  1.00  0.00     0.074 A 
ATOM     57  C   UNL A   1      40.721  31.112  30.118  1.00  0.00     0.029 A 
ATOM     58  N   UNL A   1      42.405  29.700  29.773  1.00  0.00    -0.354 N 
ATOM     59  N   UNL A   1      45.201  28.832  29.851  1.00  0.00    -0.248 NA
ATOM     60  C   UNL A   1      47.452  29.274  30.294  1.00  0.00     0.031 C 
ATOM     61  C   UNL A   1      41.913  31.747  30.484  1.00  0.00     0.029 A 
ATOM     62  C   UNL A   1      42.957  30.855  30.301  1.00  0.00     0.049 A 
ATOM     63  H   UNL A   1      42.911  28.893  29.526  1.00  0.00     0.167 HD
ATOM     64  C   UNL A   1      45.322  30.116  30.368  1.00  0.00     0.074 A 
ATOM     65  C   UNL A   1      46.726  30.320  30.659  1.00  0.00     0.031 C 
ATOM     66  C   UNL A   1      44.356  31.042  30.588  1.00  0.00     0.031 A 
BRANCH  53  67
ATOM     67  C   UNL A   1      38.687  29.185  28.966  1.00  0.00    -0.014 A 
ATOM     68  C   UNL A   1      37.798  29.048  30.044  1.00  0.00     0.009 A 
ATOM     69  C   UNL A   1      38.198  29.665  27.741  1.00  0.00     0.009 A 
ATOM     70  C   UNL A   1      36.443  29.345  29.887  1.00  0.00     0.001 A 
ATOM     71  C   UNL A   1      36.848  29.995  27.598  1.00  0.00     0.001 A 
ATOM     72  C   UNL A   1      35.970  29.824  28.667  1.00  0.00     0.000 A 
ENDBRANCH  53  67
BRANCH  54  73
ATOM     73  C   UNL A   1      48.321  26.607  29.479  1.00  0.00    -0.014 A 
ATOM     74  C   UNL A   1      49.164  26.831  28.379  1.00  0.00     0.009 A 
ATOM     75  C   UNL A   1      48.856  26.019  30.635  1.00  0.00     0.009 A 
ATOM     76  C   UNL A   1      50.505  26.442  28.424  1.00  0.00     0.001 A 
ATOM     77  C   UNL A   1      50.205  25.661  30.688  1.00  0.00     0.001 A 
ATOM     78  C   UNL A   1      51.026  25.861  29.579  1.00  0.00     0.000 A 
ENDBRANCH  54  73
BRANCH  66  79
ATOM     79  C   UNL A   1      44.776  32.339  31.222  1.00  0.00    -0.014 A 
ATOM     80  C   UNL A   1      45.147  33.452  30.450  1.00  0.00     0.009 A 
ATOM     81  C   UNL A   1      44.771  32.456  32.622  1.00  0.00     0.009 A 
ATOM     82  C   UNL A   1      45.543  34.640  31.069  1.00  0.00     0.001 A 
ATOM     83  C   UNL A   1      45.133  33.655  33.236  1.00  0.00     0.001 A 
ATOM     84  C   UNL A   1      45.531  34.742  32.459  1.00  0.00     0.000 A 
ENDBRANCH  66  79
ENDBRANCH  40  41
ENDBRANCH  32  35
ENDBRANCH  30  31
ENDBRANCH   1  30
TORSDOF 12
ENDMDL
