MODEL 1
REMARK VINA RESULT:     -11.2      0.000      0.000
REMARK SMILES CC[C@@H](C(=O)Nc1ccc(OC(C)=O)cc1C(=O)NCCCCNC(=O)c1ccc(-c2c3nc(c(-c4ccccc4)c4ccc([nH]4)c(-c4ccccc4)c4nc(c(-c5ccccc5)c5ccc2[nH]5)C=C4)C=C3)cc1)c1ccccc1
REMARK SMILES IDX 21 1 20 2 19 3 17 4 18 5 16 7 7 8 8 9 9 10 15 11 10 12 6 13
REMARK SMILES IDX 4 14 5 15 3 17 2 18 1 19 75 20 76 21 80 22 77 23 79 24 78 25
REMARK SMILES IDX 11 26 12 27 13 28 14 29 22 30 23 31 24 32 25 33 26 35 27 36
REMARK SMILES IDX 28 37 74 38 29 39 73 40 30 41 31 42 32 43 67 44 33 45 72 46
REMARK SMILES IDX 66 47 68 48 34 49 71 50 65 51 64 52 35 54 57 55 42 56 56 57
REMARK SMILES IDX 43 58 46 59 55 60 69 61 44 62 45 63 54 65 70 66 47 67 36 68
REMARK SMILES IDX 37 69 41 70 38 71 40 72 39 73 58 74 59 75 63 76 60 77 62 78
REMARK SMILES IDX 61 79 48 80 49 81 53 82 50 83 52 84 51 85
REMARK H PARENT 19 6 6 16 24 34 68 53 46 64
REMARK Flexibility Score: inf
ROOT
ATOM      1  C   UNL A   1      34.394  29.441  27.209  1.00  0.00     0.023 C 
ENDROOT
BRANCH   1   2
ATOM      2  C   UNL A   1      33.391  28.421  26.680  1.00  0.00     0.116 C 
BRANCH   2   3
ATOM      3  N   UNL A   1      33.836  27.708  25.503  1.00  0.00    -0.352 N 
ATOM      4  C   UNL A   1      33.141  27.039  24.529  1.00  0.00     0.253 C 
ATOM      5  O   UNL A   1      33.808  26.481  23.653  1.00  0.00    -0.269 OA
ATOM      6  H   UNL A   1      34.813  27.702  25.379  1.00  0.00     0.163 HD
BRANCH   4   7
ATOM      7  C   UNL A   1      31.654  26.899  24.467  1.00  0.00     0.067 A 
ATOM      8  C   UNL A   1      30.821  26.012  25.172  1.00  0.00     0.054 A 
ATOM      9  C   UNL A   1      29.458  25.911  24.810  1.00  0.00     0.031 A 
ATOM     10  C   UNL A   1      28.871  26.817  23.932  1.00  0.00     0.049 A 
ATOM     11  C   UNL A   1      31.043  27.802  23.565  1.00  0.00     0.063 A 
ATOM     12  C   UNL A   1      29.664  27.802  23.369  1.00  0.00     0.131 A 
BRANCH   8  13
ATOM     13  N   UNL A   1      31.162  25.147  26.212  1.00  0.00    -0.325 N 
ATOM     14  C   UNL A   1      31.557  23.857  26.344  1.00  0.00     0.231 C 
ATOM     15  O   UNL A   1      31.580  23.512  27.540  1.00  0.00    -0.274 OA
ATOM     16  H   UNL A   1      31.097  25.594  27.087  1.00  0.00     0.169 HD
BRANCH  14  17
ATOM     17  C   UNL A   1      32.147  22.910  25.256  1.00  0.00     0.108 C 
BRANCH  17  18
ATOM     18  C   UNL A   1      31.928  21.393  25.329  1.00  0.00     0.015 C 
ATOM     19  C   UNL A   1      33.062  20.607  25.964  1.00  0.00     0.005 C 
ENDBRANCH  17  18
BRANCH  17  20
ATOM     20  C   UNL A   1      33.638  23.248  24.996  1.00  0.00    -0.036 A 
ATOM     21  C   UNL A   1      34.481  23.823  25.963  1.00  0.00     0.004 A 
ATOM     22  C   UNL A   1      34.202  22.943  23.742  1.00  0.00     0.004 A 
ATOM     23  C   UNL A   1      35.842  24.028  25.705  1.00  0.00     0.000 A 
ATOM     24  C   UNL A   1      35.551  23.183  23.471  1.00  0.00     0.000 A 
ATOM     25  C   UNL A   1      36.377  23.705  24.461  1.00  0.00     0.000 A 
ENDBRANCH  17  20
ENDBRANCH  14  17
ENDBRANCH   8  13
BRANCH  12  26
ATOM     26  O   UNL A   1      29.043  28.744  22.535  1.00  0.00    -0.427 OA
BRANCH  26  27
ATOM     27  C   UNL A   1      28.250  29.745  23.097  1.00  0.00     0.308 C 
ATOM     28  C   UNL A   1      28.967  30.993  23.528  1.00  0.00     0.139 C 
ATOM     29  O   UNL A   1      27.028  29.641  23.144  1.00  0.00    -0.252 OA
ENDBRANCH  26  27
ENDBRANCH  12  26
ENDBRANCH   4   7
ENDBRANCH   2   3
ENDBRANCH   1   2
BRANCH   1  30
ATOM     30  C   UNL A   1      33.985  30.909  27.032  1.00  0.00     0.023 C 
BRANCH  30  31
ATOM     31  C   UNL A   1      32.535  31.260  27.375  1.00  0.00     0.116 C 
BRANCH  31  32
ATOM     32  N   UNL A   1      32.283  32.694  27.450  1.00  0.00    -0.352 N 
ATOM     33  C   UNL A   1      33.015  33.694  28.047  1.00  0.00     0.251 C 
ATOM     34  H   UNL A   1      31.459  32.994  27.002  1.00  0.00     0.163 HD
ATOM     35  O   UNL A   1      32.572  34.837  28.114  1.00  0.00    -0.269 OA
BRANCH  33  36
ATOM     36  C   UNL A   1      34.332  33.390  28.642  1.00  0.00     0.039 A 
ATOM     37  C   UNL A   1      34.393  32.738  29.875  1.00  0.00     0.014 A 
ATOM     38  C   UNL A   1      35.510  33.739  27.976  1.00  0.00     0.014 A 
ATOM     39  C   UNL A   1      35.632  32.343  30.389  1.00  0.00     0.010 A 
ATOM     40  C   UNL A   1      36.736  33.280  28.448  1.00  0.00     0.010 A 
ATOM     41  C   UNL A   1      36.809  32.564  29.653  1.00  0.00    -0.014 A 
BRANCH  41  42
ATOM     42  C   UNL A   1      38.117  32.025  30.108  1.00  0.00     0.031 A 
ATOM     43  C   UNL A   1      38.617  30.702  29.595  1.00  0.00     0.074 A 
ATOM     44  C   UNL A   1      38.824  32.695  31.040  1.00  0.00     0.049 A 
ATOM     45  N   UNL A   1      39.702  30.046  29.927  1.00  0.00    -0.248 NA
ATOM     46  C   UNL A   1      37.781  30.016  28.598  1.00  0.00     0.031 C 
ATOM     47  C   UNL A   1      38.432  33.966  31.654  1.00  0.00     0.029 A 
ATOM     48  N   UNL A   1      40.022  32.394  31.641  1.00  0.00    -0.354 N 
ATOM     49  C   UNL A   1      39.670  28.869  29.190  1.00  0.00     0.074 A 
ATOM     50  C   UNL A   1      38.437  28.876  28.435  1.00  0.00     0.031 C 
ATOM     51  C   UNL A   1      39.386  34.351  32.518  1.00  0.00     0.029 A 
ATOM     52  C   UNL A   1      40.435  33.337  32.552  1.00  0.00     0.049 A 
ATOM     53  H   UNL A   1      40.537  31.580  31.439  1.00  0.00     0.167 HD
ATOM     54  C   UNL A   1      40.595  27.881  29.128  1.00  0.00     0.031 A 
ATOM     55  C   UNL A   1      41.532  33.380  33.332  1.00  0.00     0.031 A 
ATOM     56  C   UNL A   1      41.827  27.873  29.870  1.00  0.00     0.049 A 
ATOM     57  C   UNL A   1      42.532  32.260  33.257  1.00  0.00     0.074 A 
ATOM     58  C   UNL A   1      42.846  26.937  29.840  1.00  0.00     0.029 A 
ATOM     59  N   UNL A   1      42.209  28.851  30.775  1.00  0.00    -0.354 N 
ATOM     60  N   UNL A   1      42.515  31.185  32.507  1.00  0.00    -0.248 NA
ATOM     61  C   UNL A   1      43.709  32.366  34.133  1.00  0.00     0.031 C 
ATOM     62  C   UNL A   1      43.826  27.326  30.758  1.00  0.00     0.029 A 
ATOM     63  C   UNL A   1      43.440  28.531  31.322  1.00  0.00     0.049 A 
ATOM     64  H   UNL A   1      41.682  29.652  30.996  1.00  0.00     0.167 HD
ATOM     65  C   UNL A   1      43.691  30.505  32.796  1.00  0.00     0.074 A 
ATOM     66  C   UNL A   1      44.405  31.295  33.777  1.00  0.00     0.031 C 
ATOM     67  C   UNL A   1      44.141  29.331  32.291  1.00  0.00     0.031 A 
BRANCH  54  68
ATOM     68  C   UNL A   1      40.308  26.722  28.215  1.00  0.00    -0.014 A 
ATOM     69  C   UNL A   1      39.509  25.647  28.639  1.00  0.00     0.009 A 
ATOM     70  C   UNL A   1      40.804  26.723  26.902  1.00  0.00     0.009 A 
ATOM     71  C   UNL A   1      39.240  24.582  27.778  1.00  0.00     0.001 A 
ATOM     72  C   UNL A   1      40.510  25.668  26.034  1.00  0.00     0.001 A 
ATOM     73  C   UNL A   1      39.736  24.596  26.475  1.00  0.00     0.000 A 
ENDBRANCH  54  68
BRANCH  55  74
ATOM     74  C   UNL A   1      41.763  34.532  34.242  1.00  0.00    -0.014 A 
ATOM     75  C   UNL A   1      41.288  34.499  35.563  1.00  0.00     0.009 A 
ATOM     76  C   UNL A   1      42.431  35.681  33.791  1.00  0.00     0.009 A 
ATOM     77  C   UNL A   1      41.447  35.605  36.401  1.00  0.00     0.001 A 
ATOM     78  C   UNL A   1      42.615  36.773  34.641  1.00  0.00     0.001 A 
ATOM     79  C   UNL A   1      42.112  36.739  35.941  1.00  0.00     0.000 A 
ENDBRANCH  55  74
BRANCH  67  80
ATOM     80  C   UNL A   1      45.486  28.853  32.759  1.00  0.00    -0.014 A 
ATOM     81  C   UNL A   1      45.615  28.005  33.870  1.00  0.00     0.009 A 
ATOM     82  C   UNL A   1      46.639  29.226  32.050  1.00  0.00     0.009 A 
ATOM     83  C   UNL A   1      46.876  27.569  34.281  1.00  0.00     0.001 A 
ATOM     84  C   UNL A   1      47.895  28.766  32.447  1.00  0.00     0.001 A 
ATOM     85  C   UNL A   1      48.013  27.945  33.567  1.00  0.00     0.000 A 
ENDBRANCH  67  80
ENDBRANCH  41  42
ENDBRANCH  33  36
ENDBRANCH  31  32
ENDBRANCH  30  31
ENDBRANCH   1  30
TORSDOF 17
ENDMDL
MODEL 2
REMARK VINA RESULT:     -10.8      1.289      5.934
REMARK SMILES CC[C@@H](C(=O)Nc1ccc(OC(C)=O)cc1C(=O)NCCCCNC(=O)c1ccc(-c2c3nc(c(-c4ccccc4)c4ccc([nH]4)c(-c4ccccc4)c4nc(c(-c5ccccc5)c5ccc2[nH]5)C=C4)C=C3)cc1)c1ccccc1
REMARK SMILES IDX 21 1 20 2 19 3 17 4 18 5 16 7 7 8 8 9 9 10 15 11 10 12 6 13
REMARK SMILES IDX 4 14 5 15 3 17 2 18 1 19 75 20 76 21 80 22 77 23 79 24 78 25
REMARK SMILES IDX 11 26 12 27 13 28 14 29 22 30 23 31 24 32 25 33 26 35 27 36
REMARK SMILES IDX 28 37 74 38 29 39 73 40 30 41 31 42 32 43 67 44 33 45 72 46
REMARK SMILES IDX 66 47 68 48 34 49 71 50 65 51 64 52 35 54 57 55 42 56 56 57
REMARK SMILES IDX 43 58 46 59 55 60 69 61 44 62 45 63 54 65 70 66 47 67 36 68
REMARK SMILES IDX 37 69 41 70 38 71 40 72 39 73 58 74 59 75 63 76 60 77 62 78
REMARK SMILES IDX 61 79 48 80 49 81 53 82 50 83 52 84 51 85
REMARK H PARENT 19 6 6 16 24 34 68 53 46 64
REMARK Flexibility Score: inf
ROOT
ATOM      1  C   UNL A   1      34.618  30.555  27.547  1.00  0.00     0.023 C 
ENDROOT
BRANCH   1   2
ATOM      2  C   UNL A   1      34.155  29.251  26.907  1.00  0.00     0.116 C 
BRANCH   2   3
ATOM      3  N   UNL A   1      32.982  28.673  27.523  1.00  0.00    -0.352 N 
ATOM      4  C   UNL A   1      31.911  28.005  26.988  1.00  0.00     0.253 C 
ATOM      5  O   UNL A   1      31.023  27.659  27.773  1.00  0.00    -0.269 OA
ATOM      6  H   UNL A   1      32.946  28.778  28.501  1.00  0.00     0.163 HD
BRANCH   4   7
ATOM      7  C   UNL A   1      31.716  27.700  25.538  1.00  0.00     0.067 A 
ATOM      8  C   UNL A   1      31.837  26.468  24.871  1.00  0.00     0.054 A 
ATOM      9  C   UNL A   1      31.807  26.444  23.457  1.00  0.00     0.031 A 
ATOM     10  C   UNL A   1      31.442  27.566  22.719  1.00  0.00     0.049 A 
ATOM     11  C   UNL A   1      31.361  28.835  24.770  1.00  0.00     0.063 A 
ATOM     12  C   UNL A   1      31.154  28.738  23.395  1.00  0.00     0.131 A 
BRANCH   8  13
ATOM     13  N   UNL A   1      32.022  25.201  25.422  1.00  0.00    -0.325 N 
ATOM     14  C   UNL A   1      32.595  24.029  25.052  1.00  0.00     0.231 C 
ATOM     15  O   UNL A   1      32.342  23.124  25.869  1.00  0.00    -0.274 OA
ATOM     16  H   UNL A   1      31.631  25.140  26.323  1.00  0.00     0.169 HD
BRANCH  14  17
ATOM     17  C   UNL A   1      33.633  23.775  23.918  1.00  0.00     0.108 C 
BRANCH  17  18
ATOM     18  C   UNL A   1      33.232  23.044  22.631  1.00  0.00     0.015 C 
ATOM     19  C   UNL A   1      32.019  22.137  22.755  1.00  0.00     0.005 C 
ENDBRANCH  17  18
BRANCH  17  20
ATOM     20  C   UNL A   1      34.945  23.192  24.507  1.00  0.00    -0.036 A 
ATOM     21  C   UNL A   1      35.322  21.845  24.373  1.00  0.00     0.004 A 
ATOM     22  C   UNL A   1      35.831  24.050  25.189  1.00  0.00     0.004 A 
ATOM     23  C   UNL A   1      36.557  21.389  24.848  1.00  0.00     0.000 A 
ATOM     24  C   UNL A   1      37.047  23.586  25.697  1.00  0.00     0.000 A 
ATOM     25  C   UNL A   1      37.420  22.260  25.507  1.00  0.00     0.000 A 
ENDBRANCH  17  20
ENDBRANCH  14  17
ENDBRANCH   8  13
BRANCH  12  26
ATOM     26  O   UNL A   1      30.728  29.841  22.640  1.00  0.00    -0.427 OA
BRANCH  26  27
ATOM     27  C   UNL A   1      29.364  30.044  22.427  1.00  0.00     0.308 C 
ATOM     28  C   UNL A   1      28.633  30.801  23.500  1.00  0.00     0.139 C 
ATOM     29  O   UNL A   1      28.823  29.706  21.379  1.00  0.00    -0.252 OA
ENDBRANCH  26  27
ENDBRANCH  12  26
ENDBRANCH   4   7
ENDBRANCH   2   3
ENDBRANCH   1   2
BRANCH   1  30
ATOM     30  C   UNL A   1      33.493  31.500  27.988  1.00  0.00     0.023 C 
BRANCH  30  31
ATOM     31  C   UNL A   1      33.096  32.600  26.999  1.00  0.00     0.116 C 
BRANCH  31  32
ATOM     32  N   UNL A   1      32.665  33.835  27.641  1.00  0.00    -0.352 N 
ATOM     33  C   UNL A   1      33.187  34.503  28.724  1.00  0.00     0.251 C 
ATOM     34  H   UNL A   1      31.874  34.258  27.235  1.00  0.00     0.163 HD
ATOM     35  O   UNL A   1      32.604  35.472  29.202  1.00  0.00    -0.269 OA
BRANCH  33  36
ATOM     36  C   UNL A   1      34.446  34.036  29.342  1.00  0.00     0.039 A 
ATOM     37  C   UNL A   1      34.399  33.347  30.555  1.00  0.00     0.014 A 
ATOM     38  C   UNL A   1      35.673  34.269  28.717  1.00  0.00     0.014 A 
ATOM     39  C   UNL A   1      35.571  32.802  31.087  1.00  0.00     0.010 A 
ATOM     40  C   UNL A   1      36.827  33.663  29.205  1.00  0.00     0.010 A 
ATOM     41  C   UNL A   1      36.786  32.909  30.388  1.00  0.00    -0.014 A 
BRANCH  41  42
ATOM     42  C   UNL A   1      38.012  32.214  30.858  1.00  0.00     0.031 A 
ATOM     43  C   UNL A   1      38.833  32.789  31.980  1.00  0.00     0.074 A 
ATOM     44  C   UNL A   1      38.428  31.099  30.225  1.00  0.00     0.049 A 
ATOM     45  N   UNL A   1      39.964  32.355  32.480  1.00  0.00    -0.248 NA
ATOM     46  C   UNL A   1      38.331  34.021  32.607  1.00  0.00     0.031 C 
ATOM     47  C   UNL A   1      37.751  30.461  29.093  1.00  0.00     0.029 A 
ATOM     48  N   UNL A   1      39.529  30.305  30.440  1.00  0.00    -0.354 N 
ATOM     49  C   UNL A   1      40.311  33.267  33.469  1.00  0.00     0.074 A 
ATOM     50  C   UNL A   1      39.302  34.303  33.463  1.00  0.00     0.031 C 
ATOM     51  C   UNL A   1      38.432  29.359  28.736  1.00  0.00     0.029 A 
ATOM     52  C   UNL A   1      39.614  29.235  29.582  1.00  0.00     0.049 A 
ATOM     53  H   UNL A   1      40.194  30.486  31.142  1.00  0.00     0.167 HD
ATOM     54  C   UNL A   1      41.363  33.234  34.322  1.00  0.00     0.031 A 
ATOM     55  C   UNL A   1      40.541  28.263  29.484  1.00  0.00     0.031 A 
ATOM     56  C   UNL A   1      42.365  32.202  34.338  1.00  0.00     0.049 A 
ATOM     57  C   UNL A   1      41.709  28.262  30.431  1.00  0.00     0.074 A 
ATOM     58  C   UNL A   1      43.443  32.059  35.194  1.00  0.00     0.029 A 
ATOM     59  N   UNL A   1      42.409  31.132  33.458  1.00  0.00    -0.354 N 
ATOM     60  N   UNL A   1      41.987  29.098  31.401  1.00  0.00    -0.248 NA
ATOM     61  C   UNL A   1      42.686  27.174  30.273  1.00  0.00     0.031 C 
ATOM     62  C   UNL A   1      44.165  30.927  34.805  1.00  0.00     0.029 A 
ATOM     63  C   UNL A   1      43.506  30.336  33.740  1.00  0.00     0.049 A 
ATOM     64  H   UNL A   1      41.757  30.964  32.740  1.00  0.00     0.167 HD
ATOM     65  C   UNL A   1      43.151  28.620  31.989  1.00  0.00     0.074 A 
ATOM     66  C   UNL A   1      43.518  27.413  31.278  1.00  0.00     0.031 C 
ATOM     67  C   UNL A   1      43.853  29.134  33.028  1.00  0.00     0.031 A 
BRANCH  54  68
ATOM     68  C   UNL A   1      41.480  34.353  35.319  1.00  0.00    -0.014 A 
ATOM     69  C   UNL A   1      42.216  35.511  35.023  1.00  0.00     0.009 A 
ATOM     70  C   UNL A   1      40.811  34.268  36.550  1.00  0.00     0.009 A 
ATOM     71  C   UNL A   1      42.307  36.548  35.954  1.00  0.00     0.001 A 
ATOM     72  C   UNL A   1      40.882  35.320  37.468  1.00  0.00     0.001 A 
ATOM     73  C   UNL A   1      41.636  36.454  37.172  1.00  0.00     0.000 A 
ENDBRANCH  54  68
BRANCH  55  74
ATOM     74  C   UNL A   1      40.402  27.191  28.464  1.00  0.00    -0.014 A 
ATOM     75  C   UNL A   1      40.964  27.349  27.187  1.00  0.00     0.009 A 
ATOM     76  C   UNL A   1      39.684  26.019  28.748  1.00  0.00     0.009 A 
ATOM     77  C   UNL A   1      40.780  26.372  26.206  1.00  0.00     0.001 A 
ATOM     78  C   UNL A   1      39.528  25.030  27.774  1.00  0.00     0.001 A 
ATOM     79  C   UNL A   1      40.066  25.213  26.501  1.00  0.00     0.000 A 
ENDBRANCH  55  74
BRANCH  67  80
ATOM     80  C   UNL A   1      45.063  28.369  33.485  1.00  0.00    -0.014 A 
ATOM     81  C   UNL A   1      44.963  27.346  34.439  1.00  0.00     0.009 A 
ATOM     82  C   UNL A   1      46.317  28.654  32.920  1.00  0.00     0.009 A 
ATOM     83  C   UNL A   1      46.101  26.645  34.843  1.00  0.00     0.001 A 
ATOM     84  C   UNL A   1      47.447  27.933  33.305  1.00  0.00     0.001 A 
ATOM     85  C   UNL A   1      47.340  26.935  34.272  1.00  0.00     0.000 A 
ENDBRANCH  67  80
ENDBRANCH  41  42
ENDBRANCH  33  36
ENDBRANCH  31  32
ENDBRANCH  30  31
ENDBRANCH   1  30
TORSDOF 17
ENDMDL
MODEL 3
REMARK VINA RESULT:     -10.6      5.552      9.456
REMARK SMILES CC[C@@H](C(=O)Nc1ccc(OC(C)=O)cc1C(=O)NCCCCNC(=O)c1ccc(-c2c3nc(c(-c4ccccc4)c4ccc([nH]4)c(-c4ccccc4)c4nc(c(-c5ccccc5)c5ccc2[nH]5)C=C4)C=C3)cc1)c1ccccc1
REMARK SMILES IDX 21 1 20 2 19 3 17 4 18 5 16 7 7 8 8 9 9 10 15 11 10 12 6 13
REMARK SMILES IDX 4 14 5 15 3 17 2 18 1 19 75 20 76 21 80 22 77 23 79 24 78 25
REMARK SMILES IDX 11 26 12 27 13 28 14 29 22 30 23 31 24 32 25 33 26 35 27 36
REMARK SMILES IDX 28 37 74 38 29 39 73 40 30 41 31 42 32 43 67 44 33 45 72 46
REMARK SMILES IDX 66 47 68 48 34 49 71 50 65 51 64 52 35 54 57 55 42 56 56 57
REMARK SMILES IDX 43 58 46 59 55 60 69 61 44 62 45 63 54 65 70 66 47 67 36 68
REMARK SMILES IDX 37 69 41 70 38 71 40 72 39 73 58 74 59 75 63 76 60 77 62 78
REMARK SMILES IDX 61 79 48 80 49 81 53 82 50 83 52 84 51 85
REMARK H PARENT 19 6 6 16 24 34 68 53 46 64
REMARK Flexibility Score: inf
ROOT
ATOM      1  C   UNL A   1      38.638  31.694  35.672  1.00  0.00     0.023 C 
ENDROOT
BRANCH   1   2
ATOM      2  C   UNL A   1      38.020  31.361  34.318  1.00  0.00     0.116 C 
BRANCH   2   3
ATOM      3  N   UNL A   1      37.826  29.947  34.088  1.00  0.00    -0.352 N 
ATOM      4  C   UNL A   1      37.705  29.223  32.930  1.00  0.00     0.253 C 
ATOM      5  O   UNL A   1      37.502  28.012  33.049  1.00  0.00    -0.269 OA
ATOM      6  H   UNL A   1      37.772  29.407  34.910  1.00  0.00     0.163 HD
BRANCH   4   7
ATOM      7  C   UNL A   1      37.758  29.788  31.546  1.00  0.00     0.067 A 
ATOM      8  C   UNL A   1      36.800  30.567  30.874  1.00  0.00     0.054 A 
ATOM      9  C   UNL A   1      36.967  30.824  29.493  1.00  0.00     0.031 A 
ATOM     10  C   UNL A   1      38.154  30.518  28.835  1.00  0.00     0.049 A 
ATOM     11  C   UNL A   1      38.953  29.471  30.857  1.00  0.00     0.063 A 
ATOM     12  C   UNL A   1      39.167  29.902  29.550  1.00  0.00     0.131 A 
BRANCH   8  13
ATOM     13  N   UNL A   1      35.630  31.130  31.384  1.00  0.00    -0.325 N 
ATOM     14  C   UNL A   1      35.176  32.368  31.697  1.00  0.00     0.231 C 
ATOM     15  O   UNL A   1      34.082  32.312  32.288  1.00  0.00    -0.274 OA
ATOM     16  H   UNL A   1      34.951  30.441  31.567  1.00  0.00     0.169 HD
BRANCH  14  17
ATOM     17  C   UNL A   1      35.733  33.748  31.235  1.00  0.00     0.108 C 
BRANCH  17  18
ATOM     18  C   UNL A   1      37.199  34.129  31.480  1.00  0.00     0.015 C 
ATOM     19  C   UNL A   1      38.070  34.177  30.237  1.00  0.00     0.005 C 
ENDBRANCH  17  18
BRANCH  17  20
ATOM     20  C   UNL A   1      34.778  34.890  31.672  1.00  0.00    -0.036 A 
ATOM     21  C   UNL A   1      34.927  35.607  32.871  1.00  0.00     0.004 A 
ATOM     22  C   UNL A   1      33.718  35.260  30.820  1.00  0.00     0.004 A 
ATOM     23  C   UNL A   1      34.088  36.686  33.176  1.00  0.00     0.000 A 
ATOM     24  C   UNL A   1      32.858  36.312  31.143  1.00  0.00     0.000 A 
ATOM     25  C   UNL A   1      33.057  37.040  32.311  1.00  0.00     0.000 A 
ENDBRANCH  17  20
ENDBRANCH  14  17
ENDBRANCH   8  13
BRANCH  12  26
ATOM     26  O   UNL A   1      40.380  29.658  28.888  1.00  0.00    -0.427 OA
BRANCH  26  27
ATOM     27  C   UNL A   1      40.808  28.344  28.698  1.00  0.00     0.308 C 
ATOM     28  C   UNL A   1      39.973  27.504  27.772  1.00  0.00     0.139 C 
ATOM     29  O   UNL A   1      41.859  27.937  29.184  1.00  0.00    -0.252 OA
ENDBRANCH  26  27
ENDBRANCH  12  26
ENDBRANCH   4   7
ENDBRANCH   2   3
ENDBRANCH   1   2
BRANCH   1  30
ATOM     30  C   UNL A   1      38.007  32.888  36.401  1.00  0.00     0.023 C 
BRANCH  30  31
ATOM     31  C   UNL A   1      38.923  33.675  37.343  1.00  0.00     0.116 C 
BRANCH  31  32
ATOM     32  N   UNL A   1      39.062  35.080  36.982  1.00  0.00    -0.352 N 
ATOM     33  C   UNL A   1      39.809  35.674  35.992  1.00  0.00     0.251 C 
ATOM     34  H   UNL A   1      38.538  35.703  37.536  1.00  0.00     0.163 HD
ATOM     35  O   UNL A   1      39.897  36.897  35.924  1.00  0.00    -0.269 OA
BRANCH  33  36
ATOM     36  C   UNL A   1      40.540  34.838  35.017  1.00  0.00     0.039 A 
ATOM     37  C   UNL A   1      41.811  34.359  35.342  1.00  0.00     0.014 A 
ATOM     38  C   UNL A   1      39.964  34.516  33.786  1.00  0.00     0.014 A 
ATOM     39  C   UNL A   1      42.459  33.474  34.476  1.00  0.00     0.010 A 
ATOM     40  C   UNL A   1      40.574  33.577  32.960  1.00  0.00     0.010 A 
ATOM     41  C   UNL A   1      41.821  33.033  33.303  1.00  0.00    -0.014 A 
BRANCH  41  42
ATOM     42  C   UNL A   1      42.426  31.983  32.443  1.00  0.00     0.031 A 
ATOM     43  C   UNL A   1      42.574  30.574  32.949  1.00  0.00     0.074 A 
ATOM     44  C   UNL A   1      42.908  32.314  31.228  1.00  0.00     0.049 A 
ATOM     45  N   UNL A   1      43.134  29.543  32.366  1.00  0.00    -0.248 NA
ATOM     46  C   UNL A   1      42.047  30.292  34.293  1.00  0.00     0.031 C 
ATOM     47  C   UNL A   1      42.870  33.653  30.634  1.00  0.00     0.029 A 
ATOM     48  N   UNL A   1      43.534  31.549  30.275  1.00  0.00    -0.354 N 
ATOM     49  C   UNL A   1      43.035  28.498  33.275  1.00  0.00     0.074 A 
ATOM     50  C   UNL A   1      42.412  29.030  34.466  1.00  0.00     0.031 C 
ATOM     51  C   UNL A   1      43.417  33.607  29.408  1.00  0.00     0.029 A 
ATOM     52  C   UNL A   1      43.882  32.250  29.145  1.00  0.00     0.049 A 
ATOM     53  H   UNL A   1      43.718  30.589  30.390  1.00  0.00     0.167 HD
ATOM     54  C   UNL A   1      43.409  27.203  33.124  1.00  0.00     0.031 A 
ATOM     55  C   UNL A   1      44.508  31.847  28.023  1.00  0.00     0.031 A 
ATOM     56  C   UNL A   1      44.020  26.667  31.938  1.00  0.00     0.049 A 
ATOM     57  C   UNL A   1      44.929  30.410  27.891  1.00  0.00     0.074 A 
ATOM     58  C   UNL A   1      44.393  25.361  31.676  1.00  0.00     0.029 A 
ATOM     59  N   UNL A   1      44.347  27.410  30.814  1.00  0.00    -0.354 N 
ATOM     60  N   UNL A   1      44.771  29.421  28.736  1.00  0.00    -0.248 NA
ATOM     61  C   UNL A   1      45.608  30.033  26.641  1.00  0.00     0.031 C 
ATOM     62  C   UNL A   1      44.985  25.319  30.409  1.00  0.00     0.029 A 
ATOM     63  C   UNL A   1      44.933  26.591  29.863  1.00  0.00     0.049 A 
ATOM     64  H   UNL A   1      44.186  28.375  30.709  1.00  0.00     0.167 HD
ATOM     65  C   UNL A   1      45.300  28.300  28.109  1.00  0.00     0.074 A 
ATOM     66  C   UNL A   1      45.769  28.727  26.808  1.00  0.00     0.031 C 
ATOM     67  C   UNL A   1      45.388  27.029  28.570  1.00  0.00     0.031 A 
BRANCH  54  68
ATOM     68  C   UNL A   1      43.156  26.273  34.277  1.00  0.00    -0.014 A 
ATOM     69  C   UNL A   1      44.205  25.855  35.112  1.00  0.00     0.009 A 
ATOM     70  C   UNL A   1      41.850  25.843  34.559  1.00  0.00     0.009 A 
ATOM     71  C   UNL A   1      43.956  24.999  36.186  1.00  0.00     0.001 A 
ATOM     72  C   UNL A   1      41.601  25.008  35.652  1.00  0.00     0.001 A 
ATOM     73  C   UNL A   1      42.654  24.581  36.459  1.00  0.00     0.000 A 
ENDBRANCH  54  68
BRANCH  55  74
ATOM     74  C   UNL A   1      44.764  32.808  26.918  1.00  0.00    -0.014 A 
ATOM     75  C   UNL A   1      45.914  33.612  26.929  1.00  0.00     0.009 A 
ATOM     76  C   UNL A   1      43.848  32.949  25.863  1.00  0.00     0.009 A 
ATOM     77  C   UNL A   1      46.125  34.562  25.925  1.00  0.00     0.001 A 
ATOM     78  C   UNL A   1      44.077  33.877  24.845  1.00  0.00     0.001 A 
ATOM     79  C   UNL A   1      45.209  34.691  24.884  1.00  0.00     0.000 A 
ENDBRANCH  55  74
BRANCH  67  80
ATOM     80  C   UNL A   1      45.973  26.001  27.644  1.00  0.00    -0.014 A 
ATOM     81  C   UNL A   1      47.350  25.730  27.630  1.00  0.00     0.009 A 
ATOM     82  C   UNL A   1      45.126  25.266  26.800  1.00  0.00     0.009 A 
ATOM     83  C   UNL A   1      47.870  24.765  26.765  1.00  0.00     0.001 A 
ATOM     84  C   UNL A   1      45.645  24.283  25.957  1.00  0.00     0.001 A 
ATOM     85  C   UNL A   1      47.017  24.040  25.934  1.00  0.00     0.000 A 
ENDBRANCH  67  80
ENDBRANCH  41  42
ENDBRANCH  33  36
ENDBRANCH  31  32
ENDBRANCH  30  31
ENDBRANCH   1  30
TORSDOF 17
ENDMDL
