MODEL 1
REMARK VINA RESULT:     -11.3      0.000      0.000
REMARK SMILES C[C@@H](C(=O)NCCCCNC(=O)c1ccc(-c2c3nc(c(-c4ccccc4)c4ccc([nH]4)c(-c4ccccc4)c4nc(c(-c5ccccc5)c5ccc2[nH]5)C=C4)C=C3)cc1)c1ccc(-c2ccn(C(F)F)c(=O)c2)cc1
REMARK SMILES IDX 7 1 6 2 5 3 3 4 4 5 2 7 1 8 61 9 62 10 76 11 63 12 75 13
REMARK SMILES IDX 64 14 65 15 66 16 74 17 67 18 72 19 68 20 73 21 69 22 70 23
REMARK SMILES IDX 71 24 8 25 9 26 10 27 11 28 12 30 13 31 14 32 60 33 15 34
REMARK SMILES IDX 59 35 16 36 17 37 18 38 53 39 19 40 58 41 52 42 54 43 20 44
REMARK SMILES IDX 57 45 51 46 50 47 21 49 43 50 28 51 42 52 29 53 32 54 41 55
REMARK SMILES IDX 55 56 30 57 31 58 40 60 56 61 33 62 22 63 23 64 27 65 24 66
REMARK SMILES IDX 26 67 25 68 44 69 45 70 49 71 46 72 48 73 47 74 34 75 35 76
REMARK SMILES IDX 39 77 36 78 38 79 37 80
REMARK H PARENT 5 6 10 29 54 48 32 59
REMARK Flexibility Score: inf
ROOT
ATOM      1  C   UNL A   1      32.521  29.711  25.113  1.00  0.00     0.023 C 
ENDROOT
BRANCH   1   2
ATOM      2  C   UNL A   1      31.012  29.573  24.887  1.00  0.00     0.116 C 
BRANCH   2   3
ATOM      3  N   UNL A   1      30.638  30.017  23.559  1.00  0.00    -0.356 N 
ATOM      4  C   UNL A   1      30.154  29.307  22.494  1.00  0.00     0.227 C 
ATOM      5  O   UNL A   1      30.057  29.917  21.428  1.00  0.00    -0.274 OA
ATOM      6  H   UNL A   1      30.750  30.981  23.397  1.00  0.00     0.163 HD
BRANCH   4   7
ATOM      7  C   UNL A   1      29.730  27.835  22.672  1.00  0.00     0.105 C 
ATOM      8  C   UNL A   1      28.490  27.758  23.573  1.00  0.00     0.023 C 
BRANCH   7   9
ATOM      9  C   UNL A   1      30.876  26.935  23.157  1.00  0.00    -0.036 A 
ATOM     10  C   UNL A   1      30.705  26.121  24.292  1.00  0.00     0.005 A 
ATOM     11  C   UNL A   1      32.124  26.904  22.516  1.00  0.00     0.005 A 
ATOM     12  C   UNL A   1      31.729  25.273  24.740  1.00  0.00     0.009 A 
ATOM     13  C   UNL A   1      33.148  26.072  22.968  1.00  0.00     0.009 A 
ATOM     14  C   UNL A   1      32.955  25.240  24.072  1.00  0.00    -0.018 A 
BRANCH  14  15
ATOM     15  C   UNL A   1      34.050  24.336  24.458  1.00  0.00    -0.011 A 
ATOM     16  C   UNL A   1      34.326  23.994  25.840  1.00  0.00     0.027 A 
ATOM     17  C   UNL A   1      34.899  23.930  23.499  1.00  0.00     0.080 A 
ATOM     18  C   UNL A   1      35.447  23.341  26.166  1.00  0.00     0.095 A 
ATOM     19  C   UNL A   1      36.133  23.172  23.844  1.00  0.00     0.255 A 
ATOM     20  N   UNL A   1      36.348  22.948  25.196  1.00  0.00    -0.258 N 
ATOM     21  O   UNL A   1      36.883  22.826  22.937  1.00  0.00    -0.269 OA
BRANCH  20  22
ATOM     22  C   UNL A   1      37.581  22.304  25.562  1.00  0.00     0.451 C 
ATOM     23  F   UNL A   1      37.993  21.441  24.602  1.00  0.00    -0.185 F 
ATOM     24  F   UNL A   1      38.565  23.216  25.758  1.00  0.00    -0.185 F 
ENDBRANCH  20  22
ENDBRANCH  14  15
ENDBRANCH   7   9
ENDBRANCH   4   7
ENDBRANCH   2   3
ENDBRANCH   1   2
BRANCH   1  25
ATOM     25  C   UNL A   1      33.175  28.531  25.832  1.00  0.00     0.023 C 
BRANCH  25  26
ATOM     26  C   UNL A   1      33.493  28.771  27.300  1.00  0.00     0.116 C 
BRANCH  26  27
ATOM     27  N   UNL A   1      33.569  30.184  27.644  1.00  0.00    -0.352 N 
ATOM     28  C   UNL A   1      34.633  30.870  28.181  1.00  0.00     0.251 C 
ATOM     29  H   UNL A   1      32.758  30.714  27.471  1.00  0.00     0.163 HD
ATOM     30  O   UNL A   1      34.521  32.041  28.522  1.00  0.00    -0.269 OA
BRANCH  28  31
ATOM     31  C   UNL A   1      35.909  30.155  28.376  1.00  0.00     0.039 A 
ATOM     32  C   UNL A   1      36.831  30.110  27.327  1.00  0.00     0.014 A 
ATOM     33  C   UNL A   1      36.217  29.602  29.620  1.00  0.00     0.014 A 
ATOM     34  C   UNL A   1      38.103  29.580  27.552  1.00  0.00     0.010 A 
ATOM     35  C   UNL A   1      37.503  29.137  29.861  1.00  0.00     0.010 A 
ATOM     36  C   UNL A   1      38.459  29.130  28.832  1.00  0.00    -0.014 A 
BRANCH  36  37
ATOM     37  C   UNL A   1      39.827  28.653  29.146  1.00  0.00     0.031 A 
ATOM     38  C   UNL A   1      40.831  29.607  29.724  1.00  0.00     0.074 A 
ATOM     39  C   UNL A   1      40.202  27.410  28.789  1.00  0.00     0.049 A 
ATOM     40  N   UNL A   1      42.119  29.450  29.895  1.00  0.00    -0.248 NA
ATOM     41  C   UNL A   1      40.323  30.928  30.125  1.00  0.00     0.031 C 
ATOM     42  C   UNL A   1      39.334  26.403  28.177  1.00  0.00     0.029 A 
ATOM     43  N   UNL A   1      41.428  26.797  28.859  1.00  0.00    -0.354 N 
ATOM     44  C   UNL A   1      42.581  30.666  30.380  1.00  0.00     0.074 A 
ATOM     45  C   UNL A   1      41.443  31.557  30.448  1.00  0.00     0.031 C 
ATOM     46  C   UNL A   1      40.054  25.298  27.927  1.00  0.00     0.029 A 
ATOM     47  C   UNL A   1      41.440  25.534  28.320  1.00  0.00     0.049 A 
ATOM     48  H   UNL A   1      42.222  27.221  29.258  1.00  0.00     0.167 HD
ATOM     49  C   UNL A   1      43.840  31.008  30.744  1.00  0.00     0.031 A 
ATOM     50  C   UNL A   1      42.457  24.670  28.139  1.00  0.00     0.031 A 
ATOM     51  C   UNL A   1      44.963  30.113  30.699  1.00  0.00     0.049 A 
ATOM     52  C   UNL A   1      43.841  25.059  28.573  1.00  0.00     0.074 A 
ATOM     53  C   UNL A   1      46.262  30.338  31.121  1.00  0.00     0.029 A 
ATOM     54  N   UNL A   1      44.921  28.821  30.200  1.00  0.00    -0.354 N 
ATOM     55  N   UNL A   1      44.254  26.189  29.092  1.00  0.00    -0.248 NA
ATOM     56  C   UNL A   1      44.896  24.051  28.403  1.00  0.00     0.031 C 
ATOM     57  C   UNL A   1      47.016  29.193  30.841  1.00  0.00     0.029 A 
ATOM     58  C   UNL A   1      46.175  28.241  30.286  1.00  0.00     0.049 A 
ATOM     59  H   UNL A   1      44.118  28.379  29.840  1.00  0.00     0.167 HD
ATOM     60  C   UNL A   1      45.611  26.021  29.333  1.00  0.00     0.074 A 
ATOM     61  C   UNL A   1      45.949  24.678  28.910  1.00  0.00     0.031 C 
ATOM     62  C   UNL A   1      46.495  26.902  29.862  1.00  0.00     0.031 A 
BRANCH  49  63
ATOM     63  C   UNL A   1      44.059  32.422  31.200  1.00  0.00    -0.014 A 
ATOM     64  C   UNL A   1      43.933  32.783  32.550  1.00  0.00     0.009 A 
ATOM     65  C   UNL A   1      44.394  33.410  30.261  1.00  0.00     0.009 A 
ATOM     66  C   UNL A   1      44.090  34.113  32.945  1.00  0.00     0.001 A 
ATOM     67  C   UNL A   1      44.579  34.734  30.661  1.00  0.00     0.001 A 
ATOM     68  C   UNL A   1      44.414  35.087  32.000  1.00  0.00     0.000 A 
ENDBRANCH  49  63
BRANCH  50  69
ATOM     69  C   UNL A   1      42.192  23.348  27.517  1.00  0.00    -0.014 A 
ATOM     70  C   UNL A   1      42.443  23.145  26.152  1.00  0.00     0.009 A 
ATOM     71  C   UNL A   1      41.727  22.275  28.292  1.00  0.00     0.009 A 
ATOM     72  C   UNL A   1      42.217  21.894  25.572  1.00  0.00     0.001 A 
ATOM     73  C   UNL A   1      41.524  21.020  27.714  1.00  0.00     0.001 A 
ATOM     74  C   UNL A   1      41.765  20.832  26.354  1.00  0.00     0.000 A 
ENDBRANCH  50  69
BRANCH  62  75
ATOM     75  C   UNL A   1      47.909  26.433  30.046  1.00  0.00    -0.014 A 
ATOM     76  C   UNL A   1      48.873  26.620  29.045  1.00  0.00     0.009 A 
ATOM     77  C   UNL A   1      48.292  25.854  31.266  1.00  0.00     0.009 A 
ATOM     78  C   UNL A   1      50.193  26.216  29.256  1.00  0.00     0.001 A 
ATOM     79  C   UNL A   1      49.617  25.472  31.482  1.00  0.00     0.001 A 
ATOM     80  C   UNL A   1      50.565  25.650  30.476  1.00  0.00     0.000 A 
ENDBRANCH  62  75
ENDBRANCH  36  37
ENDBRANCH  28  31
ENDBRANCH  26  27
ENDBRANCH  25  26
ENDBRANCH   1  25
TORSDOF 14
ENDMDL
MODEL 2
REMARK VINA RESULT:     -11.2      3.041      7.134
REMARK SMILES C[C@@H](C(=O)NCCCCNC(=O)c1ccc(-c2c3nc(c(-c4ccccc4)c4ccc([nH]4)c(-c4ccccc4)c4nc(c(-c5ccccc5)c5ccc2[nH]5)C=C4)C=C3)cc1)c1ccc(-c2ccn(C(F)F)c(=O)c2)cc1
REMARK SMILES IDX 7 1 6 2 5 3 3 4 4 5 2 7 1 8 61 9 62 10 76 11 63 12 75 13
REMARK SMILES IDX 64 14 65 15 66 16 74 17 67 18 72 19 68 20 73 21 69 22 70 23
REMARK SMILES IDX 71 24 8 25 9 26 10 27 11 28 12 30 13 31 14 32 60 33 15 34
REMARK SMILES IDX 59 35 16 36 17 37 18 38 53 39 19 40 58 41 52 42 54 43 20 44
REMARK SMILES IDX 57 45 51 46 50 47 21 49 43 50 28 51 42 52 29 53 32 54 41 55
REMARK SMILES IDX 55 56 30 57 31 58 40 60 56 61 33 62 22 63 23 64 27 65 24 66
REMARK SMILES IDX 26 67 25 68 44 69 45 70 49 71 46 72 48 73 47 74 34 75 35 76
REMARK SMILES IDX 39 77 36 78 38 79 37 80
REMARK H PARENT 5 6 10 29 54 48 32 59
REMARK Flexibility Score: inf
ROOT
ATOM      1  C   UNL A   1      32.513  30.036  27.249  1.00  0.00     0.023 C 
ENDROOT
BRANCH   1   2
ATOM      2  C   UNL A   1      31.848  28.716  26.845  1.00  0.00     0.116 C 
BRANCH   2   3
ATOM      3  N   UNL A   1      31.318  28.787  25.498  1.00  0.00    -0.356 N 
ATOM      4  C   UNL A   1      31.947  28.632  24.292  1.00  0.00     0.227 C 
ATOM      5  O   UNL A   1      31.280  28.890  23.289  1.00  0.00    -0.274 OA
ATOM      6  H   UNL A   1      30.355  28.976  25.440  1.00  0.00     0.163 HD
BRANCH   4   7
ATOM      7  C   UNL A   1      33.403  28.124  24.236  1.00  0.00     0.105 C 
ATOM      8  C   UNL A   1      34.082  28.638  22.960  1.00  0.00     0.023 C 
BRANCH   7   9
ATOM      9  C   UNL A   1      33.512  26.600  24.397  1.00  0.00    -0.036 A 
ATOM     10  C   UNL A   1      32.969  25.745  23.420  1.00  0.00     0.005 A 
ATOM     11  C   UNL A   1      34.126  26.008  25.511  1.00  0.00     0.005 A 
ATOM     12  C   UNL A   1      33.078  24.351  23.532  1.00  0.00     0.009 A 
ATOM     13  C   UNL A   1      34.222  24.623  25.632  1.00  0.00     0.009 A 
ATOM     14  C   UNL A   1      33.714  23.784  24.638  1.00  0.00    -0.018 A 
BRANCH  14  15
ATOM     15  C   UNL A   1      33.908  22.333  24.791  1.00  0.00    -0.011 A 
ATOM     16  C   UNL A   1      35.217  21.738  24.980  1.00  0.00     0.027 A 
ATOM     17  C   UNL A   1      32.843  21.534  24.612  1.00  0.00     0.080 A 
ATOM     18  C   UNL A   1      35.375  20.412  24.908  1.00  0.00     0.095 A 
ATOM     19  C   UNL A   1      32.999  20.053  24.565  1.00  0.00     0.255 A 
ATOM     20  N   UNL A   1      34.296  19.578  24.688  1.00  0.00    -0.258 N 
ATOM     21  O   UNL A   1      32.001  19.362  24.393  1.00  0.00    -0.269 OA
BRANCH  20  22
ATOM     22  C   UNL A   1      34.486  18.159  24.548  1.00  0.00     0.451 C 
ATOM     23  F   UNL A   1      34.014  17.710  23.362  1.00  0.00    -0.185 F 
ATOM     24  F   UNL A   1      35.801  17.836  24.627  1.00  0.00    -0.185 F 
ENDBRANCH  20  22
ENDBRANCH  14  15
ENDBRANCH   7   9
ENDBRANCH   4   7
ENDBRANCH   2   3
ENDBRANCH   1   2
BRANCH   1  25
ATOM     25  C   UNL A   1      31.651  31.282  27.040  1.00  0.00     0.023 C 
BRANCH  25  26
ATOM     26  C   UNL A   1      32.405  32.509  26.552  1.00  0.00     0.116 C 
BRANCH  26  27
ATOM     27  N   UNL A   1      32.158  33.692  27.364  1.00  0.00    -0.352 N 
ATOM     28  C   UNL A   1      32.936  34.204  28.376  1.00  0.00     0.251 C 
ATOM     29  H   UNL A   1      31.331  34.186  27.164  1.00  0.00     0.163 HD
ATOM     30  O   UNL A   1      32.550  35.150  29.051  1.00  0.00    -0.269 OA
BRANCH  28  31
ATOM     31  C   UNL A   1      34.234  33.564  28.661  1.00  0.00     0.039 A 
ATOM     32  C   UNL A   1      35.385  34.052  28.036  1.00  0.00     0.014 A 
ATOM     33  C   UNL A   1      34.316  32.539  29.605  1.00  0.00     0.014 A 
ATOM     34  C   UNL A   1      36.635  33.564  28.421  1.00  0.00     0.010 A 
ATOM     35  C   UNL A   1      35.563  32.103  30.034  1.00  0.00     0.010 A 
ATOM     36  C   UNL A   1      36.733  32.618  29.452  1.00  0.00    -0.014 A 
BRANCH  36  37
ATOM     37  C   UNL A   1      38.041  32.145  29.964  1.00  0.00     0.031 A 
ATOM     38  C   UNL A   1      38.618  30.860  29.448  1.00  0.00     0.074 A 
ATOM     39  C   UNL A   1      38.638  32.795  30.981  1.00  0.00     0.049 A 
ATOM     40  N   UNL A   1      39.643  30.176  29.891  1.00  0.00    -0.248 NA
ATOM     41  C   UNL A   1      37.925  30.241  28.308  1.00  0.00     0.031 C 
ATOM     42  C   UNL A   1      38.154  34.029  31.602  1.00  0.00     0.029 A 
ATOM     43  N   UNL A   1      39.767  32.483  31.695  1.00  0.00    -0.354 N 
ATOM     44  C   UNL A   1      39.688  29.027  29.112  1.00  0.00     0.074 A 
ATOM     45  C   UNL A   1      38.574  29.093  28.192  1.00  0.00     0.031 C 
ATOM     46  C   UNL A   1      38.980  34.369  32.604  1.00  0.00     0.029 A 
ATOM     47  C   UNL A   1      40.025  33.356  32.723  1.00  0.00     0.049 A 
ATOM     48  H   UNL A   1      40.339  31.708  31.490  1.00  0.00     0.167 HD
ATOM     49  C   UNL A   1      40.583  28.012  29.155  1.00  0.00     0.031 A 
ATOM     50  C   UNL A   1      40.979  33.332  33.672  1.00  0.00     0.031 A 
ATOM     51  C   UNL A   1      41.704  27.962  30.053  1.00  0.00     0.049 A 
ATOM     52  C   UNL A   1      41.978  32.211  33.686  1.00  0.00     0.074 A 
ATOM     53  C   UNL A   1      42.713  27.018  30.120  1.00  0.00     0.029 A 
ATOM     54  N   UNL A   1      41.963  28.898  31.042  1.00  0.00    -0.354 N 
ATOM     55  N   UNL A   1      42.050  31.163  32.903  1.00  0.00    -0.248 NA
ATOM     56  C   UNL A   1      43.030  32.273  34.710  1.00  0.00     0.031 C 
ATOM     57  C   UNL A   1      43.563  27.362  31.178  1.00  0.00     0.029 A 
ATOM     58  C   UNL A   1      43.106  28.544  31.739  1.00  0.00     0.049 A 
ATOM     59  H   UNL A   1      41.416  29.697  31.222  1.00  0.00     0.167 HD
ATOM     60  C   UNL A   1      43.167  30.453  33.322  1.00  0.00     0.074 A 
ATOM     61  C   UNL A   1      43.746  31.193  34.424  1.00  0.00     0.031 C 
ATOM     62  C   UNL A   1      43.669  29.293  32.832  1.00  0.00     0.031 A 
BRANCH  49  63
ATOM     63  C   UNL A   1      40.361  26.866  28.211  1.00  0.00    -0.014 A 
ATOM     64  C   UNL A   1      40.908  26.865  26.919  1.00  0.00     0.009 A 
ATOM     65  C   UNL A   1      39.588  25.769  28.622  1.00  0.00     0.009 A 
ATOM     66  C   UNL A   1      40.646  25.813  26.039  1.00  0.00     0.001 A 
ATOM     67  C   UNL A   1      39.351  24.704  27.752  1.00  0.00     0.001 A 
ATOM     68  C   UNL A   1      39.869  24.733  26.457  1.00  0.00     0.000 A 
ENDBRANCH  49  63
BRANCH  50  69
ATOM     69  C   UNL A   1      41.031  34.416  34.686  1.00  0.00    -0.014 A 
ATOM     70  C   UNL A   1      41.742  35.597  34.425  1.00  0.00     0.009 A 
ATOM     71  C   UNL A   1      40.338  34.291  35.900  1.00  0.00     0.009 A 
ATOM     72  C   UNL A   1      41.770  36.626  35.368  1.00  0.00     0.001 A 
ATOM     73  C   UNL A   1      40.351  35.331  36.831  1.00  0.00     0.001 A 
ATOM     74  C   UNL A   1      41.069  36.496  36.567  1.00  0.00     0.000 A 
ENDBRANCH  50  69
BRANCH  62  75
ATOM     75  C   UNL A   1      44.926  28.766  33.461  1.00  0.00    -0.014 A 
ATOM     76  C   UNL A   1      44.880  27.850  34.522  1.00  0.00     0.009 A 
ATOM     77  C   UNL A   1      46.173  29.147  32.939  1.00  0.00     0.009 A 
ATOM     78  C   UNL A   1      46.062  27.339  35.062  1.00  0.00     0.001 A 
ATOM     79  C   UNL A   1      47.351  28.617  33.466  1.00  0.00     0.001 A 
ATOM     80  C   UNL A   1      47.295  27.717  34.529  1.00  0.00     0.000 A 
ENDBRANCH  62  75
ENDBRANCH  36  37
ENDBRANCH  28  31
ENDBRANCH  26  27
ENDBRANCH  25  26
ENDBRANCH   1  25
TORSDOF 14
ENDMDL
MODEL 3
REMARK VINA RESULT:     -11.2      3.347      8.498
REMARK SMILES C[C@@H](C(=O)NCCCCNC(=O)c1ccc(-c2c3nc(c(-c4ccccc4)c4ccc([nH]4)c(-c4ccccc4)c4nc(c(-c5ccccc5)c5ccc2[nH]5)C=C4)C=C3)cc1)c1ccc(-c2ccn(C(F)F)c(=O)c2)cc1
REMARK SMILES IDX 7 1 6 2 5 3 3 4 4 5 2 7 1 8 61 9 62 10 76 11 63 12 75 13
REMARK SMILES IDX 64 14 65 15 66 16 74 17 67 18 72 19 68 20 73 21 69 22 70 23
REMARK SMILES IDX 71 24 8 25 9 26 10 27 11 28 12 30 13 31 14 32 60 33 15 34
REMARK SMILES IDX 59 35 16 36 17 37 18 38 53 39 19 40 58 41 52 42 54 43 20 44
REMARK SMILES IDX 57 45 51 46 50 47 21 49 43 50 28 51 42 52 29 53 32 54 41 55
REMARK SMILES IDX 55 56 30 57 31 58 40 60 56 61 33 62 22 63 23 64 27 65 24 66
REMARK SMILES IDX 26 67 25 68 44 69 45 70 49 71 46 72 48 73 47 74 34 75 35 76
REMARK SMILES IDX 39 77 36 78 38 79 37 80
REMARK H PARENT 5 6 10 29 54 48 32 59
REMARK Flexibility Score: inf
ROOT
ATOM      1  C   UNL A   1      36.420  21.443  24.243  1.00  0.00     0.023 C 
ENDROOT
BRANCH   1   2
ATOM      2  C   UNL A   1      35.581  20.810  25.358  1.00  0.00     0.116 C 
BRANCH   2   3
ATOM      3  N   UNL A   1      34.166  20.872  25.050  1.00  0.00    -0.356 N 
ATOM      4  C   UNL A   1      33.186  21.678  25.562  1.00  0.00     0.227 C 
ATOM      5  O   UNL A   1      32.030  21.416  25.222  1.00  0.00    -0.274 OA
ATOM      6  H   UNL A   1      33.863  20.234  24.365  1.00  0.00     0.163 HD
BRANCH   4   7
ATOM      7  C   UNL A   1      33.554  22.861  26.480  1.00  0.00     0.105 C 
ATOM      8  C   UNL A   1      33.170  22.531  27.929  1.00  0.00     0.023 C 
BRANCH   7   9
ATOM      9  C   UNL A   1      32.971  24.197  25.999  1.00  0.00    -0.036 A 
ATOM     10  C   UNL A   1      33.746  25.062  25.203  1.00  0.00     0.005 A 
ATOM     11  C   UNL A   1      31.676  24.615  26.342  1.00  0.00     0.005 A 
ATOM     12  C   UNL A   1      33.227  26.276  24.731  1.00  0.00     0.009 A 
ATOM     13  C   UNL A   1      31.163  25.828  25.885  1.00  0.00     0.009 A 
ATOM     14  C   UNL A   1      31.927  26.661  25.065  1.00  0.00    -0.018 A 
BRANCH  14  15
ATOM     15  C   UNL A   1      31.305  27.896  24.560  1.00  0.00    -0.011 A 
ATOM     16  C   UNL A   1      31.488  29.180  25.209  1.00  0.00     0.027 A 
ATOM     17  C   UNL A   1      30.432  27.791  23.545  1.00  0.00     0.080 A 
ATOM     18  C   UNL A   1      30.748  30.233  24.847  1.00  0.00     0.095 A 
ATOM     19  C   UNL A   1      29.626  28.965  23.108  1.00  0.00     0.255 A 
ATOM     20  N   UNL A   1      29.819  30.134  23.828  1.00  0.00    -0.258 N 
ATOM     21  O   UNL A   1      28.837  28.822  22.179  1.00  0.00    -0.269 OA
BRANCH  20  22
ATOM     22  C   UNL A   1      28.983  31.254  23.489  1.00  0.00     0.451 C 
ATOM     23  F   UNL A   1      27.714  31.076  23.928  1.00  0.00    -0.185 F 
ATOM     24  F   UNL A   1      29.461  32.399  24.037  1.00  0.00    -0.185 F 
ENDBRANCH  20  22
ENDBRANCH  14  15
ENDBRANCH   7   9
ENDBRANCH   4   7
ENDBRANCH   2   3
ENDBRANCH   1   2
BRANCH   1  25
ATOM     25  C   UNL A   1      36.518  22.967  24.296  1.00  0.00     0.023 C 
BRANCH  25  26
ATOM     26  C   UNL A   1      37.377  23.515  25.425  1.00  0.00     0.116 C 
BRANCH  26  27
ATOM     27  N   UNL A   1      38.570  22.717  25.673  1.00  0.00    -0.352 N 
ATOM     28  C   UNL A   1      39.726  23.097  26.313  1.00  0.00     0.251 C 
ATOM     29  H   UNL A   1      38.545  21.791  25.342  1.00  0.00     0.163 HD
ATOM     30  O   UNL A   1      40.697  22.351  26.357  1.00  0.00    -0.269 OA
BRANCH  28  31
ATOM     31  C   UNL A   1      39.791  24.442  26.917  1.00  0.00     0.039 A 
ATOM     32  C   UNL A   1      39.279  24.635  28.203  1.00  0.00     0.014 A 
ATOM     33  C   UNL A   1      40.428  25.482  26.238  1.00  0.00     0.014 A 
ATOM     34  C   UNL A   1      39.481  25.859  28.845  1.00  0.00     0.010 A 
ATOM     35  C   UNL A   1      40.686  26.674  26.903  1.00  0.00     0.010 A 
ATOM     36  C   UNL A   1      40.223  26.869  28.215  1.00  0.00    -0.014 A 
BRANCH  36  37
ATOM     37  C   UNL A   1      40.550  28.145  28.894  1.00  0.00     0.031 A 
ATOM     38  C   UNL A   1      41.841  28.274  29.649  1.00  0.00     0.074 A 
ATOM     39  C   UNL A   1      39.635  29.132  28.944  1.00  0.00     0.049 A 
ATOM     40  N   UNL A   1      42.233  29.222  30.460  1.00  0.00    -0.248 NA
ATOM     41  C   UNL A   1      42.799  27.167  29.502  1.00  0.00     0.031 C 
ATOM     42  C   UNL A   1      38.325  29.111  28.291  1.00  0.00     0.029 A 
ATOM     43  N   UNL A   1      39.659  30.333  29.608  1.00  0.00    -0.354 N 
ATOM     44  C   UNL A   1      43.462  28.805  30.954  1.00  0.00     0.074 A 
ATOM     45  C   UNL A   1      43.735  27.508  30.375  1.00  0.00     0.031 C 
ATOM     46  C   UNL A   1      37.670  30.244  28.587  1.00  0.00     0.029 A 
ATOM     47  C   UNL A   1      38.495  31.050  29.482  1.00  0.00     0.049 A 
ATOM     48  H   UNL A   1      40.435  30.650  30.123  1.00  0.00     0.167 HD
ATOM     49  C   UNL A   1      44.293  29.448  31.808  1.00  0.00     0.031 A 
ATOM     50  C   UNL A   1      38.120  32.215  30.045  1.00  0.00     0.031 A 
ATOM     51  C   UNL A   1      44.031  30.748  32.363  1.00  0.00     0.049 A 
ATOM     52  C   UNL A   1      39.067  32.926  30.969  1.00  0.00     0.074 A 
ATOM     53  C   UNL A   1      44.846  31.520  33.172  1.00  0.00     0.029 A 
ATOM     54  N   UNL A   1      42.864  31.468  32.163  1.00  0.00    -0.354 N 
ATOM     55  N   UNL A   1      40.255  32.552  31.377  1.00  0.00    -0.248 NA
ATOM     56  C   UNL A   1      38.625  34.221  31.503  1.00  0.00     0.031 C 
ATOM     57  C   UNL A   1      44.154  32.692  33.496  1.00  0.00     0.029 A 
ATOM     58  C   UNL A   1      42.928  32.669  32.851  1.00  0.00     0.049 A 
ATOM     59  H   UNL A   1      42.103  31.172  31.614  1.00  0.00     0.167 HD
ATOM     60  C   UNL A   1      40.713  33.575  32.196  1.00  0.00     0.074 A 
ATOM     61  C   UNL A   1      39.678  34.587  32.222  1.00  0.00     0.031 C 
ATOM     62  C   UNL A   1      41.889  33.666  32.864  1.00  0.00     0.031 A 
BRANCH  49  63
ATOM     63  C   UNL A   1      45.552  28.733  32.206  1.00  0.00    -0.014 A 
ATOM     64  C   UNL A   1      45.588  27.878  33.318  1.00  0.00     0.009 A 
ATOM     65  C   UNL A   1      46.723  28.921  31.455  1.00  0.00     0.009 A 
ATOM     66  C   UNL A   1      46.782  27.264  33.700  1.00  0.00     0.001 A 
ATOM     67  C   UNL A   1      47.909  28.283  31.821  1.00  0.00     0.001 A 
ATOM     68  C   UNL A   1      47.941  27.466  32.950  1.00  0.00     0.000 A 
ENDBRANCH  49  63
BRANCH  50  69
ATOM     69  C   UNL A   1      36.781  32.779  29.739  1.00  0.00    -0.014 A 
ATOM     70  C   UNL A   1      35.728  32.638  30.655  1.00  0.00     0.009 A 
ATOM     71  C   UNL A   1      36.561  33.493  28.551  1.00  0.00     0.009 A 
ATOM     72  C   UNL A   1      34.475  33.190  30.379  1.00  0.00     0.001 A 
ATOM     73  C   UNL A   1      35.313  34.061  28.289  1.00  0.00     0.001 A 
ATOM     74  C   UNL A   1      34.271  33.906  29.200  1.00  0.00     0.000 A 
ENDBRANCH  50  69
BRANCH  62  75
ATOM     75  C   UNL A   1      42.138  34.918  33.654  1.00  0.00    -0.014 A 
ATOM     76  C   UNL A   1      41.741  35.023  34.995  1.00  0.00     0.009 A 
ATOM     77  C   UNL A   1      42.836  35.982  33.062  1.00  0.00     0.009 A 
ATOM     78  C   UNL A   1      42.023  36.180  35.724  1.00  0.00     0.001 A 
ATOM     79  C   UNL A   1      43.136  37.128  33.799  1.00  0.00     0.001 A 
ATOM     80  C   UNL A   1      42.726  37.228  35.128  1.00  0.00     0.000 A 
ENDBRANCH  62  75
ENDBRANCH  36  37
ENDBRANCH  28  31
ENDBRANCH  26  27
ENDBRANCH  25  26
ENDBRANCH   1  25
TORSDOF 14
ENDMDL
