MODEL 1
REMARK VINA RESULT:     -10.7      0.000      0.000
REMARK SMILES CSc1ncccc1C(=O)N1CSC[C@H]1C(=O)NCCCCNC(=O)c1ccc(-c2c3nc(c(-c4ccccc4)c4ccc([nH]4)c(-c4ccccc4)c4nc(c(-c5ccccc5)c5ccc2[nH]5)C=C4)C=C3)cc1
REMARK SMILES IDX 20 1 19 2 18 3 16 4 17 5 15 7 11 8 12 9 13 10 14 11 9 12
REMARK SMILES IDX 10 13 8 14 3 15 4 16 5 17 7 18 6 19 2 20 1 21 21 22 22 23
REMARK SMILES IDX 23 24 24 25 25 27 26 28 27 29 73 30 28 31 72 32 29 33 30 34
REMARK SMILES IDX 31 35 66 36 32 37 71 38 65 39 67 40 33 41 70 42 64 43 63 44
REMARK SMILES IDX 34 46 56 47 41 48 55 49 42 50 45 51 54 52 68 53 43 54 44 55
REMARK SMILES IDX 53 57 69 58 46 59 35 60 36 61 40 62 37 63 39 64 38 65 57 66
REMARK SMILES IDX 58 67 62 68 59 69 61 70 60 71 47 72 48 73 52 74 49 75 51 76
REMARK SMILES IDX 50 77
REMARK H PARENT 18 6 23 26 67 45 45 56
REMARK Flexibility Score: inf
ROOT
ATOM      1  C   UNL A   1      36.943  20.972  24.769  1.00  0.00     0.023 C 
ENDROOT
BRANCH   1   2
ATOM      2  C   UNL A   1      35.489  20.575  24.990  1.00  0.00     0.116 C 
BRANCH   2   3
ATOM      3  N   UNL A   1      34.974  21.042  26.256  1.00  0.00    -0.354 N 
ATOM      4  C   UNL A   1      33.859  21.773  26.542  1.00  0.00     0.243 C 
ATOM      5  O   UNL A   1      33.488  21.753  27.722  1.00  0.00    -0.273 OA
ATOM      6  H   UNL A   1      35.516  20.792  27.039  1.00  0.00     0.163 HD
BRANCH   4   7
ATOM      7  C   UNL A   1      32.974  22.429  25.457  1.00  0.00     0.185 C 
ATOM      8  N   UNL A   1      33.633  23.320  24.484  1.00  0.00    -0.316 N 
ATOM      9  C   UNL A   1      33.657  22.827  23.123  1.00  0.00     0.190 C 
ATOM     10  S   UNL A   1      32.229  21.743  22.958  1.00  0.00    -0.138 SA
ATOM     11  C   UNL A   1      32.135  21.372  24.734  1.00  0.00     0.106 C 
BRANCH   8  12
ATOM     12  C   UNL A   1      33.976  24.600  24.932  1.00  0.00     0.257 C 
ATOM     13  O   UNL A   1      35.100  24.834  25.367  1.00  0.00    -0.269 OA
BRANCH  12  14
ATOM     14  C   UNL A   1      32.952  25.671  25.037  1.00  0.00     0.072 A 
ATOM     15  C   UNL A   1      32.680  26.583  24.011  1.00  0.00     0.108 A 
ATOM     16  N   UNL A   1      31.787  27.602  24.173  1.00  0.00    -0.249 NA
ATOM     17  C   UNL A   1      31.196  27.759  25.375  1.00  0.00     0.112 A 
ATOM     18  C   UNL A   1      32.356  25.903  26.288  1.00  0.00     0.018 A 
ATOM     19  C   UNL A   1      31.447  26.941  26.455  1.00  0.00     0.021 A 
BRANCH  15  20
ATOM     20  S   UNL A   1      33.411  26.512  22.380  1.00  0.00    -0.109 SA
ATOM     21  C   UNL A   1      32.007  25.838  21.439  1.00  0.00     0.092 C 
ENDBRANCH  15  20
ENDBRANCH  12  14
ENDBRANCH   8  12
ENDBRANCH   4   7
ENDBRANCH   2   3
ENDBRANCH   1   2
BRANCH   1  22
ATOM     22  C   UNL A   1      37.945  19.832  24.948  1.00  0.00     0.023 C 
BRANCH  22  23
ATOM     23  C   UNL A   1      39.101  20.121  25.903  1.00  0.00     0.116 C 
BRANCH  23  24
ATOM     24  N   UNL A   1      40.154  19.118  25.868  1.00  0.00    -0.352 N 
ATOM     25  C   UNL A   1      41.497  19.282  26.110  1.00  0.00     0.251 C 
ATOM     26  H   UNL A   1      39.868  18.203  25.642  1.00  0.00     0.163 HD
ATOM     27  O   UNL A   1      42.276  18.348  25.943  1.00  0.00    -0.269 OA
BRANCH  25  28
ATOM     28  C   UNL A   1      42.003  20.603  26.531  1.00  0.00     0.039 A 
ATOM     29  C   UNL A   1      42.395  21.517  25.550  1.00  0.00     0.014 A 
ATOM     30  C   UNL A   1      42.061  20.950  27.884  1.00  0.00     0.014 A 
ATOM     31  C   UNL A   1      42.786  22.804  25.926  1.00  0.00     0.010 A 
ATOM     32  C   UNL A   1      42.379  22.254  28.249  1.00  0.00     0.010 A 
ATOM     33  C   UNL A   1      42.748  23.193  27.275  1.00  0.00    -0.014 A 
BRANCH  33  34
ATOM     34  C   UNL A   1      43.092  24.578  27.679  1.00  0.00     0.031 A 
ATOM     35  C   UNL A   1      44.528  25.018  27.735  1.00  0.00     0.074 A 
ATOM     36  C   UNL A   1      42.111  25.425  28.048  1.00  0.00     0.049 A 
ATOM     37  N   UNL A   1      45.022  26.181  28.075  1.00  0.00    -0.248 NA
ATOM     38  C   UNL A   1      45.546  24.012  27.389  1.00  0.00     0.031 C 
ATOM     39  C   UNL A   1      40.683  25.103  28.091  1.00  0.00     0.029 A 
ATOM     40  N   UNL A   1      42.169  26.733  28.458  1.00  0.00    -0.354 N 
ATOM     41  C   UNL A   1      46.401  26.042  28.001  1.00  0.00     0.074 A 
ATOM     42  C   UNL A   1      46.669  24.668  27.635  1.00  0.00     0.031 C 
ATOM     43  C   UNL A   1      39.998  26.194  28.472  1.00  0.00     0.029 A 
ATOM     44  C   UNL A   1      40.939  27.280  28.733  1.00  0.00     0.049 A 
ATOM     45  H   UNL A   1      43.013  27.233  28.548  1.00  0.00     0.167 HD
ATOM     46  C   UNL A   1      47.361  26.978  28.196  1.00  0.00     0.031 A 
ATOM     47  C   UNL A   1      40.605  28.517  29.144  1.00  0.00     0.031 A 
ATOM     48  C   UNL A   1      47.095  28.346  28.548  1.00  0.00     0.049 A 
ATOM     49  C   UNL A   1      41.687  29.540  29.346  1.00  0.00     0.074 A 
ATOM     50  C   UNL A   1      47.994  29.386  28.707  1.00  0.00     0.029 A 
ATOM     51  N   UNL A   1      45.834  28.864  28.800  1.00  0.00    -0.354 N 
ATOM     52  N   UNL A   1      42.982  29.415  29.187  1.00  0.00    -0.248 NA
ATOM     53  C   UNL A   1      41.256  30.881  29.763  1.00  0.00     0.031 C 
ATOM     54  C   UNL A   1      47.281  30.523  29.104  1.00  0.00     0.029 A 
ATOM     55  C   UNL A   1      45.932  30.205  29.135  1.00  0.00     0.049 A 
ATOM     56  H   UNL A   1      44.993  28.355  28.749  1.00  0.00     0.167 HD
ATOM     57  C   UNL A   1      43.519  30.667  29.459  1.00  0.00     0.074 A 
ATOM     58  C   UNL A   1      42.406  31.540  29.774  1.00  0.00     0.031 C 
ATOM     59  C   UNL A   1      44.817  31.059  29.448  1.00  0.00     0.031 A 
BRANCH  46  60
ATOM     60  C   UNL A   1      48.792  26.543  28.036  1.00  0.00    -0.014 A 
ATOM     61  C   UNL A   1      49.423  26.565  26.781  1.00  0.00     0.009 A 
ATOM     62  C   UNL A   1      49.527  26.132  29.157  1.00  0.00     0.009 A 
ATOM     63  C   UNL A   1      50.748  26.145  26.648  1.00  0.00     0.001 A 
ATOM     64  C   UNL A   1      50.861  25.742  29.026  1.00  0.00     0.001 A 
ATOM     65  C   UNL A   1      51.467  25.738  27.771  1.00  0.00     0.000 A 
ENDBRANCH  46  60
BRANCH  47  66
ATOM     66  C   UNL A   1      39.177  28.867  29.366  1.00  0.00    -0.014 A 
ATOM     67  C   UNL A   1      38.404  29.400  28.322  1.00  0.00     0.009 A 
ATOM     68  C   UNL A   1      38.581  28.673  30.621  1.00  0.00     0.009 A 
ATOM     69  C   UNL A   1      37.072  29.759  28.540  1.00  0.00     0.001 A 
ATOM     70  C   UNL A   1      37.240  29.006  30.828  1.00  0.00     0.001 A 
ATOM     71  C   UNL A   1      36.490  29.557  29.791  1.00  0.00     0.000 A 
ENDBRANCH  47  66
BRANCH  59  72
ATOM     72  C   UNL A   1      45.098  32.504  29.750  1.00  0.00    -0.014 A 
ATOM     73  C   UNL A   1      45.329  32.944  31.063  1.00  0.00     0.009 A 
ATOM     74  C   UNL A   1      45.165  33.431  28.699  1.00  0.00     0.009 A 
ATOM     75  C   UNL A   1      45.583  34.293  31.319  1.00  0.00     0.001 A 
ATOM     76  C   UNL A   1      45.449  34.773  28.956  1.00  0.00     0.001 A 
ATOM     77  C   UNL A   1      45.647  35.205  30.266  1.00  0.00     0.000 A 
ENDBRANCH  59  72
ENDBRANCH  33  34
ENDBRANCH  25  28
ENDBRANCH  23  24
ENDBRANCH  22  23
ENDBRANCH   1  22
TORSDOF 14
ENDMDL
MODEL 2
REMARK VINA RESULT:     -10.7      3.812      9.072
REMARK SMILES CSc1ncccc1C(=O)N1CSC[C@H]1C(=O)NCCCCNC(=O)c1ccc(-c2c3nc(c(-c4ccccc4)c4ccc([nH]4)c(-c4ccccc4)c4nc(c(-c5ccccc5)c5ccc2[nH]5)C=C4)C=C3)cc1
REMARK SMILES IDX 20 1 19 2 18 3 16 4 17 5 15 7 11 8 12 9 13 10 14 11 9 12
REMARK SMILES IDX 10 13 8 14 3 15 4 16 5 17 7 18 6 19 2 20 1 21 21 22 22 23
REMARK SMILES IDX 23 24 24 25 25 27 26 28 27 29 73 30 28 31 72 32 29 33 30 34
REMARK SMILES IDX 31 35 66 36 32 37 71 38 65 39 67 40 33 41 70 42 64 43 63 44
REMARK SMILES IDX 34 46 56 47 41 48 55 49 42 50 45 51 54 52 68 53 43 54 44 55
REMARK SMILES IDX 53 57 69 58 46 59 35 60 36 61 40 62 37 63 39 64 38 65 57 66
REMARK SMILES IDX 58 67 62 68 59 69 61 70 60 71 47 72 48 73 52 74 49 75 51 76
REMARK SMILES IDX 50 77
REMARK H PARENT 18 6 23 26 67 45 45 56
REMARK Flexibility Score: inf
ROOT
ATOM      1  C   UNL A   1      34.443  30.675  27.296  1.00  0.00     0.023 C 
ENDROOT
BRANCH   1   2
ATOM      2  C   UNL A   1      34.146  29.182  27.246  1.00  0.00     0.116 C 
BRANCH   2   3
ATOM      3  N   UNL A   1      32.835  28.860  27.758  1.00  0.00    -0.354 N 
ATOM      4  C   UNL A   1      31.836  28.104  27.221  1.00  0.00     0.243 C 
ATOM      5  O   UNL A   1      30.957  27.731  28.007  1.00  0.00    -0.273 OA
ATOM      6  H   UNL A   1      32.630  29.249  28.639  1.00  0.00     0.163 HD
BRANCH   4   7
ATOM      7  C   UNL A   1      31.871  27.558  25.774  1.00  0.00     0.185 C 
ATOM      8  N   UNL A   1      31.173  26.286  25.507  1.00  0.00    -0.316 N 
ATOM      9  C   UNL A   1      30.008  26.397  24.654  1.00  0.00     0.190 C 
ATOM     10  S   UNL A   1      30.286  27.837  23.610  1.00  0.00    -0.138 SA
ATOM     11  C   UNL A   1      31.425  28.633  24.780  1.00  0.00     0.106 C 
BRANCH   8  12
ATOM     12  C   UNL A   1      31.809  25.115  25.930  1.00  0.00     0.257 C 
ATOM     13  O   UNL A   1      31.440  24.530  26.945  1.00  0.00    -0.269 OA
BRANCH  12  14
ATOM     14  C   UNL A   1      33.041  24.631  25.257  1.00  0.00     0.072 A 
ATOM     15  C   UNL A   1      33.032  23.766  24.157  1.00  0.00     0.108 A 
ATOM     16  N   UNL A   1      34.185  23.281  23.613  1.00  0.00    -0.249 NA
ATOM     17  C   UNL A   1      35.358  23.606  24.192  1.00  0.00     0.112 A 
ATOM     18  C   UNL A   1      34.281  24.900  25.860  1.00  0.00     0.018 A 
ATOM     19  C   UNL A   1      35.457  24.406  25.309  1.00  0.00     0.021 A 
BRANCH  15  20
ATOM     20  S   UNL A   1      31.549  23.231  23.310  1.00  0.00    -0.109 SA
ATOM     21  C   UNL A   1      32.089  21.589  22.744  1.00  0.00     0.092 C 
ENDBRANCH  15  20
ENDBRANCH  12  14
ENDBRANCH   8  12
ENDBRANCH   4   7
ENDBRANCH   2   3
ENDBRANCH   1   2
BRANCH   1  22
ATOM     22  C   UNL A   1      33.270  31.540  27.758  1.00  0.00     0.023 C 
BRANCH  22  23
ATOM     23  C   UNL A   1      33.101  32.863  27.016  1.00  0.00     0.116 C 
BRANCH  23  24
ATOM     24  N   UNL A   1      32.635  33.952  27.860  1.00  0.00    -0.352 N 
ATOM     25  C   UNL A   1      33.231  34.479  28.980  1.00  0.00     0.251 C 
ATOM     26  H   UNL A   1      31.782  34.365  27.594  1.00  0.00     0.163 HD
ATOM     27  O   UNL A   1      32.657  35.339  29.643  1.00  0.00    -0.269 OA
BRANCH  25  28
ATOM     28  C   UNL A   1      34.550  33.973  29.408  1.00  0.00     0.039 A 
ATOM     29  C   UNL A   1      34.624  33.160  30.541  1.00  0.00     0.014 A 
ATOM     30  C   UNL A   1      35.703  34.274  28.676  1.00  0.00     0.014 A 
ATOM     31  C   UNL A   1      35.848  32.596  30.904  1.00  0.00     0.010 A 
ATOM     32  C   UNL A   1      36.905  33.651  28.997  1.00  0.00     0.010 A 
ATOM     33  C   UNL A   1      36.991  32.809  30.115  1.00  0.00    -0.014 A 
BRANCH  33  34
ATOM     34  C   UNL A   1      38.281  32.157  30.450  1.00  0.00     0.031 A 
ATOM     35  C   UNL A   1      39.244  32.821  31.393  1.00  0.00     0.074 A 
ATOM     36  C   UNL A   1      38.608  30.990  29.861  1.00  0.00     0.049 A 
ATOM     37  N   UNL A   1      40.421  32.411  31.794  1.00  0.00    -0.248 NA
ATOM     38  C   UNL A   1      38.847  34.130  31.937  1.00  0.00     0.031 C 
ATOM     39  C   UNL A   1      37.784  30.272  28.885  1.00  0.00     0.029 A 
ATOM     40  N   UNL A   1      39.723  30.203  29.998  1.00  0.00    -0.354 N 
ATOM     41  C   UNL A   1      40.908  33.415  32.620  1.00  0.00     0.074 A 
ATOM     42  C   UNL A   1      39.926  34.477  32.621  1.00  0.00     0.031 C 
ATOM     43  C   UNL A   1      38.408  29.134  28.537  1.00  0.00     0.029 A 
ATOM     44  C   UNL A   1      39.687  29.059  29.238  1.00  0.00     0.049 A 
ATOM     45  H   UNL A   1      40.478  30.436  30.585  1.00  0.00     0.167 HD
ATOM     46  C   UNL A   1      42.060  33.443  33.333  1.00  0.00     0.031 A 
ATOM     47  C   UNL A   1      40.580  28.060  29.121  1.00  0.00     0.031 A 
ATOM     48  C   UNL A   1      43.031  32.383  33.342  1.00  0.00     0.049 A 
ATOM     49  C   UNL A   1      41.847  28.109  29.929  1.00  0.00     0.074 A 
ATOM     50  C   UNL A   1      44.198  32.289  34.078  1.00  0.00     0.029 A 
ATOM     51  N   UNL A   1      42.949  31.233  32.571  1.00  0.00    -0.354 N 
ATOM     52  N   UNL A   1      42.254  29.027  30.772  1.00  0.00    -0.248 NA
ATOM     53  C   UNL A   1      42.768  26.974  29.783  1.00  0.00     0.031 C 
ATOM     54  C   UNL A   1      44.848  31.103  33.717  1.00  0.00     0.029 A 
ATOM     55  C   UNL A   1      44.056  30.432  32.799  1.00  0.00     0.049 A 
ATOM     56  H   UNL A   1      42.213  31.017  31.954  1.00  0.00     0.167 HD
ATOM     57  C   UNL A   1      43.463  28.568  31.277  1.00  0.00     0.074 A 
ATOM     58  C   UNL A   1      43.713  27.281  30.659  1.00  0.00     0.031 C 
ATOM     59  C   UNL A   1      44.291  29.157  32.174  1.00  0.00     0.031 A 
BRANCH  46  60
ATOM     60  C   UNL A   1      42.329  34.669  34.161  1.00  0.00    -0.014 A 
ATOM     61  C   UNL A   1      42.968  35.794  33.612  1.00  0.00     0.009 A 
ATOM     62  C   UNL A   1      41.918  34.711  35.501  1.00  0.00     0.009 A 
ATOM     63  C   UNL A   1      43.223  36.918  34.399  1.00  0.00     0.001 A 
ATOM     64  C   UNL A   1      42.146  35.849  36.278  1.00  0.00     0.001 A 
ATOM     65  C   UNL A   1      42.808  36.947  35.729  1.00  0.00     0.000 A 
ENDBRANCH  46  60
BRANCH  47  66
ATOM     66  C   UNL A   1      40.298  26.910  28.223  1.00  0.00    -0.014 A 
ATOM     67  C   UNL A   1      39.526  25.827  28.673  1.00  0.00     0.009 A 
ATOM     68  C   UNL A   1      40.799  26.886  26.912  1.00  0.00     0.009 A 
ATOM     69  C   UNL A   1      39.288  24.732  27.840  1.00  0.00     0.001 A 
ATOM     70  C   UNL A   1      40.534  25.803  26.071  1.00  0.00     0.001 A 
ATOM     71  C   UNL A   1      39.787  24.723  26.538  1.00  0.00     0.000 A 
ENDBRANCH  47  66
BRANCH  59  72
ATOM     72  C   UNL A   1      45.528  28.398  32.566  1.00  0.00    -0.014 A 
ATOM     73  C   UNL A   1      45.517  27.482  33.630  1.00  0.00     0.009 A 
ATOM     74  C   UNL A   1      46.713  28.580  31.837  1.00  0.00     0.009 A 
ATOM     75  C   UNL A   1      46.679  26.793  33.979  1.00  0.00     0.001 A 
ATOM     76  C   UNL A   1      47.865  27.867  32.169  1.00  0.00     0.001 A 
ATOM     77  C   UNL A   1      47.851  26.982  33.246  1.00  0.00     0.000 A 
ENDBRANCH  59  72
ENDBRANCH  33  34
ENDBRANCH  25  28
ENDBRANCH  23  24
ENDBRANCH  22  23
ENDBRANCH   1  22
TORSDOF 14
ENDMDL
MODEL 3
REMARK VINA RESULT:     -10.6      1.476      1.954
REMARK SMILES CSc1ncccc1C(=O)N1CSC[C@H]1C(=O)NCCCCNC(=O)c1ccc(-c2c3nc(c(-c4ccccc4)c4ccc([nH]4)c(-c4ccccc4)c4nc(c(-c5ccccc5)c5ccc2[nH]5)C=C4)C=C3)cc1
REMARK SMILES IDX 20 1 19 2 18 3 16 4 17 5 15 7 11 8 12 9 13 10 14 11 9 12
REMARK SMILES IDX 10 13 8 14 3 15 4 16 5 17 7 18 6 19 2 20 1 21 21 22 22 23
REMARK SMILES IDX 23 24 24 25 25 27 26 28 27 29 73 30 28 31 72 32 29 33 30 34
REMARK SMILES IDX 31 35 66 36 32 37 71 38 65 39 67 40 33 41 70 42 64 43 63 44
REMARK SMILES IDX 34 46 56 47 41 48 55 49 42 50 45 51 54 52 68 53 43 54 44 55
REMARK SMILES IDX 53 57 69 58 46 59 35 60 36 61 40 62 37 63 39 64 38 65 57 66
REMARK SMILES IDX 58 67 62 68 59 69 61 70 60 71 47 72 48 73 52 74 49 75 51 76
REMARK SMILES IDX 50 77
REMARK H PARENT 18 6 23 26 67 45 45 56
REMARK Flexibility Score: inf
ROOT
ATOM      1  C   UNL A   1      37.048  21.651  24.271  1.00  0.00     0.023 C 
ENDROOT
BRANCH   1   2
ATOM      2  C   UNL A   1      35.721  22.040  24.910  1.00  0.00     0.116 C 
BRANCH   2   3
ATOM      3  N   UNL A   1      34.727  22.422  23.934  1.00  0.00    -0.354 N 
ATOM      4  C   UNL A   1      33.570  23.127  24.080  1.00  0.00     0.243 C 
ATOM      5  O   UNL A   1      33.081  23.584  23.040  1.00  0.00    -0.273 OA
ATOM      6  H   UNL A   1      34.916  22.123  23.015  1.00  0.00     0.163 HD
BRANCH   4   7
ATOM      7  C   UNL A   1      32.987  23.525  25.456  1.00  0.00     0.185 C 
ATOM      8  N   UNL A   1      32.346  24.849  25.570  1.00  0.00    -0.316 N 
ATOM      9  C   UNL A   1      30.917  24.818  25.796  1.00  0.00     0.190 C 
ATOM     10  S   UNL A   1      30.577  23.262  26.636  1.00  0.00    -0.138 SA
ATOM     11  C   UNL A   1      32.056  22.432  25.986  1.00  0.00     0.106 C 
BRANCH   8  12
ATOM     12  C   UNL A   1      33.195  25.958  25.643  1.00  0.00     0.257 C 
ATOM     13  O   UNL A   1      34.412  25.815  25.732  1.00  0.00    -0.269 OA
BRANCH  12  14
ATOM     14  C   UNL A   1      32.645  27.332  25.772  1.00  0.00     0.072 A 
ATOM     15  C   UNL A   1      32.150  28.070  24.691  1.00  0.00     0.108 A 
ATOM     16  N   UNL A   1      31.725  29.358  24.835  1.00  0.00    -0.249 NA
ATOM     17  C   UNL A   1      31.838  29.945  26.043  1.00  0.00     0.112 A 
ATOM     18  C   UNL A   1      32.795  27.999  27.000  1.00  0.00     0.018 A 
ATOM     19  C   UNL A   1      32.363  29.311  27.148  1.00  0.00     0.021 A 
BRANCH  15  20
ATOM     20  S   UNL A   1      31.972  27.429  23.030  1.00  0.00    -0.109 SA
ATOM     21  C   UNL A   1      33.625  27.807  22.371  1.00  0.00     0.092 C 
ENDBRANCH  15  20
ENDBRANCH  12  14
ENDBRANCH   8  12
ENDBRANCH   4   7
ENDBRANCH   2   3
ENDBRANCH   1   2
BRANCH   1  22
ATOM     22  C   UNL A   1      37.626  20.325  24.766  1.00  0.00     0.023 C 
BRANCH  22  23
ATOM     23  C   UNL A   1      38.681  20.440  25.863  1.00  0.00     0.116 C 
BRANCH  23  24
ATOM     24  N   UNL A   1      39.763  19.476  25.739  1.00  0.00    -0.352 N 
ATOM     25  C   UNL A   1      41.097  19.649  26.021  1.00  0.00     0.251 C 
ATOM     26  H   UNL A   1      39.507  18.584  25.411  1.00  0.00     0.163 HD
ATOM     27  O   UNL A   1      41.905  18.761  25.769  1.00  0.00    -0.269 OA
BRANCH  25  28
ATOM     28  C   UNL A   1      41.558  20.930  26.592  1.00  0.00     0.039 A 
ATOM     29  C   UNL A   1      42.033  21.919  25.727  1.00  0.00     0.014 A 
ATOM     30  C   UNL A   1      41.494  21.166  27.968  1.00  0.00     0.014 A 
ATOM     31  C   UNL A   1      42.384  23.170  26.239  1.00  0.00     0.010 A 
ATOM     32  C   UNL A   1      41.773  22.435  28.464  1.00  0.00     0.010 A 
ATOM     33  C   UNL A   1      42.224  23.448  27.607  1.00  0.00    -0.014 A 
BRANCH  33  34
ATOM     34  C   UNL A   1      42.526  24.795  28.151  1.00  0.00     0.031 A 
ATOM     35  C   UNL A   1      43.921  25.142  28.589  1.00  0.00     0.074 A 
ATOM     36  C   UNL A   1      41.529  25.689  28.301  1.00  0.00     0.049 A 
ATOM     37  N   UNL A   1      44.372  26.260  29.099  1.00  0.00    -0.248 NA
ATOM     38  C   UNL A   1      44.939  24.086  28.463  1.00  0.00     0.031 C 
ATOM     39  C   UNL A   1      40.122  25.456  27.966  1.00  0.00     0.029 A 
ATOM     40  N   UNL A   1      41.548  26.976  28.775  1.00  0.00    -0.354 N 
ATOM     41  C   UNL A   1      45.715  26.036  29.368  1.00  0.00     0.074 A 
ATOM     42  C   UNL A   1      45.995  24.662  29.016  1.00  0.00     0.031 C 
ATOM     43  C   UNL A   1      39.420  26.574  28.215  1.00  0.00     0.029 A 
ATOM     44  C   UNL A   1      40.318  27.589  28.757  1.00  0.00     0.049 A 
ATOM     45  H   UNL A   1      42.366  27.419  29.099  1.00  0.00     0.167 HD
ATOM     46  C   UNL A   1      46.641  26.904  29.844  1.00  0.00     0.031 A 
ATOM     47  C   UNL A   1      39.956  28.830  29.129  1.00  0.00     0.031 A 
ATOM     48  C   UNL A   1      46.365  28.273  30.183  1.00  0.00     0.049 A 
ATOM     49  C   UNL A   1      41.002  29.776  29.647  1.00  0.00     0.074 A 
ATOM     50  C   UNL A   1      47.248  29.249  30.614  1.00  0.00     0.029 A 
ATOM     51  N   UNL A   1      45.111  28.861  30.134  1.00  0.00    -0.354 N 
ATOM     52  N   UNL A   1      42.287  29.576  29.815  1.00  0.00    -0.248 NA
ATOM     53  C   UNL A   1      40.550  31.127  30.007  1.00  0.00     0.031 C 
ATOM     54  C   UNL A   1      46.517  30.415  30.873  1.00  0.00     0.029 A 
ATOM     55  C   UNL A   1      45.190  30.180  30.547  1.00  0.00     0.049 A 
ATOM     56  H   UNL A   1      44.285  28.407  29.847  1.00  0.00     0.167 HD
ATOM     57  C   UNL A   1      42.801  30.782  30.274  1.00  0.00     0.074 A 
ATOM     58  C   UNL A   1      41.693  31.712  30.339  1.00  0.00     0.031 C 
ATOM     59  C   UNL A   1      44.078  31.092  30.609  1.00  0.00     0.031 A 
BRANCH  46  60
ATOM     60  C   UNL A   1      48.041  26.386  30.030  1.00  0.00    -0.014 A 
ATOM     61  C   UNL A   1      48.455  25.827  31.250  1.00  0.00     0.009 A 
ATOM     62  C   UNL A   1      48.950  26.434  28.963  1.00  0.00     0.009 A 
ATOM     63  C   UNL A   1      49.763  25.365  31.409  1.00  0.00     0.001 A 
ATOM     64  C   UNL A   1      50.248  25.942  29.115  1.00  0.00     0.001 A 
ATOM     65  C   UNL A   1      50.656  25.418  30.341  1.00  0.00     0.000 A 
ENDBRANCH  46  60
BRANCH  47  66
ATOM     66  C   UNL A   1      38.539  29.261  29.001  1.00  0.00    -0.014 A 
ATOM     67  C   UNL A   1      37.680  29.224  30.111  1.00  0.00     0.009 A 
ATOM     68  C   UNL A   1      38.037  29.709  27.769  1.00  0.00     0.009 A 
ATOM     69  C   UNL A   1      36.341  29.598  29.982  1.00  0.00     0.001 A 
ATOM     70  C   UNL A   1      36.704  30.110  27.651  1.00  0.00     0.001 A 
ATOM     71  C   UNL A   1      35.855  30.046  28.754  1.00  0.00     0.000 A 
ENDBRANCH  47  66
BRANCH  59  72
ATOM     72  C   UNL A   1      44.348  32.505  31.043  1.00  0.00    -0.014 A 
ATOM     73  C   UNL A   1      44.255  32.887  32.390  1.00  0.00     0.009 A 
ATOM     74  C   UNL A   1      44.733  33.460  30.089  1.00  0.00     0.009 A 
ATOM     75  C   UNL A   1      44.505  34.208  32.767  1.00  0.00     0.001 A 
ATOM     76  C   UNL A   1      45.012  34.772  30.473  1.00  0.00     0.001 A 
ATOM     77  C   UNL A   1      44.887  35.148  31.810  1.00  0.00     0.000 A 
ENDBRANCH  59  72
ENDBRANCH  33  34
ENDBRANCH  25  28
ENDBRANCH  23  24
ENDBRANCH  22  23
ENDBRANCH   1  22
TORSDOF 14
ENDMDL
