MODEL 1
REMARK VINA RESULT:     -12.3      0.000      0.000
REMARK SMILES CCCN1C(=O)/C(=C\c2ccc(C(=O)NCCCCNC(=O)c3ccc(-c4c5nc(c(-c6ccccc6)c6ccc([nH]6)c(-c6ccccc6)c6nc(c(-c7ccccc7)c7ccc4[nH]7)C=C6)C=C5)cc3)cc2)S/C1=[NH+]\c1nnc(C)s1
REMARK SMILES IDX 17 1 16 2 15 3 13 4 14 5 12 7 9 8 10 9 72 10 11 11 71 12
REMARK SMILES IDX 8 13 4 14 5 15 74 16 6 17 7 18 73 19 75 20 3 22 2 23 1 24
REMARK SMILES IDX 76 25 77 26 81 27 78 28 79 29 80 30 18 31 19 32 20 33 21 34
REMARK SMILES IDX 22 36 23 37 24 38 70 39 25 40 69 41 26 42 27 43 28 44 63 45
REMARK SMILES IDX 29 46 68 47 62 48 64 49 30 50 67 51 61 52 60 53 31 55 53 56
REMARK SMILES IDX 38 57 52 58 39 59 42 60 51 61 65 62 40 63 41 64 50 66 66 67
REMARK SMILES IDX 43 68 32 69 33 70 37 71 34 72 36 73 35 74 54 75 55 76 59 77
REMARK SMILES IDX 56 78 58 79 57 80 44 81 45 82 49 83 46 84 48 85 47 86
REMARK H PARENT 15 6 75 21 20 35 64 54 42 65
REMARK Flexibility Score: inf
ROOT
ATOM      1  C   UNL A   1      33.220  29.319  24.884  1.00  0.00     0.023 C 
ENDROOT
BRANCH   1   2
ATOM      2  C   UNL A   1      31.732  29.656  25.012  1.00  0.00     0.116 C 
BRANCH   2   3
ATOM      3  N   UNL A   1      31.079  29.572  23.720  1.00  0.00    -0.352 N 
ATOM      4  C   UNL A   1      30.617  28.505  22.990  1.00  0.00     0.251 C 
ATOM      5  O   UNL A   1      30.074  28.749  21.912  1.00  0.00    -0.269 OA
ATOM      6  H   UNL A   1      30.942  30.443  23.284  1.00  0.00     0.163 HD
BRANCH   4   7
ATOM      7  C   UNL A   1      30.699  27.091  23.455  1.00  0.00     0.039 A 
ATOM      8  C   UNL A   1      30.888  24.364  24.142  1.00  0.00    -0.024 A 
ATOM      9  C   UNL A   1      31.475  24.826  22.966  1.00  0.00     0.009 A 
ATOM     10  C   UNL A   1      30.255  25.274  24.998  1.00  0.00     0.009 A 
ATOM     11  C   UNL A   1      31.377  26.180  22.626  1.00  0.00     0.014 A 
ATOM     12  C   UNL A   1      30.186  26.629  24.667  1.00  0.00     0.014 A 
BRANCH   8  13
ATOM     13  C   UNL A   1      30.910  22.953  24.520  1.00  0.00     0.031 C 
ATOM     14  N   UNL A   1      34.300  22.070  25.365  1.00  0.00    -0.219 N 
ATOM     15  C   UNL A   1      33.268  22.983  25.453  1.00  0.00     0.321 C 
ATOM     16  C   UNL A   1      33.937  20.763  25.118  1.00  0.00     0.271 C 
ATOM     17  O   UNL A   1      33.354  24.133  25.864  1.00  0.00    -0.250 OA
ATOM     18  C   UNL A   1      31.995  22.347  25.024  1.00  0.00     0.100 C 
ATOM     19  S   UNL A   1      32.178  20.638  25.069  1.00  0.00    -0.012 SA
ATOM     20  N   UNL A   1      34.801  19.820  24.934  1.00  0.00    -0.226 N 
ATOM     21  H   UNL A   1      35.770  19.997  24.939  1.00  0.00     0.268 HD
BRANCH  14  22
ATOM     22  C   UNL A   1      35.670  22.473  25.666  1.00  0.00     0.206 C 
BRANCH  22  23
ATOM     23  C   UNL A   1      36.314  23.373  24.600  1.00  0.00     0.035 C 
ATOM     24  C   UNL A   1      36.610  22.675  23.279  1.00  0.00     0.007 C 
ENDBRANCH  22  23
ENDBRANCH  14  22
BRANCH  20  25
ATOM     25  C   UNL A   1      34.306  18.571  24.735  1.00  0.00     0.345 A 
ATOM     26  N   UNL A   1      34.661  17.719  23.792  1.00  0.00     0.023 NA
ATOM     27  S   UNL A   1      33.073  17.941  25.777  1.00  0.00    -0.044 S 
ATOM     28  N   UNL A   1      34.050  16.488  23.920  1.00  0.00    -0.067 NA
ATOM     29  C   UNL A   1      33.230  16.448  24.947  1.00  0.00     0.135 A 
ATOM     30  C   UNL A   1      32.493  15.238  25.390  1.00  0.00     0.083 C 
ENDBRANCH  20  25
ENDBRANCH   8  13
ENDBRANCH   4   7
ENDBRANCH   2   3
ENDBRANCH   1   2
BRANCH   1  31
ATOM     31  C   UNL A   1      33.706  28.240  25.858  1.00  0.00     0.023 C 
BRANCH  31  32
ATOM     32  C   UNL A   1      33.488  28.563  27.331  1.00  0.00     0.116 C 
BRANCH  32  33
ATOM     33  N   UNL A   1      33.467  29.991  27.608  1.00  0.00    -0.352 N 
ATOM     34  C   UNL A   1      34.462  30.780  28.130  1.00  0.00     0.251 C 
ATOM     35  H   UNL A   1      32.626  30.455  27.392  1.00  0.00     0.163 HD
ATOM     36  O   UNL A   1      34.235  31.953  28.412  1.00  0.00    -0.269 OA
BRANCH  34  37
ATOM     37  C   UNL A   1      35.795  30.200  28.389  1.00  0.00     0.039 A 
ATOM     38  C   UNL A   1      36.742  30.218  27.363  1.00  0.00     0.014 A 
ATOM     39  C   UNL A   1      36.118  29.658  29.636  1.00  0.00     0.014 A 
ATOM     40  C   UNL A   1      38.029  29.737  27.606  1.00  0.00     0.010 A 
ATOM     41  C   UNL A   1      37.424  29.257  29.901  1.00  0.00     0.010 A 
ATOM     42  C   UNL A   1      38.391  29.284  28.886  1.00  0.00    -0.014 A 
BRANCH  42  43
ATOM     43  C   UNL A   1      39.780  28.841  29.164  1.00  0.00     0.031 A 
ATOM     44  C   UNL A   1      40.744  29.744  29.880  1.00  0.00     0.074 A 
ATOM     45  C   UNL A   1      40.184  27.629  28.734  1.00  0.00     0.049 A 
ATOM     46  N   UNL A   1      41.977  29.504  30.251  1.00  0.00    -0.248 NA
ATOM     47  C   UNL A   1      40.276  31.101  30.203  1.00  0.00     0.031 C 
ATOM     48  C   UNL A   1      39.367  26.688  27.965  1.00  0.00     0.029 A 
ATOM     49  N   UNL A   1      41.383  26.980  28.889  1.00  0.00    -0.354 N 
ATOM     50  C   UNL A   1      42.432  30.680  30.834  1.00  0.00     0.074 A 
ATOM     51  C   UNL A   1      41.365  31.650  30.715  1.00  0.00     0.031 C 
ATOM     52  C   UNL A   1      40.071  25.565  27.754  1.00  0.00     0.029 A 
ATOM     53  C   UNL A   1      41.399  25.720  28.341  1.00  0.00     0.049 A 
ATOM     54  H   UNL A   1      42.156  27.379  29.348  1.00  0.00     0.167 HD
ATOM     55  C   UNL A   1      43.620  30.926  31.433  1.00  0.00     0.031 A 
ATOM     56  C   UNL A   1      42.370  24.788  28.321  1.00  0.00     0.031 A 
ATOM     57  C   UNL A   1      44.678  29.958  31.552  1.00  0.00     0.049 A 
ATOM     58  C   UNL A   1      43.674  25.074  29.010  1.00  0.00     0.074 A 
ATOM     59  C   UNL A   1      45.892  30.084  32.205  1.00  0.00     0.029 A 
ATOM     60  N   UNL A   1      44.651  28.687  30.998  1.00  0.00    -0.354 N 
ATOM     61  N   UNL A   1      44.051  26.156  29.647  1.00  0.00    -0.248 NA
ATOM     62  C   UNL A   1      44.678  24.001  28.996  1.00  0.00     0.031 C 
ATOM     63  C   UNL A   1      46.625  28.912  31.992  1.00  0.00     0.029 A 
ATOM     64  C   UNL A   1      45.839  28.029  31.267  1.00  0.00     0.049 A 
ATOM     65  H   UNL A   1      43.898  28.309  30.488  1.00  0.00     0.167 HD
ATOM     66  C   UNL A   1      45.323  25.884  30.135  1.00  0.00     0.074 A 
ATOM     67  C   UNL A   1      45.644  24.529  29.734  1.00  0.00     0.031 C 
ATOM     68  C   UNL A   1      46.149  26.684  30.855  1.00  0.00     0.031 A 
BRANCH  55  69
ATOM     69  C   UNL A   1      43.842  32.306  31.992  1.00  0.00    -0.014 A 
ATOM     70  C   UNL A   1      44.405  33.331  31.213  1.00  0.00     0.009 A 
ATOM     71  C   UNL A   1      43.462  32.594  33.312  1.00  0.00     0.009 A 
ATOM     72  C   UNL A   1      44.625  34.598  31.758  1.00  0.00     0.001 A 
ATOM     73  C   UNL A   1      43.651  33.870  33.844  1.00  0.00     0.001 A 
ATOM     74  C   UNL A   1      44.243  34.868  33.072  1.00  0.00     0.000 A 
ENDBRANCH  55  69
BRANCH  56  75
ATOM     75  C   UNL A   1      42.127  23.483  27.651  1.00  0.00    -0.014 A 
ATOM     76  C   UNL A   1      42.545  23.267  26.330  1.00  0.00     0.009 A 
ATOM     77  C   UNL A   1      41.490  22.438  28.340  1.00  0.00     0.009 A 
ATOM     78  C   UNL A   1      42.308  22.041  25.703  1.00  0.00     0.001 A 
ATOM     79  C   UNL A   1      41.283  21.203  27.722  1.00  0.00     0.001 A 
ATOM     80  C   UNL A   1      41.683  21.008  26.402  1.00  0.00     0.000 A 
ENDBRANCH  56  75
BRANCH  68  81
ATOM     81  C   UNL A   1      47.466  26.101  31.287  1.00  0.00    -0.014 A 
ATOM     82  C   UNL A   1      48.581  26.093  30.435  1.00  0.00     0.009 A 
ATOM     83  C   UNL A   1      47.599  25.584  32.586  1.00  0.00     0.009 A 
ATOM     84  C   UNL A   1      49.791  25.542  30.863  1.00  0.00     0.001 A 
ATOM     85  C   UNL A   1      48.819  25.065  33.021  1.00  0.00     0.001 A 
ATOM     86  C   UNL A   1      49.910  25.034  32.156  1.00  0.00     0.000 A 
ENDBRANCH  68  81
ENDBRANCH  42  43
ENDBRANCH  34  37
ENDBRANCH  32  33
ENDBRANCH  31  32
ENDBRANCH   1  31
TORSDOF 15
ENDMDL
MODEL 2
REMARK VINA RESULT:     -12.3      0.775      5.718
REMARK SMILES CCCN1C(=O)/C(=C\c2ccc(C(=O)NCCCCNC(=O)c3ccc(-c4c5nc(c(-c6ccccc6)c6ccc([nH]6)c(-c6ccccc6)c6nc(c(-c7ccccc7)c7ccc4[nH]7)C=C6)C=C5)cc3)cc2)S/C1=[NH+]\c1nnc(C)s1
REMARK SMILES IDX 17 1 16 2 15 3 13 4 14 5 12 7 9 8 10 9 72 10 11 11 71 12
REMARK SMILES IDX 8 13 4 14 5 15 74 16 6 17 7 18 73 19 75 20 3 22 2 23 1 24
REMARK SMILES IDX 76 25 77 26 81 27 78 28 79 29 80 30 18 31 19 32 20 33 21 34
REMARK SMILES IDX 22 36 23 37 24 38 70 39 25 40 69 41 26 42 27 43 28 44 63 45
REMARK SMILES IDX 29 46 68 47 62 48 64 49 30 50 67 51 61 52 60 53 31 55 53 56
REMARK SMILES IDX 38 57 52 58 39 59 42 60 51 61 65 62 40 63 41 64 50 66 66 67
REMARK SMILES IDX 43 68 32 69 33 70 37 71 34 72 36 73 35 74 54 75 55 76 59 77
REMARK SMILES IDX 56 78 58 79 57 80 44 81 45 82 49 83 46 84 48 85 47 86
REMARK H PARENT 15 6 75 21 20 35 64 54 42 65
REMARK Flexibility Score: inf
ROOT
ATOM      1  C   UNL A   1      32.791  29.572  25.072  1.00  0.00     0.023 C 
ENDROOT
BRANCH   1   2
ATOM      2  C   UNL A   1      31.314  29.961  24.963  1.00  0.00     0.116 C 
BRANCH   2   3
ATOM      3  N   UNL A   1      30.873  29.894  23.583  1.00  0.00    -0.352 N 
ATOM      4  C   UNL A   1      30.567  28.835  22.766  1.00  0.00     0.251 C 
ATOM      5  O   UNL A   1      30.188  29.092  21.623  1.00  0.00    -0.269 OA
ATOM      6  H   UNL A   1      30.774  30.773  23.152  1.00  0.00     0.163 HD
BRANCH   4   7
ATOM      7  C   UNL A   1      30.626  27.411  23.205  1.00  0.00     0.039 A 
ATOM      8  C   UNL A   1      30.827  24.677  23.857  1.00  0.00    -0.024 A 
ATOM      9  C   UNL A   1      31.675  25.225  22.898  1.00  0.00     0.009 A 
ATOM     10  C   UNL A   1      29.918  25.505  24.525  1.00  0.00     0.009 A 
ATOM     11  C   UNL A   1      31.571  26.583  22.573  1.00  0.00     0.014 A 
ATOM     12  C   UNL A   1      29.839  26.865  24.218  1.00  0.00     0.014 A 
BRANCH   8  13
ATOM     13  C   UNL A   1      30.853  23.255  24.196  1.00  0.00     0.031 C 
ATOM     14  N   UNL A   1      34.024  22.527  25.744  1.00  0.00    -0.219 N 
ATOM     15  C   UNL A   1      32.944  23.378  25.625  1.00  0.00     0.321 C 
ATOM     16  C   UNL A   1      33.805  21.212  25.391  1.00  0.00     0.271 C 
ATOM     17  O   UNL A   1      32.868  24.515  26.073  1.00  0.00    -0.250 OA
ATOM     18  C   UNL A   1      31.836  22.691  24.910  1.00  0.00     0.100 C 
ATOM     19  S   UNL A   1      32.110  20.994  24.953  1.00  0.00    -0.012 SA
ATOM     20  N   UNL A   1      34.745  20.325  25.379  1.00  0.00    -0.226 N 
ATOM     21  H   UNL A   1      35.676  20.555  25.601  1.00  0.00     0.268 HD
BRANCH  14  22
ATOM     22  C   UNL A   1      35.268  22.992  26.349  1.00  0.00     0.206 C 
BRANCH  22  23
ATOM     23  C   UNL A   1      36.326  23.464  25.339  1.00  0.00     0.035 C 
ATOM     24  C   UNL A   1      37.731  23.597  25.912  1.00  0.00     0.007 C 
ENDBRANCH  22  23
ENDBRANCH  14  22
BRANCH  20  25
ATOM     25  C   UNL A   1      34.382  19.060  25.044  1.00  0.00     0.345 A 
ATOM     26  N   UNL A   1      35.007  18.251  24.211  1.00  0.00     0.023 NA
ATOM     27  S   UNL A   1      32.962  18.344  25.733  1.00  0.00    -0.044 S 
ATOM     28  N   UNL A   1      34.450  16.989  24.164  1.00  0.00    -0.067 NA
ATOM     29  C   UNL A   1      33.402  16.883  24.950  1.00  0.00     0.135 A 
ATOM     30  C   UNL A   1      32.642  15.627  25.177  1.00  0.00     0.083 C 
ENDBRANCH  20  25
ENDBRANCH   8  13
ENDBRANCH   4   7
ENDBRANCH   2   3
ENDBRANCH   1   2
BRANCH   1  31
ATOM     31  C   UNL A   1      33.048  28.309  25.902  1.00  0.00     0.023 C 
BRANCH  31  32
ATOM     32  C   UNL A   1      33.691  28.556  27.262  1.00  0.00     0.116 C 
BRANCH  32  33
ATOM     33  N   UNL A   1      33.647  29.951  27.671  1.00  0.00    -0.352 N 
ATOM     34  C   UNL A   1      34.632  30.706  28.260  1.00  0.00     0.251 C 
ATOM     35  H   UNL A   1      32.796  30.418  27.504  1.00  0.00     0.163 HD
ATOM     36  O   UNL A   1      34.386  31.842  28.651  1.00  0.00    -0.269 OA
BRANCH  34  37
ATOM     37  C   UNL A   1      35.977  30.128  28.456  1.00  0.00     0.039 A 
ATOM     38  C   UNL A   1      36.888  30.185  27.399  1.00  0.00     0.014 A 
ATOM     39  C   UNL A   1      36.345  29.549  29.673  1.00  0.00     0.014 A 
ATOM     40  C   UNL A   1      38.186  29.708  27.584  1.00  0.00     0.010 A 
ATOM     41  C   UNL A   1      37.662  29.151  29.881  1.00  0.00     0.010 A 
ATOM     42  C   UNL A   1      38.593  29.216  28.836  1.00  0.00    -0.014 A 
BRANCH  42  43
ATOM     43  C   UNL A   1      39.994  28.776  29.054  1.00  0.00     0.031 A 
ATOM     44  C   UNL A   1      40.434  27.395  28.655  1.00  0.00     0.074 A 
ATOM     45  C   UNL A   1      40.864  29.614  29.649  1.00  0.00     0.049 A 
ATOM     46  N   UNL A   1      41.626  26.858  28.724  1.00  0.00    -0.248 NA
ATOM     47  C   UNL A   1      39.399  26.487  28.133  1.00  0.00     0.031 C 
ATOM     48  C   UNL A   1      40.543  30.954  30.147  1.00  0.00     0.029 A 
ATOM     49  N   UNL A   1      42.199  29.467  29.929  1.00  0.00    -0.354 N 
ATOM     50  C   UNL A   1      41.481  25.554  28.270  1.00  0.00     0.074 A 
ATOM     51  C   UNL A   1      40.076  25.360  27.985  1.00  0.00     0.031 C 
ATOM     52  C   UNL A   1      41.658  31.521  30.631  1.00  0.00     0.029 A 
ATOM     53  C   UNL A   1      42.764  30.577  30.509  1.00  0.00     0.049 A 
ATOM     54  H   UNL A   1      42.703  28.644  29.733  1.00  0.00     0.167 HD
ATOM     55  C   UNL A   1      42.432  24.608  28.087  1.00  0.00     0.031 A 
ATOM     56  C   UNL A   1      44.033  30.812  30.891  1.00  0.00     0.031 A 
ATOM     57  C   UNL A   1      43.829  24.804  28.369  1.00  0.00     0.049 A 
ATOM     58  C   UNL A   1      45.076  29.756  30.660  1.00  0.00     0.074 A 
ATOM     59  C   UNL A   1      44.884  23.935  28.149  1.00  0.00     0.029 A 
ATOM     60  N   UNL A   1      44.365  25.948  28.941  1.00  0.00    -0.354 N 
ATOM     61  N   UNL A   1      44.941  28.563  30.134  1.00  0.00    -0.248 NA
ATOM     62  C   UNL A   1      46.452  30.089  31.054  1.00  0.00     0.031 C 
ATOM     63  C   UNL A   1      46.049  24.529  28.647  1.00  0.00     0.029 A 
ATOM     64  C   UNL A   1      45.731  25.796  29.110  1.00  0.00     0.049 A 
ATOM     65  H   UNL A   1      43.851  26.750  29.191  1.00  0.00     0.167 HD
ATOM     66  C   UNL A   1      46.217  28.014  30.106  1.00  0.00     0.074 A 
ATOM     67  C   UNL A   1      47.113  29.013  30.654  1.00  0.00     0.031 C 
ATOM     68  C   UNL A   1      46.610  26.794  29.664  1.00  0.00     0.031 A 
BRANCH  55  69
ATOM     69  C   UNL A   1      41.985  23.267  27.570  1.00  0.00    -0.014 A 
ATOM     70  C   UNL A   1      41.983  22.975  26.195  1.00  0.00     0.009 A 
ATOM     71  C   UNL A   1      41.581  22.270  28.472  1.00  0.00     0.009 A 
ATOM     72  C   UNL A   1      41.541  21.733  25.733  1.00  0.00     0.001 A 
ATOM     73  C   UNL A   1      41.173  21.017  28.010  1.00  0.00     0.001 A 
ATOM     74  C   UNL A   1      41.141  20.754  26.642  1.00  0.00     0.000 A 
ENDBRANCH  55  69
BRANCH  56  75
ATOM     75  C   UNL A   1      44.389  32.121  31.503  1.00  0.00    -0.014 A 
ATOM     76  C   UNL A   1      44.782  33.202  30.700  1.00  0.00     0.009 A 
ATOM     77  C   UNL A   1      44.318  32.298  32.893  1.00  0.00     0.009 A 
ATOM     78  C   UNL A   1      45.122  34.427  31.281  1.00  0.00     0.001 A 
ATOM     79  C   UNL A   1      44.627  33.533  33.468  1.00  0.00     0.001 A 
ATOM     80  C   UNL A   1      45.037  34.593  32.663  1.00  0.00     0.000 A 
ENDBRANCH  56  75
BRANCH  68  81
ATOM     81  C   UNL A   1      48.080  26.484  29.718  1.00  0.00    -0.014 A 
ATOM     82  C   UNL A   1      48.944  26.828  28.666  1.00  0.00     0.009 A 
ATOM     83  C   UNL A   1      48.615  25.868  30.861  1.00  0.00     0.009 A 
ATOM     84  C   UNL A   1      50.305  26.525  28.743  1.00  0.00     0.001 A 
ATOM     85  C   UNL A   1      49.980  25.598  30.949  1.00  0.00     0.001 A 
ATOM     86  C   UNL A   1      50.822  25.915  29.885  1.00  0.00     0.000 A 
ENDBRANCH  68  81
ENDBRANCH  42  43
ENDBRANCH  34  37
ENDBRANCH  32  33
ENDBRANCH  31  32
ENDBRANCH   1  31
TORSDOF 15
ENDMDL
MODEL 3
REMARK VINA RESULT:     -11.4      2.880      4.226
REMARK SMILES CCCN1C(=O)/C(=C\c2ccc(C(=O)NCCCCNC(=O)c3ccc(-c4c5nc(c(-c6ccccc6)c6ccc([nH]6)c(-c6ccccc6)c6nc(c(-c7ccccc7)c7ccc4[nH]7)C=C6)C=C5)cc3)cc2)S/C1=[NH+]\c1nnc(C)s1
REMARK SMILES IDX 17 1 16 2 15 3 13 4 14 5 12 7 9 8 10 9 72 10 11 11 71 12
REMARK SMILES IDX 8 13 4 14 5 15 74 16 6 17 7 18 73 19 75 20 3 22 2 23 1 24
REMARK SMILES IDX 76 25 77 26 81 27 78 28 79 29 80 30 18 31 19 32 20 33 21 34
REMARK SMILES IDX 22 36 23 37 24 38 70 39 25 40 69 41 26 42 27 43 28 44 63 45
REMARK SMILES IDX 29 46 68 47 62 48 64 49 30 50 67 51 61 52 60 53 31 55 53 56
REMARK SMILES IDX 38 57 52 58 39 59 42 60 51 61 65 62 40 63 41 64 50 66 66 67
REMARK SMILES IDX 43 68 32 69 33 70 37 71 34 72 36 73 35 74 54 75 55 76 59 77
REMARK SMILES IDX 56 78 58 79 57 80 44 81 45 82 49 83 46 84 48 85 47 86
REMARK H PARENT 15 6 75 21 20 35 64 54 42 65
REMARK Flexibility Score: inf
ROOT
ATOM      1  C   UNL A   1      32.164  30.414  25.955  1.00  0.00     0.023 C 
ENDROOT
BRANCH   1   2
ATOM      2  C   UNL A   1      30.979  29.585  25.451  1.00  0.00     0.116 C 
BRANCH   2   3
ATOM      3  N   UNL A   1      30.977  29.530  24.003  1.00  0.00    -0.352 N 
ATOM      4  C   UNL A   1      30.997  28.479  23.121  1.00  0.00     0.251 C 
ATOM      5  O   UNL A   1      30.965  28.746  21.920  1.00  0.00    -0.269 OA
ATOM      6  H   UNL A   1      30.958  30.414  23.570  1.00  0.00     0.163 HD
BRANCH   4   7
ATOM      7  C   UNL A   1      31.010  27.049  23.544  1.00  0.00     0.039 A 
ATOM      8  C   UNL A   1      31.068  24.297  24.150  1.00  0.00    -0.024 A 
ATOM      9  C   UNL A   1      31.691  24.767  22.997  1.00  0.00     0.009 A 
ATOM     10  C   UNL A   1      30.465  25.209  25.025  1.00  0.00     0.009 A 
ATOM     11  C   UNL A   1      31.658  26.134  22.696  1.00  0.00     0.014 A 
ATOM     12  C   UNL A   1      30.460  26.574  24.735  1.00  0.00     0.014 A 
BRANCH   8  13
ATOM     13  C   UNL A   1      31.023  22.876  24.486  1.00  0.00     0.031 C 
ATOM     14  N   UNL A   1      34.349  21.828  25.391  1.00  0.00    -0.219 N 
ATOM     15  C   UNL A   1      33.354  22.780  25.479  1.00  0.00     0.321 C 
ATOM     16  C   UNL A   1      33.941  20.545  25.095  1.00  0.00     0.271 C 
ATOM     17  O   UNL A   1      33.475  23.913  25.928  1.00  0.00    -0.250 OA
ATOM     18  C   UNL A   1      32.067  22.211  24.998  1.00  0.00     0.100 C 
ATOM     19  S   UNL A   1      32.180  20.495  24.996  1.00  0.00    -0.012 SA
ATOM     20  N   UNL A   1      34.770  19.573  24.905  1.00  0.00    -0.226 N 
ATOM     21  H   UNL A   1      35.745  19.710  24.940  1.00  0.00     0.268 HD
BRANCH  14  22
ATOM     22  C   UNL A   1      35.726  22.165  25.739  1.00  0.00     0.206 C 
BRANCH  22  23
ATOM     23  C   UNL A   1      36.403  23.145  24.769  1.00  0.00     0.035 C 
ATOM     24  C   UNL A   1      36.656  22.582  23.376  1.00  0.00     0.007 C 
ENDBRANCH  22  23
ENDBRANCH  14  22
BRANCH  20  25
ATOM     25  C   UNL A   1      34.230  18.352  24.655  1.00  0.00     0.345 A 
ATOM     26  N   UNL A   1      34.392  17.622  23.568  1.00  0.00     0.023 NA
ATOM     27  S   UNL A   1      33.205  17.591  25.827  1.00  0.00    -0.044 S 
ATOM     28  N   UNL A   1      33.799  16.379  23.661  1.00  0.00    -0.067 NA
ATOM     29  C   UNL A   1      33.185  16.209  24.811  1.00  0.00     0.135 A 
ATOM     30  C   UNL A   1      32.527  14.948  25.236  1.00  0.00     0.083 C 
ENDBRANCH  20  25
ENDBRANCH   8  13
ENDBRANCH   4   7
ENDBRANCH   2   3
ENDBRANCH   1   2
BRANCH   1  31
ATOM     31  C   UNL A   1      31.771  31.752  26.588  1.00  0.00     0.023 C 
BRANCH  31  32
ATOM     32  C   UNL A   1      32.940  32.586  27.100  1.00  0.00     0.116 C 
BRANCH  32  33
ATOM     33  N   UNL A   1      32.534  33.880  27.626  1.00  0.00    -0.352 N 
ATOM     34  C   UNL A   1      33.071  34.590  28.671  1.00  0.00     0.251 C 
ATOM     35  H   UNL A   1      31.769  34.304  27.172  1.00  0.00     0.163 HD
ATOM     36  O   UNL A   1      32.527  35.619  29.062  1.00  0.00    -0.269 OA
BRANCH  34  37
ATOM     37  C   UNL A   1      34.285  34.090  29.348  1.00  0.00     0.039 A 
ATOM     38  C   UNL A   1      34.135  33.231  30.438  1.00  0.00     0.014 A 
ATOM     39  C   UNL A   1      35.560  34.451  28.906  1.00  0.00     0.014 A 
ATOM     40  C   UNL A   1      35.267  32.693  31.051  1.00  0.00     0.010 A 
ATOM     41  C   UNL A   1      36.684  33.849  29.463  1.00  0.00     0.010 A 
ATOM     42  C   UNL A   1      36.550  32.971  30.548  1.00  0.00    -0.014 A 
BRANCH  42  43
ATOM     43  C   UNL A   1      37.750  32.342  31.154  1.00  0.00     0.031 A 
ATOM     44  C   UNL A   1      38.312  32.853  32.450  1.00  0.00     0.074 A 
ATOM     45  C   UNL A   1      38.357  31.325  30.510  1.00  0.00     0.049 A 
ATOM     46  N   UNL A   1      39.321  32.395  33.148  1.00  0.00    -0.248 NA
ATOM     47  C   UNL A   1      37.679  34.049  33.029  1.00  0.00     0.031 C 
ATOM     48  C   UNL A   1      37.952  30.784  29.211  1.00  0.00     0.029 A 
ATOM     49  N   UNL A   1      39.440  30.562  30.866  1.00  0.00    -0.354 N 
ATOM     50  C   UNL A   1      39.450  33.251  34.234  1.00  0.00     0.074 A 
ATOM     51  C   UNL A   1      38.456  34.290  34.073  1.00  0.00     0.031 C 
ATOM     52  C   UNL A   1      38.747  29.749  28.900  1.00  0.00     0.029 A 
ATOM     53  C   UNL A   1      39.737  29.574  29.958  1.00  0.00     0.049 A 
ATOM     54  H   UNL A   1      39.955  30.709  31.692  1.00  0.00     0.167 HD
ATOM     55  C   UNL A   1      40.302  33.171  35.283  1.00  0.00     0.031 A 
ATOM     56  C   UNL A   1      40.694  28.628  29.979  1.00  0.00     0.031 A 
ATOM     57  C   UNL A   1      41.287  32.135  35.442  1.00  0.00     0.049 A 
ATOM     58  C   UNL A   1      41.616  28.544  31.162  1.00  0.00     0.074 A 
ATOM     59  C   UNL A   1      42.150  31.921  36.503  1.00  0.00     0.029 A 
ATOM     60  N   UNL A   1      41.547  31.143  34.508  1.00  0.00    -0.354 N 
ATOM     61  N   UNL A   1      41.657  29.300  32.232  1.00  0.00    -0.248 NA
ATOM     62  C   UNL A   1      42.609  27.460  31.149  1.00  0.00     0.031 C 
ATOM     63  C   UNL A   1      42.975  30.837  36.183  1.00  0.00     0.029 A 
ATOM     64  C   UNL A   1      42.578  30.333  34.955  1.00  0.00     0.049 A 
ATOM     65  H   UNL A   1      41.071  31.032  33.654  1.00  0.00     0.167 HD
ATOM     66  C   UNL A   1      42.659  28.767  33.033  1.00  0.00     0.074 A 
ATOM     67  C   UNL A   1      43.187  27.614  32.332  1.00  0.00     0.031 C 
ATOM     68  C   UNL A   1      43.099  29.193  34.243  1.00  0.00     0.031 A 
BRANCH  55  69
ATOM     69  C   UNL A   1      40.213  34.246  36.332  1.00  0.00    -0.014 A 
ATOM     70  C   UNL A   1      39.364  34.116  37.444  1.00  0.00     0.009 A 
ATOM     71  C   UNL A   1      41.008  35.397  36.221  1.00  0.00     0.009 A 
ATOM     72  C   UNL A   1      39.278  35.136  38.395  1.00  0.00     0.001 A 
ATOM     73  C   UNL A   1      40.946  36.400  37.191  1.00  0.00     0.001 A 
ATOM     74  C   UNL A   1      40.073  36.275  38.269  1.00  0.00     0.000 A 
ENDBRANCH  55  69
BRANCH  56  75
ATOM     75  C   UNL A   1      40.801  27.663  28.852  1.00  0.00    -0.014 A 
ATOM     76  C   UNL A   1      40.080  26.459  28.870  1.00  0.00     0.009 A 
ATOM     77  C   UNL A   1      41.612  27.951  27.744  1.00  0.00     0.009 A 
ATOM     78  C   UNL A   1      40.190  25.553  27.812  1.00  0.00     0.001 A 
ATOM     79  C   UNL A   1      41.695  27.058  26.673  1.00  0.00     0.001 A 
ATOM     80  C   UNL A   1      40.992  25.856  26.712  1.00  0.00     0.000 A 
ENDBRANCH  56  75
BRANCH  68  81
ATOM     81  C   UNL A   1      44.181  28.386  34.905  1.00  0.00    -0.014 A 
ATOM     82  C   UNL A   1      43.885  27.245  35.667  1.00  0.00     0.009 A 
ATOM     83  C   UNL A   1      45.524  28.756  34.730  1.00  0.00     0.009 A 
ATOM     84  C   UNL A   1      44.911  26.516  36.272  1.00  0.00     0.001 A 
ATOM     85  C   UNL A   1      46.549  28.006  35.308  1.00  0.00     0.001 A 
ATOM     86  C   UNL A   1      46.241  26.894  36.089  1.00  0.00     0.000 A 
ENDBRANCH  68  81
ENDBRANCH  42  43
ENDBRANCH  34  37
ENDBRANCH  32  33
ENDBRANCH  31  32
ENDBRANCH   1  31
TORSDOF 15
ENDMDL
