MODEL 1
REMARK VINA RESULT:     -13.8      0.000      0.000
REMARK SMILES O=C(NCCCCNC(=O)c1ccc([C@@H]2CC(O)=Nc3c2ncn3-c2cccc(Cl)c2)cc1)c1ccc(-c2c3nc(c(-c4ccccc4)c4ccc([nH]4)c(-c4ccccc4)c4nc(c(-c5ccccc5)c5ccc2[nH]5)C=C4)C=C3)cc1
REMARK SMILES IDX 5 1 4 2 3 3 1 4 2 5 34 7 35 8 81 9 36 10 80 11 37 12 38 13
REMARK SMILES IDX 39 14 74 15 40 16 79 17 73 18 75 19 41 20 78 21 72 22 71 23
REMARK SMILES IDX 42 25 64 26 49 27 63 28 50 29 53 30 62 31 76 32 51 33 52 34
REMARK SMILES IDX 61 36 77 37 54 38 43 39 44 40 48 41 45 42 47 43 46 44 65 45
REMARK SMILES IDX 66 46 70 47 67 48 69 49 68 50 55 51 56 52 60 53 57 54 59 55
REMARK SMILES IDX 58 56 6 57 7 58 8 59 9 60 10 62 11 63 12 64 33 65 13 66
REMARK SMILES IDX 32 67 14 68 15 69 16 70 21 71 17 72 20 73 22 74 19 75 24 76
REMARK SMILES IDX 23 77 18 78 25 80 26 81 31 82 27 83 29 84 28 85 30 86
REMARK H PARENT 3 6 75 24 53 35 8 61 18 79
REMARK Flexibility Score: inf
ROOT
ATOM      1  C   UNL A   1      37.337  21.139  24.893  1.00  0.00     0.023 C 
ENDROOT
BRANCH   1   2
ATOM      2  C   UNL A   1      38.090  22.176  25.728  1.00  0.00     0.116 C 
BRANCH   2   3
ATOM      3  N   UNL A   1      39.505  21.907  25.886  1.00  0.00    -0.352 N 
ATOM      4  O   UNL A   1      41.603  21.913  26.576  1.00  0.00    -0.269 OA
ATOM      5  C   UNL A   1      40.535  22.529  26.537  1.00  0.00     0.251 C 
ATOM      6  H   UNL A   1      39.791  21.091  25.417  1.00  0.00     0.163 HD
BRANCH   5   7
ATOM      7  C   UNL A   1      40.475  23.889  27.143  1.00  0.00     0.039 A 
ATOM      8  C   UNL A   1      39.499  24.853  26.888  1.00  0.00     0.014 A 
ATOM      9  C   UNL A   1      41.530  24.225  28.014  1.00  0.00     0.014 A 
ATOM     10  C   UNL A   1      39.615  26.138  27.409  1.00  0.00     0.010 A 
ATOM     11  C   UNL A   1      41.639  25.501  28.559  1.00  0.00     0.010 A 
ATOM     12  C   UNL A   1      40.697  26.470  28.225  1.00  0.00    -0.014 A 
BRANCH  12  13
ATOM     13  C   UNL A   1      40.743  27.823  28.773  1.00  0.00     0.031 A 
ATOM     14  C   UNL A   1      41.818  28.713  28.245  1.00  0.00     0.074 A 
ATOM     15  C   UNL A   1      39.805  28.323  29.598  1.00  0.00     0.049 A 
ATOM     16  N   UNL A   1      42.729  29.356  28.902  1.00  0.00    -0.248 NA
ATOM     17  C   UNL A   1      41.904  28.873  26.785  1.00  0.00     0.031 C 
ATOM     18  C   UNL A   1      38.521  27.722  29.968  1.00  0.00     0.029 A 
ATOM     19  N   UNL A   1      39.759  29.553  30.189  1.00  0.00    -0.354 N 
ATOM     20  C   UNL A   1      43.417  30.124  27.962  1.00  0.00     0.074 A 
ATOM     21  C   UNL A   1      42.929  29.718  26.667  1.00  0.00     0.031 C 
ATOM     22  C   UNL A   1      37.734  28.672  30.520  1.00  0.00     0.029 A 
ATOM     23  C   UNL A   1      38.503  29.898  30.660  1.00  0.00     0.049 A 
ATOM     24  H   UNL A   1      40.545  30.139  30.271  1.00  0.00     0.167 HD
ATOM     25  C   UNL A   1      44.214  31.173  28.308  1.00  0.00     0.031 A 
ATOM     26  C   UNL A   1      38.098  31.123  31.070  1.00  0.00     0.031 A 
ATOM     27  C   UNL A   1      44.613  31.131  29.687  1.00  0.00     0.049 A 
ATOM     28  C   UNL A   1      39.296  31.936  31.369  1.00  0.00     0.074 A 
ATOM     29  C   UNL A   1      45.323  30.250  30.478  1.00  0.00     0.029 A 
ATOM     30  N   UNL A   1      44.008  32.003  30.558  1.00  0.00    -0.354 N 
ATOM     31  N   UNL A   1      40.085  31.724  32.381  1.00  0.00    -0.248 NA
ATOM     32  C   UNL A   1      39.838  32.789  30.324  1.00  0.00     0.031 C 
ATOM     33  C   UNL A   1      44.719  30.340  31.766  1.00  0.00     0.029 A 
ATOM     34  C   UNL A   1      43.696  31.286  31.680  1.00  0.00     0.049 A 
ATOM     35  H   UNL A   1      43.833  32.960  30.403  1.00  0.00     0.167 HD
ATOM     36  C   UNL A   1      41.350  32.056  31.921  1.00  0.00     0.074 A 
ATOM     37  C   UNL A   1      41.118  32.821  30.701  1.00  0.00     0.031 C 
ATOM     38  C   UNL A   1      42.464  31.442  32.419  1.00  0.00     0.031 A 
BRANCH  25  39
ATOM     39  C   UNL A   1      44.336  32.436  27.487  1.00  0.00    -0.014 A 
ATOM     40  C   UNL A   1      43.778  33.629  27.983  1.00  0.00     0.009 A 
ATOM     41  C   UNL A   1      44.716  32.434  26.132  1.00  0.00     0.009 A 
ATOM     42  C   UNL A   1      43.536  34.727  27.148  1.00  0.00     0.001 A 
ATOM     43  C   UNL A   1      44.519  33.545  25.305  1.00  0.00     0.001 A 
ATOM     44  C   UNL A   1      43.899  34.681  25.807  1.00  0.00     0.000 A 
ENDBRANCH  25  39
BRANCH  26  45
ATOM     45  C   UNL A   1      36.748  31.713  30.977  1.00  0.00    -0.014 A 
ATOM     46  C   UNL A   1      35.936  31.843  32.113  1.00  0.00     0.009 A 
ATOM     47  C   UNL A   1      36.349  32.383  29.805  1.00  0.00     0.009 A 
ATOM     48  C   UNL A   1      34.781  32.634  32.082  1.00  0.00     0.001 A 
ATOM     49  C   UNL A   1      35.194  33.167  29.771  1.00  0.00     0.001 A 
ATOM     50  C   UNL A   1      34.416  33.304  30.915  1.00  0.00     0.000 A 
ENDBRANCH  26  45
BRANCH  38  51
ATOM     51  C   UNL A   1      42.314  30.594  33.656  1.00  0.00    -0.014 A 
ATOM     52  C   UNL A   1      41.902  29.251  33.603  1.00  0.00     0.009 A 
ATOM     53  C   UNL A   1      42.754  31.109  34.884  1.00  0.00     0.009 A 
ATOM     54  C   UNL A   1      41.897  28.457  34.754  1.00  0.00     0.001 A 
ATOM     55  C   UNL A   1      42.769  30.310  36.030  1.00  0.00     0.001 A 
ATOM     56  C   UNL A   1      42.335  28.986  35.965  1.00  0.00     0.000 A 
ENDBRANCH  38  51
ENDBRANCH  12  13
ENDBRANCH   5   7
ENDBRANCH   2   3
ENDBRANCH   1   2
BRANCH   1  57
ATOM     57  C   UNL A   1      35.846  21.415  24.688  1.00  0.00     0.023 C 
BRANCH  57  58
ATOM     58  C   UNL A   1      34.942  21.073  25.866  1.00  0.00     0.116 C 
BRANCH  58  59
ATOM     59  N   UNL A   1      34.055  19.955  25.589  1.00  0.00    -0.352 N 
ATOM     60  C   UNL A   1      32.814  19.958  24.992  1.00  0.00     0.251 C 
ATOM     61  H   UNL A   1      34.389  19.071  25.866  1.00  0.00     0.163 HD
ATOM     62  O   UNL A   1      32.152  18.940  24.936  1.00  0.00    -0.269 OA
BRANCH  60  63
ATOM     63  C   UNL A   1      32.279  21.225  24.448  1.00  0.00     0.039 A 
ATOM     64  C   UNL A   1      31.491  22.018  25.281  1.00  0.00     0.014 A 
ATOM     65  C   UNL A   1      32.568  21.633  23.144  1.00  0.00     0.014 A 
ATOM     66  C   UNL A   1      31.064  23.269  24.834  1.00  0.00     0.005 A 
ATOM     67  C   UNL A   1      32.146  22.886  22.701  1.00  0.00     0.005 A 
ATOM     68  C   UNL A   1      31.411  23.733  23.552  1.00  0.00    -0.038 A 
BRANCH  68  69
ATOM     69  C   UNL A   1      31.002  25.137  23.138  1.00  0.00     0.081 C 
ATOM     70  C   UNL A   1      31.842  25.696  21.971  1.00  0.00     0.111 C 
ATOM     71  C   UNL A   1      31.130  25.977  24.358  1.00  0.00     0.093 A 
ATOM     72  C   UNL A   1      32.753  26.860  22.328  1.00  0.00     0.188 C 
ATOM     73  C   UNL A   1      31.944  27.087  24.388  1.00  0.00     0.164 A 
ATOM     74  N   UNL A   1      30.548  25.743  25.575  1.00  0.00    -0.238 NA
ATOM     75  N   UNL A   1      32.779  27.545  23.425  1.00  0.00    -0.198 NA
ATOM     76  N   UNL A   1      31.860  27.565  25.682  1.00  0.00    -0.283 N 
ATOM     77  C   UNL A   1      31.041  26.681  26.357  1.00  0.00     0.206 A 
BRANCH  72  78
ATOM     78  O   UNL A   1      33.597  27.215  21.338  1.00  0.00    -0.496 OA
ATOM     79  H   UNL A   1      34.337  26.676  21.139  1.00  0.00     0.294 HD
ENDBRANCH  72  78
BRANCH  76  80
ATOM     80  C   UNL A   1      32.483  28.716  26.221  1.00  0.00     0.050 A 
ATOM     81  C   UNL A   1      31.772  29.919  26.321  1.00  0.00     0.027 A 
ATOM     82  C   UNL A   1      33.814  28.644  26.649  1.00  0.00     0.047 A 
ATOM     83  C   UNL A   1      32.388  31.038  26.886  1.00  0.00     0.004 A 
ATOM     84  C   UNL A   1      34.431  29.781  27.164  1.00  0.00     0.043 A 
ATOM     85  C   UNL A   1      33.721  30.972  27.299  1.00  0.00     0.020 A 
ATOM     86  Cl  UNL A   1      36.091  29.722  27.618  1.00  0.00    -0.084 Cl
ENDBRANCH  76  80
ENDBRANCH  68  69
ENDBRANCH  60  63
ENDBRANCH  58  59
ENDBRANCH  57  58
ENDBRANCH   1  57
TORSDOF 14
ENDMDL
MODEL 2
REMARK VINA RESULT:     -13.8      2.554      7.916
REMARK SMILES O=C(NCCCCNC(=O)c1ccc([C@@H]2CC(O)=Nc3c2ncn3-c2cccc(Cl)c2)cc1)c1ccc(-c2c3nc(c(-c4ccccc4)c4ccc([nH]4)c(-c4ccccc4)c4nc(c(-c5ccccc5)c5ccc2[nH]5)C=C4)C=C3)cc1
REMARK SMILES IDX 5 1 4 2 3 3 1 4 2 5 34 7 35 8 81 9 36 10 80 11 37 12 38 13
REMARK SMILES IDX 39 14 74 15 40 16 79 17 73 18 75 19 41 20 78 21 72 22 71 23
REMARK SMILES IDX 42 25 64 26 49 27 63 28 50 29 53 30 62 31 76 32 51 33 52 34
REMARK SMILES IDX 61 36 77 37 54 38 43 39 44 40 48 41 45 42 47 43 46 44 65 45
REMARK SMILES IDX 66 46 70 47 67 48 69 49 68 50 55 51 56 52 60 53 57 54 59 55
REMARK SMILES IDX 58 56 6 57 7 58 8 59 9 60 10 62 11 63 12 64 33 65 13 66
REMARK SMILES IDX 32 67 14 68 15 69 16 70 21 71 17 72 20 73 22 74 19 75 24 76
REMARK SMILES IDX 23 77 18 78 25 80 26 81 31 82 27 83 29 84 28 85 30 86
REMARK H PARENT 3 6 75 24 53 35 8 61 18 79
REMARK Flexibility Score: inf
ROOT
ATOM      1  C   UNL A   1      32.627  29.854  25.434  1.00  0.00     0.023 C 
ENDROOT
BRANCH   1   2
ATOM      2  C   UNL A   1      33.165  29.646  26.850  1.00  0.00     0.116 C 
BRANCH   2   3
ATOM      3  N   UNL A   1      33.413  30.871  27.584  1.00  0.00    -0.352 N 
ATOM      4  O   UNL A   1      34.374  32.606  28.556  1.00  0.00    -0.269 OA
ATOM      5  C   UNL A   1      34.524  31.460  28.122  1.00  0.00     0.251 C 
ATOM      6  H   UNL A   1      32.596  31.399  27.728  1.00  0.00     0.163 HD
BRANCH   5   7
ATOM      7  C   UNL A   1      35.859  30.812  28.268  1.00  0.00     0.039 A 
ATOM      8  C   UNL A   1      36.148  29.473  28.002  1.00  0.00     0.014 A 
ATOM      9  C   UNL A   1      36.893  31.632  28.759  1.00  0.00     0.014 A 
ATOM     10  C   UNL A   1      37.400  28.944  28.300  1.00  0.00     0.010 A 
ATOM     11  C   UNL A   1      38.156  31.114  29.036  1.00  0.00     0.010 A 
ATOM     12  C   UNL A   1      38.397  29.757  28.839  1.00  0.00    -0.014 A 
BRANCH  12  13
ATOM     13  C   UNL A   1      39.701  29.153  29.093  1.00  0.00     0.031 A 
ATOM     14  C   UNL A   1      40.043  28.897  30.523  1.00  0.00     0.074 A 
ATOM     15  C   UNL A   1      40.517  28.707  28.120  1.00  0.00     0.049 A 
ATOM     16  N   UNL A   1      41.074  29.301  31.192  1.00  0.00    -0.248 NA
ATOM     17  C   UNL A   1      39.082  28.114  31.315  1.00  0.00     0.031 C 
ATOM     18  C   UNL A   1      40.222  28.577  26.691  1.00  0.00     0.029 A 
ATOM     19  N   UNL A   1      41.760  28.155  28.237  1.00  0.00    -0.354 N 
ATOM     20  C   UNL A   1      40.978  28.705  32.450  1.00  0.00     0.074 A 
ATOM     21  C   UNL A   1      39.689  28.063  32.501  1.00  0.00     0.031 C 
ATOM     22  C   UNL A   1      41.153  27.779  26.122  1.00  0.00     0.029 A 
ATOM     23  C   UNL A   1      42.169  27.460  27.111  1.00  0.00     0.049 A 
ATOM     24  H   UNL A   1      42.313  28.243  29.047  1.00  0.00     0.167 HD
ATOM     25  C   UNL A   1      42.034  28.622  33.308  1.00  0.00     0.031 A 
ATOM     26  C   UNL A   1      43.226  26.621  27.015  1.00  0.00     0.031 A 
ATOM     27  C   UNL A   1      43.078  29.556  32.991  1.00  0.00     0.049 A 
ATOM     28  C   UNL A   1      44.145  26.894  28.141  1.00  0.00     0.074 A 
ATOM     29  C   UNL A   1      43.174  30.931  32.909  1.00  0.00     0.029 A 
ATOM     30  N   UNL A   1      44.216  29.070  32.399  1.00  0.00    -0.354 N 
ATOM     31  N   UNL A   1      44.857  27.977  28.253  1.00  0.00    -0.248 NA
ATOM     32  C   UNL A   1      44.008  26.109  29.357  1.00  0.00     0.031 C 
ATOM     33  C   UNL A   1      44.105  31.173  31.856  1.00  0.00     0.029 A 
ATOM     34  C   UNL A   1      44.530  29.931  31.383  1.00  0.00     0.049 A 
ATOM     35  H   UNL A   1      44.711  28.258  32.656  1.00  0.00     0.167 HD
ATOM     36  C   UNL A   1      44.905  28.231  29.615  1.00  0.00     0.074 A 
ATOM     37  C   UNL A   1      44.478  26.987  30.246  1.00  0.00     0.031 C 
ATOM     38  C   UNL A   1      45.015  29.507  30.089  1.00  0.00     0.031 A 
BRANCH  25  39
ATOM     39  C   UNL A   1      42.278  27.441  34.219  1.00  0.00    -0.014 A 
ATOM     40  C   UNL A   1      43.071  26.374  33.755  1.00  0.00     0.009 A 
ATOM     41  C   UNL A   1      41.528  27.207  35.387  1.00  0.00     0.009 A 
ATOM     42  C   UNL A   1      43.048  25.120  34.378  1.00  0.00     0.001 A 
ATOM     43  C   UNL A   1      41.538  25.969  36.038  1.00  0.00     0.001 A 
ATOM     44  C   UNL A   1      42.274  24.916  35.515  1.00  0.00     0.000 A 
ENDBRANCH  25  39
BRANCH  26  45
ATOM     45  C   UNL A   1      43.368  25.430  26.153  1.00  0.00    -0.014 A 
ATOM     46  C   UNL A   1      44.461  25.291  25.286  1.00  0.00     0.009 A 
ATOM     47  C   UNL A   1      42.551  24.304  26.366  1.00  0.00     0.009 A 
ATOM     48  C   UNL A   1      44.740  24.062  24.674  1.00  0.00     0.001 A 
ATOM     49  C   UNL A   1      42.824  23.080  25.751  1.00  0.00     0.001 A 
ATOM     50  C   UNL A   1      43.927  22.955  24.915  1.00  0.00     0.000 A 
ENDBRANCH  26  45
BRANCH  38  51
ATOM     51  C   UNL A   1      45.348  30.603  29.109  1.00  0.00    -0.014 A 
ATOM     52  C   UNL A   1      46.671  30.987  28.830  1.00  0.00     0.009 A 
ATOM     53  C   UNL A   1      44.317  31.147  28.330  1.00  0.00     0.009 A 
ATOM     54  C   UNL A   1      46.950  31.916  27.823  1.00  0.00     0.001 A 
ATOM     55  C   UNL A   1      44.598  32.060  27.310  1.00  0.00     0.001 A 
ATOM     56  C   UNL A   1      45.914  32.448  27.061  1.00  0.00     0.000 A 
ENDBRANCH  38  51
ENDBRANCH  12  13
ENDBRANCH   5   7
ENDBRANCH   2   3
ENDBRANCH   1   2
BRANCH   1  57
ATOM     57  C   UNL A   1      33.274  28.990  24.350  1.00  0.00     0.023 C 
BRANCH  57  58
ATOM     58  C   UNL A   1      32.587  29.014  22.989  1.00  0.00     0.116 C 
BRANCH  58  59
ATOM     59  N   UNL A   1      31.159  29.263  23.084  1.00  0.00    -0.352 N 
ATOM     60  C   UNL A   1      30.142  28.386  23.394  1.00  0.00     0.251 C 
ATOM     61  H   UNL A   1      30.877  30.188  22.902  1.00  0.00     0.163 HD
ATOM     62  O   UNL A   1      28.980  28.735  23.321  1.00  0.00    -0.269 OA
BRANCH  60  63
ATOM     63  C   UNL A   1      30.481  27.001  23.786  1.00  0.00     0.039 A 
ATOM     64  C   UNL A   1      30.618  26.046  22.778  1.00  0.00     0.014 A 
ATOM     65  C   UNL A   1      30.679  26.655  25.125  1.00  0.00     0.014 A 
ATOM     66  C   UNL A   1      31.043  24.759  23.107  1.00  0.00     0.005 A 
ATOM     67  C   UNL A   1      31.110  25.369  25.450  1.00  0.00     0.005 A 
ATOM     68  C   UNL A   1      31.325  24.412  24.441  1.00  0.00    -0.038 A 
BRANCH  68  69
ATOM     69  C   UNL A   1      31.873  23.027  24.744  1.00  0.00     0.081 C 
ATOM     70  C   UNL A   1      31.591  22.565  26.189  1.00  0.00     0.111 C 
ATOM     71  C   UNL A   1      33.331  23.091  24.463  1.00  0.00     0.093 A 
ATOM     72  C   UNL A   1      32.817  22.439  27.080  1.00  0.00     0.188 C 
ATOM     73  C   UNL A   1      34.266  22.797  25.430  1.00  0.00     0.164 A 
ATOM     74  N   UNL A   1      33.920  23.498  23.296  1.00  0.00    -0.238 NA
ATOM     75  N   UNL A   1      34.063  22.497  26.735  1.00  0.00    -0.198 NA
ATOM     76  N   UNL A   1      35.492  23.026  24.833  1.00  0.00    -0.283 N 
ATOM     77  C   UNL A   1      35.210  23.494  23.564  1.00  0.00     0.206 A 
BRANCH  72  78
ATOM     78  O   UNL A   1      32.528  22.203  28.375  1.00  0.00    -0.496 OA
ATOM     79  H   UNL A   1      33.216  22.179  29.011  1.00  0.00     0.294 HD
ENDBRANCH  72  78
BRANCH  76  80
ATOM     80  C   UNL A   1      36.776  22.835  25.395  1.00  0.00     0.050 A 
ATOM     81  C   UNL A   1      37.446  21.617  25.221  1.00  0.00     0.027 A 
ATOM     82  C   UNL A   1      37.371  23.870  26.127  1.00  0.00     0.047 A 
ATOM     83  C   UNL A   1      38.728  21.453  25.751  1.00  0.00     0.004 A 
ATOM     84  C   UNL A   1      38.629  23.675  26.692  1.00  0.00     0.043 A 
ATOM     85  C   UNL A   1      39.316  22.478  26.494  1.00  0.00     0.020 A 
ATOM     86  Cl  UNL A   1      39.332  24.912  27.660  1.00  0.00    -0.084 Cl
ENDBRANCH  76  80
ENDBRANCH  68  69
ENDBRANCH  60  63
ENDBRANCH  58  59
ENDBRANCH  57  58
ENDBRANCH   1  57
TORSDOF 14
ENDMDL
MODEL 3
REMARK VINA RESULT:     -13.5      3.111      8.655
REMARK SMILES O=C(NCCCCNC(=O)c1ccc([C@@H]2CC(O)=Nc3c2ncn3-c2cccc(Cl)c2)cc1)c1ccc(-c2c3nc(c(-c4ccccc4)c4ccc([nH]4)c(-c4ccccc4)c4nc(c(-c5ccccc5)c5ccc2[nH]5)C=C4)C=C3)cc1
REMARK SMILES IDX 5 1 4 2 3 3 1 4 2 5 34 7 35 8 81 9 36 10 80 11 37 12 38 13
REMARK SMILES IDX 39 14 74 15 40 16 79 17 73 18 75 19 41 20 78 21 72 22 71 23
REMARK SMILES IDX 42 25 64 26 49 27 63 28 50 29 53 30 62 31 76 32 51 33 52 34
REMARK SMILES IDX 61 36 77 37 54 38 43 39 44 40 48 41 45 42 47 43 46 44 65 45
REMARK SMILES IDX 66 46 70 47 67 48 69 49 68 50 55 51 56 52 60 53 57 54 59 55
REMARK SMILES IDX 58 56 6 57 7 58 8 59 9 60 10 62 11 63 12 64 33 65 13 66
REMARK SMILES IDX 32 67 14 68 15 69 16 70 21 71 17 72 20 73 22 74 19 75 24 76
REMARK SMILES IDX 23 77 18 78 25 80 26 81 31 82 27 83 29 84 28 85 30 86
REMARK H PARENT 3 6 75 24 53 35 8 61 18 79
REMARK Flexibility Score: inf
ROOT
ATOM      1  C   UNL A   1      33.134  31.100  27.142  1.00  0.00     0.023 C 
ENDROOT
BRANCH   1   2
ATOM      2  C   UNL A   1      34.401  30.820  27.951  1.00  0.00     0.116 C 
BRANCH   2   3
ATOM      3  N   UNL A   1      34.569  31.667  29.115  1.00  0.00    -0.352 N 
ATOM      4  O   UNL A   1      35.418  32.819  30.797  1.00  0.00    -0.269 OA
ATOM      5  C   UNL A   1      35.587  31.892  30.000  1.00  0.00     0.251 C 
ATOM      6  H   UNL A   1      33.768  32.202  29.314  1.00  0.00     0.163 HD
BRANCH   5   7
ATOM      7  C   UNL A   1      36.835  31.083  30.104  1.00  0.00     0.039 A 
ATOM      8  C   UNL A   1      38.126  31.536  29.830  1.00  0.00     0.014 A 
ATOM      9  C   UNL A   1      36.667  29.733  30.471  1.00  0.00     0.014 A 
ATOM     10  C   UNL A   1      39.203  30.656  29.831  1.00  0.00     0.010 A 
ATOM     11  C   UNL A   1      37.745  28.853  30.500  1.00  0.00     0.010 A 
ATOM     12  C   UNL A   1      39.011  29.310  30.143  1.00  0.00    -0.014 A 
BRANCH  12  13
ATOM     13  C   UNL A   1      40.186  28.444  30.166  1.00  0.00     0.031 A 
ATOM     14  C   UNL A   1      40.888  28.318  31.476  1.00  0.00     0.074 A 
ATOM     15  C   UNL A   1      40.564  27.674  29.128  1.00  0.00     0.049 A 
ATOM     16  N   UNL A   1      42.132  28.546  31.752  1.00  0.00    -0.248 NA
ATOM     17  C   UNL A   1      40.079  27.920  32.639  1.00  0.00     0.031 C 
ATOM     18  C   UNL A   1      39.830  27.419  27.887  1.00  0.00     0.029 A 
ATOM     19  N   UNL A   1      41.650  26.855  29.027  1.00  0.00    -0.354 N 
ATOM     20  C   UNL A   1      42.308  28.179  33.087  1.00  0.00     0.074 A 
ATOM     21  C   UNL A   1      40.995  27.890  33.607  1.00  0.00     0.031 C 
ATOM     22  C   UNL A   1      40.369  26.342  27.272  1.00  0.00     0.029 A 
ATOM     23  C   UNL A   1      41.554  25.926  28.004  1.00  0.00     0.049 A 
ATOM     24  H   UNL A   1      42.429  26.917  29.627  1.00  0.00     0.167 HD
ATOM     25  C   UNL A   1      43.535  27.960  33.635  1.00  0.00     0.031 A 
ATOM     26  C   UNL A   1      42.347  24.846  27.811  1.00  0.00     0.031 A 
ATOM     27  C   UNL A   1      44.596  28.551  32.868  1.00  0.00     0.049 A 
ATOM     28  C   UNL A   1      43.598  25.041  28.574  1.00  0.00     0.074 A 
ATOM     29  C   UNL A   1      44.930  29.832  32.478  1.00  0.00     0.029 A 
ATOM     30  N   UNL A   1      45.383  27.718  32.112  1.00  0.00    -0.354 N 
ATOM     31  N   UNL A   1      44.508  25.918  28.266  1.00  0.00    -0.248 NA
ATOM     32  C   UNL A   1      43.686  24.497  29.920  1.00  0.00     0.031 C 
ATOM     33  C   UNL A   1      45.527  29.683  31.191  1.00  0.00     0.029 A 
ATOM     34  C   UNL A   1      45.536  28.320  30.893  1.00  0.00     0.049 A 
ATOM     35  H   UNL A   1      45.763  26.854  32.394  1.00  0.00     0.167 HD
ATOM     36  C   UNL A   1      45.016  26.345  29.484  1.00  0.00     0.074 A 
ATOM     37  C   UNL A   1      44.566  25.349  30.450  1.00  0.00     0.031 C 
ATOM     38  C   UNL A   1      45.513  27.608  29.635  1.00  0.00     0.031 A 
BRANCH  25  39
ATOM     39  C   UNL A   1      43.808  26.898  34.676  1.00  0.00    -0.014 A 
ATOM     40  C   UNL A   1      43.462  25.563  34.395  1.00  0.00     0.009 A 
ATOM     41  C   UNL A   1      44.116  27.200  36.015  1.00  0.00     0.009 A 
ATOM     42  C   UNL A   1      43.349  24.606  35.412  1.00  0.00     0.001 A 
ATOM     43  C   UNL A   1      44.050  26.237  37.027  1.00  0.00     0.001 A 
ATOM     44  C   UNL A   1      43.635  24.947  36.729  1.00  0.00     0.000 A 
ENDBRANCH  25  39
BRANCH  26  45
ATOM     45  C   UNL A   1      41.984  23.546  27.211  1.00  0.00    -0.014 A 
ATOM     46  C   UNL A   1      42.911  22.815  26.455  1.00  0.00     0.009 A 
ATOM     47  C   UNL A   1      40.793  22.901  27.592  1.00  0.00     0.009 A 
ATOM     48  C   UNL A   1      42.665  21.479  26.114  1.00  0.00     0.001 A 
ATOM     49  C   UNL A   1      40.543  21.571  27.248  1.00  0.00     0.001 A 
ATOM     50  C   UNL A   1      41.486  20.855  26.520  1.00  0.00     0.000 A 
ENDBRANCH  26  45
BRANCH  38  51
ATOM     51  C   UNL A   1      45.741  28.435  28.396  1.00  0.00    -0.014 A 
ATOM     52  C   UNL A   1      44.764  29.303  27.879  1.00  0.00     0.009 A 
ATOM     53  C   UNL A   1      47.024  28.462  27.830  1.00  0.00     0.009 A 
ATOM     54  C   UNL A   1      45.054  30.149  26.804  1.00  0.00     0.001 A 
ATOM     55  C   UNL A   1      47.320  29.322  26.770  1.00  0.00     0.001 A 
ATOM     56  C   UNL A   1      46.333  30.161  26.254  1.00  0.00     0.000 A 
ENDBRANCH  38  51
ENDBRANCH  12  13
ENDBRANCH   5   7
ENDBRANCH   2   3
ENDBRANCH   1   2
BRANCH   1  57
ATOM     57  C   UNL A   1      32.594  29.919  26.334  1.00  0.00     0.023 C 
BRANCH  57  58
ATOM     58  C   UNL A   1      33.240  29.700  24.970  1.00  0.00     0.116 C 
BRANCH  58  59
ATOM     59  N   UNL A   1      32.275  29.356  23.940  1.00  0.00    -0.352 N 
ATOM     60  C   UNL A   1      31.886  28.112  23.493  1.00  0.00     0.251 C 
ATOM     61  H   UNL A   1      31.836  30.120  23.499  1.00  0.00     0.163 HD
ATOM     62  O   UNL A   1      31.142  28.002  22.538  1.00  0.00    -0.269 OA
BRANCH  60  63
ATOM     63  C   UNL A   1      32.413  26.907  24.169  1.00  0.00     0.039 A 
ATOM     64  C   UNL A   1      33.530  26.279  23.619  1.00  0.00     0.014 A 
ATOM     65  C   UNL A   1      31.826  26.419  25.338  1.00  0.00     0.014 A 
ATOM     66  C   UNL A   1      34.115  25.207  24.293  1.00  0.00     0.005 A 
ATOM     67  C   UNL A   1      32.416  25.351  26.015  1.00  0.00     0.005 A 
ATOM     68  C   UNL A   1      33.586  24.749  25.515  1.00  0.00    -0.038 A 
BRANCH  68  69
ATOM     69  C   UNL A   1      34.307  23.639  26.262  1.00  0.00     0.081 C 
ATOM     70  C   UNL A   1      35.818  23.581  25.954  1.00  0.00     0.111 C 
ATOM     71  C   UNL A   1      33.621  22.376  25.881  1.00  0.00     0.093 A 
ATOM     72  C   UNL A   1      36.276  22.355  25.180  1.00  0.00     0.188 C 
ATOM     73  C   UNL A   1      34.302  21.333  25.295  1.00  0.00     0.164 A 
ATOM     74  N   UNL A   1      32.282  22.112  25.984  1.00  0.00    -0.238 NA
ATOM     75  N   UNL A   1      35.600  21.285  24.909  1.00  0.00    -0.198 NA
ATOM     76  N   UNL A   1      33.342  20.375  25.028  1.00  0.00    -0.283 N 
ATOM     77  C   UNL A   1      32.139  20.928  25.423  1.00  0.00     0.206 A 
BRANCH  72  78
ATOM     78  O   UNL A   1      37.560  22.412  24.778  1.00  0.00    -0.496 OA
ATOM     79  H   UNL A   1      38.123  23.088  25.103  1.00  0.00     0.294 HD
ENDBRANCH  72  78
BRANCH  76  80
ATOM     80  C   UNL A   1      33.534  19.093  24.461  1.00  0.00     0.050 A 
ATOM     81  C   UNL A   1      32.827  18.720  23.310  1.00  0.00     0.027 A 
ATOM     82  C   UNL A   1      34.433  18.201  25.058  1.00  0.00     0.047 A 
ATOM     83  C   UNL A   1      33.051  17.465  22.740  1.00  0.00     0.004 A 
ATOM     84  C   UNL A   1      34.609  16.934  24.507  1.00  0.00     0.043 A 
ATOM     85  C   UNL A   1      33.935  16.568  23.343  1.00  0.00     0.020 A 
ATOM     86  Cl  UNL A   1      35.652  15.804  25.281  1.00  0.00    -0.084 Cl
ENDBRANCH  76  80
ENDBRANCH  68  69
ENDBRANCH  60  63
ENDBRANCH  58  59
ENDBRANCH  57  58
ENDBRANCH   1  57
TORSDOF 14
ENDMDL
