MODEL 1
REMARK VINA RESULT:     -10.6      0.000      0.000
REMARK SMILES C[C@@H](C(=O)NCCCCNC(=O)c1ccc(-c2c3nc(c(-c4ccccc4)c4ccc([nH]4)c(-c4ccccc4)c4nc(c(-c5ccccc5)c5ccc2[nH]5)C=C4)C=C3)cc1)N(C)C(=O)NC[C@H]1C[N@@H+]2CCC[C@@H]2CO1
REMARK SMILES IDX 6 1 5 2 3 3 4 4 2 6 1 7 61 8 62 9 63 10 64 11 65 12 66 14
REMARK SMILES IDX 67 15 68 16 75 17 69 18 74 19 70 20 73 21 71 23 72 24 7 25
REMARK SMILES IDX 8 26 9 27 10 28 11 29 12 31 13 32 14 33 60 34 15 35 59 36
REMARK SMILES IDX 16 37 17 38 18 39 53 40 19 41 58 42 52 43 54 44 20 45 57 46
REMARK SMILES IDX 51 47 50 48 21 50 43 51 28 52 42 53 29 54 32 55 41 56 55 57
REMARK SMILES IDX 30 58 31 59 40 61 56 62 33 63 22 64 23 65 27 66 24 67 26 68
REMARK SMILES IDX 25 69 44 70 45 71 49 72 46 73 48 74 47 75 34 76 35 77 39 78
REMARK SMILES IDX 36 79 38 80 37 81
REMARK H PARENT 5 5 65 13 69 22 10 30 54 49 32 60
REMARK Flexibility Score: inf
ROOT
ATOM      1  C   UNL A   1      35.674  21.370  25.668  1.00  0.00     0.116 C 
ENDROOT
BRANCH   1   2
ATOM      2  N   UNL A   1      34.538  20.476  25.694  1.00  0.00    -0.354 N 
ATOM      3  C   UNL A   1      33.241  20.699  25.324  1.00  0.00     0.242 C 
ATOM      4  O   UNL A   1      32.508  19.706  25.290  1.00  0.00    -0.273 OA
ATOM      5  H   UNL A   1      34.727  19.568  26.028  1.00  0.00     0.163 HD
BRANCH   3   6
ATOM      6  C   UNL A   1      32.789  22.115  24.865  1.00  0.00     0.172 C 
ATOM      7  C   UNL A   1      31.411  22.559  25.369  1.00  0.00     0.042 C 
BRANCH   6   8
ATOM      8  N   UNL A   1      32.915  22.249  23.392  1.00  0.00    -0.316 N 
ATOM      9  C   UNL A   1      32.157  21.296  22.604  1.00  0.00     0.149 C 
BRANCH   8  10
ATOM     10  C   UNL A   1      33.654  23.298  22.912  1.00  0.00     0.317 C 
ATOM     11  O   UNL A   1      34.864  23.201  22.690  1.00  0.00    -0.249 OA
ATOM     12  N   UNL A   1      33.126  24.495  22.620  1.00  0.00    -0.335 N 
ATOM     13  H   UNL A   1      33.820  25.117  22.302  1.00  0.00     0.165 HD
BRANCH  12  14
ATOM     14  C   UNL A   1      31.824  25.133  22.641  1.00  0.00     0.155 C 
BRANCH  14  15
ATOM     15  C   UNL A   1      31.839  26.668  22.813  1.00  0.00     0.192 C 
ATOM     16  C   UNL A   1      31.285  27.199  24.162  1.00  0.00     0.296 C 
ATOM     17  O   UNL A   1      33.187  27.114  22.516  1.00  0.00    -0.364 OA
ATOM     18  N   UNL A   1      32.233  27.052  25.276  1.00  0.00    -0.328 N 
ATOM     19  C   UNL A   1      33.698  28.060  23.461  1.00  0.00     0.225 C 
ATOM     20  C   UNL A   1      31.786  27.771  26.475  1.00  0.00     0.262 C 
ATOM     21  C   UNL A   1      33.577  27.547  24.906  1.00  0.00     0.210 C 
ATOM     22  H   UNL A   1      32.277  26.055  25.481  1.00  0.00     0.348 HD
ATOM     23  C   UNL A   1      33.065  28.257  27.131  1.00  0.00     0.068 C 
ATOM     24  C   UNL A   1      33.933  28.613  25.940  1.00  0.00     0.073 C 
ENDBRANCH  14  15
ENDBRANCH  12  14
ENDBRANCH   8  10
ENDBRANCH   6   8
ENDBRANCH   3   6
ENDBRANCH   1   2
BRANCH   1  25
ATOM     25  C   UNL A   1      36.629  21.036  24.523  1.00  0.00     0.023 C 
BRANCH  25  26
ATOM     26  C   UNL A   1      37.636  19.927  24.838  1.00  0.00     0.023 C 
BRANCH  26  27
ATOM     27  C   UNL A   1      38.754  20.322  25.794  1.00  0.00     0.116 C 
BRANCH  27  28
ATOM     28  N   UNL A   1      39.863  19.381  25.790  1.00  0.00    -0.352 N 
ATOM     29  C   UNL A   1      41.183  19.606  26.090  1.00  0.00     0.251 C 
ATOM     30  H   UNL A   1      39.636  18.457  25.539  1.00  0.00     0.163 HD
ATOM     31  O   UNL A   1      42.017  18.723  25.901  1.00  0.00    -0.269 OA
BRANCH  29  32
ATOM     32  C   UNL A   1      41.605  20.921  26.615  1.00  0.00     0.039 A 
ATOM     33  C   UNL A   1      42.042  21.899  25.719  1.00  0.00     0.014 A 
ATOM     34  C   UNL A   1      41.575  21.188  27.987  1.00  0.00     0.014 A 
ATOM     35  C   UNL A   1      42.416  23.156  26.196  1.00  0.00     0.010 A 
ATOM     36  C   UNL A   1      41.861  22.467  28.450  1.00  0.00     0.010 A 
ATOM     37  C   UNL A   1      42.311  23.457  27.564  1.00  0.00    -0.014 A 
BRANCH  37  38
ATOM     38  C   UNL A   1      42.720  24.782  28.091  1.00  0.00     0.031 A 
ATOM     39  C   UNL A   1      41.683  25.849  28.323  1.00  0.00     0.074 A 
ATOM     40  C   UNL A   1      44.020  25.044  28.324  1.00  0.00     0.049 A 
ATOM     41  N   UNL A   1      41.838  27.070  28.772  1.00  0.00    -0.248 NA
ATOM     42  C   UNL A   1      40.292  25.510  27.981  1.00  0.00     0.031 C 
ATOM     43  C   UNL A   1      45.127  24.110  28.105  1.00  0.00     0.029 A 
ATOM     44  N   UNL A   1      44.629  26.175  28.805  1.00  0.00    -0.354 N 
ATOM     45  C   UNL A   1      40.573  27.646  28.741  1.00  0.00     0.074 A 
ATOM     46  C   UNL A   1      39.675  26.665  28.175  1.00  0.00     0.031 C 
ATOM     47  C   UNL A   1      46.273  24.691  28.494  1.00  0.00     0.029 A 
ATOM     48  C   UNL A   1      45.989  26.048  28.950  1.00  0.00     0.049 A 
ATOM     49  H   UNL A   1      44.139  26.999  29.024  1.00  0.00     0.167 HD
ATOM     50  C   UNL A   1      40.186  28.872  29.166  1.00  0.00     0.031 A 
ATOM     51  C   UNL A   1      46.903  26.924  29.407  1.00  0.00     0.031 A 
ATOM     52  C   UNL A   1      41.078  29.843  29.742  1.00  0.00     0.049 A 
ATOM     53  C   UNL A   1      46.451  28.284  29.865  1.00  0.00     0.074 A 
ATOM     54  C   UNL A   1      40.777  31.089  30.261  1.00  0.00     0.029 A 
ATOM     55  N   UNL A   1      42.448  29.676  29.868  1.00  0.00    -0.354 N 
ATOM     56  N   UNL A   1      45.240  28.787  29.902  1.00  0.00    -0.248 NA
ATOM     57  C   UNL A   1      47.495  29.189  30.365  1.00  0.00     0.031 C 
ATOM     58  C   UNL A   1      41.974  31.701  30.645  1.00  0.00     0.029 A 
ATOM     59  C   UNL A   1      43.011  30.807  30.433  1.00  0.00     0.049 A 
ATOM     60  H   UNL A   1      42.948  28.872  29.595  1.00  0.00     0.167 HD
ATOM     61  C   UNL A   1      45.371  30.048  30.469  1.00  0.00     0.074 A 
ATOM     62  C   UNL A   1      46.778  30.228  30.768  1.00  0.00     0.031 C 
ATOM     63  C   UNL A   1      44.412  30.971  30.728  1.00  0.00     0.031 A 
BRANCH  50  64
ATOM     64  C   UNL A   1      38.734  29.232  29.003  1.00  0.00    -0.014 A 
ATOM     65  C   UNL A   1      38.235  29.750  27.796  1.00  0.00     0.009 A 
ATOM     66  C   UNL A   1      37.845  29.037  30.072  1.00  0.00     0.009 A 
ATOM     67  C   UNL A   1      36.892  30.115  27.681  1.00  0.00     0.001 A 
ATOM     68  C   UNL A   1      36.495  29.368  29.943  1.00  0.00     0.001 A 
ATOM     69  C   UNL A   1      36.023  29.921  28.754  1.00  0.00     0.000 A 
ENDBRANCH  50  64
BRANCH  51  70
ATOM     70  C   UNL A   1      48.335  26.532  29.498  1.00  0.00    -0.014 A 
ATOM     71  C   UNL A   1      49.212  26.800  28.436  1.00  0.00     0.009 A 
ATOM     72  C   UNL A   1      48.831  25.883  30.639  1.00  0.00     0.009 A 
ATOM     73  C   UNL A   1      50.548  26.398  28.501  1.00  0.00     0.001 A 
ATOM     74  C   UNL A   1      50.174  25.509  30.714  1.00  0.00     0.001 A 
ATOM     75  C   UNL A   1      51.029  25.757  29.641  1.00  0.00     0.000 A 
ENDBRANCH  51  70
BRANCH  63  76
ATOM     76  C   UNL A   1      44.842  32.234  31.425  1.00  0.00    -0.014 A 
ATOM     77  C   UNL A   1      44.872  32.333  32.825  1.00  0.00     0.009 A 
ATOM     78  C   UNL A   1      45.251  33.336  30.657  1.00  0.00     0.009 A 
ATOM     79  C   UNL A   1      45.259  33.527  33.439  1.00  0.00     0.001 A 
ATOM     80  C   UNL A   1      45.672  34.515  31.274  1.00  0.00     0.001 A 
ATOM     81  C   UNL A   1      45.662  34.614  32.663  1.00  0.00     0.000 A 
ENDBRANCH  63  76
ENDBRANCH  37  38
ENDBRANCH  29  32
ENDBRANCH  27  28
ENDBRANCH  26  27
ENDBRANCH  25  26
ENDBRANCH   1  25
TORSDOF 15
ENDMDL
MODEL 2
REMARK VINA RESULT:     -10.5      0.805      5.967
REMARK SMILES C[C@@H](C(=O)NCCCCNC(=O)c1ccc(-c2c3nc(c(-c4ccccc4)c4ccc([nH]4)c(-c4ccccc4)c4nc(c(-c5ccccc5)c5ccc2[nH]5)C=C4)C=C3)cc1)N(C)C(=O)NC[C@H]1C[N@@H+]2CCC[C@@H]2CO1
REMARK SMILES IDX 6 1 5 2 3 3 4 4 2 6 1 7 61 8 62 9 63 10 64 11 65 12 66 14
REMARK SMILES IDX 67 15 68 16 75 17 69 18 74 19 70 20 73 21 71 23 72 24 7 25
REMARK SMILES IDX 8 26 9 27 10 28 11 29 12 31 13 32 14 33 60 34 15 35 59 36
REMARK SMILES IDX 16 37 17 38 18 39 53 40 19 41 58 42 52 43 54 44 20 45 57 46
REMARK SMILES IDX 51 47 50 48 21 50 43 51 28 52 42 53 29 54 32 55 41 56 55 57
REMARK SMILES IDX 30 58 31 59 40 61 56 62 33 63 22 64 23 65 27 66 24 67 26 68
REMARK SMILES IDX 25 69 44 70 45 71 49 72 46 73 48 74 47 75 34 76 35 77 39 78
REMARK SMILES IDX 36 79 38 80 37 81
REMARK H PARENT 5 5 65 13 69 22 10 30 54 49 32 60
REMARK Flexibility Score: inf
ROOT
ATOM      1  C   UNL A   1      37.116  22.757  25.740  1.00  0.00     0.116 C 
ENDROOT
BRANCH   1   2
ATOM      2  N   UNL A   1      36.130  21.942  26.415  1.00  0.00    -0.354 N 
ATOM      3  C   UNL A   1      34.765  22.006  26.371  1.00  0.00     0.242 C 
ATOM      4  O   UNL A   1      34.160  21.077  26.915  1.00  0.00    -0.273 OA
ATOM      5  H   UNL A   1      36.497  21.233  26.992  1.00  0.00     0.163 HD
BRANCH   3   6
ATOM      6  C   UNL A   1      34.058  23.137  25.569  1.00  0.00     0.172 C 
ATOM      7  C   UNL A   1      32.819  23.740  26.241  1.00  0.00     0.042 C 
BRANCH   6   8
ATOM      8  N   UNL A   1      33.781  22.694  24.180  1.00  0.00    -0.316 N 
ATOM      9  C   UNL A   1      32.920  21.533  24.047  1.00  0.00     0.149 C 
BRANCH   8  10
ATOM     10  C   UNL A   1      34.281  23.458  23.160  1.00  0.00     0.317 C 
ATOM     11  O   UNL A   1      35.439  23.332  22.752  1.00  0.00    -0.249 OA
ATOM     12  N   UNL A   1      33.554  24.377  22.507  1.00  0.00    -0.335 N 
ATOM     13  H   UNL A   1      34.095  24.828  21.818  1.00  0.00     0.165 HD
BRANCH  12  14
ATOM     14  C   UNL A   1      32.200  24.894  22.527  1.00  0.00     0.155 C 
BRANCH  14  15
ATOM     15  C   UNL A   1      32.077  26.430  22.635  1.00  0.00     0.192 C 
ATOM     16  C   UNL A   1      31.426  26.962  23.940  1.00  0.00     0.296 C 
ATOM     17  O   UNL A   1      33.393  26.980  22.370  1.00  0.00    -0.364 OA
ATOM     18  N   UNL A   1      32.337  26.942  25.093  1.00  0.00    -0.328 N 
ATOM     19  C   UNL A   1      33.783  28.002  23.293  1.00  0.00     0.225 C 
ATOM     20  C   UNL A   1      31.782  27.665  26.244  1.00  0.00     0.262 C 
ATOM     21  C   UNL A   1      33.648  27.537  24.753  1.00  0.00     0.210 C 
ATOM     22  H   UNL A   1      32.458  25.961  25.341  1.00  0.00     0.348 HD
ATOM     23  C   UNL A   1      32.987  28.285  26.925  1.00  0.00     0.068 C 
ATOM     24  C   UNL A   1      33.870  28.669  25.753  1.00  0.00     0.073 C 
ENDBRANCH  14  15
ENDBRANCH  12  14
ENDBRANCH   8  10
ENDBRANCH   6   8
ENDBRANCH   3   6
ENDBRANCH   1   2
BRANCH   1  25
ATOM     25  C   UNL A   1      38.532  22.233  25.966  1.00  0.00     0.023 C 
BRANCH  25  26
ATOM     26  C   UNL A   1      38.836  20.902  25.275  1.00  0.00     0.023 C 
BRANCH  26  27
ATOM     27  C   UNL A   1      39.271  19.776  26.204  1.00  0.00     0.116 C 
BRANCH  27  28
ATOM     28  N   UNL A   1      40.506  19.136  25.781  1.00  0.00    -0.352 N 
ATOM     29  C   UNL A   1      41.779  19.649  25.760  1.00  0.00     0.251 C 
ATOM     30  H   UNL A   1      40.417  18.207  25.467  1.00  0.00     0.163 HD
ATOM     31  O   UNL A   1      42.692  19.012  25.238  1.00  0.00    -0.269 OA
BRANCH  29  32
ATOM     32  C   UNL A   1      42.045  20.980  26.342  1.00  0.00     0.039 A 
ATOM     33  C   UNL A   1      42.345  22.044  25.487  1.00  0.00     0.014 A 
ATOM     34  C   UNL A   1      42.006  21.180  27.725  1.00  0.00     0.014 A 
ATOM     35  C   UNL A   1      42.570  23.315  26.019  1.00  0.00     0.010 A 
ATOM     36  C   UNL A   1      42.140  22.463  28.244  1.00  0.00     0.010 A 
ATOM     37  C   UNL A   1      42.451  23.539  27.400  1.00  0.00    -0.014 A 
BRANCH  37  38
ATOM     38  C   UNL A   1      42.703  24.880  27.984  1.00  0.00     0.031 A 
ATOM     39  C   UNL A   1      44.097  25.267  28.399  1.00  0.00     0.074 A 
ATOM     40  C   UNL A   1      41.679  25.733  28.179  1.00  0.00     0.049 A 
ATOM     41  N   UNL A   1      44.521  26.386  28.932  1.00  0.00    -0.248 NA
ATOM     42  C   UNL A   1      45.150  24.255  28.216  1.00  0.00     0.031 C 
ATOM     43  C   UNL A   1      40.276  25.466  27.856  1.00  0.00     0.029 A 
ATOM     44  N   UNL A   1      41.666  27.005  28.693  1.00  0.00    -0.354 N 
ATOM     45  C   UNL A   1      45.878  26.200  29.168  1.00  0.00     0.074 A 
ATOM     46  C   UNL A   1      46.194  24.844  28.778  1.00  0.00     0.031 C 
ATOM     47  C   UNL A   1      39.547  26.557  28.136  1.00  0.00     0.029 A 
ATOM     48  C   UNL A   1      40.420  27.584  28.694  1.00  0.00     0.049 A 
ATOM     49  H   UNL A   1      42.472  27.459  29.028  1.00  0.00     0.167 HD
ATOM     50  C   UNL A   1      46.788  27.083  29.645  1.00  0.00     0.031 A 
ATOM     51  C   UNL A   1      40.028  28.809  29.094  1.00  0.00     0.031 A 
ATOM     52  C   UNL A   1      46.476  28.436  30.022  1.00  0.00     0.049 A 
ATOM     53  C   UNL A   1      41.055  29.769  29.629  1.00  0.00     0.074 A 
ATOM     54  C   UNL A   1      47.334  29.429  30.457  1.00  0.00     0.029 A 
ATOM     55  N   UNL A   1      45.201  28.982  30.011  1.00  0.00    -0.354 N 
ATOM     56  N   UNL A   1      42.348  29.606  29.774  1.00  0.00    -0.248 NA
ATOM     57  C   UNL A   1      40.565  31.094  30.036  1.00  0.00     0.031 C 
ATOM     58  C   UNL A   1      46.570  30.558  30.768  1.00  0.00     0.029 A 
ATOM     59  C   UNL A   1      45.246  30.291  30.457  1.00  0.00     0.049 A 
ATOM     60  H   UNL A   1      44.385  28.508  29.729  1.00  0.00     0.167 HD
ATOM     61  C   UNL A   1      42.833  30.819  30.247  1.00  0.00     0.074 A 
ATOM     62  C   UNL A   1      41.695  31.710  30.354  1.00  0.00     0.031 C 
ATOM     63  C   UNL A   1      44.106  31.167  30.555  1.00  0.00     0.031 A 
BRANCH  50  64
ATOM     64  C   UNL A   1      48.204  26.597  29.803  1.00  0.00    -0.014 A 
ATOM     65  C   UNL A   1      49.161  26.778  28.791  1.00  0.00     0.009 A 
ATOM     66  C   UNL A   1      48.590  25.956  30.990  1.00  0.00     0.009 A 
ATOM     67  C   UNL A   1      50.457  26.283  28.942  1.00  0.00     0.001 A 
ATOM     68  C   UNL A   1      49.897  25.493  31.154  1.00  0.00     0.001 A 
ATOM     69  C   UNL A   1      50.825  25.643  30.125  1.00  0.00     0.000 A 
ENDBRANCH  50  64
BRANCH  51  70
ATOM     70  C   UNL A   1      38.605  29.217  28.963  1.00  0.00    -0.014 A 
ATOM     71  C   UNL A   1      37.734  29.114  30.059  1.00  0.00     0.009 A 
ATOM     72  C   UNL A   1      38.105  29.703  27.746  1.00  0.00     0.009 A 
ATOM     73  C   UNL A   1      36.387  29.460  29.931  1.00  0.00     0.001 A 
ATOM     74  C   UNL A   1      36.765  30.077  27.628  1.00  0.00     0.001 A 
ATOM     75  C   UNL A   1      35.904  29.945  28.717  1.00  0.00     0.000 A 
ENDBRANCH  51  70
BRANCH  63  76
ATOM     76  C   UNL A   1      44.347  32.592  30.978  1.00  0.00    -0.014 A 
ATOM     77  C   UNL A   1      44.318  32.977  32.327  1.00  0.00     0.009 A 
ATOM     78  C   UNL A   1      44.637  33.558  30.001  1.00  0.00     0.009 A 
ATOM     79  C   UNL A   1      44.528  34.313  32.683  1.00  0.00     0.001 A 
ATOM     80  C   UNL A   1      44.882  34.883  30.363  1.00  0.00     0.001 A 
ATOM     81  C   UNL A   1      44.814  35.261  31.702  1.00  0.00     0.000 A 
ENDBRANCH  63  76
ENDBRANCH  37  38
ENDBRANCH  29  32
ENDBRANCH  27  28
ENDBRANCH  26  27
ENDBRANCH  25  26
ENDBRANCH   1  25
TORSDOF 15
ENDMDL
MODEL 3
REMARK VINA RESULT:     -10.1      3.234      8.850
REMARK SMILES C[C@@H](C(=O)NCCCCNC(=O)c1ccc(-c2c3nc(c(-c4ccccc4)c4ccc([nH]4)c(-c4ccccc4)c4nc(c(-c5ccccc5)c5ccc2[nH]5)C=C4)C=C3)cc1)N(C)C(=O)NC[C@H]1C[N@@H+]2CCC[C@@H]2CO1
REMARK SMILES IDX 6 1 5 2 3 3 4 4 2 6 1 7 61 8 62 9 63 10 64 11 65 12 66 14
REMARK SMILES IDX 67 15 68 16 75 17 69 18 74 19 70 20 73 21 71 23 72 24 7 25
REMARK SMILES IDX 8 26 9 27 10 28 11 29 12 31 13 32 14 33 60 34 15 35 59 36
REMARK SMILES IDX 16 37 17 38 18 39 53 40 19 41 58 42 52 43 54 44 20 45 57 46
REMARK SMILES IDX 51 47 50 48 21 50 43 51 28 52 42 53 29 54 32 55 41 56 55 57
REMARK SMILES IDX 30 58 31 59 40 61 56 62 33 63 22 64 23 65 27 66 24 67 26 68
REMARK SMILES IDX 25 69 44 70 45 71 49 72 46 73 48 74 47 75 34 76 35 77 39 78
REMARK SMILES IDX 36 79 38 80 37 81
REMARK H PARENT 5 5 65 13 69 22 10 30 54 49 32 60
REMARK Flexibility Score: inf
ROOT
ATOM      1  C   UNL A   1      33.762  29.896  27.013  1.00  0.00     0.116 C 
ENDROOT
BRANCH   1   2
ATOM      2  N   UNL A   1      32.724  30.076  26.022  1.00  0.00    -0.354 N 
ATOM      3  C   UNL A   1      32.221  29.189  25.111  1.00  0.00     0.242 C 
ATOM      4  O   UNL A   1      31.216  29.555  24.494  1.00  0.00    -0.273 OA
ATOM      5  H   UNL A   1      32.316  30.973  26.001  1.00  0.00     0.163 HD
BRANCH   3   6
ATOM      6  C   UNL A   1      32.839  27.767  24.977  1.00  0.00     0.172 C 
ATOM      7  C   UNL A   1      33.696  27.540  23.727  1.00  0.00     0.042 C 
BRANCH   6   8
ATOM      8  N   UNL A   1      31.790  26.729  25.133  1.00  0.00    -0.316 N 
ATOM      9  C   UNL A   1      31.329  26.108  23.906  1.00  0.00     0.149 C 
BRANCH   8  10
ATOM     10  C   UNL A   1      31.418  26.389  26.407  1.00  0.00     0.317 C 
ATOM     11  O   UNL A   1      31.499  27.184  27.348  1.00  0.00    -0.249 OA
ATOM     12  N   UNL A   1      30.915  25.189  26.730  1.00  0.00    -0.335 N 
ATOM     13  H   UNL A   1      30.723  25.136  27.694  1.00  0.00     0.165 HD
BRANCH  12  14
ATOM     14  C   UNL A   1      30.574  23.948  26.062  1.00  0.00     0.155 C 
BRANCH  14  15
ATOM     15  C   UNL A   1      31.598  22.803  26.225  1.00  0.00     0.192 C 
ATOM     16  C   UNL A   1      32.571  22.597  25.033  1.00  0.00     0.296 C 
ATOM     17  O   UNL A   1      32.266  23.010  27.496  1.00  0.00    -0.364 OA
ATOM     18  N   UNL A   1      33.660  23.583  24.995  1.00  0.00    -0.328 N 
ATOM     19  C   UNL A   1      33.687  22.855  27.429  1.00  0.00     0.225 C 
ATOM     20  C   UNL A   1      34.689  23.226  24.011  1.00  0.00     0.262 C 
ATOM     21  C   UNL A   1      34.305  23.722  26.319  1.00  0.00     0.210 C 
ATOM     22  H   UNL A   1      33.232  24.468  24.725  1.00  0.00     0.348 HD
ATOM     23  C   UNL A   1      35.990  23.710  24.623  1.00  0.00     0.068 C 
ATOM     24  C   UNL A   1      35.787  23.428  26.100  1.00  0.00     0.073 C 
ENDBRANCH  14  15
ENDBRANCH  12  14
ENDBRANCH   8  10
ENDBRANCH   6   8
ENDBRANCH   3   6
ENDBRANCH   1   2
BRANCH   1  25
ATOM     25  C   UNL A   1      34.183  31.224  27.638  1.00  0.00     0.023 C 
BRANCH  25  26
ATOM     26  C   UNL A   1      33.049  32.239  27.800  1.00  0.00     0.023 C 
BRANCH  26  27
ATOM     27  C   UNL A   1      33.469  33.699  27.694  1.00  0.00     0.116 C 
BRANCH  27  28
ATOM     28  N   UNL A   1      33.097  34.482  28.861  1.00  0.00    -0.352 N 
ATOM     29  C   UNL A   1      33.689  34.517  30.099  1.00  0.00     0.251 C 
ATOM     30  H   UNL A   1      32.315  35.069  28.748  1.00  0.00     0.163 HD
ATOM     31  O   UNL A   1      33.159  35.137  31.019  1.00  0.00    -0.269 OA
BRANCH  29  32
ATOM     32  C   UNL A   1      34.951  33.786  30.332  1.00  0.00     0.039 A 
ATOM     33  C   UNL A   1      34.955  32.711  31.224  1.00  0.00     0.014 A 
ATOM     34  C   UNL A   1      36.129  34.162  29.679  1.00  0.00     0.014 A 
ATOM     35  C   UNL A   1      36.133  31.992  31.433  1.00  0.00     0.010 A 
ATOM     36  C   UNL A   1      37.275  33.388  29.819  1.00  0.00     0.010 A 
ATOM     37  C   UNL A   1      37.298  32.313  30.718  1.00  0.00    -0.014 A 
BRANCH  37  38
ATOM     38  C   UNL A   1      38.563  31.569  30.940  1.00  0.00     0.031 A 
ATOM     39  C   UNL A   1      39.557  32.066  31.955  1.00  0.00     0.074 A 
ATOM     40  C   UNL A   1      38.839  30.474  30.206  1.00  0.00     0.049 A 
ATOM     41  N   UNL A   1      40.719  31.563  32.291  1.00  0.00    -0.248 NA
ATOM     42  C   UNL A   1      39.215  33.307  32.669  1.00  0.00     0.031 C 
ATOM     43  C   UNL A   1      37.978  29.910  29.164  1.00  0.00     0.029 A 
ATOM     44  N   UNL A   1      39.924  29.634  30.231  1.00  0.00    -0.354 N 
ATOM     45  C   UNL A   1      41.251  32.437  33.232  1.00  0.00     0.074 A 
ATOM     46  C   UNL A   1      40.316  33.531  33.369  1.00  0.00     0.031 C 
ATOM     47  C   UNL A   1      38.546  28.793  28.684  1.00  0.00     0.029 A 
ATOM     48  C   UNL A   1      39.827  28.584  29.351  1.00  0.00     0.049 A 
ATOM     49  H   UNL A   1      40.698  29.772  30.823  1.00  0.00     0.167 HD
ATOM     50  C   UNL A   1      42.402  32.331  33.937  1.00  0.00     0.031 A 
ATOM     51  C   UNL A   1      40.673  27.563  29.115  1.00  0.00     0.031 A 
ATOM     52  C   UNL A   1      43.326  31.236  33.810  1.00  0.00     0.049 A 
ATOM     53  C   UNL A   1      41.950  27.471  29.905  1.00  0.00     0.074 A 
ATOM     54  C   UNL A   1      44.489  31.002  34.522  1.00  0.00     0.029 A 
ATOM     55  N   UNL A   1      43.193  30.195  32.905  1.00  0.00    -0.354 N 
ATOM     56  N   UNL A   1      42.402  28.264  30.846  1.00  0.00    -0.248 NA
ATOM     57  C   UNL A   1      42.823  26.327  29.609  1.00  0.00     0.031 C 
ATOM     58  C   UNL A   1      45.091  29.850  34.005  1.00  0.00     0.029 A 
ATOM     59  C   UNL A   1      44.265  29.328  33.022  1.00  0.00     0.049 A 
ATOM     60  H   UNL A   1      42.445  30.087  32.272  1.00  0.00     0.167 HD
ATOM     61  C   UNL A   1      43.590  27.692  31.286  1.00  0.00     0.074 A 
ATOM     62  C   UNL A   1      43.780  26.480  30.514  1.00  0.00     0.031 C 
ATOM     63  C   UNL A   1      44.440  28.124  32.249  1.00  0.00     0.031 A 
BRANCH  50  64
ATOM     64  C   UNL A   1      42.728  33.445  34.896  1.00  0.00    -0.014 A 
ATOM     65  C   UNL A   1      43.474  34.566  34.495  1.00  0.00     0.009 A 
ATOM     66  C   UNL A   1      42.271  33.377  36.221  1.00  0.00     0.009 A 
ATOM     67  C   UNL A   1      43.800  35.567  35.412  1.00  0.00     0.001 A 
ATOM     68  C   UNL A   1      42.567  34.397  37.128  1.00  0.00     0.001 A 
ATOM     69  C   UNL A   1      43.343  35.484  36.727  1.00  0.00     0.000 A 
ENDBRANCH  50  64
BRANCH  51  70
ATOM     70  C   UNL A   1      40.322  26.518  28.119  1.00  0.00    -0.014 A 
ATOM     71  C   UNL A   1      39.484  25.450  28.476  1.00  0.00     0.009 A 
ATOM     72  C   UNL A   1      40.826  26.573  26.811  1.00  0.00     0.009 A 
ATOM     73  C   UNL A   1      39.183  24.444  27.555  1.00  0.00     0.001 A 
ATOM     74  C   UNL A   1      40.500  25.582  25.882  1.00  0.00     0.001 A 
ATOM     75  C   UNL A   1      39.688  24.513  26.258  1.00  0.00     0.000 A 
ENDBRANCH  51  70
BRANCH  63  76
ATOM     76  C   UNL A   1      45.623  27.249  32.566  1.00  0.00    -0.014 A 
ATOM     77  C   UNL A   1      45.548  26.220  33.517  1.00  0.00     0.009 A 
ATOM     78  C   UNL A   1      46.828  27.447  31.873  1.00  0.00     0.009 A 
ATOM     79  C   UNL A   1      46.672  25.438  33.801  1.00  0.00     0.001 A 
ATOM     80  C   UNL A   1      47.937  26.642  32.133  1.00  0.00     0.001 A 
ATOM     81  C   UNL A   1      47.862  25.647  33.105  1.00  0.00     0.000 A 
ENDBRANCH  63  76
ENDBRANCH  37  38
ENDBRANCH  29  32
ENDBRANCH  27  28
ENDBRANCH  26  27
ENDBRANCH  25  26
ENDBRANCH   1  25
TORSDOF 15
ENDMDL
