MODEL 1
REMARK VINA RESULT:     -10.7      0.000      0.000
REMARK SMILES CC(C)[NH2+]CC[C@H](c1ccccc1)c1cc(C(=O)NCCCCNC(=O)c2ccc(-c3c4nc(c(-c5ccccc5)c5ccc([nH]5)c(-c5ccccc5)c5nc(c(-c6ccccc6)c6ccc3[nH]6)C=C5)C=C4)cc2)ccc1O
REMARK SMILES IDX 20 1 19 2 17 3 18 4 16 6 14 7 15 8 77 9 76 10 75 11 7 12
REMARK SMILES IDX 6 13 5 14 4 15 2 18 1 19 3 20 8 21 9 22 13 23 10 24 12 25
REMARK SMILES IDX 11 26 78 27 21 29 22 30 23 31 24 32 25 33 26 35 27 36 28 37
REMARK SMILES IDX 74 38 29 39 73 40 30 41 31 42 32 43 67 44 33 45 72 46 66 47
REMARK SMILES IDX 68 48 34 49 71 50 65 51 64 52 35 54 57 55 42 56 56 57 43 58
REMARK SMILES IDX 46 59 55 60 69 61 44 62 45 63 54 65 70 66 47 67 36 68 37 69
REMARK SMILES IDX 41 70 38 71 40 72 39 73 58 74 59 75 63 76 60 77 62 78 61 79
REMARK SMILES IDX 48 80 49 81 53 82 50 83 52 84 51 85
REMARK H PARENT 19 5 4 16 4 17 78 28 24 34 68 53 46 64
REMARK Flexibility Score: inf
ROOT
ATOM      1  C   UNL A   1      35.005  29.688  27.639  1.00  0.00     0.116 C 
ENDROOT
BRANCH   1   2
ATOM      2  N   UNL A   1      33.675  29.152  27.868  1.00  0.00    -0.352 N 
ATOM      3  C   UNL A   1      32.840  28.454  27.029  1.00  0.00     0.251 C 
ATOM      4  O   UNL A   1      31.747  28.084  27.453  1.00  0.00    -0.269 OA
ATOM      5  H   UNL A   1      33.314  29.314  28.769  1.00  0.00     0.163 HD
BRANCH   3   6
ATOM      6  C   UNL A   1      33.189  28.212  25.608  1.00  0.00     0.040 A 
ATOM      7  C   UNL A   1      33.640  26.508  23.882  1.00  0.00     0.002 A 
ATOM      8  C   UNL A   1      33.413  26.879  25.220  1.00  0.00     0.022 A 
ATOM      9  C   UNL A   1      33.613  27.555  22.938  1.00  0.00     0.119 A 
ATOM     10  C   UNL A   1      33.464  28.893  23.327  1.00  0.00     0.047 A 
ATOM     11  C   UNL A   1      33.283  29.227  24.665  1.00  0.00     0.017 A 
BRANCH   7  12
ATOM     12  C   UNL A   1      33.794  25.030  23.491  1.00  0.00     0.059 C 
BRANCH  12  13
ATOM     13  C   UNL A   1      32.419  24.318  23.311  1.00  0.00     0.074 C 
BRANCH  13  14
ATOM     14  C   UNL A   1      31.957  23.213  24.273  1.00  0.00     0.261 C 
BRANCH  14  15
ATOM     15  N   UNL A   1      30.641  23.329  24.863  1.00  0.00    -0.344 N 
ATOM     16  H   UNL A   1      30.039  23.761  24.163  1.00  0.00     0.346 HD
ATOM     17  H   UNL A   1      30.419  22.371  25.140  1.00  0.00     0.346 HD
BRANCH  15  18
ATOM     18  C   UNL A   1      30.466  24.087  26.096  1.00  0.00     0.176 C 
ATOM     19  C   UNL A   1      31.804  24.028  26.847  1.00  0.00     0.075 C 
ATOM     20  C   UNL A   1      30.025  25.539  25.934  1.00  0.00     0.075 C 
ENDBRANCH  15  18
ENDBRANCH  14  15
ENDBRANCH  13  14
ENDBRANCH  12  13
BRANCH  12  21
ATOM     21  C   UNL A   1      34.950  24.226  24.099  1.00  0.00    -0.040 A 
ATOM     22  C   UNL A   1      35.400  24.343  25.423  1.00  0.00     0.004 A 
ATOM     23  C   UNL A   1      35.621  23.294  23.281  1.00  0.00     0.004 A 
ATOM     24  C   UNL A   1      36.447  23.554  25.915  1.00  0.00     0.000 A 
ATOM     25  C   UNL A   1      36.684  22.521  23.763  1.00  0.00     0.000 A 
ATOM     26  C   UNL A   1      37.091  22.646  25.084  1.00  0.00     0.000 A 
ENDBRANCH  12  21
ENDBRANCH   7  12
BRANCH   9  27
ATOM     27  O   UNL A   1      33.702  27.394  21.583  1.00  0.00    -0.508 OA
ATOM     28  H   UNL A   1      33.733  26.533  21.215  1.00  0.00     0.293 HD
ENDBRANCH   9  27
ENDBRANCH   3   6
ENDBRANCH   1   2
BRANCH   1  29
ATOM     29  C   UNL A   1      35.128  31.191  27.875  1.00  0.00     0.023 C 
BRANCH  29  30
ATOM     30  C   UNL A   1      33.829  31.983  27.989  1.00  0.00     0.023 C 
BRANCH  30  31
ATOM     31  C   UNL A   1      33.933  33.494  27.830  1.00  0.00     0.116 C 
BRANCH  31  32
ATOM     32  N   UNL A   1      33.377  34.245  28.944  1.00  0.00    -0.352 N 
ATOM     33  C   UNL A   1      33.817  34.355  30.241  1.00  0.00     0.251 C 
ATOM     34  H   UNL A   1      32.560  34.752  28.736  1.00  0.00     0.163 HD
ATOM     35  O   UNL A   1      33.163  35.002  31.055  1.00  0.00    -0.269 OA
BRANCH  33  36
ATOM     36  C   UNL A   1      35.048  33.659  30.679  1.00  0.00     0.039 A 
ATOM     37  C   UNL A   1      34.929  32.564  31.538  1.00  0.00     0.014 A 
ATOM     38  C   UNL A   1      36.309  34.066  30.237  1.00  0.00     0.014 A 
ATOM     39  C   UNL A   1      36.062  31.823  31.884  1.00  0.00     0.010 A 
ATOM     40  C   UNL A   1      37.424  33.282  30.516  1.00  0.00     0.010 A 
ATOM     41  C   UNL A   1      37.313  32.149  31.338  1.00  0.00    -0.014 A 
BRANCH  41  42
ATOM     42  C   UNL A   1      38.522  31.332  31.610  1.00  0.00     0.031 A 
ATOM     43  C   UNL A   1      39.444  31.711  32.736  1.00  0.00     0.074 A 
ATOM     44  C   UNL A   1      38.841  30.307  30.796  1.00  0.00     0.049 A 
ATOM     45  N   UNL A   1      40.614  31.213  33.050  1.00  0.00    -0.248 NA
ATOM     46  C   UNL A   1      39.008  32.816  33.604  1.00  0.00     0.031 C 
ATOM     47  C   UNL A   1      38.052  29.852  29.649  1.00  0.00     0.029 A 
ATOM     48  N   UNL A   1      39.931  29.470  30.800  1.00  0.00    -0.354 N 
ATOM     49  C   UNL A   1      41.065  31.966  34.126  1.00  0.00     0.074 A 
ATOM     50  C   UNL A   1      40.063  32.976  34.388  1.00  0.00     0.031 C 
ATOM     51  C   UNL A   1      38.674  28.810  29.073  1.00  0.00     0.029 A 
ATOM     52  C   UNL A   1      39.923  28.550  29.780  1.00  0.00     0.049 A 
ATOM     53  H   UNL A   1      40.649  29.526  31.471  1.00  0.00     0.167 HD
ATOM     54  C   UNL A   1      42.204  31.823  34.843  1.00  0.00     0.031 A 
ATOM     55  C   UNL A   1      40.827  27.611  29.444  1.00  0.00     0.031 A 
ATOM     56  C   UNL A   1      43.189  30.804  34.605  1.00  0.00     0.049 A 
ATOM     57  C   UNL A   1      42.081  27.466  30.259  1.00  0.00     0.074 A 
ATOM     58  C   UNL A   1      44.350  30.543  35.313  1.00  0.00     0.029 A 
ATOM     59  N   UNL A   1      43.125  29.871  33.582  1.00  0.00    -0.354 N 
ATOM     60  N   UNL A   1      42.471  28.156  31.303  1.00  0.00    -0.248 NA
ATOM     61  C   UNL A   1      43.016  26.405  29.856  1.00  0.00     0.031 C 
ATOM     62  C   UNL A   1      45.006  29.474  34.697  1.00  0.00     0.029 A 
ATOM     63  C   UNL A   1      44.230  29.039  33.634  1.00  0.00     0.049 A 
ATOM     64  H   UNL A   1      42.401  29.809  32.918  1.00  0.00     0.167 HD
ATOM     65  C   UNL A   1      43.677  27.594  31.700  1.00  0.00     0.074 A 
ATOM     66  C   UNL A   1      43.951  26.501  30.789  1.00  0.00     0.031 C 
ATOM     67  C   UNL A   1      44.481  27.949  32.730  1.00  0.00     0.031 A 
BRANCH  54  68
ATOM     68  C   UNL A   1      42.446  32.805  35.955  1.00  0.00    -0.014 A 
ATOM     69  C   UNL A   1      41.994  32.552  37.260  1.00  0.00     0.009 A 
ATOM     70  C   UNL A   1      43.157  33.988  35.699  1.00  0.00     0.009 A 
ATOM     71  C   UNL A   1      42.214  33.482  38.277  1.00  0.00     0.001 A 
ATOM     72  C   UNL A   1      43.400  34.903  36.725  1.00  0.00     0.001 A 
ATOM     73  C   UNL A   1      42.920  34.655  38.009  1.00  0.00     0.000 A 
ENDBRANCH  54  68
BRANCH  55  74
ATOM     74  C   UNL A   1      40.574  26.715  28.284  1.00  0.00    -0.014 A 
ATOM     75  C   UNL A   1      39.781  25.568  28.436  1.00  0.00     0.009 A 
ATOM     76  C   UNL A   1      41.127  26.998  27.026  1.00  0.00     0.009 A 
ATOM     77  C   UNL A   1      39.568  24.707  27.357  1.00  0.00     0.001 A 
ATOM     78  C   UNL A   1      40.890  26.150  25.942  1.00  0.00     0.001 A 
ATOM     79  C   UNL A   1      40.119  25.001  26.110  1.00  0.00     0.000 A 
ENDBRANCH  55  74
BRANCH  67  80
ATOM     80  C   UNL A   1      45.710  27.118  32.964  1.00  0.00    -0.014 A 
ATOM     81  C   UNL A   1      45.669  25.962  33.756  1.00  0.00     0.009 A 
ATOM     82  C   UNL A   1      46.913  27.472  32.333  1.00  0.00     0.009 A 
ATOM     83  C   UNL A   1      46.819  25.188  33.932  1.00  0.00     0.001 A 
ATOM     84  C   UNL A   1      48.053  26.685  32.492  1.00  0.00     0.001 A 
ATOM     85  C   UNL A   1      48.007  25.547  33.296  1.00  0.00     0.000 A 
ENDBRANCH  67  80
ENDBRANCH  41  42
ENDBRANCH  33  36
ENDBRANCH  31  32
ENDBRANCH  30  31
ENDBRANCH  29  30
ENDBRANCH   1  29
TORSDOF 18
ENDMDL
MODEL 2
REMARK VINA RESULT:     -10.5      3.740      8.638
REMARK SMILES CC(C)[NH2+]CC[C@H](c1ccccc1)c1cc(C(=O)NCCCCNC(=O)c2ccc(-c3c4nc(c(-c5ccccc5)c5ccc([nH]5)c(-c5ccccc5)c5nc(c(-c6ccccc6)c6ccc3[nH]6)C=C5)C=C4)cc2)ccc1O
REMARK SMILES IDX 20 1 19 2 17 3 18 4 16 6 14 7 15 8 77 9 76 10 75 11 7 12
REMARK SMILES IDX 6 13 5 14 4 15 2 18 1 19 3 20 8 21 9 22 13 23 10 24 12 25
REMARK SMILES IDX 11 26 78 27 21 29 22 30 23 31 24 32 25 33 26 35 27 36 28 37
REMARK SMILES IDX 74 38 29 39 73 40 30 41 31 42 32 43 67 44 33 45 72 46 66 47
REMARK SMILES IDX 68 48 34 49 71 50 65 51 64 52 35 54 57 55 42 56 56 57 43 58
REMARK SMILES IDX 46 59 55 60 69 61 44 62 45 63 54 65 70 66 47 67 36 68 37 69
REMARK SMILES IDX 41 70 38 71 40 72 39 73 58 74 59 75 63 76 60 77 62 78 61 79
REMARK SMILES IDX 48 80 49 81 53 82 50 83 52 84 51 85
REMARK H PARENT 19 5 4 16 4 17 78 28 24 34 68 53 46 64
REMARK Flexibility Score: inf
ROOT
ATOM      1  C   UNL A   1      38.245  23.703  26.331  1.00  0.00     0.116 C 
ENDROOT
BRANCH   1   2
ATOM      2  N   UNL A   1      37.715  23.458  25.002  1.00  0.00    -0.352 N 
ATOM      3  C   UNL A   1      36.428  23.212  24.588  1.00  0.00     0.251 C 
ATOM      4  O   UNL A   1      36.211  23.045  23.390  1.00  0.00    -0.269 OA
ATOM      5  H   UNL A   1      38.385  23.470  24.281  1.00  0.00     0.163 HD
BRANCH   3   6
ATOM      6  C   UNL A   1      35.314  23.061  25.556  1.00  0.00     0.040 A 
ATOM      7  C   UNL A   1      33.161  23.972  26.344  1.00  0.00     0.002 A 
ATOM      8  C   UNL A   1      34.322  24.058  25.555  1.00  0.00     0.022 A 
ATOM      9  C   UNL A   1      33.036  22.810  27.132  1.00  0.00     0.119 A 
ATOM     10  C   UNL A   1      34.054  21.849  27.193  1.00  0.00     0.047 A 
ATOM     11  C   UNL A   1      35.208  21.988  26.430  1.00  0.00     0.017 A 
BRANCH   7  12
ATOM     12  C   UNL A   1      32.063  25.042  26.246  1.00  0.00     0.059 C 
BRANCH  12  13
ATOM     13  C   UNL A   1      30.970  24.676  25.197  1.00  0.00     0.074 C 
BRANCH  13  14
ATOM     14  C   UNL A   1      31.245  23.664  24.075  1.00  0.00     0.261 C 
BRANCH  14  15
ATOM     15  N   UNL A   1      31.746  24.164  22.813  1.00  0.00    -0.344 N 
ATOM     16  H   UNL A   1      32.569  23.610  22.579  1.00  0.00     0.346 HD
ATOM     17  H   UNL A   1      30.941  24.087  22.190  1.00  0.00     0.346 HD
BRANCH  15  18
ATOM     18  C   UNL A   1      32.133  25.565  22.694  1.00  0.00     0.176 C 
ATOM     19  C   UNL A   1      33.638  25.587  22.397  1.00  0.00     0.075 C 
ATOM     20  C   UNL A   1      31.384  26.381  21.643  1.00  0.00     0.075 C 
ENDBRANCH  15  18
ENDBRANCH  14  15
ENDBRANCH  13  14
ENDBRANCH  12  13
BRANCH  12  21
ATOM     21  C   UNL A   1      32.460  26.516  26.393  1.00  0.00    -0.040 A 
ATOM     22  C   UNL A   1      33.629  27.089  25.871  1.00  0.00     0.004 A 
ATOM     23  C   UNL A   1      31.594  27.376  27.102  1.00  0.00     0.004 A 
ATOM     24  C   UNL A   1      33.911  28.452  26.024  1.00  0.00     0.000 A 
ATOM     25  C   UNL A   1      31.885  28.733  27.278  1.00  0.00     0.000 A 
ATOM     26  C   UNL A   1      33.041  29.273  26.730  1.00  0.00     0.000 A 
ENDBRANCH  12  21
ENDBRANCH   7  12
BRANCH   9  27
ATOM     27  O   UNL A   1      31.940  22.483  27.882  1.00  0.00    -0.508 OA
ATOM     28  H   UNL A   1      31.693  21.585  27.985  1.00  0.00     0.293 HD
ENDBRANCH   9  27
ENDBRANCH   3   6
ENDBRANCH   1   2
BRANCH   1  29
ATOM     29  C   UNL A   1      39.475  22.872  26.682  1.00  0.00     0.023 C 
BRANCH  29  30
ATOM     30  C   UNL A   1      39.587  21.494  26.038  1.00  0.00     0.023 C 
BRANCH  30  31
ATOM     31  C   UNL A   1      40.422  20.458  26.779  1.00  0.00     0.116 C 
BRANCH  31  32
ATOM     32  N   UNL A   1      41.568  19.974  26.026  1.00  0.00    -0.352 N 
ATOM     33  C   UNL A   1      42.754  20.599  25.725  1.00  0.00     0.251 C 
ATOM     34  H   UNL A   1      41.480  19.057  25.679  1.00  0.00     0.163 HD
ATOM     35  O   UNL A   1      43.581  20.031  25.017  1.00  0.00    -0.269 OA
BRANCH  33  36
ATOM     36  C   UNL A   1      43.023  21.972  26.206  1.00  0.00     0.039 A 
ATOM     37  C   UNL A   1      43.077  23.011  25.273  1.00  0.00     0.014 A 
ATOM     38  C   UNL A   1      43.203  22.244  27.564  1.00  0.00     0.014 A 
ATOM     39  C   UNL A   1      43.224  24.331  25.707  1.00  0.00     0.010 A 
ATOM     40  C   UNL A   1      43.268  23.564  28.002  1.00  0.00     0.010 A 
ATOM     41  C   UNL A   1      43.274  24.622  27.079  1.00  0.00    -0.014 A 
BRANCH  41  42
ATOM     42  C   UNL A   1      43.339  26.018  27.580  1.00  0.00     0.031 A 
ATOM     43  C   UNL A   1      44.671  26.640  27.895  1.00  0.00     0.074 A 
ATOM     44  C   UNL A   1      42.203  26.696  27.837  1.00  0.00     0.049 A 
ATOM     45  N   UNL A   1      44.934  27.788  28.468  1.00  0.00    -0.248 NA
ATOM     46  C   UNL A   1      45.865  25.852  27.550  1.00  0.00     0.031 C 
ATOM     47  C   UNL A   1      40.844  26.201  27.607  1.00  0.00     0.029 A 
ATOM     48  N   UNL A   1      42.013  27.949  28.369  1.00  0.00    -0.354 N 
ATOM     49  C   UNL A   1      46.316  27.842  28.581  1.00  0.00     0.074 A 
ATOM     50  C   UNL A   1      46.836  26.600  28.054  1.00  0.00     0.031 C 
ATOM     51  C   UNL A   1      39.963  27.144  27.978  1.00  0.00     0.029 A 
ATOM     52  C   UNL A   1      40.690  28.291  28.511  1.00  0.00     0.049 A 
ATOM     53  H   UNL A   1      42.755  28.543  28.624  1.00  0.00     0.167 HD
ATOM     54  C   UNL A   1      47.089  28.843  29.067  1.00  0.00     0.031 A 
ATOM     55  C   UNL A   1      40.125  29.401  29.025  1.00  0.00     0.031 A 
ATOM     56  C   UNL A   1      46.579  30.091  29.566  1.00  0.00     0.049 A 
ATOM     57  C   UNL A   1      41.003  30.501  29.552  1.00  0.00     0.074 A 
ATOM     58  C   UNL A   1      47.285  31.188  30.029  1.00  0.00     0.029 A 
ATOM     59  N   UNL A   1      45.234  30.410  29.661  1.00  0.00    -0.354 N 
ATOM     60  N   UNL A   1      42.311  30.557  29.609  1.00  0.00    -0.248 NA
ATOM     61  C   UNL A   1      40.326  31.695  30.076  1.00  0.00     0.031 C 
ATOM     62  C   UNL A   1      46.365  32.159  30.435  1.00  0.00     0.029 A 
ATOM     63  C   UNL A   1      45.088  31.684  30.183  1.00  0.00     0.049 A 
ATOM     64  H   UNL A   1      44.492  29.820  29.395  1.00  0.00     0.167 HD
ATOM     65  C   UNL A   1      42.614  31.802  30.144  1.00  0.00     0.074 A 
ATOM     66  C   UNL A   1      41.354  32.473  30.388  1.00  0.00     0.031 C 
ATOM     67  C   UNL A   1      43.828  32.342  30.406  1.00  0.00     0.031 A 
BRANCH  54  68
ATOM     68  C   UNL A   1      48.575  28.618  29.087  1.00  0.00    -0.014 A 
ATOM     69  C   UNL A   1      49.207  28.032  30.195  1.00  0.00     0.009 A 
ATOM     70  C   UNL A   1      49.349  28.976  27.972  1.00  0.00     0.009 A 
ATOM     71  C   UNL A   1      50.590  27.846  30.202  1.00  0.00     0.001 A 
ATOM     72  C   UNL A   1      50.728  28.763  27.971  1.00  0.00     0.001 A 
ATOM     73  C   UNL A   1      51.349  28.208  29.089  1.00  0.00     0.000 A 
ENDBRANCH  54  68
BRANCH  55  74
ATOM     74  C   UNL A   1      38.646  29.538  29.052  1.00  0.00    -0.014 A 
ATOM     75  C   UNL A   1      37.952  29.963  27.909  1.00  0.00     0.009 A 
ATOM     76  C   UNL A   1      37.921  29.252  30.219  1.00  0.00     0.009 A 
ATOM     77  C   UNL A   1      36.566  30.124  27.941  1.00  0.00     0.001 A 
ATOM     78  C   UNL A   1      36.531  29.389  30.241  1.00  0.00     0.001 A 
ATOM     79  C   UNL A   1      35.856  29.833  29.105  1.00  0.00     0.000 A 
ENDBRANCH  55  74
BRANCH  67  80
ATOM     80  C   UNL A   1      43.860  33.746  30.936  1.00  0.00    -0.014 A 
ATOM     81  C   UNL A   1      43.872  34.851  30.072  1.00  0.00     0.009 A 
ATOM     82  C   UNL A   1      43.819  33.962  32.322  1.00  0.00     0.009 A 
ATOM     83  C   UNL A   1      43.869  36.149  30.591  1.00  0.00     0.001 A 
ATOM     84  C   UNL A   1      43.792  35.258  32.836  1.00  0.00     0.001 A 
ATOM     85  C   UNL A   1      43.823  36.350  31.970  1.00  0.00     0.000 A 
ENDBRANCH  67  80
ENDBRANCH  41  42
ENDBRANCH  33  36
ENDBRANCH  31  32
ENDBRANCH  30  31
ENDBRANCH  29  30
ENDBRANCH   1  29
TORSDOF 18
ENDMDL
MODEL 3
REMARK VINA RESULT:     -10.5      1.852      3.127
REMARK SMILES CC(C)[NH2+]CC[C@H](c1ccccc1)c1cc(C(=O)NCCCCNC(=O)c2ccc(-c3c4nc(c(-c5ccccc5)c5ccc([nH]5)c(-c5ccccc5)c5nc(c(-c6ccccc6)c6ccc3[nH]6)C=C5)C=C4)cc2)ccc1O
REMARK SMILES IDX 20 1 19 2 17 3 18 4 16 6 14 7 15 8 77 9 76 10 75 11 7 12
REMARK SMILES IDX 6 13 5 14 4 15 2 18 1 19 3 20 8 21 9 22 13 23 10 24 12 25
REMARK SMILES IDX 11 26 78 27 21 29 22 30 23 31 24 32 25 33 26 35 27 36 28 37
REMARK SMILES IDX 74 38 29 39 73 40 30 41 31 42 32 43 67 44 33 45 72 46 66 47
REMARK SMILES IDX 68 48 34 49 71 50 65 51 64 52 35 54 57 55 42 56 56 57 43 58
REMARK SMILES IDX 46 59 55 60 69 61 44 62 45 63 54 65 70 66 47 67 36 68 37 69
REMARK SMILES IDX 41 70 38 71 40 72 39 73 58 74 59 75 63 76 60 77 62 78 61 79
REMARK SMILES IDX 48 80 49 81 53 82 50 83 52 84 51 85
REMARK H PARENT 19 5 4 16 4 17 78 28 24 34 68 53 46 64
REMARK Flexibility Score: inf
ROOT
ATOM      1  C   UNL A   1      32.883  30.040  25.874  1.00  0.00     0.116 C 
ENDROOT
BRANCH   1   2
ATOM      2  N   UNL A   1      33.247  29.569  24.550  1.00  0.00    -0.352 N 
ATOM      3  C   UNL A   1      33.080  28.337  23.966  1.00  0.00     0.251 C 
ATOM      4  O   UNL A   1      33.462  28.171  22.809  1.00  0.00    -0.269 OA
ATOM      5  H   UNL A   1      33.684  30.241  23.978  1.00  0.00     0.163 HD
BRANCH   3   6
ATOM      6  C   UNL A   1      32.531  27.185  24.722  1.00  0.00     0.040 A 
ATOM      7  C   UNL A   1      32.982  24.929  25.612  1.00  0.00     0.002 A 
ATOM      8  C   UNL A   1      33.341  26.041  24.829  1.00  0.00     0.022 A 
ATOM      9  C   UNL A   1      31.759  25.032  26.305  1.00  0.00     0.119 A 
ATOM     10  C   UNL A   1      30.913  26.137  26.145  1.00  0.00     0.047 A 
ATOM     11  C   UNL A   1      31.282  27.201  25.329  1.00  0.00     0.017 A 
BRANCH   7  12
ATOM     12  C   UNL A   1      33.938  23.736  25.769  1.00  0.00     0.059 C 
BRANCH  12  13
ATOM     13  C   UNL A   1      35.431  24.146  25.588  1.00  0.00     0.074 C 
BRANCH  13  14
ATOM     14  C   UNL A   1      36.340  23.430  24.578  1.00  0.00     0.261 C 
BRANCH  14  15
ATOM     15  N   UNL A   1      37.690  23.105  24.987  1.00  0.00    -0.344 N 
ATOM     16  H   UNL A   1      38.256  23.072  24.140  1.00  0.00     0.346 HD
ATOM     17  H   UNL A   1      37.914  23.832  25.668  1.00  0.00     0.346 HD
BRANCH  15  18
ATOM     18  C   UNL A   1      37.945  21.868  25.715  1.00  0.00     0.176 C 
ATOM     19  C   UNL A   1      37.308  20.733  24.902  1.00  0.00     0.075 C 
ATOM     20  C   UNL A   1      39.411  21.545  25.996  1.00  0.00     0.075 C 
ENDBRANCH  15  18
ENDBRANCH  14  15
ENDBRANCH  13  14
ENDBRANCH  12  13
BRANCH  12  21
ATOM     21  C   UNL A   1      33.495  22.366  25.242  1.00  0.00    -0.040 A 
ATOM     22  C   UNL A   1      33.653  21.153  25.928  1.00  0.00     0.004 A 
ATOM     23  C   UNL A   1      32.877  22.302  23.975  1.00  0.00     0.004 A 
ATOM     24  C   UNL A   1      33.199  19.941  25.393  1.00  0.00     0.000 A 
ATOM     25  C   UNL A   1      32.443  21.090  23.428  1.00  0.00     0.000 A 
ATOM     26  C   UNL A   1      32.597  19.910  24.141  1.00  0.00     0.000 A 
ENDBRANCH  12  21
ENDBRANCH   7  12
BRANCH   9  27
ATOM     27  O   UNL A   1      31.282  24.113  27.199  1.00  0.00    -0.508 OA
ATOM     28  H   UNL A   1      31.568  23.222  27.153  1.00  0.00     0.293 HD
ENDBRANCH   9  27
ENDBRANCH   3   6
ENDBRANCH   1   2
BRANCH   1  29
ATOM     29  C   UNL A   1      31.517  30.717  25.948  1.00  0.00     0.023 C 
BRANCH  29  30
ATOM     30  C   UNL A   1      31.394  31.928  26.868  1.00  0.00     0.023 C 
BRANCH  30  31
ATOM     31  C   UNL A   1      32.691  32.624  27.260  1.00  0.00     0.116 C 
BRANCH  31  32
ATOM     32  N   UNL A   1      32.515  33.999  27.698  1.00  0.00    -0.352 N 
ATOM     33  C   UNL A   1      33.282  34.759  28.548  1.00  0.00     0.251 C 
ATOM     34  H   UNL A   1      31.726  34.455  27.327  1.00  0.00     0.163 HD
ATOM     35  O   UNL A   1      32.924  35.898  28.839  1.00  0.00    -0.269 OA
BRANCH  33  36
ATOM     36  C   UNL A   1      34.509  34.200  29.157  1.00  0.00     0.039 A 
ATOM     37  C   UNL A   1      34.394  33.457  30.335  1.00  0.00     0.014 A 
ATOM     38  C   UNL A   1      35.762  34.386  28.569  1.00  0.00     0.014 A 
ATOM     39  C   UNL A   1      35.519  32.829  30.875  1.00  0.00     0.010 A 
ATOM     40  C   UNL A   1      36.865  33.695  29.060  1.00  0.00     0.010 A 
ATOM     41  C   UNL A   1      36.756  32.904  30.215  1.00  0.00    -0.014 A 
BRANCH  41  42
ATOM     42  C   UNL A   1      37.951  32.177  30.709  1.00  0.00     0.031 A 
ATOM     43  C   UNL A   1      38.774  32.757  31.827  1.00  0.00     0.074 A 
ATOM     44  C   UNL A   1      38.352  31.044  30.099  1.00  0.00     0.049 A 
ATOM     45  N   UNL A   1      39.922  32.350  32.307  1.00  0.00    -0.248 NA
ATOM     46  C   UNL A   1      38.250  33.974  32.468  1.00  0.00     0.031 C 
ATOM     47  C   UNL A   1      37.666  30.388  28.983  1.00  0.00     0.029 A 
ATOM     48  N   UNL A   1      39.451  30.250  30.323  1.00  0.00    -0.354 N 
ATOM     49  C   UNL A   1      40.271  33.278  33.278  1.00  0.00     0.074 A 
ATOM     50  C   UNL A   1      39.236  34.288  33.295  1.00  0.00     0.031 C 
ATOM     51  C   UNL A   1      38.348  29.286  28.633  1.00  0.00     0.029 A 
ATOM     52  C   UNL A   1      39.540  29.179  29.468  1.00  0.00     0.049 A 
ATOM     53  H   UNL A   1      40.111  30.433  31.029  1.00  0.00     0.167 HD
ATOM     54  C   UNL A   1      41.351  33.285  34.095  1.00  0.00     0.031 A 
ATOM     55  C   UNL A   1      40.484  28.224  29.359  1.00  0.00     0.031 A 
ATOM     56  C   UNL A   1      42.369  32.269  34.103  1.00  0.00     0.049 A 
ATOM     57  C   UNL A   1      41.669  28.248  30.282  1.00  0.00     0.074 A 
ATOM     58  C   UNL A   1      43.472  32.159  34.931  1.00  0.00     0.029 A 
ATOM     59  N   UNL A   1      42.402  31.184  33.242  1.00  0.00    -0.354 N 
ATOM     60  N   UNL A   1      41.962  29.107  31.227  1.00  0.00    -0.248 NA
ATOM     61  C   UNL A   1      42.650  27.164  30.129  1.00  0.00     0.031 C 
ATOM     62  C   UNL A   1      44.193  31.024  34.549  1.00  0.00     0.029 A 
ATOM     63  C   UNL A   1      43.513  30.403  33.513  1.00  0.00     0.049 A 
ATOM     64  H   UNL A   1      41.736  30.994  32.543  1.00  0.00     0.167 HD
ATOM     65  C   UNL A   1      43.141  28.651  31.802  1.00  0.00     0.074 A 
ATOM     66  C   UNL A   1      43.505  27.435  31.105  1.00  0.00     0.031 C 
ATOM     67  C   UNL A   1      43.853  29.189  32.820  1.00  0.00     0.031 A 
BRANCH  54  68
ATOM     68  C   UNL A   1      41.487  34.438  35.049  1.00  0.00    -0.014 A 
ATOM     69  C   UNL A   1      41.086  34.325  36.390  1.00  0.00     0.009 A 
ATOM     70  C   UNL A   1      42.045  35.648  34.607  1.00  0.00     0.009 A 
ATOM     71  C   UNL A   1      41.204  35.411  37.257  1.00  0.00     0.001 A 
ATOM     72  C   UNL A   1      42.189  36.724  35.484  1.00  0.00     0.001 A 
ATOM     73  C   UNL A   1      41.759  36.609  36.804  1.00  0.00     0.000 A 
ENDBRANCH  54  68
BRANCH  55  74
ATOM     74  C   UNL A   1      40.340  27.148  28.344  1.00  0.00    -0.014 A 
ATOM     75  C   UNL A   1      40.959  27.269  27.091  1.00  0.00     0.009 A 
ATOM     76  C   UNL A   1      39.580  26.000  28.618  1.00  0.00     0.009 A 
ATOM     77  C   UNL A   1      40.799  26.275  26.123  1.00  0.00     0.001 A 
ATOM     78  C   UNL A   1      39.443  24.995  27.658  1.00  0.00     0.001 A 
ATOM     79  C   UNL A   1      40.046  25.137  26.409  1.00  0.00     0.000 A 
ENDBRANCH  55  74
BRANCH  67  80
ATOM     80  C   UNL A   1      45.072  28.442  33.280  1.00  0.00    -0.014 A 
ATOM     81  C   UNL A   1      46.342  28.724  32.754  1.00  0.00     0.009 A 
ATOM     82  C   UNL A   1      44.951  27.481  34.295  1.00  0.00     0.009 A 
ATOM     83  C   UNL A   1      47.465  28.037  33.222  1.00  0.00     0.001 A 
ATOM     84  C   UNL A   1      46.078  26.814  34.776  1.00  0.00     0.001 A 
ATOM     85  C   UNL A   1      47.332  27.089  34.235  1.00  0.00     0.000 A 
ENDBRANCH  67  80
ENDBRANCH  41  42
ENDBRANCH  33  36
ENDBRANCH  31  32
ENDBRANCH  30  31
ENDBRANCH  29  30
ENDBRANCH   1  29
TORSDOF 18
ENDMDL
