MODEL 1
REMARK VINA RESULT:     -11.6      0.000      0.000
REMARK SMILES Cc1ccc(S(=O)(=O)Nc2cc3c(cc2C(=O)NCCCCNC(=O)c2ccc(-c4c5nc(c(-c6ccccc6)c6ccc([nH]6)c(-c6ccccc6)c6nc(c(-c7ccccc7)c7ccc4[nH]7)C=C6)C=C5)cc2)OCCO3)s1
REMARK SMILES IDX 20 1 19 2 18 3 16 4 17 5 15 7 10 8 11 9 12 10 14 11 13 12
REMARK SMILES IDX 77 13 74 14 76 15 75 16 9 17 6 19 7 20 8 21 5 22 1 23 2 24
REMARK SMILES IDX 3 25 78 26 4 27 21 28 22 29 23 30 24 31 25 33 26 34 27 35
REMARK SMILES IDX 73 36 28 37 72 38 29 39 30 40 31 41 66 42 32 43 71 44 65 45
REMARK SMILES IDX 67 46 33 47 70 48 64 49 63 50 34 52 56 53 41 54 55 55 42 56
REMARK SMILES IDX 45 57 54 58 68 59 43 60 44 61 53 63 69 64 46 65 35 66 36 67
REMARK SMILES IDX 40 68 37 69 39 70 38 71 57 72 58 73 62 74 59 75 61 76 60 77
REMARK SMILES IDX 47 78 48 79 52 80 49 81 51 82 50 83
REMARK H PARENT 18 6 9 18 23 32 67 51 45 62
REMARK Flexibility Score: inf
ROOT
ATOM      1  C   UNL A   1      38.179  22.574  25.652  1.00  0.00     0.023 C 
ENDROOT
BRANCH   1   2
ATOM      2  C   UNL A   1      36.730  23.027  25.774  1.00  0.00     0.116 C 
BRANCH   2   3
ATOM      3  N   UNL A   1      36.096  23.433  24.532  1.00  0.00    -0.352 N 
ATOM      4  C   UNL A   1      34.927  23.013  23.932  1.00  0.00     0.253 C 
ATOM      5  O   UNL A   1      34.510  23.639  22.962  1.00  0.00    -0.269 OA
ATOM      6  H   UNL A   1      36.584  24.127  24.032  1.00  0.00     0.163 HD
BRANCH   4   7
ATOM      7  C   UNL A   1      34.202  21.812  24.423  1.00  0.00     0.067 A 
ATOM      8  C   UNL A   1      32.867  21.902  24.869  1.00  0.00     0.066 A 
ATOM      9  C   UNL A   1      32.164  20.736  25.201  1.00  0.00     0.078 A 
ATOM     10  C   UNL A   1      32.784  19.491  25.080  1.00  0.00     0.163 A 
ATOM     11  C   UNL A   1      34.847  20.570  24.432  1.00  0.00     0.066 A 
ATOM     12  C   UNL A   1      34.122  19.413  24.687  1.00  0.00     0.162 A 
ATOM     13  O   UNL A   1      32.020  18.384  25.343  1.00  0.00    -0.486 OA
ATOM     14  O   UNL A   1      34.784  18.229  24.494  1.00  0.00    -0.486 OA
ATOM     15  C   UNL A   1      32.807  17.186  25.415  1.00  0.00     0.271 C 
ATOM     16  C   UNL A   1      33.854  17.154  24.313  1.00  0.00     0.271 C 
BRANCH   8  17
ATOM     17  N   UNL A   1      32.222  23.176  24.999  1.00  0.00    -0.278 N 
ATOM     18  H   UNL A   1      31.705  23.552  24.252  1.00  0.00     0.180 HD
BRANCH  17  19
ATOM     19  S   UNL A   1      32.364  24.018  26.454  1.00  0.00     0.271 S 
ATOM     20  O   UNL A   1      33.474  23.450  27.178  1.00  0.00    -0.200 OA
ATOM     21  O   UNL A   1      31.039  24.058  27.049  1.00  0.00    -0.200 OA
BRANCH  19  22
ATOM     22  C   UNL A   1      32.736  25.724  26.110  1.00  0.00     0.140 A 
ATOM     23  C   UNL A   1      31.950  29.543  25.671  1.00  0.00     0.056 C 
ATOM     24  C   UNL A   1      32.486  28.156  25.766  1.00  0.00     0.003 A 
ATOM     25  C   UNL A   1      33.747  27.709  25.426  1.00  0.00     0.016 A 
ATOM     26  S   UNL A   1      31.506  26.882  26.355  1.00  0.00    -0.127 S 
ATOM     27  C   UNL A   1      33.895  26.313  25.640  1.00  0.00     0.034 A 
ENDBRANCH  19  22
ENDBRANCH  17  19
ENDBRANCH   8  17
ENDBRANCH   4   7
ENDBRANCH   2   3
ENDBRANCH   1   2
BRANCH   1  28
ATOM     28  C   UNL A   1      38.430  21.213  25.021  1.00  0.00     0.023 C 
BRANCH  28  29
ATOM     29  C   UNL A   1      38.599  20.058  25.996  1.00  0.00     0.116 C 
BRANCH  29  30
ATOM     30  N   UNL A   1      39.802  19.275  25.767  1.00  0.00    -0.352 N 
ATOM     31  C   UNL A   1      41.119  19.605  25.970  1.00  0.00     0.251 C 
ATOM     32  H   UNL A   1      39.649  18.369  25.411  1.00  0.00     0.163 HD
ATOM     33  O   UNL A   1      42.001  18.820  25.640  1.00  0.00    -0.269 OA
BRANCH  31  34
ATOM     34  C   UNL A   1      41.480  20.918  26.549  1.00  0.00     0.039 A 
ATOM     35  C   UNL A   1      41.967  21.912  25.694  1.00  0.00     0.014 A 
ATOM     36  C   UNL A   1      41.352  21.174  27.916  1.00  0.00     0.014 A 
ATOM     37  C   UNL A   1      42.270  23.176  26.201  1.00  0.00     0.010 A 
ATOM     38  C   UNL A   1      41.571  22.458  28.405  1.00  0.00     0.010 A 
ATOM     39  C   UNL A   1      42.051  23.465  27.557  1.00  0.00    -0.014 A 
BRANCH  39  40
ATOM     40  C   UNL A   1      42.362  24.803  28.115  1.00  0.00     0.031 A 
ATOM     41  C   UNL A   1      43.765  25.128  28.545  1.00  0.00     0.074 A 
ATOM     42  C   UNL A   1      41.376  25.704  28.288  1.00  0.00     0.049 A 
ATOM     43  N   UNL A   1      44.232  26.227  29.082  1.00  0.00    -0.248 NA
ATOM     44  C   UNL A   1      44.771  24.066  28.380  1.00  0.00     0.031 C 
ATOM     45  C   UNL A   1      39.963  25.491  27.970  1.00  0.00     0.029 A 
ATOM     46  N   UNL A   1      41.417  26.984  28.779  1.00  0.00    -0.354 N 
ATOM     47  C   UNL A   1      45.573  25.974  29.348  1.00  0.00     0.074 A 
ATOM     48  C   UNL A   1      45.833  24.606  28.959  1.00  0.00     0.031 C 
ATOM     49  C   UNL A   1      39.277  26.613  28.246  1.00  0.00     0.029 A 
ATOM     50  C   UNL A   1      40.197  27.613  28.780  1.00  0.00     0.049 A 
ATOM     51  H   UNL A   1      42.245  27.412  29.102  1.00  0.00     0.167 HD
ATOM     52  C   UNL A   1      46.511  26.811  29.851  1.00  0.00     0.031 A 
ATOM     53  C   UNL A   1      39.860  28.860  29.157  1.00  0.00     0.031 A 
ATOM     54  C   UNL A   1      46.262  28.181  30.206  1.00  0.00     0.049 A 
ATOM     55  C   UNL A   1      40.929  29.792  29.651  1.00  0.00     0.074 A 
ATOM     56  C   UNL A   1      47.159  29.133  30.659  1.00  0.00     0.029 A 
ATOM     57  N   UNL A   1      45.023  28.797  30.137  1.00  0.00    -0.354 N 
ATOM     58  N   UNL A   1      42.208  29.563  29.826  1.00  0.00    -0.248 NA
ATOM     59  C   UNL A   1      40.511  31.164  29.974  1.00  0.00     0.031 C 
ATOM     60  C   UNL A   1      46.454  30.320  30.891  1.00  0.00     0.029 A 
ATOM     61  C   UNL A   1      45.128  30.115  30.543  1.00  0.00     0.049 A 
ATOM     62  H   UNL A   1      44.190  28.360  29.844  1.00  0.00     0.167 HD
ATOM     63  C   UNL A   1      42.754  30.767  30.253  1.00  0.00     0.074 A 
ATOM     64  C   UNL A   1      41.668  31.726  30.297  1.00  0.00     0.031 C 
ATOM     65  C   UNL A   1      44.038  31.054  30.575  1.00  0.00     0.031 A 
BRANCH  52  66
ATOM     66  C   UNL A   1      47.892  26.251  30.044  1.00  0.00    -0.014 A 
ATOM     67  C   UNL A   1      48.801  26.176  28.977  1.00  0.00     0.009 A 
ATOM     68  C   UNL A   1      48.288  25.790  31.308  1.00  0.00     0.009 A 
ATOM     69  C   UNL A   1      50.063  25.606  29.161  1.00  0.00     0.001 A 
ATOM     70  C   UNL A   1      49.560  25.248  31.497  1.00  0.00     0.001 A 
ATOM     71  C   UNL A   1      50.442  25.145  30.422  1.00  0.00     0.000 A 
ENDBRANCH  52  66
BRANCH  53  72
ATOM     72  C   UNL A   1      38.454  29.317  29.029  1.00  0.00    -0.014 A 
ATOM     73  C   UNL A   1      37.592  29.271  30.135  1.00  0.00     0.009 A 
ATOM     74  C   UNL A   1      37.969  29.809  27.808  1.00  0.00     0.009 A 
ATOM     75  C   UNL A   1      36.264  29.687  30.015  1.00  0.00     0.001 A 
ATOM     76  C   UNL A   1      36.647  30.246  27.697  1.00  0.00     0.001 A 
ATOM     77  C   UNL A   1      35.794  30.177  28.798  1.00  0.00     0.000 A 
ENDBRANCH  53  72
BRANCH  65  78
ATOM     78  C   UNL A   1      44.342  32.471  30.966  1.00  0.00    -0.014 A 
ATOM     79  C   UNL A   1      44.688  33.433  30.006  1.00  0.00     0.009 A 
ATOM     80  C   UNL A   1      44.250  32.851  32.315  1.00  0.00     0.009 A 
ATOM     81  C   UNL A   1      44.970  34.745  30.395  1.00  0.00     0.001 A 
ATOM     82  C   UNL A   1      44.509  34.167  32.696  1.00  0.00     0.001 A 
ATOM     83  C   UNL A   1      44.876  35.111  31.737  1.00  0.00     0.000 A 
ENDBRANCH  65  78
ENDBRANCH  39  40
ENDBRANCH  31  34
ENDBRANCH  29  30
ENDBRANCH  28  29
ENDBRANCH   1  28
TORSDOF 14
ENDMDL
MODEL 2
REMARK VINA RESULT:     -11.5      1.563      4.123
REMARK SMILES Cc1ccc(S(=O)(=O)Nc2cc3c(cc2C(=O)NCCCCNC(=O)c2ccc(-c4c5nc(c(-c6ccccc6)c6ccc([nH]6)c(-c6ccccc6)c6nc(c(-c7ccccc7)c7ccc4[nH]7)C=C6)C=C5)cc2)OCCO3)s1
REMARK SMILES IDX 20 1 19 2 18 3 16 4 17 5 15 7 10 8 11 9 12 10 14 11 13 12
REMARK SMILES IDX 77 13 74 14 76 15 75 16 9 17 6 19 7 20 8 21 5 22 1 23 2 24
REMARK SMILES IDX 3 25 78 26 4 27 21 28 22 29 23 30 24 31 25 33 26 34 27 35
REMARK SMILES IDX 73 36 28 37 72 38 29 39 30 40 31 41 66 42 32 43 71 44 65 45
REMARK SMILES IDX 67 46 33 47 70 48 64 49 63 50 34 52 56 53 41 54 55 55 42 56
REMARK SMILES IDX 45 57 54 58 68 59 43 60 44 61 53 63 69 64 46 65 35 66 36 67
REMARK SMILES IDX 40 68 37 69 39 70 38 71 57 72 58 73 62 74 59 75 61 76 60 77
REMARK SMILES IDX 47 78 48 79 52 80 49 81 51 82 50 83
REMARK H PARENT 18 6 9 18 23 32 67 51 45 62
REMARK Flexibility Score: inf
ROOT
ATOM      1  C   UNL A   1      37.255  20.863  24.622  1.00  0.00     0.023 C 
ENDROOT
BRANCH   1   2
ATOM      2  C   UNL A   1      37.289  22.042  25.585  1.00  0.00     0.116 C 
BRANCH   2   3
ATOM      3  N   UNL A   1      36.189  22.107  26.531  1.00  0.00    -0.352 N 
ATOM      4  C   UNL A   1      34.895  22.562  26.384  1.00  0.00     0.253 C 
ATOM      5  O   UNL A   1      34.095  22.348  27.290  1.00  0.00    -0.269 OA
ATOM      6  H   UNL A   1      36.402  21.769  27.431  1.00  0.00     0.163 HD
BRANCH   4   7
ATOM      7  C   UNL A   1      34.481  23.324  25.177  1.00  0.00     0.067 A 
ATOM      8  C   UNL A   1      33.984  22.660  24.036  1.00  0.00     0.066 A 
ATOM      9  C   UNL A   1      33.479  23.406  22.963  1.00  0.00     0.078 A 
ATOM     10  C   UNL A   1      33.460  24.800  23.031  1.00  0.00     0.163 A 
ATOM     11  C   UNL A   1      34.574  24.720  25.173  1.00  0.00     0.066 A 
ATOM     12  C   UNL A   1      34.001  25.452  24.141  1.00  0.00     0.162 A 
ATOM     13  O   UNL A   1      32.881  25.470  21.985  1.00  0.00    -0.486 OA
ATOM     14  O   UNL A   1      33.972  26.812  24.307  1.00  0.00    -0.486 OA
ATOM     15  C   UNL A   1      33.121  26.883  22.045  1.00  0.00     0.271 C 
ATOM     16  C   UNL A   1      32.972  27.402  23.466  1.00  0.00     0.271 C 
BRANCH   8  17
ATOM     17  N   UNL A   1      34.002  21.229  23.955  1.00  0.00    -0.278 N 
ATOM     18  H   UNL A   1      34.856  20.740  23.949  1.00  0.00     0.180 HD
BRANCH  17  19
ATOM     19  S   UNL A   1      32.536  20.397  23.871  1.00  0.00     0.271 S 
ATOM     20  O   UNL A   1      31.938  20.700  22.594  1.00  0.00    -0.200 OA
ATOM     21  O   UNL A   1      31.822  20.677  25.104  1.00  0.00    -0.200 OA
BRANCH  19  22
ATOM     22  C   UNL A   1      32.850  18.648  23.940  1.00  0.00     0.140 A 
ATOM     23  C   UNL A   1      33.138  15.124  25.642  1.00  0.00     0.056 C 
ATOM     24  C   UNL A   1      33.111  16.342  24.784  1.00  0.00     0.003 A 
ATOM     25  C   UNL A   1      33.530  16.467  23.476  1.00  0.00     0.016 A 
ATOM     26  S   UNL A   1      32.508  17.824  25.395  1.00  0.00    -0.127 S 
ATOM     27  C   UNL A   1      33.364  17.790  22.985  1.00  0.00     0.034 A 
ENDBRANCH  19  22
ENDBRANCH  17  19
ENDBRANCH   8  17
ENDBRANCH   4   7
ENDBRANCH   2   3
ENDBRANCH   1   2
BRANCH   1  28
ATOM     28  C   UNL A   1      38.150  19.676  24.946  1.00  0.00     0.023 C 
BRANCH  28  29
ATOM     29  C   UNL A   1      39.210  19.924  26.008  1.00  0.00     0.116 C 
BRANCH  29  30
ATOM     30  N   UNL A   1      40.441  19.184  25.785  1.00  0.00    -0.352 N 
ATOM     31  C   UNL A   1      41.745  19.566  25.981  1.00  0.00     0.251 C 
ATOM     32  H   UNL A   1      40.322  18.269  25.441  1.00  0.00     0.163 HD
ATOM     33  O   UNL A   1      42.656  18.810  25.659  1.00  0.00    -0.269 OA
BRANCH  31  34
ATOM     34  C   UNL A   1      42.058  20.899  26.543  1.00  0.00     0.039 A 
ATOM     35  C   UNL A   1      42.338  21.945  25.659  1.00  0.00     0.014 A 
ATOM     36  C   UNL A   1      42.084  21.123  27.921  1.00  0.00     0.014 A 
ATOM     37  C   UNL A   1      42.588  23.225  26.155  1.00  0.00     0.010 A 
ATOM     38  C   UNL A   1      42.248  22.415  28.411  1.00  0.00     0.010 A 
ATOM     39  C   UNL A   1      42.521  23.474  27.534  1.00  0.00    -0.014 A 
BRANCH  39  40
ATOM     40  C   UNL A   1      42.779  24.828  28.082  1.00  0.00     0.031 A 
ATOM     41  C   UNL A   1      44.172  25.219  28.488  1.00  0.00     0.074 A 
ATOM     42  C   UNL A   1      41.756  25.683  28.268  1.00  0.00     0.049 A 
ATOM     43  N   UNL A   1      44.597  26.340  29.013  1.00  0.00    -0.248 NA
ATOM     44  C   UNL A   1      45.224  24.204  28.311  1.00  0.00     0.031 C 
ATOM     45  C   UNL A   1      40.348  25.404  27.974  1.00  0.00     0.029 A 
ATOM     46  N   UNL A   1      41.746  26.966  28.754  1.00  0.00    -0.354 N 
ATOM     47  C   UNL A   1      45.952  26.151  29.258  1.00  0.00     0.074 A 
ATOM     48  C   UNL A   1      46.268  24.795  28.870  1.00  0.00     0.031 C 
ATOM     49  C   UNL A   1      39.616  26.493  28.258  1.00  0.00     0.029 A 
ATOM     50  C   UNL A   1      40.498  27.537  28.773  1.00  0.00     0.049 A 
ATOM     51  H   UNL A   1      42.557  27.432  29.062  1.00  0.00     0.167 HD
ATOM     52  C   UNL A   1      46.858  27.032  29.743  1.00  0.00     0.031 A 
ATOM     53  C   UNL A   1      40.109  28.769  29.151  1.00  0.00     0.031 A 
ATOM     54  C   UNL A   1      46.553  28.391  30.096  1.00  0.00     0.049 A 
ATOM     55  C   UNL A   1      41.142  29.752  29.623  1.00  0.00     0.074 A 
ATOM     56  C   UNL A   1      47.411  29.386  30.531  1.00  0.00     0.029 A 
ATOM     57  N   UNL A   1      45.285  28.949  30.046  1.00  0.00    -0.354 N 
ATOM     58  N   UNL A   1      42.433  29.583  29.777  1.00  0.00    -0.248 NA
ATOM     59  C   UNL A   1      40.666  31.104  29.948  1.00  0.00     0.031 C 
ATOM     60  C   UNL A   1      46.657  30.539  30.769  1.00  0.00     0.029 A 
ATOM     61  C   UNL A   1      45.335  30.272  30.445  1.00  0.00     0.049 A 
ATOM     62  H   UNL A   1      44.469  28.473  29.767  1.00  0.00     0.167 HD
ATOM     63  C   UNL A   1      42.929  30.813  30.191  1.00  0.00     0.074 A 
ATOM     64  C   UNL A   1      41.801  31.721  30.250  1.00  0.00     0.031 C 
ATOM     65  C   UNL A   1      44.204  31.160  30.491  1.00  0.00     0.031 A 
BRANCH  52  66
ATOM     66  C   UNL A   1      48.266  26.538  29.915  1.00  0.00    -0.014 A 
ATOM     67  C   UNL A   1      48.676  25.910  31.103  1.00  0.00     0.009 A 
ATOM     68  C   UNL A   1      49.197  26.703  28.879  1.00  0.00     0.009 A 
ATOM     69  C   UNL A   1      50.002  25.502  31.266  1.00  0.00     0.001 A 
ATOM     70  C   UNL A   1      50.513  26.268  29.033  1.00  0.00     0.001 A 
ATOM     71  C   UNL A   1      50.918  25.679  30.231  1.00  0.00     0.000 A 
ENDBRANCH  52  66
BRANCH  53  72
ATOM     72  C   UNL A   1      38.682  29.160  29.044  1.00  0.00    -0.014 A 
ATOM     73  C   UNL A   1      38.162  29.614  27.822  1.00  0.00     0.009 A 
ATOM     74  C   UNL A   1      37.830  29.072  30.155  1.00  0.00     0.009 A 
ATOM     75  C   UNL A   1      36.823  29.996  27.721  1.00  0.00     0.001 A 
ATOM     76  C   UNL A   1      36.485  29.433  30.045  1.00  0.00     0.001 A 
ATOM     77  C   UNL A   1      35.985  29.902  28.831  1.00  0.00     0.000 A 
ENDBRANCH  53  72
BRANCH  65  78
ATOM     78  C   UNL A   1      44.449  32.591  30.872  1.00  0.00    -0.014 A 
ATOM     79  C   UNL A   1      44.746  33.562  29.904  1.00  0.00     0.009 A 
ATOM     80  C   UNL A   1      44.350  32.975  32.219  1.00  0.00     0.009 A 
ATOM     81  C   UNL A   1      44.973  34.887  30.283  1.00  0.00     0.001 A 
ATOM     82  C   UNL A   1      44.553  34.304  32.590  1.00  0.00     0.001 A 
ATOM     83  C   UNL A   1      44.873  35.257  31.624  1.00  0.00     0.000 A 
ENDBRANCH  65  78
ENDBRANCH  39  40
ENDBRANCH  31  34
ENDBRANCH  29  30
ENDBRANCH  28  29
ENDBRANCH   1  28
TORSDOF 14
ENDMDL
MODEL 3
REMARK VINA RESULT:     -11.5      0.422      5.850
REMARK SMILES Cc1ccc(S(=O)(=O)Nc2cc3c(cc2C(=O)NCCCCNC(=O)c2ccc(-c4c5nc(c(-c6ccccc6)c6ccc([nH]6)c(-c6ccccc6)c6nc(c(-c7ccccc7)c7ccc4[nH]7)C=C6)C=C5)cc2)OCCO3)s1
REMARK SMILES IDX 20 1 19 2 18 3 16 4 17 5 15 7 10 8 11 9 12 10 14 11 13 12
REMARK SMILES IDX 77 13 74 14 76 15 75 16 9 17 6 19 7 20 8 21 5 22 1 23 2 24
REMARK SMILES IDX 3 25 78 26 4 27 21 28 22 29 23 30 24 31 25 33 26 34 27 35
REMARK SMILES IDX 73 36 28 37 72 38 29 39 30 40 31 41 66 42 32 43 71 44 65 45
REMARK SMILES IDX 67 46 33 47 70 48 64 49 63 50 34 52 56 53 41 54 55 55 42 56
REMARK SMILES IDX 45 57 54 58 68 59 43 60 44 61 53 63 69 64 46 65 35 66 36 67
REMARK SMILES IDX 40 68 37 69 39 70 38 71 57 72 58 73 62 74 59 75 61 76 60 77
REMARK SMILES IDX 47 78 48 79 52 80 49 81 51 82 50 83
REMARK H PARENT 18 6 9 18 23 32 67 51 45 62
REMARK Flexibility Score: inf
ROOT
ATOM      1  C   UNL A   1      38.009  22.903  25.782  1.00  0.00     0.023 C 
ENDROOT
BRANCH   1   2
ATOM      2  C   UNL A   1      36.553  23.349  25.821  1.00  0.00     0.116 C 
BRANCH   2   3
ATOM      3  N   UNL A   1      35.964  23.667  24.532  1.00  0.00    -0.352 N 
ATOM      4  C   UNL A   1      34.847  23.163  23.898  1.00  0.00     0.253 C 
ATOM      5  O   UNL A   1      34.450  23.724  22.881  1.00  0.00    -0.269 OA
ATOM      6  H   UNL A   1      36.442  24.362  24.024  1.00  0.00     0.163 HD
BRANCH   4   7
ATOM      7  C   UNL A   1      34.157  21.950  24.409  1.00  0.00     0.067 A 
ATOM      8  C   UNL A   1      32.830  22.016  24.882  1.00  0.00     0.066 A 
ATOM      9  C   UNL A   1      32.158  20.838  25.234  1.00  0.00     0.078 A 
ATOM     10  C   UNL A   1      32.800  19.605  25.107  1.00  0.00     0.163 A 
ATOM     11  C   UNL A   1      34.827  20.722  24.411  1.00  0.00     0.066 A 
ATOM     12  C   UNL A   1      34.131  19.551  24.687  1.00  0.00     0.162 A 
ATOM     13  O   UNL A   1      32.064  18.484  25.391  1.00  0.00    -0.486 OA
ATOM     14  O   UNL A   1      34.812  18.380  24.486  1.00  0.00    -0.486 OA
ATOM     15  C   UNL A   1      32.876  17.303  25.453  1.00  0.00     0.271 C 
ATOM     16  C   UNL A   1      33.901  17.285  24.330  1.00  0.00     0.271 C 
BRANCH   8  17
ATOM     17  N   UNL A   1      32.162  23.278  25.019  1.00  0.00    -0.278 N 
ATOM     18  H   UNL A   1      31.660  23.661  24.265  1.00  0.00     0.180 HD
BRANCH  17  19
ATOM     19  S   UNL A   1      32.250  24.092  26.494  1.00  0.00     0.271 S 
ATOM     20  O   UNL A   1      33.348  23.525  27.238  1.00  0.00    -0.200 OA
ATOM     21  O   UNL A   1      30.909  24.100  27.051  1.00  0.00    -0.200 OA
BRANCH  19  22
ATOM     22  C   UNL A   1      32.605  25.809  26.195  1.00  0.00     0.140 A 
ATOM     23  C   UNL A   1      31.750  29.583  25.541  1.00  0.00     0.056 C 
ATOM     24  C   UNL A   1      32.319  28.224  25.763  1.00  0.00     0.003 A 
ATOM     25  C   UNL A   1      33.639  27.833  25.678  1.00  0.00     0.016 A 
ATOM     26  S   UNL A   1      31.301  26.911  26.178  1.00  0.00    -0.127 S 
ATOM     27  C   UNL A   1      33.806  26.447  25.944  1.00  0.00     0.034 A 
ENDBRANCH  19  22
ENDBRANCH  17  19
ENDBRANCH   8  17
ENDBRANCH   4   7
ENDBRANCH   2   3
ENDBRANCH   1   2
BRANCH   1  28
ATOM     28  C   UNL A   1      38.311  21.579  25.097  1.00  0.00     0.023 C 
BRANCH  28  29
ATOM     29  C   UNL A   1      38.354  20.363  26.009  1.00  0.00     0.116 C 
BRANCH  29  30
ATOM     30  N   UNL A   1      39.496  19.495  25.768  1.00  0.00    -0.352 N 
ATOM     31  C   UNL A   1      40.833  19.723  25.979  1.00  0.00     0.251 C 
ATOM     32  H   UNL A   1      39.276  18.610  25.397  1.00  0.00     0.163 HD
ATOM     33  O   UNL A   1      41.655  18.878  25.637  1.00  0.00    -0.269 OA
BRANCH  31  34
ATOM     34  C   UNL A   1      41.290  20.995  26.580  1.00  0.00     0.039 A 
ATOM     35  C   UNL A   1      41.820  21.977  25.738  1.00  0.00     0.014 A 
ATOM     36  C   UNL A   1      41.209  21.224  27.955  1.00  0.00     0.014 A 
ATOM     37  C   UNL A   1      42.214  23.207  26.267  1.00  0.00     0.010 A 
ATOM     38  C   UNL A   1      41.521  22.479  28.470  1.00  0.00     0.010 A 
ATOM     39  C   UNL A   1      42.044  23.474  27.634  1.00  0.00    -0.014 A 
BRANCH  39  40
ATOM     40  C   UNL A   1      42.453  24.776  28.216  1.00  0.00     0.031 A 
ATOM     41  C   UNL A   1      41.430  25.857  28.428  1.00  0.00     0.074 A 
ATOM     42  C   UNL A   1      43.749  25.007  28.499  1.00  0.00     0.049 A 
ATOM     43  N   UNL A   1      41.592  27.069  28.895  1.00  0.00    -0.248 NA
ATOM     44  C   UNL A   1      40.046  25.545  28.034  1.00  0.00     0.031 C 
ATOM     45  C   UNL A   1      44.850  24.066  28.281  1.00  0.00     0.029 A 
ATOM     46  N   UNL A   1      44.360  26.114  29.031  1.00  0.00    -0.354 N 
ATOM     47  C   UNL A   1      40.342  27.671  28.817  1.00  0.00     0.074 A 
ATOM     48  C   UNL A   1      39.444  26.710  28.216  1.00  0.00     0.031 C 
ATOM     49  C   UNL A   1      45.995  24.624  28.704  1.00  0.00     0.029 A 
ATOM     50  C   UNL A   1      45.714  25.968  29.201  1.00  0.00     0.049 A 
ATOM     51  H   UNL A   1      43.872  26.938  29.267  1.00  0.00     0.167 HD
ATOM     52  C   UNL A   1      39.968  28.906  29.228  1.00  0.00     0.031 A 
ATOM     53  C   UNL A   1      46.624  26.817  29.712  1.00  0.00     0.031 A 
ATOM     54  C   UNL A   1      40.851  29.849  29.856  1.00  0.00     0.049 A 
ATOM     55  C   UNL A   1      46.175  28.156  30.221  1.00  0.00     0.074 A 
ATOM     56  C   UNL A   1      40.556  31.099  30.373  1.00  0.00     0.029 A 
ATOM     57  N   UNL A   1      42.205  29.639  30.063  1.00  0.00    -0.354 N 
ATOM     58  N   UNL A   1      44.974  28.683  30.212  1.00  0.00    -0.248 NA
ATOM     59  C   UNL A   1      47.203  29.006  30.838  1.00  0.00     0.031 C 
ATOM     60  C   UNL A   1      41.739  31.657  30.867  1.00  0.00     0.029 A 
ATOM     61  C   UNL A   1      42.762  30.736  30.694  1.00  0.00     0.049 A 
ATOM     62  H   UNL A   1      42.698  28.828  29.798  1.00  0.00     0.167 HD
ATOM     63  C   UNL A   1      45.096  29.914  30.843  1.00  0.00     0.074 A 
ATOM     64  C   UNL A   1      46.485  30.048  31.235  1.00  0.00     0.031 C 
ATOM     65  C   UNL A   1      44.144  30.848  31.081  1.00  0.00     0.031 A 
BRANCH  52  66
ATOM     66  C   UNL A   1      38.534  29.295  29.002  1.00  0.00    -0.014 A 
ATOM     67  C   UNL A   1      37.594  29.244  30.044  1.00  0.00     0.009 A 
ATOM     68  C   UNL A   1      38.116  29.713  27.730  1.00  0.00     0.009 A 
ATOM     69  C   UNL A   1      36.255  29.560  29.805  1.00  0.00     0.001 A 
ATOM     70  C   UNL A   1      36.783  30.056  27.501  1.00  0.00     0.001 A 
ATOM     71  C   UNL A   1      35.851  29.969  28.534  1.00  0.00     0.000 A 
ENDBRANCH  52  66
BRANCH  53  72
ATOM     72  C   UNL A   1      48.046  26.402  29.817  1.00  0.00    -0.014 A 
ATOM     73  C   UNL A   1      48.938  26.663  28.766  1.00  0.00     0.009 A 
ATOM     74  C   UNL A   1      48.520  25.754  30.968  1.00  0.00     0.009 A 
ATOM     75  C   UNL A   1      50.273  26.262  28.856  1.00  0.00     0.001 A 
ATOM     76  C   UNL A   1      49.860  25.375  31.064  1.00  0.00     0.001 A 
ATOM     77  C   UNL A   1      50.734  25.621  30.005  1.00  0.00     0.000 A 
ENDBRANCH  53  72
BRANCH  65  78
ATOM     78  C   UNL A   1      44.565  32.077  31.831  1.00  0.00    -0.014 A 
ATOM     79  C   UNL A   1      44.519  32.127  33.232  1.00  0.00     0.009 A 
ATOM     80  C   UNL A   1      45.045  33.190  31.122  1.00  0.00     0.009 A 
ATOM     81  C   UNL A   1      44.915  33.283  33.909  1.00  0.00     0.001 A 
ATOM     82  C   UNL A   1      45.462  34.334  31.803  1.00  0.00     0.001 A 
ATOM     83  C   UNL A   1      45.389  34.383  33.194  1.00  0.00     0.000 A 
ENDBRANCH  65  78
ENDBRANCH  39  40
ENDBRANCH  31  34
ENDBRANCH  29  30
ENDBRANCH  28  29
ENDBRANCH   1  28
TORSDOF 14
ENDMDL
