MODEL 1
REMARK VINA RESULT:     -10.5      0.000      0.000
REMARK SMILES CC(C)Cc1ccc([C@H](CF)C(=O)NCCCCNC(=O)c2ccc(-c3c4nc(c(-c5ccccc5)c5ccc([nH]5)c(-c5ccccc5)c5nc(c(-c6ccccc6)c6ccc3[nH]6)C=C5)C=C4)cc2)cc1
REMARK SMILES IDX 16 1 15 2 14 3 12 4 13 5 9 7 8 8 5 9 6 10 71 11 7 12 70 13
REMARK SMILES IDX 4 14 2 15 1 16 3 17 10 18 11 19 17 20 18 21 19 22 20 23
REMARK SMILES IDX 21 25 22 26 23 27 69 28 24 29 68 30 25 31 26 32 27 33 62 34
REMARK SMILES IDX 28 35 67 36 61 37 63 38 29 39 66 40 60 41 59 42 30 44 52 45
REMARK SMILES IDX 37 46 51 47 38 48 41 49 50 50 64 51 39 52 40 53 49 55 65 56
REMARK SMILES IDX 42 57 31 58 32 59 36 60 33 61 35 62 34 63 53 64 54 65 58 66
REMARK SMILES IDX 55 67 57 68 56 69 43 70 44 71 48 72 45 73 47 74 46 75
REMARK H PARENT 14 6 19 24 63 43 41 54
REMARK Flexibility Score: inf
ROOT
ATOM      1  C   UNL A   1      31.751  29.073  27.541  1.00  0.00     0.023 C 
ENDROOT
BRANCH   1   2
ATOM      2  C   UNL A   1      32.256  27.823  26.830  1.00  0.00     0.116 C 
BRANCH   2   3
ATOM      3  N   UNL A   1      31.330  26.711  26.954  1.00  0.00    -0.355 N 
ATOM      4  C   UNL A   1      30.808  25.892  25.996  1.00  0.00     0.230 C 
ATOM      5  O   UNL A   1      30.166  24.914  26.390  1.00  0.00    -0.274 OA
ATOM      6  H   UNL A   1      31.033  26.519  27.873  1.00  0.00     0.163 HD
BRANCH   4   7
ATOM      7  C   UNL A   1      30.973  26.174  24.508  1.00  0.00     0.139 C 
BRANCH   7   8
ATOM      8  C   UNL A   1      30.105  27.289  23.932  1.00  0.00    -0.033 A 
ATOM      9  C   UNL A   1      28.565  29.420  22.877  1.00  0.00    -0.048 A 
ATOM     10  C   UNL A   1      27.972  28.189  23.167  1.00  0.00     0.004 A 
ATOM     11  C   UNL A   1      29.927  29.589  23.135  1.00  0.00     0.004 A 
ATOM     12  C   UNL A   1      28.727  27.148  23.713  1.00  0.00     0.005 A 
ATOM     13  C   UNL A   1      30.686  28.539  23.657  1.00  0.00     0.005 A 
BRANCH   9  14
ATOM     14  C   UNL A   1      27.724  30.566  22.372  1.00  0.00     0.038 C 
BRANCH  14  15
ATOM     15  C   UNL A   1      28.570  31.674  21.716  1.00  0.00    -0.013 C 
ATOM     16  C   UNL A   1      27.984  32.120  20.373  1.00  0.00     0.008 C 
ATOM     17  C   UNL A   1      28.684  32.873  22.658  1.00  0.00     0.008 C 
ENDBRANCH  14  15
ENDBRANCH   9  14
ENDBRANCH   7   8
BRANCH   7  18
ATOM     18  C   UNL A   1      30.895  24.854  23.736  1.00  0.00     0.232 C 
ATOM     19  F   UNL A   1      30.838  25.113  22.397  1.00  0.00    -0.250 F 
ENDBRANCH   7  18
ENDBRANCH   4   7
ENDBRANCH   2   3
ENDBRANCH   1   2
BRANCH   1  20
ATOM     20  C   UNL A   1      31.740  30.338  26.681  1.00  0.00     0.023 C 
BRANCH  20  21
ATOM     21  C   UNL A   1      32.898  31.303  26.919  1.00  0.00     0.116 C 
BRANCH  21  22
ATOM     22  N   UNL A   1      32.459  32.635  27.306  1.00  0.00    -0.352 N 
ATOM     23  C   UNL A   1      33.068  33.543  28.137  1.00  0.00     0.251 C 
ATOM     24  H   UNL A   1      31.603  32.927  26.917  1.00  0.00     0.163 HD
ATOM     25  O   UNL A   1      32.487  34.573  28.465  1.00  0.00    -0.269 OA
BRANCH  23  26
ATOM     26  C   UNL A   1      34.417  33.256  28.666  1.00  0.00     0.039 A 
ATOM     27  C   UNL A   1      34.538  32.579  29.881  1.00  0.00     0.014 A 
ATOM     28  C   UNL A   1      35.557  33.627  27.947  1.00  0.00     0.014 A 
ATOM     29  C   UNL A   1      35.802  32.202  30.338  1.00  0.00     0.010 A 
ATOM     30  C   UNL A   1      36.808  33.187  28.366  1.00  0.00     0.010 A 
ATOM     31  C   UNL A   1      36.944  32.467  29.563  1.00  0.00    -0.014 A 
BRANCH  31  32
ATOM     32  C   UNL A   1      38.285  31.984  29.979  1.00  0.00     0.031 A 
ATOM     33  C   UNL A   1      38.815  30.678  29.457  1.00  0.00     0.074 A 
ATOM     34  C   UNL A   1      38.996  32.686  30.883  1.00  0.00     0.049 A 
ATOM     35  N   UNL A   1      39.934  30.065  29.752  1.00  0.00    -0.248 NA
ATOM     36  C   UNL A   1      37.967  29.953  28.497  1.00  0.00     0.031 C 
ATOM     37  C   UNL A   1      38.578  33.947  31.500  1.00  0.00     0.029 A 
ATOM     38  N   UNL A   1      40.222  32.434  31.446  1.00  0.00    -0.354 N 
ATOM     39  C   UNL A   1      39.913  28.877  29.031  1.00  0.00     0.074 A 
ATOM     40  C   UNL A   1      38.652  28.834  28.322  1.00  0.00     0.031 C 
ATOM     41  C   UNL A   1      39.543  34.371  32.333  1.00  0.00     0.029 A 
ATOM     42  C   UNL A   1      40.627  33.395  32.340  1.00  0.00     0.049 A 
ATOM     43  H   UNL A   1      40.761  31.639  31.231  1.00  0.00     0.167 HD
ATOM     44  C   UNL A   1      40.865  27.918  28.950  1.00  0.00     0.031 A 
ATOM     45  C   UNL A   1      41.743  33.480  33.087  1.00  0.00     0.031 A 
ATOM     46  C   UNL A   1      42.125  27.965  29.643  1.00  0.00     0.049 A 
ATOM     47  C   UNL A   1      42.780  32.396  32.988  1.00  0.00     0.074 A 
ATOM     48  C   UNL A   1      43.180  27.072  29.576  1.00  0.00     0.029 A 
ATOM     49  N   UNL A   1      42.499  28.959  30.533  1.00  0.00    -0.354 N 
ATOM     50  N   UNL A   1      42.777  31.316  32.245  1.00  0.00    -0.248 NA
ATOM     51  C   UNL A   1      43.979  32.549  33.825  1.00  0.00     0.031 C 
ATOM     52  C   UNL A   1      44.171  27.499  30.465  1.00  0.00     0.029 A 
ATOM     53  C   UNL A   1      43.757  28.688  31.042  1.00  0.00     0.049 A 
ATOM     54  H   UNL A   1      41.950  29.743  30.769  1.00  0.00     0.167 HD
ATOM     55  C   UNL A   1      43.982  30.677  32.503  1.00  0.00     0.074 A 
ATOM     56  C   UNL A   1      44.697  31.497  33.458  1.00  0.00     0.031 C 
ATOM     57  C   UNL A   1      44.456  29.515  31.991  1.00  0.00     0.031 A 
BRANCH  44  58
ATOM     58  C   UNL A   1      40.574  26.727  28.081  1.00  0.00    -0.014 A 
ATOM     59  C   UNL A   1      41.029  26.664  26.754  1.00  0.00     0.009 A 
ATOM     60  C   UNL A   1      39.861  25.637  28.605  1.00  0.00     0.009 A 
ATOM     61  C   UNL A   1      40.744  25.552  25.959  1.00  0.00     0.001 A 
ATOM     62  C   UNL A   1      39.603  24.514  27.817  1.00  0.00     0.001 A 
ATOM     63  C   UNL A   1      40.035  24.476  26.492  1.00  0.00     0.000 A 
ENDBRANCH  44  58
BRANCH  45  64
ATOM     64  C   UNL A   1      41.954  34.647  33.985  1.00  0.00    -0.014 A 
ATOM     65  C   UNL A   1      41.552  34.590  35.328  1.00  0.00     0.009 A 
ATOM     66  C   UNL A   1      42.545  35.825  33.503  1.00  0.00     0.009 A 
ATOM     67  C   UNL A   1      41.715  35.698  36.163  1.00  0.00     0.001 A 
ATOM     68  C   UNL A   1      42.731  36.921  34.347  1.00  0.00     0.001 A 
ATOM     69  C   UNL A   1      42.308  36.860  35.674  1.00  0.00     0.000 A 
ENDBRANCH  45  64
BRANCH  57  70
ATOM     70  C   UNL A   1      45.827  29.080  32.427  1.00  0.00    -0.014 A 
ATOM     71  C   UNL A   1      46.009  28.238  33.533  1.00  0.00     0.009 A 
ATOM     72  C   UNL A   1      46.950  29.490  31.690  1.00  0.00     0.009 A 
ATOM     73  C   UNL A   1      47.293  27.841  33.914  1.00  0.00     0.001 A 
ATOM     74  C   UNL A   1      48.229  29.068  32.055  1.00  0.00     0.001 A 
ATOM     75  C   UNL A   1      48.401  28.251  33.172  1.00  0.00     0.000 A 
ENDBRANCH  57  70
ENDBRANCH  31  32
ENDBRANCH  23  26
ENDBRANCH  21  22
ENDBRANCH  20  21
ENDBRANCH   1  20
TORSDOF 15
ENDMDL
MODEL 2
REMARK VINA RESULT:     -10.4      3.637      8.412
REMARK SMILES CC(C)Cc1ccc([C@H](CF)C(=O)NCCCCNC(=O)c2ccc(-c3c4nc(c(-c5ccccc5)c5ccc([nH]5)c(-c5ccccc5)c5nc(c(-c6ccccc6)c6ccc3[nH]6)C=C5)C=C4)cc2)cc1
REMARK SMILES IDX 16 1 15 2 14 3 12 4 13 5 9 7 8 8 5 9 6 10 71 11 7 12 70 13
REMARK SMILES IDX 4 14 2 15 1 16 3 17 10 18 11 19 17 20 18 21 19 22 20 23
REMARK SMILES IDX 21 25 22 26 23 27 69 28 24 29 68 30 25 31 26 32 27 33 62 34
REMARK SMILES IDX 28 35 67 36 61 37 63 38 29 39 66 40 60 41 59 42 30 44 52 45
REMARK SMILES IDX 37 46 51 47 38 48 41 49 50 50 64 51 39 52 40 53 49 55 65 56
REMARK SMILES IDX 42 57 31 58 32 59 36 60 33 61 35 62 34 63 53 64 54 65 58 66
REMARK SMILES IDX 55 67 57 68 56 69 43 70 44 71 48 72 45 73 47 74 46 75
REMARK H PARENT 14 6 19 24 63 43 41 54
REMARK Flexibility Score: inf
ROOT
ATOM      1  C   UNL A   1      36.202  20.679  25.065  1.00  0.00     0.023 C 
ENDROOT
BRANCH   1   2
ATOM      2  C   UNL A   1      36.196  21.973  25.870  1.00  0.00     0.116 C 
BRANCH   2   3
ATOM      3  N   UNL A   1      35.225  21.941  26.950  1.00  0.00    -0.355 N 
ATOM      4  C   UNL A   1      33.910  22.301  26.959  1.00  0.00     0.230 C 
ATOM      5  O   UNL A   1      33.263  22.020  27.972  1.00  0.00    -0.274 OA
ATOM      6  H   UNL A   1      35.571  21.607  27.809  1.00  0.00     0.163 HD
BRANCH   4   7
ATOM      7  C   UNL A   1      33.263  23.045  25.797  1.00  0.00     0.139 C 
BRANCH   7   8
ATOM      8  C   UNL A   1      33.114  24.555  25.960  1.00  0.00    -0.033 A 
ATOM      9  C   UNL A   1      32.931  27.367  26.245  1.00  0.00    -0.048 A 
ATOM     10  C   UNL A   1      31.875  26.542  26.639  1.00  0.00     0.004 A 
ATOM     11  C   UNL A   1      34.087  26.781  25.727  1.00  0.00     0.004 A 
ATOM     12  C   UNL A   1      31.978  25.154  26.524  1.00  0.00     0.005 A 
ATOM     13  C   UNL A   1      34.179  25.394  25.588  1.00  0.00     0.005 A 
BRANCH   9  14
ATOM     14  C   UNL A   1      32.846  28.858  26.457  1.00  0.00     0.038 C 
BRANCH  14  15
ATOM     15  C   UNL A   1      31.602  29.478  25.791  1.00  0.00    -0.013 C 
ATOM     16  C   UNL A   1      31.479  30.975  26.093  1.00  0.00     0.008 C 
ATOM     17  C   UNL A   1      31.651  29.254  24.279  1.00  0.00     0.008 C 
ENDBRANCH  14  15
ENDBRANCH   9  14
ENDBRANCH   7   8
BRANCH   7  18
ATOM     18  C   UNL A   1      31.971  22.325  25.398  1.00  0.00     0.232 C 
ATOM     19  F   UNL A   1      32.206  20.983  25.315  1.00  0.00    -0.250 F 
ENDBRANCH   7  18
ENDBRANCH   4   7
ENDBRANCH   2   3
ENDBRANCH   1   2
BRANCH   1  20
ATOM     20  C   UNL A   1      37.593  20.165  24.687  1.00  0.00     0.023 C 
BRANCH  20  21
ATOM     21  C   UNL A   1      38.701  20.475  25.690  1.00  0.00     0.116 C 
BRANCH  21  22
ATOM     22  N   UNL A   1      39.740  19.456  25.721  1.00  0.00    -0.352 N 
ATOM     23  C   UNL A   1      41.065  19.579  26.060  1.00  0.00     0.251 C 
ATOM     24  H   UNL A   1      39.452  18.551  25.463  1.00  0.00     0.163 HD
ATOM     25  O   UNL A   1      41.838  18.639  25.898  1.00  0.00    -0.269 OA
BRANCH  23  26
ATOM     26  C   UNL A   1      41.567  20.863  26.589  1.00  0.00     0.039 A 
ATOM     27  C   UNL A   1      42.076  21.809  25.697  1.00  0.00     0.014 A 
ATOM     28  C   UNL A   1      41.504  21.142  27.957  1.00  0.00     0.014 A 
ATOM     29  C   UNL A   1      42.450  23.070  26.168  1.00  0.00     0.010 A 
ATOM     30  C   UNL A   1      41.806  22.422  28.413  1.00  0.00     0.010 A 
ATOM     31  C   UNL A   1      42.278  23.400  27.524  1.00  0.00    -0.014 A 
BRANCH  31  32
ATOM     32  C   UNL A   1      42.570  24.766  28.026  1.00  0.00     0.031 A 
ATOM     33  C   UNL A   1      43.966  25.135  28.447  1.00  0.00     0.074 A 
ATOM     34  C   UNL A   1      41.566  25.652  28.171  1.00  0.00     0.049 A 
ATOM     35  N   UNL A   1      44.401  26.256  28.966  1.00  0.00    -0.248 NA
ATOM     36  C   UNL A   1      45.002  24.103  28.287  1.00  0.00     0.031 C 
ATOM     37  C   UNL A   1      40.160  25.407  27.841  1.00  0.00     0.029 A 
ATOM     38  N   UNL A   1      41.575  26.942  28.643  1.00  0.00    -0.354 N 
ATOM     39  C   UNL A   1      45.754  26.055  29.212  1.00  0.00     0.074 A 
ATOM     40  C   UNL A   1      46.057  24.693  28.831  1.00  0.00     0.031 C 
ATOM     41  C   UNL A   1      39.448  26.518  28.092  1.00  0.00     0.029 A 
ATOM     42  C   UNL A   1      40.337  27.538  28.639  1.00  0.00     0.049 A 
ATOM     43  H   UNL A   1      42.390  27.397  28.955  1.00  0.00     0.167 HD
ATOM     44  C   UNL A   1      46.667  26.931  29.694  1.00  0.00     0.031 A 
ATOM     45  C   UNL A   1      39.957  28.767  29.035  1.00  0.00     0.031 A 
ATOM     46  C   UNL A   1      46.372  28.290  30.062  1.00  0.00     0.049 A 
ATOM     47  C   UNL A   1      40.988  29.717  29.579  1.00  0.00     0.074 A 
ATOM     48  C   UNL A   1      47.241  29.273  30.501  1.00  0.00     0.029 A 
ATOM     49  N   UNL A   1      45.107  28.857  30.036  1.00  0.00    -0.354 N 
ATOM     50  N   UNL A   1      42.276  29.535  29.736  1.00  0.00    -0.248 NA
ATOM     51  C   UNL A   1      40.511  31.046  29.989  1.00  0.00     0.031 C 
ATOM     52  C   UNL A   1      46.494  30.419  30.790  1.00  0.00     0.029 A 
ATOM     53  C   UNL A   1      45.169  30.168  30.477  1.00  0.00     0.049 A 
ATOM     54  H   UNL A   1      44.286  28.395  29.748  1.00  0.00     0.167 HD
ATOM     55  C   UNL A   1      42.769  30.734  30.236  1.00  0.00     0.074 A 
ATOM     56  C   UNL A   1      41.643  31.639  30.340  1.00  0.00     0.031 C 
ATOM     57  C   UNL A   1      44.040  31.057  30.575  1.00  0.00     0.031 A 
BRANCH  44  58
ATOM     58  C   UNL A   1      48.078  26.439  29.857  1.00  0.00    -0.014 A 
ATOM     59  C   UNL A   1      49.022  26.577  28.827  1.00  0.00     0.009 A 
ATOM     60  C   UNL A   1      48.479  25.857  31.070  1.00  0.00     0.009 A 
ATOM     61  C   UNL A   1      50.326  26.108  28.994  1.00  0.00     0.001 A 
ATOM     62  C   UNL A   1      49.792  25.417  31.245  1.00  0.00     0.001 A 
ATOM     63  C   UNL A   1      50.712  25.533  30.204  1.00  0.00     0.000 A 
ENDBRANCH  44  58
BRANCH  45  64
ATOM     64  C   UNL A   1      38.534  29.183  28.917  1.00  0.00    -0.014 A 
ATOM     65  C   UNL A   1      37.686  29.138  30.035  1.00  0.00     0.009 A 
ATOM     66  C   UNL A   1      38.013  29.615  27.688  1.00  0.00     0.009 A 
ATOM     67  C   UNL A   1      36.340  29.492  29.917  1.00  0.00     0.001 A 
ATOM     68  C   UNL A   1      36.674  29.995  27.580  1.00  0.00     0.001 A 
ATOM     69  C   UNL A   1      35.837  29.925  28.692  1.00  0.00     0.000 A 
ENDBRANCH  45  64
BRANCH  57  70
ATOM     70  C   UNL A   1      44.289  32.458  31.057  1.00  0.00    -0.014 A 
ATOM     71  C   UNL A   1      44.239  32.781  32.421  1.00  0.00     0.009 A 
ATOM     72  C   UNL A   1      44.618  33.461  30.131  1.00  0.00     0.009 A 
ATOM     73  C   UNL A   1      44.481  34.089  32.846  1.00  0.00     0.001 A 
ATOM     74  C   UNL A   1      44.888  34.761  30.561  1.00  0.00     0.001 A 
ATOM     75  C   UNL A   1      44.811  35.076  31.917  1.00  0.00     0.000 A 
ENDBRANCH  57  70
ENDBRANCH  31  32
ENDBRANCH  23  26
ENDBRANCH  21  22
ENDBRANCH  20  21
ENDBRANCH   1  20
TORSDOF 15
ENDMDL
MODEL 3
REMARK VINA RESULT:     -10.4      4.167      9.201
REMARK SMILES CC(C)Cc1ccc([C@H](CF)C(=O)NCCCCNC(=O)c2ccc(-c3c4nc(c(-c5ccccc5)c5ccc([nH]5)c(-c5ccccc5)c5nc(c(-c6ccccc6)c6ccc3[nH]6)C=C5)C=C4)cc2)cc1
REMARK SMILES IDX 16 1 15 2 14 3 12 4 13 5 9 7 8 8 5 9 6 10 71 11 7 12 70 13
REMARK SMILES IDX 4 14 2 15 1 16 3 17 10 18 11 19 17 20 18 21 19 22 20 23
REMARK SMILES IDX 21 25 22 26 23 27 69 28 24 29 68 30 25 31 26 32 27 33 62 34
REMARK SMILES IDX 28 35 67 36 61 37 63 38 29 39 66 40 60 41 59 42 30 44 52 45
REMARK SMILES IDX 37 46 51 47 38 48 41 49 50 50 64 51 39 52 40 53 49 55 65 56
REMARK SMILES IDX 42 57 31 58 32 59 36 60 33 61 35 62 34 63 53 64 54 65 58 66
REMARK SMILES IDX 55 67 57 68 56 69 43 70 44 71 48 72 45 73 47 74 46 75
REMARK H PARENT 14 6 19 24 63 43 41 54
REMARK Flexibility Score: inf
ROOT
ATOM      1  C   UNL A   1      37.011  22.044  24.086  1.00  0.00     0.023 C 
ENDROOT
BRANCH   1   2
ATOM      2  C   UNL A   1      36.567  23.030  25.159  1.00  0.00     0.116 C 
BRANCH   2   3
ATOM      3  N   UNL A   1      35.762  24.108  24.613  1.00  0.00    -0.355 N 
ATOM      4  C   UNL A   1      34.483  24.482  24.902  1.00  0.00     0.230 C 
ATOM      5  O   UNL A   1      34.088  25.542  24.408  1.00  0.00    -0.274 OA
ATOM      6  H   UNL A   1      36.210  24.653  23.926  1.00  0.00     0.163 HD
BRANCH   4   7
ATOM      7  C   UNL A   1      33.561  23.630  25.766  1.00  0.00     0.139 C 
BRANCH   7   8
ATOM      8  C   UNL A   1      33.301  22.208  25.275  1.00  0.00    -0.033 A 
ATOM      9  C   UNL A   1      32.769  19.606  24.292  1.00  0.00    -0.048 A 
ATOM     10  C   UNL A   1      33.299  19.788  25.571  1.00  0.00     0.004 A 
ATOM     11  C   UNL A   1      32.487  20.729  23.512  1.00  0.00     0.004 A 
ATOM     12  C   UNL A   1      33.535  21.073  26.065  1.00  0.00     0.005 A 
ATOM     13  C   UNL A   1      32.747  22.013  23.998  1.00  0.00     0.005 A 
BRANCH   9  14
ATOM     14  C   UNL A   1      32.435  18.219  23.801  1.00  0.00     0.038 C 
BRANCH  14  15
ATOM     15  C   UNL A   1      33.517  17.186  24.173  1.00  0.00    -0.013 C 
ATOM     16  C   UNL A   1      32.932  16.001  24.948  1.00  0.00     0.008 C 
ATOM     17  C   UNL A   1      34.219  16.685  22.910  1.00  0.00     0.008 C 
ENDBRANCH  14  15
ENDBRANCH   9  14
ENDBRANCH   7   8
BRANCH   7  18
ATOM     18  C   UNL A   1      32.294  24.426  26.086  1.00  0.00     0.232 C 
ATOM     19  F   UNL A   1      31.829  24.065  27.317  1.00  0.00    -0.250 F 
ENDBRANCH   7  18
ENDBRANCH   4   7
ENDBRANCH   2   3
ENDBRANCH   1   2
BRANCH   1  20
ATOM     20  C   UNL A   1      37.490  20.691  24.617  1.00  0.00     0.023 C 
BRANCH  20  21
ATOM     21  C   UNL A   1      38.490  20.756  25.768  1.00  0.00     0.116 C 
BRANCH  21  22
ATOM     22  N   UNL A   1      39.526  19.738  25.679  1.00  0.00    -0.352 N 
ATOM     23  C   UNL A   1      40.867  19.838  25.958  1.00  0.00     0.251 C 
ATOM     24  H   UNL A   1      39.223  18.852  25.376  1.00  0.00     0.163 HD
ATOM     25  O   UNL A   1      41.627  18.910  25.696  1.00  0.00    -0.269 OA
BRANCH  23  26
ATOM     26  C   UNL A   1      41.400  21.084  26.545  1.00  0.00     0.039 A 
ATOM     27  C   UNL A   1      41.964  22.042  25.701  1.00  0.00     0.014 A 
ATOM     28  C   UNL A   1      41.311  21.317  27.921  1.00  0.00     0.014 A 
ATOM     29  C   UNL A   1      42.369  23.271  26.226  1.00  0.00     0.010 A 
ATOM     30  C   UNL A   1      41.645  22.568  28.429  1.00  0.00     0.010 A 
ATOM     31  C   UNL A   1      42.174  23.559  27.588  1.00  0.00    -0.014 A 
BRANCH  31  32
ATOM     32  C   UNL A   1      42.500  24.895  28.146  1.00  0.00     0.031 A 
ATOM     33  C   UNL A   1      43.899  25.203  28.606  1.00  0.00     0.074 A 
ATOM     34  C   UNL A   1      41.523  25.808  28.306  1.00  0.00     0.049 A 
ATOM     35  N   UNL A   1      44.360  26.288  29.174  1.00  0.00    -0.248 NA
ATOM     36  C   UNL A   1      44.904  24.144  28.426  1.00  0.00     0.031 C 
ATOM     37  C   UNL A   1      40.116  25.622  27.942  1.00  0.00     0.029 A 
ATOM     38  N   UNL A   1      41.564  27.078  28.826  1.00  0.00    -0.354 N 
ATOM     39  C   UNL A   1      45.701  26.035  29.437  1.00  0.00     0.074 A 
ATOM     40  C   UNL A   1      45.966  24.678  29.010  1.00  0.00     0.031 C 
ATOM     41  C   UNL A   1      39.436  26.746  28.221  1.00  0.00     0.029 A 
ATOM     42  C   UNL A   1      40.346  27.716  28.821  1.00  0.00     0.049 A 
ATOM     43  H   UNL A   1      42.387  27.495  29.169  1.00  0.00     0.167 HD
ATOM     44  C   UNL A   1      46.632  26.862  29.967  1.00  0.00     0.031 A 
ATOM     45  C   UNL A   1      39.998  28.941  29.257  1.00  0.00     0.031 A 
ATOM     46  C   UNL A   1      46.373  28.215  30.380  1.00  0.00     0.049 A 
ATOM     47  C   UNL A   1      41.049  29.836  29.854  1.00  0.00     0.074 A 
ATOM     48  C   UNL A   1      47.265  29.152  30.872  1.00  0.00     0.029 A 
ATOM     49  N   UNL A   1      45.128  28.824  30.353  1.00  0.00    -0.354 N 
ATOM     50  N   UNL A   1      42.328  29.606  30.027  1.00  0.00    -0.248 NA
ATOM     51  C   UNL A   1      40.608  31.163  30.305  1.00  0.00     0.031 C 
ATOM     52  C   UNL A   1      46.550  30.311  31.190  1.00  0.00     0.029 A 
ATOM     53  C   UNL A   1      45.224  30.115  30.843  1.00  0.00     0.049 A 
ATOM     54  H   UNL A   1      44.299  28.401  30.033  1.00  0.00     0.167 HD
ATOM     55  C   UNL A   1      42.849  30.768  30.580  1.00  0.00     0.074 A 
ATOM     56  C   UNL A   1      41.751  31.706  30.698  1.00  0.00     0.031 C 
ATOM     57  C   UNL A   1      44.123  31.036  30.954  1.00  0.00     0.031 A 
BRANCH  44  58
ATOM     58  C   UNL A   1      48.023  26.317  30.138  1.00  0.00    -0.014 A 
ATOM     59  C   UNL A   1      48.457  25.803  31.371  1.00  0.00     0.009 A 
ATOM     60  C   UNL A   1      48.901  26.288  29.043  1.00  0.00     0.009 A 
ATOM     61  C   UNL A   1      49.755  25.307  31.513  1.00  0.00     0.001 A 
ATOM     62  C   UNL A   1      50.187  25.763  29.181  1.00  0.00     0.001 A 
ATOM     63  C   UNL A   1      50.617  25.283  30.417  1.00  0.00     0.000 A 
ENDBRANCH  44  58
BRANCH  45  64
ATOM     64  C   UNL A   1      38.593  29.407  29.129  1.00  0.00    -0.014 A 
ATOM     65  C   UNL A   1      37.714  29.322  30.220  1.00  0.00     0.009 A 
ATOM     66  C   UNL A   1      38.118  29.929  27.915  1.00  0.00     0.009 A 
ATOM     67  C   UNL A   1      36.383  29.725  30.090  1.00  0.00     0.001 A 
ATOM     68  C   UNL A   1      36.794  30.356  27.797  1.00  0.00     0.001 A 
ATOM     69  C   UNL A   1      35.926  30.246  28.881  1.00  0.00     0.000 A 
ENDBRANCH  45  64
BRANCH  57  70
ATOM     70  C   UNL A   1      44.408  32.410  31.493  1.00  0.00    -0.014 A 
ATOM     71  C   UNL A   1      44.832  33.451  30.654  1.00  0.00     0.009 A 
ATOM     72  C   UNL A   1      44.207  32.674  32.858  1.00  0.00     0.009 A 
ATOM     73  C   UNL A   1      45.082  34.721  31.176  1.00  0.00     0.001 A 
ATOM     74  C   UNL A   1      44.430  33.951  33.372  1.00  0.00     0.001 A 
ATOM     75  C   UNL A   1      44.876  34.972  32.533  1.00  0.00     0.000 A 
ENDBRANCH  57  70
ENDBRANCH  31  32
ENDBRANCH  23  26
ENDBRANCH  21  22
ENDBRANCH  20  21
ENDBRANCH   1  20
TORSDOF 15
ENDMDL
