MODEL 1
REMARK VINA RESULT:     -12.3      0.000      0.000
REMARK SMILES CS(=O)(=O)c1ccc(-n2nc(C(F)(F)F)cc2-c2ccc(CC(=O)NCCCCNC(=O)c3ccc(-c4c5nc(c(-c6ccccc6)c6ccc([nH]6)c(-c6ccccc6)c6nc(c(-c7ccccc7)c7ccc4[nH]7)C=C6)C=C5)cc3)cc2)cc1
REMARK SMILES IDX 26 1 25 2 23 3 24 4 22 6 21 7 18 8 19 9 82 10 20 11 81 12
REMARK SMILES IDX 17 13 9 14 10 15 11 16 16 17 8 18 5 19 6 20 84 21 7 22 83 23
REMARK SMILES IDX 2 24 1 25 3 26 4 27 12 28 13 29 14 30 15 31 27 32 28 33
REMARK SMILES IDX 29 34 30 35 31 36 32 38 33 39 34 40 80 41 35 42 79 43 36 44
REMARK SMILES IDX 37 45 38 46 73 47 39 48 78 49 72 50 74 51 40 52 77 53 71 54
REMARK SMILES IDX 70 55 41 57 63 58 48 59 62 60 49 61 52 62 61 63 75 64 50 65
REMARK SMILES IDX 51 66 60 68 76 69 53 70 42 71 43 72 47 73 44 74 46 75 45 76
REMARK SMILES IDX 64 77 65 78 69 79 66 80 68 81 67 82 54 83 55 84 59 85 56 86
REMARK SMILES IDX 58 87 57 88
REMARK H PARENT 25 5 30 37 74 56 52 67
REMARK Flexibility Score: inf
ROOT
ATOM      1  C   UNL A   1      31.421  27.922  26.217  1.00  0.00     0.116 C 
ENDROOT
BRANCH   1   2
ATOM      2  N   UNL A   1      30.572  26.844  26.685  1.00  0.00    -0.356 N 
ATOM      3  C   UNL A   1      30.276  25.657  26.078  1.00  0.00     0.224 C 
ATOM      4  O   UNL A   1      29.432  24.930  26.606  1.00  0.00    -0.275 OA
ATOM      5  H   UNL A   1      30.149  26.987  27.563  1.00  0.00     0.163 HD
BRANCH   3   6
ATOM      6  C   UNL A   1      31.006  25.238  24.811  1.00  0.00     0.135 C 
BRANCH   6   7
ATOM      7  C   UNL A   1      32.424  24.780  25.048  1.00  0.00    -0.039 A 
ATOM      8  C   UNL A   1      35.017  23.753  25.430  1.00  0.00     0.000 A 
ATOM      9  C   UNL A   1      34.107  23.808  26.494  1.00  0.00     0.010 A 
ATOM     10  C   UNL A   1      34.643  24.275  24.190  1.00  0.00     0.010 A 
ATOM     11  C   UNL A   1      32.820  24.314  26.305  1.00  0.00     0.005 A 
ATOM     12  C   UNL A   1      33.361  24.796  24.004  1.00  0.00     0.005 A 
BRANCH   8  13
ATOM     13  C   UNL A   1      36.354  23.195  25.623  1.00  0.00     0.075 A 
ATOM     14  N   UNL A   1      36.657  21.842  25.717  1.00  0.00    -0.233 N 
ATOM     15  N   UNL A   1      37.915  21.635  26.180  1.00  0.00    -0.163 NA
ATOM     16  C   UNL A   1      38.500  22.849  26.143  1.00  0.00     0.167 A 
ATOM     17  C   UNL A   1      37.549  23.853  25.832  1.00  0.00     0.064 A 
BRANCH  14  18
ATOM     18  C   UNL A   1      35.858  20.740  25.320  1.00  0.00     0.065 A 
ATOM     19  C   UNL A   1      34.287  18.577  24.524  1.00  0.00     0.067 A 
ATOM     20  C   UNL A   1      35.677  18.457  24.555  1.00  0.00     0.022 A 
ATOM     21  C   UNL A   1      33.677  19.756  24.957  1.00  0.00     0.022 A 
ATOM     22  C   UNL A   1      36.470  19.557  24.892  1.00  0.00     0.030 A 
ATOM     23  C   UNL A   1      34.464  20.825  25.403  1.00  0.00     0.030 A 
BRANCH  19  24
ATOM     24  S   UNL A   1      33.284  17.208  23.980  1.00  0.00     0.175 S 
ATOM     25  C   UNL A   1      33.901  15.769  24.816  1.00  0.00     0.163 C 
ATOM     26  O   UNL A   1      33.558  17.011  22.567  1.00  0.00    -0.224 OA
ATOM     27  O   UNL A   1      31.943  17.458  24.461  1.00  0.00    -0.224 OA
ENDBRANCH  19  24
ENDBRANCH  14  18
BRANCH  16  28
ATOM     28  C   UNL A   1      39.963  23.074  26.415  1.00  0.00     0.435 C 
ATOM     29  F   UNL A   1      40.390  24.310  26.050  1.00  0.00    -0.164 F 
ATOM     30  F   UNL A   1      40.268  22.914  27.731  1.00  0.00    -0.164 F 
ATOM     31  F   UNL A   1      40.739  22.182  25.736  1.00  0.00    -0.164 F 
ENDBRANCH  16  28
ENDBRANCH   8  13
ENDBRANCH   6   7
ENDBRANCH   3   6
ENDBRANCH   1   2
BRANCH   1  32
ATOM     32  C   UNL A   1      31.896  28.807  27.372  1.00  0.00     0.023 C 
BRANCH  32  33
ATOM     33  C   UNL A   1      32.619  30.083  26.937  1.00  0.00     0.023 C 
BRANCH  33  34
ATOM     34  C   UNL A   1      33.791  30.484  27.805  1.00  0.00     0.116 C 
BRANCH  34  35
ATOM     35  N   UNL A   1      34.405  31.754  27.403  1.00  0.00    -0.352 N 
ATOM     36  C   UNL A   1      35.660  32.230  27.766  1.00  0.00     0.251 C 
ATOM     37  H   UNL A   1      33.872  32.331  26.811  1.00  0.00     0.163 HD
ATOM     38  O   UNL A   1      35.953  33.406  27.676  1.00  0.00    -0.269 OA
BRANCH  36  39
ATOM     39  C   UNL A   1      36.636  31.239  28.249  1.00  0.00     0.039 A 
ATOM     40  C   UNL A   1      36.777  29.970  27.684  1.00  0.00     0.014 A 
ATOM     41  C   UNL A   1      37.493  31.678  29.251  1.00  0.00     0.014 A 
ATOM     42  C   UNL A   1      37.853  29.180  28.090  1.00  0.00     0.010 A 
ATOM     43  C   UNL A   1      38.668  31.019  29.452  1.00  0.00     0.010 A 
ATOM     44  C   UNL A   1      38.804  29.729  28.964  1.00  0.00    -0.014 A 
BRANCH  44  45
ATOM     45  C   UNL A   1      40.011  29.019  29.358  1.00  0.00     0.031 A 
ATOM     46  C   UNL A   1      40.112  28.709  30.809  1.00  0.00     0.074 A 
ATOM     47  C   UNL A   1      40.828  28.460  28.434  1.00  0.00     0.049 A 
ATOM     48  N   UNL A   1      41.009  29.120  31.640  1.00  0.00    -0.248 NA
ATOM     49  C   UNL A   1      39.022  27.942  31.441  1.00  0.00     0.031 C 
ATOM     50  C   UNL A   1      40.659  28.401  26.971  1.00  0.00     0.029 A 
ATOM     51  N   UNL A   1      41.930  27.695  28.624  1.00  0.00    -0.354 N 
ATOM     52  C   UNL A   1      40.708  28.528  32.864  1.00  0.00     0.074 A 
ATOM     53  C   UNL A   1      39.398  27.947  32.721  1.00  0.00     0.031 C 
ATOM     54  C   UNL A   1      41.461  27.442  26.457  1.00  0.00     0.029 A 
ATOM     55  C   UNL A   1      42.330  26.962  27.512  1.00  0.00     0.049 A 
ATOM     56  H   UNL A   1      42.409  27.659  29.483  1.00  0.00     0.167 HD
ATOM     57  C   UNL A   1      41.656  28.373  33.830  1.00  0.00     0.031 A 
ATOM     58  C   UNL A   1      43.296  26.010  27.474  1.00  0.00     0.031 A 
ATOM     59  C   UNL A   1      42.822  29.171  33.555  1.00  0.00     0.049 A 
ATOM     60  C   UNL A   1      44.140  26.204  28.675  1.00  0.00     0.074 A 
ATOM     61  C   UNL A   1      43.061  30.526  33.438  1.00  0.00     0.029 A 
ATOM     62  N   UNL A   1      43.875  28.546  32.929  1.00  0.00    -0.354 N 
ATOM     63  N   UNL A   1      44.880  27.259  28.860  1.00  0.00    -0.248 NA
ATOM     64  C   UNL A   1      43.784  25.468  29.876  1.00  0.00     0.031 C 
ATOM     65  C   UNL A   1      43.952  30.641  32.330  1.00  0.00     0.029 A 
ATOM     66  C   UNL A   1      44.280  29.354  31.897  1.00  0.00     0.049 A 
ATOM     67  H   UNL A   1      44.268  27.677  33.176  1.00  0.00     0.167 HD
ATOM     68  C   UNL A   1      44.713  27.576  30.201  1.00  0.00     0.074 A 
ATOM     69  C   UNL A   1      44.100  26.387  30.796  1.00  0.00     0.031 C 
ATOM     70  C   UNL A   1      44.810  28.866  30.641  1.00  0.00     0.031 A 
BRANCH  57  71
ATOM     71  C   UNL A   1      41.690  27.225  34.805  1.00  0.00    -0.014 A 
ATOM     72  C   UNL A   1      41.630  27.503  36.183  1.00  0.00     0.009 A 
ATOM     73  C   UNL A   1      42.046  25.912  34.441  1.00  0.00     0.009 A 
ATOM     74  C   UNL A   1      41.977  26.539  37.138  1.00  0.00     0.001 A 
ATOM     75  C   UNL A   1      42.354  24.936  35.393  1.00  0.00     0.001 A 
ATOM     76  C   UNL A   1      42.346  25.258  36.741  1.00  0.00     0.000 A 
ENDBRANCH  57  71
BRANCH  58  77
ATOM     77  C   UNL A   1      43.366  24.783  26.651  1.00  0.00    -0.014 A 
ATOM     78  C   UNL A   1      43.583  24.854  25.266  1.00  0.00     0.009 A 
ATOM     79  C   UNL A   1      43.510  23.527  27.270  1.00  0.00     0.009 A 
ATOM     80  C   UNL A   1      43.971  23.721  24.537  1.00  0.00     0.001 A 
ATOM     81  C   UNL A   1      43.898  22.396  26.543  1.00  0.00     0.001 A 
ATOM     82  C   UNL A   1      44.144  22.496  25.178  1.00  0.00     0.000 A 
ENDBRANCH  58  77
BRANCH  70  83
ATOM     83  C   UNL A   1      45.289  29.914  29.662  1.00  0.00    -0.014 A 
ATOM     84  C   UNL A   1      44.438  30.583  28.762  1.00  0.00     0.009 A 
ATOM     85  C   UNL A   1      46.615  30.357  29.767  1.00  0.00     0.009 A 
ATOM     86  C   UNL A   1      44.909  31.645  27.978  1.00  0.00     0.001 A 
ATOM     87  C   UNL A   1      47.080  31.428  29.001  1.00  0.00     0.001 A 
ATOM     88  C   UNL A   1      46.229  32.069  28.103  1.00  0.00     0.000 A 
ENDBRANCH  70  83
ENDBRANCH  44  45
ENDBRANCH  36  39
ENDBRANCH  34  35
ENDBRANCH  33  34
ENDBRANCH  32  33
ENDBRANCH   1  32
TORSDOF 16
ENDMDL
MODEL 2
REMARK VINA RESULT:     -12.2      3.948      6.420
REMARK SMILES CS(=O)(=O)c1ccc(-n2nc(C(F)(F)F)cc2-c2ccc(CC(=O)NCCCCNC(=O)c3ccc(-c4c5nc(c(-c6ccccc6)c6ccc([nH]6)c(-c6ccccc6)c6nc(c(-c7ccccc7)c7ccc4[nH]7)C=C6)C=C5)cc3)cc2)cc1
REMARK SMILES IDX 26 1 25 2 23 3 24 4 22 6 21 7 18 8 19 9 82 10 20 11 81 12
REMARK SMILES IDX 17 13 9 14 10 15 11 16 16 17 8 18 5 19 6 20 84 21 7 22 83 23
REMARK SMILES IDX 2 24 1 25 3 26 4 27 12 28 13 29 14 30 15 31 27 32 28 33
REMARK SMILES IDX 29 34 30 35 31 36 32 38 33 39 34 40 80 41 35 42 79 43 36 44
REMARK SMILES IDX 37 45 38 46 73 47 39 48 78 49 72 50 74 51 40 52 77 53 71 54
REMARK SMILES IDX 70 55 41 57 63 58 48 59 62 60 49 61 52 62 61 63 75 64 50 65
REMARK SMILES IDX 51 66 60 68 76 69 53 70 42 71 43 72 47 73 44 74 46 75 45 76
REMARK SMILES IDX 64 77 65 78 69 79 66 80 68 81 67 82 54 83 55 84 59 85 56 86
REMARK SMILES IDX 58 87 57 88
REMARK H PARENT 25 5 30 37 74 56 52 67
REMARK Flexibility Score: inf
ROOT
ATOM      1  C   UNL A   1      35.893  31.200  30.688  1.00  0.00     0.116 C 
ENDROOT
BRANCH   1   2
ATOM      2  N   UNL A   1      36.070  32.080  29.548  1.00  0.00    -0.356 N 
ATOM      3  C   UNL A   1      35.248  32.270  28.474  1.00  0.00     0.224 C 
ATOM      4  O   UNL A   1      35.651  32.987  27.555  1.00  0.00    -0.275 OA
ATOM      5  H   UNL A   1      36.897  32.615  29.549  1.00  0.00     0.163 HD
BRANCH   3   6
ATOM      6  C   UNL A   1      33.861  31.646  28.445  1.00  0.00     0.135 C 
BRANCH   6   7
ATOM      7  C   UNL A   1      33.751  30.447  27.535  1.00  0.00    -0.039 A 
ATOM      8  C   UNL A   1      33.516  28.103  25.993  1.00  0.00     0.000 A 
ATOM      9  C   UNL A   1      34.775  28.569  26.396  1.00  0.00     0.010 A 
ATOM     10  C   UNL A   1      32.381  28.852  26.313  1.00  0.00     0.010 A 
ATOM     11  C   UNL A   1      34.893  29.729  27.163  1.00  0.00     0.005 A 
ATOM     12  C   UNL A   1      32.499  30.021  27.067  1.00  0.00     0.005 A 
BRANCH   8  13
ATOM     13  C   UNL A   1      33.393  26.871  25.216  1.00  0.00     0.075 A 
ATOM     14  N   UNL A   1      32.326  26.542  24.390  1.00  0.00    -0.233 N 
ATOM     15  N   UNL A   1      32.345  25.235  24.032  1.00  0.00    -0.163 NA
ATOM     16  C   UNL A   1      33.556  24.789  24.424  1.00  0.00     0.167 A 
ATOM     17  C   UNL A   1      34.226  25.771  25.194  1.00  0.00     0.064 A 
BRANCH  14  18
ATOM     18  C   UNL A   1      31.339  27.408  23.855  1.00  0.00     0.065 A 
ATOM     19  C   UNL A   1      29.398  29.121  22.814  1.00  0.00     0.067 A 
ATOM     20  C   UNL A   1      30.734  29.269  22.439  1.00  0.00     0.022 A 
ATOM     21  C   UNL A   1      29.020  28.073  23.656  1.00  0.00     0.022 A 
ATOM     22  C   UNL A   1      31.717  28.455  23.007  1.00  0.00     0.030 A 
ATOM     23  C   UNL A   1      29.987  27.183  24.139  1.00  0.00     0.030 A 
BRANCH  19  24
ATOM     24  S   UNL A   1      28.164  30.239  22.178  1.00  0.00     0.175 S 
ATOM     25  C   UNL A   1      28.763  31.879  22.490  1.00  0.00     0.163 C 
ATOM     26  O   UNL A   1      26.975  30.072  22.995  1.00  0.00    -0.224 OA
ATOM     27  O   UNL A   1      28.128  30.047  20.745  1.00  0.00    -0.224 OA
ENDBRANCH  19  24
ENDBRANCH  14  18
BRANCH  16  28
ATOM     28  C   UNL A   1      34.087  23.422  24.083  1.00  0.00     0.435 C 
ATOM     29  F   UNL A   1      33.228  22.689  23.329  1.00  0.00    -0.164 F 
ATOM     30  F   UNL A   1      35.264  23.486  23.405  1.00  0.00    -0.164 F 
ATOM     31  F   UNL A   1      34.336  22.689  25.205  1.00  0.00    -0.164 F 
ENDBRANCH  16  28
ENDBRANCH   8  13
ENDBRANCH   6   7
ENDBRANCH   3   6
ENDBRANCH   1   2
BRANCH   1  32
ATOM     32  C   UNL A   1      36.133  31.934  32.008  1.00  0.00     0.023 C 
BRANCH  32  33
ATOM     33  C   UNL A   1      37.298  31.388  32.836  1.00  0.00     0.023 C 
BRANCH  33  34
ATOM     34  C   UNL A   1      38.534  32.258  32.857  1.00  0.00     0.116 C 
BRANCH  34  35
ATOM     35  N   UNL A   1      38.521  33.312  31.839  1.00  0.00    -0.352 N 
ATOM     36  C   UNL A   1      39.403  33.461  30.774  1.00  0.00     0.251 C 
ATOM     37  H   UNL A   1      37.810  33.988  31.917  1.00  0.00     0.163 HD
ATOM     38  O   UNL A   1      39.534  34.518  30.190  1.00  0.00    -0.269 OA
BRANCH  36  39
ATOM     39  C   UNL A   1      40.163  32.267  30.365  1.00  0.00     0.039 A 
ATOM     40  C   UNL A   1      41.542  32.141  30.552  1.00  0.00     0.014 A 
ATOM     41  C   UNL A   1      39.406  31.215  29.866  1.00  0.00     0.014 A 
ATOM     42  C   UNL A   1      42.132  30.902  30.303  1.00  0.00     0.010 A 
ATOM     43  C   UNL A   1      39.935  29.959  29.872  1.00  0.00     0.010 A 
ATOM     44  C   UNL A   1      41.309  29.812  29.980  1.00  0.00    -0.014 A 
BRANCH  44  45
ATOM     45  C   UNL A   1      41.824  28.463  29.808  1.00  0.00     0.031 A 
ATOM     46  C   UNL A   1      42.544  27.909  30.985  1.00  0.00     0.074 A 
ATOM     47  C   UNL A   1      41.440  27.695  28.761  1.00  0.00     0.049 A 
ATOM     48  N   UNL A   1      43.779  27.545  31.052  1.00  0.00    -0.248 NA
ATOM     49  C   UNL A   1      41.838  27.861  32.279  1.00  0.00     0.031 C 
ATOM     50  C   UNL A   1      40.462  28.004  27.702  1.00  0.00     0.029 A 
ATOM     51  N   UNL A   1      41.745  26.401  28.496  1.00  0.00    -0.354 N 
ATOM     52  C   UNL A   1      43.972  27.054  32.340  1.00  0.00     0.074 A 
ATOM     53  C   UNL A   1      42.799  27.417  33.092  1.00  0.00     0.031 C 
ATOM     54  C   UNL A   1      40.075  26.863  27.090  1.00  0.00     0.029 A 
ATOM     55  C   UNL A   1      40.910  25.782  27.573  1.00  0.00     0.049 A 
ATOM     56  H   UNL A   1      42.498  25.936  28.926  1.00  0.00     0.167 HD
ATOM     57  C   UNL A   1      44.989  26.193  32.628  1.00  0.00     0.031 A 
ATOM     58  C   UNL A   1      40.897  24.465  27.248  1.00  0.00     0.031 A 
ATOM     59  C   UNL A   1      45.963  26.159  31.569  1.00  0.00     0.049 A 
ATOM     60  C   UNL A   1      42.192  23.899  27.693  1.00  0.00     0.074 A 
ATOM     61  C   UNL A   1      46.814  27.090  31.006  1.00  0.00     0.029 A 
ATOM     62  N   UNL A   1      45.849  25.145  30.646  1.00  0.00    -0.354 N 
ATOM     63  N   UNL A   1      43.334  24.241  27.170  1.00  0.00    -0.248 NA
ATOM     64  C   UNL A   1      42.257  23.333  29.030  1.00  0.00     0.031 C 
ATOM     65  C   UNL A   1      46.754  26.834  29.604  1.00  0.00     0.029 A 
ATOM     66  C   UNL A   1      45.951  25.709  29.399  1.00  0.00     0.049 A 
ATOM     67  H   UNL A   1      45.718  24.189  30.843  1.00  0.00     0.167 HD
ATOM     68  C   UNL A   1      44.196  24.357  28.252  1.00  0.00     0.074 A 
ATOM     69  C   UNL A   1      43.501  23.698  29.360  1.00  0.00     0.031 C 
ATOM     70  C   UNL A   1      45.249  25.226  28.229  1.00  0.00     0.031 A 
BRANCH  57  71
ATOM     71  C   UNL A   1      44.911  25.111  33.673  1.00  0.00    -0.014 A 
ATOM     72  C   UNL A   1      44.168  23.949  33.392  1.00  0.00     0.009 A 
ATOM     73  C   UNL A   1      45.308  25.298  35.011  1.00  0.00     0.009 A 
ATOM     74  C   UNL A   1      43.787  23.064  34.408  1.00  0.00     0.001 A 
ATOM     75  C   UNL A   1      44.963  24.396  36.021  1.00  0.00     0.001 A 
ATOM     76  C   UNL A   1      44.178  23.293  35.723  1.00  0.00     0.000 A 
ENDBRANCH  57  71
BRANCH  58  77
ATOM     77  C   UNL A   1      39.756  23.609  26.859  1.00  0.00    -0.014 A 
ATOM     78  C   UNL A   1      38.500  24.168  26.572  1.00  0.00     0.009 A 
ATOM     79  C   UNL A   1      39.974  22.269  26.489  1.00  0.00     0.009 A 
ATOM     80  C   UNL A   1      37.517  23.427  25.900  1.00  0.00     0.001 A 
ATOM     81  C   UNL A   1      38.993  21.529  25.818  1.00  0.00     0.001 A 
ATOM     82  C   UNL A   1      37.769  22.114  25.509  1.00  0.00     0.000 A 
ENDBRANCH  58  77
BRANCH  70  83
ATOM     83  C   UNL A   1      45.564  25.923  26.924  1.00  0.00    -0.014 A 
ATOM     84  C   UNL A   1      44.964  27.132  26.524  1.00  0.00     0.009 A 
ATOM     85  C   UNL A   1      46.621  25.425  26.149  1.00  0.00     0.009 A 
ATOM     86  C   UNL A   1      45.396  27.806  25.374  1.00  0.00     0.001 A 
ATOM     87  C   UNL A   1      47.066  26.107  25.014  1.00  0.00     0.001 A 
ATOM     88  C   UNL A   1      46.450  27.294  24.623  1.00  0.00     0.000 A 
ENDBRANCH  70  83
ENDBRANCH  44  45
ENDBRANCH  36  39
ENDBRANCH  34  35
ENDBRANCH  33  34
ENDBRANCH  32  33
ENDBRANCH   1  32
TORSDOF 16
ENDMDL
MODEL 3
REMARK VINA RESULT:     -12.2      5.824     10.093
REMARK SMILES CS(=O)(=O)c1ccc(-n2nc(C(F)(F)F)cc2-c2ccc(CC(=O)NCCCCNC(=O)c3ccc(-c4c5nc(c(-c6ccccc6)c6ccc([nH]6)c(-c6ccccc6)c6nc(c(-c7ccccc7)c7ccc4[nH]7)C=C6)C=C5)cc3)cc2)cc1
REMARK SMILES IDX 26 1 25 2 23 3 24 4 22 6 21 7 18 8 19 9 82 10 20 11 81 12
REMARK SMILES IDX 17 13 9 14 10 15 11 16 16 17 8 18 5 19 6 20 84 21 7 22 83 23
REMARK SMILES IDX 2 24 1 25 3 26 4 27 12 28 13 29 14 30 15 31 27 32 28 33
REMARK SMILES IDX 29 34 30 35 31 36 32 38 33 39 34 40 80 41 35 42 79 43 36 44
REMARK SMILES IDX 37 45 38 46 73 47 39 48 78 49 72 50 74 51 40 52 77 53 71 54
REMARK SMILES IDX 70 55 41 57 63 58 48 59 62 60 49 61 52 62 61 63 75 64 50 65
REMARK SMILES IDX 51 66 60 68 76 69 53 70 42 71 43 72 47 73 44 74 46 75 45 76
REMARK SMILES IDX 64 77 65 78 69 79 66 80 68 81 67 82 54 83 55 84 59 85 56 86
REMARK SMILES IDX 58 87 57 88
REMARK H PARENT 25 5 30 37 74 56 52 67
REMARK Flexibility Score: inf
ROOT
ATOM      1  C   UNL A   1      44.695  31.212  26.874  1.00  0.00     0.116 C 
ENDROOT
BRANCH   1   2
ATOM      2  N   UNL A   1      44.868  31.065  28.307  1.00  0.00    -0.356 N 
ATOM      3  C   UNL A   1      43.931  30.790  29.262  1.00  0.00     0.224 C 
ATOM      4  O   UNL A   1      44.282  30.825  30.444  1.00  0.00    -0.275 OA
ATOM      5  H   UNL A   1      45.789  31.180  28.636  1.00  0.00     0.163 HD
BRANCH   3   6
ATOM      6  C   UNL A   1      42.513  30.411  28.863  1.00  0.00     0.135 C 
BRANCH   6   7
ATOM      7  C   UNL A   1      42.341  28.947  28.541  1.00  0.00    -0.039 A 
ATOM      8  C   UNL A   1      42.210  26.205  27.917  1.00  0.00     0.000 A 
ATOM      9  C   UNL A   1      42.021  27.174  26.921  1.00  0.00     0.010 A 
ATOM     10  C   UNL A   1      42.401  26.618  29.237  1.00  0.00     0.010 A 
ATOM     11  C   UNL A   1      42.089  28.533  27.229  1.00  0.00     0.005 A 
ATOM     12  C   UNL A   1      42.453  27.977  29.549  1.00  0.00     0.005 A 
BRANCH   8  13
ATOM     13  C   UNL A   1      42.168  24.782  27.586  1.00  0.00     0.075 A 
ATOM     14  N   UNL A   1      43.214  24.050  27.038  1.00  0.00    -0.233 N 
ATOM     15  N   UNL A   1      42.802  22.844  26.574  1.00  0.00    -0.163 NA
ATOM     16  C   UNL A   1      41.548  22.703  27.051  1.00  0.00     0.167 A 
ATOM     17  C   UNL A   1      41.106  23.903  27.659  1.00  0.00     0.064 A 
BRANCH  14  18
ATOM     18  C   UNL A   1      44.590  24.391  27.000  1.00  0.00     0.065 A 
ATOM     19  C   UNL A   1      47.300  25.047  26.919  1.00  0.00     0.067 A 
ATOM     20  C   UNL A   1      46.476  25.347  25.834  1.00  0.00     0.022 A 
ATOM     21  C   UNL A   1      46.756  24.481  28.075  1.00  0.00     0.022 A 
ATOM     22  C   UNL A   1      45.133  24.963  25.844  1.00  0.00     0.030 A 
ATOM     23  C   UNL A   1      45.387  24.197  28.134  1.00  0.00     0.030 A 
BRANCH  19  24
ATOM     24  S   UNL A   1      49.039  25.431  26.854  1.00  0.00     0.175 S 
ATOM     25  C   UNL A   1      49.255  26.940  27.762  1.00  0.00     0.163 C 
ATOM     26  O   UNL A   1      49.359  25.734  25.471  1.00  0.00    -0.224 OA
ATOM     27  O   UNL A   1      49.725  24.380  27.574  1.00  0.00    -0.224 OA
ENDBRANCH  19  24
ENDBRANCH  14  18
BRANCH  16  28
ATOM     28  C   UNL A   1      40.751  21.433  26.923  1.00  0.00     0.435 C 
ATOM     29  F   UNL A   1      41.109  20.683  25.850  1.00  0.00    -0.164 F 
ATOM     30  F   UNL A   1      40.869  20.643  28.024  1.00  0.00    -0.164 F 
ATOM     31  F   UNL A   1      39.419  21.691  26.786  1.00  0.00    -0.164 F 
ENDBRANCH  16  28
ENDBRANCH   8  13
ENDBRANCH   6   7
ENDBRANCH   3   6
ENDBRANCH   1   2
BRANCH   1  32
ATOM     32  C   UNL A   1      44.917  32.657  26.425  1.00  0.00     0.023 C 
BRANCH  32  33
ATOM     33  C   UNL A   1      43.951  33.141  25.341  1.00  0.00     0.023 C 
BRANCH  33  34
ATOM     34  C   UNL A   1      43.549  34.595  25.442  1.00  0.00     0.116 C 
BRANCH  34  35
ATOM     35  N   UNL A   1      44.603  35.454  25.990  1.00  0.00    -0.352 N 
ATOM     36  C   UNL A   1      44.554  36.196  27.165  1.00  0.00     0.251 C 
ATOM     37  H   UNL A   1      45.437  35.510  25.470  1.00  0.00     0.163 HD
ATOM     38  O   UNL A   1      45.311  37.123  27.373  1.00  0.00    -0.269 OA
BRANCH  36  39
ATOM     39  C   UNL A   1      43.552  35.794  28.167  1.00  0.00     0.039 A 
ATOM     40  C   UNL A   1      42.254  36.309  28.194  1.00  0.00     0.014 A 
ATOM     41  C   UNL A   1      43.943  34.784  29.037  1.00  0.00     0.014 A 
ATOM     42  C   UNL A   1      41.330  35.727  29.062  1.00  0.00     0.010 A 
ATOM     43  C   UNL A   1      42.986  34.063  29.685  1.00  0.00     0.010 A 
ATOM     44  C   UNL A   1      41.708  34.588  29.790  1.00  0.00    -0.014 A 
BRANCH  44  45
ATOM     45  C   UNL A   1      40.781  33.855  30.638  1.00  0.00     0.031 A 
ATOM     46  C   UNL A   1      41.270  33.582  32.015  1.00  0.00     0.074 A 
ATOM     47  C   UNL A   1      39.488  33.682  30.275  1.00  0.00     0.049 A 
ATOM     48  N   UNL A   1      41.476  32.433  32.563  1.00  0.00    -0.248 NA
ATOM     49  C   UNL A   1      41.693  34.722  32.849  1.00  0.00     0.031 C 
ATOM     50  C   UNL A   1      38.787  34.200  29.088  1.00  0.00     0.029 A 
ATOM     51  N   UNL A   1      38.477  33.111  30.975  1.00  0.00    -0.354 N 
ATOM     52  C   UNL A   1      41.885  32.689  33.869  1.00  0.00     0.074 A 
ATOM     53  C   UNL A   1      42.151  34.103  33.939  1.00  0.00     0.031 C 
ATOM     54  C   UNL A   1      37.451  34.145  29.285  1.00  0.00     0.029 A 
ATOM     55  C   UNL A   1      37.202  33.416  30.512  1.00  0.00     0.049 A 
ATOM     56  H   UNL A   1      38.633  32.527  31.752  1.00  0.00     0.167 HD
ATOM     57  C   UNL A   1      41.760  31.752  34.850  1.00  0.00     0.031 A 
ATOM     58  C   UNL A   1      36.026  33.108  31.114  1.00  0.00     0.031 A 
ATOM     59  C   UNL A   1      41.500  30.447  34.300  1.00  0.00     0.049 A 
ATOM     60  C   UNL A   1      36.309  32.023  32.082  1.00  0.00     0.074 A 
ATOM     61  C   UNL A   1      42.198  29.591  33.472  1.00  0.00     0.029 A 
ATOM     62  N   UNL A   1      40.187  30.041  34.245  1.00  0.00    -0.354 N 
ATOM     63  N   UNL A   1      36.690  30.831  31.723  1.00  0.00    -0.248 NA
ATOM     64  C   UNL A   1      36.642  32.405  33.444  1.00  0.00     0.031 C 
ATOM     65  C   UNL A   1      41.211  29.058  32.589  1.00  0.00     0.029 A 
ATOM     66  C   UNL A   1      39.963  29.543  32.987  1.00  0.00     0.049 A 
ATOM     67  H   UNL A   1      39.528  30.098  34.975  1.00  0.00     0.167 HD
ATOM     68  C   UNL A   1      37.682  30.490  32.631  1.00  0.00     0.074 A 
ATOM     69  C   UNL A   1      37.546  31.458  33.720  1.00  0.00     0.031 C 
ATOM     70  C   UNL A   1      38.702  29.651  32.283  1.00  0.00     0.031 A 
BRANCH  57  71
ATOM     71  C   UNL A   1      41.491  32.074  36.297  1.00  0.00    -0.014 A 
ATOM     72  C   UNL A   1      40.325  32.787  36.628  1.00  0.00     0.009 A 
ATOM     73  C   UNL A   1      42.460  31.943  37.311  1.00  0.00     0.009 A 
ATOM     74  C   UNL A   1      40.171  33.393  37.882  1.00  0.00     0.001 A 
ATOM     75  C   UNL A   1      42.293  32.513  38.576  1.00  0.00     0.001 A 
ATOM     76  C   UNL A   1      41.160  33.261  38.852  1.00  0.00     0.000 A 
ENDBRANCH  57  71
BRANCH  58  77
ATOM     77  C   UNL A   1      34.757  33.868  31.131  1.00  0.00    -0.014 A 
ATOM     78  C   UNL A   1      34.359  34.583  32.271  1.00  0.00     0.009 A 
ATOM     79  C   UNL A   1      34.075  34.127  29.926  1.00  0.00     0.009 A 
ATOM     80  C   UNL A   1      33.348  35.551  32.199  1.00  0.00     0.001 A 
ATOM     81  C   UNL A   1      33.067  35.095  29.854  1.00  0.00     0.001 A 
ATOM     82  C   UNL A   1      32.714  35.819  30.988  1.00  0.00     0.000 A 
ENDBRANCH  58  77
BRANCH  70  83
ATOM     83  C   UNL A   1      38.622  28.956  30.941  1.00  0.00    -0.014 A 
ATOM     84  C   UNL A   1      38.606  29.641  29.711  1.00  0.00     0.009 A 
ATOM     85  C   UNL A   1      38.730  27.558  30.916  1.00  0.00     0.009 A 
ATOM     86  C   UNL A   1      38.674  28.944  28.498  1.00  0.00     0.001 A 
ATOM     87  C   UNL A   1      38.819  26.865  29.707  1.00  0.00     0.001 A 
ATOM     88  C   UNL A   1      38.785  27.557  28.498  1.00  0.00     0.000 A 
ENDBRANCH  70  83
ENDBRANCH  44  45
ENDBRANCH  36  39
ENDBRANCH  34  35
ENDBRANCH  33  34
ENDBRANCH  32  33
ENDBRANCH   1  32
TORSDOF 16
ENDMDL
