MODEL 1
REMARK VINA RESULT:     -11.6      0.000      0.000
REMARK SMILES O=C(NCCCCNC(=O)c1ccc(-n2nc(Cl)ccc2=O)cc1)c1ccc(-c2c3nc(c(-c4ccccc4)c4ccc([nH]4)c(-c4ccccc4)c4nc(c(-c5ccccc5)c5ccc2[nH]5)C=C4)C=C3)cc1
REMARK SMILES IDX 5 1 4 2 3 3 1 4 2 5 25 7 26 8 72 9 27 10 71 11 28 12 29 13
REMARK SMILES IDX 30 14 65 15 31 16 70 17 64 18 66 19 32 20 69 21 63 22 62 23
REMARK SMILES IDX 33 25 55 26 40 27 54 28 41 29 44 30 53 31 67 32 42 33 43 34
REMARK SMILES IDX 52 36 68 37 45 38 34 39 35 40 39 41 36 42 38 43 37 44 56 45
REMARK SMILES IDX 57 46 61 47 58 48 60 49 59 50 46 51 47 52 51 53 48 54 50 55
REMARK SMILES IDX 49 56 6 57 7 58 8 59 9 60 10 62 11 63 12 64 24 65 13 66
REMARK SMILES IDX 23 67 14 68 15 69 16 70 21 71 17 72 20 73 22 74 18 75 19 76
REMARK H PARENT 3 6 66 24 44 35 8 61
REMARK Flexibility Score: inf
ROOT
ATOM      1  C   UNL A   1      37.824  20.063  24.613  1.00  0.00     0.023 C 
ENDROOT
BRANCH   1   2
ATOM      2  C   UNL A   1      38.816  20.291  25.746  1.00  0.00     0.116 C 
BRANCH   2   3
ATOM      3  N   UNL A   1      39.932  19.358  25.725  1.00  0.00    -0.352 N 
ATOM      4  O   UNL A   1      42.087  18.696  25.849  1.00  0.00    -0.269 OA
ATOM      5  C   UNL A   1      41.251  19.573  26.048  1.00  0.00     0.251 C 
ATOM      6  H   UNL A   1      39.711  18.443  25.439  1.00  0.00     0.163 HD
BRANCH   5   7
ATOM      7  C   UNL A   1      41.670  20.877  26.608  1.00  0.00     0.039 A 
ATOM      8  C   UNL A   1      41.599  21.120  27.981  1.00  0.00     0.014 A 
ATOM      9  C   UNL A   1      42.136  21.872  25.743  1.00  0.00     0.014 A 
ATOM     10  C   UNL A   1      41.841  22.398  28.469  1.00  0.00     0.010 A 
ATOM     11  C   UNL A   1      42.466  23.132  26.248  1.00  0.00     0.010 A 
ATOM     12  C   UNL A   1      42.288  23.417  27.611  1.00  0.00    -0.014 A 
BRANCH  12  13
ATOM     13  C   UNL A   1      42.616  24.750  28.178  1.00  0.00     0.031 A 
ATOM     14  C   UNL A   1      44.028  25.124  28.535  1.00  0.00     0.074 A 
ATOM     15  C   UNL A   1      41.621  25.644  28.336  1.00  0.00     0.049 A 
ATOM     16  N   UNL A   1      44.482  26.261  29.003  1.00  0.00    -0.248 NA
ATOM     17  C   UNL A   1      45.063  24.095  28.352  1.00  0.00     0.031 C 
ATOM     18  C   UNL A   1      40.209  25.396  28.032  1.00  0.00     0.029 A 
ATOM     19  N   UNL A   1      41.646  26.944  28.768  1.00  0.00    -0.354 N 
ATOM     20  C   UNL A   1      45.847  26.077  29.189  1.00  0.00     0.074 A 
ATOM     21  C   UNL A   1      46.145  24.715  28.804  1.00  0.00     0.031 C 
ATOM     22  C   UNL A   1      39.512  26.523  28.237  1.00  0.00     0.029 A 
ATOM     23  C   UNL A   1      40.413  27.551  28.743  1.00  0.00     0.049 A 
ATOM     24  H   UNL A   1      42.465  27.400  29.066  1.00  0.00     0.167 HD
ATOM     25  C   UNL A   1      46.767  26.967  29.636  1.00  0.00     0.031 A 
ATOM     26  C   UNL A   1      40.042  28.793  29.101  1.00  0.00     0.031 A 
ATOM     27  C   UNL A   1      46.470  28.324  30.015  1.00  0.00     0.049 A 
ATOM     28  C   UNL A   1      41.078  29.748  29.612  1.00  0.00     0.074 A 
ATOM     29  C   UNL A   1      47.343  29.309  30.448  1.00  0.00     0.029 A 
ATOM     30  N   UNL A   1      45.205  28.888  30.010  1.00  0.00    -0.354 N 
ATOM     31  N   UNL A   1      42.368  29.568  29.749  1.00  0.00    -0.248 NA
ATOM     32  C   UNL A   1      40.605  31.079  30.017  1.00  0.00     0.031 C 
ATOM     33  C   UNL A   1      46.597  30.453  30.751  1.00  0.00     0.029 A 
ATOM     34  C   UNL A   1      45.268  30.198  30.457  1.00  0.00     0.049 A 
ATOM     35  H   UNL A   1      44.381  28.426  29.731  1.00  0.00     0.167 HD
ATOM     36  C   UNL A   1      42.865  30.765  30.244  1.00  0.00     0.074 A 
ATOM     37  C   UNL A   1      41.740  31.670  30.360  1.00  0.00     0.031 C 
ATOM     38  C   UNL A   1      44.140  31.083  30.577  1.00  0.00     0.031 A 
BRANCH  25  39
ATOM     39  C   UNL A   1      48.188  26.493  29.767  1.00  0.00    -0.014 A 
ATOM     40  C   UNL A   1      48.644  25.859  30.933  1.00  0.00     0.009 A 
ATOM     41  C   UNL A   1      49.070  26.633  28.682  1.00  0.00     0.009 A 
ATOM     42  C   UNL A   1      49.960  25.401  31.022  1.00  0.00     0.001 A 
ATOM     43  C   UNL A   1      50.379  26.153  28.765  1.00  0.00     0.001 A 
ATOM     44  C   UNL A   1      50.825  25.543  29.936  1.00  0.00     0.000 A 
ENDBRANCH  25  39
BRANCH  26  45
ATOM     45  C   UNL A   1      38.616  29.192  28.995  1.00  0.00    -0.014 A 
ATOM     46  C   UNL A   1      37.755  29.072  30.096  1.00  0.00     0.009 A 
ATOM     47  C   UNL A   1      38.114  29.715  27.792  1.00  0.00     0.009 A 
ATOM     48  C   UNL A   1      36.416  29.454  29.988  1.00  0.00     0.001 A 
ATOM     49  C   UNL A   1      36.783  30.123  27.696  1.00  0.00     0.001 A 
ATOM     50  C   UNL A   1      35.933  29.983  28.792  1.00  0.00     0.000 A 
ENDBRANCH  26  45
BRANCH  38  51
ATOM     51  C   UNL A   1      44.382  32.478  31.077  1.00  0.00    -0.014 A 
ATOM     52  C   UNL A   1      44.332  32.777  32.448  1.00  0.00     0.009 A 
ATOM     53  C   UNL A   1      44.684  33.501  30.166  1.00  0.00     0.009 A 
ATOM     54  C   UNL A   1      44.544  34.083  32.892  1.00  0.00     0.001 A 
ATOM     55  C   UNL A   1      44.923  34.800  30.616  1.00  0.00     0.001 A 
ATOM     56  C   UNL A   1      44.843  35.092  31.977  1.00  0.00     0.000 A 
ENDBRANCH  38  51
ENDBRANCH  12  13
ENDBRANCH   5   7
ENDBRANCH   2   3
ENDBRANCH   1   2
BRANCH   1  57
ATOM     57  C   UNL A   1      36.643  19.156  24.952  1.00  0.00     0.023 C 
BRANCH  57  58
ATOM     58  C   UNL A   1      35.272  19.826  24.904  1.00  0.00     0.116 C 
BRANCH  58  59
ATOM     59  N   UNL A   1      34.178  18.874  25.017  1.00  0.00    -0.352 N 
ATOM     60  C   UNL A   1      32.832  19.092  24.850  1.00  0.00     0.251 C 
ATOM     61  H   UNL A   1      34.436  17.951  25.243  1.00  0.00     0.163 HD
ATOM     62  O   UNL A   1      32.014  18.211  25.080  1.00  0.00    -0.269 OA
BRANCH  60  63
ATOM     63  C   UNL A   1      32.385  20.425  24.413  1.00  0.00     0.039 A 
ATOM     64  C   UNL A   1      32.142  21.400  25.377  1.00  0.00     0.016 A 
ATOM     65  C   UNL A   1      32.268  20.721  23.056  1.00  0.00     0.016 A 
ATOM     66  C   UNL A   1      31.876  22.712  24.973  1.00  0.00     0.029 A 
ATOM     67  C   UNL A   1      31.984  22.032  22.662  1.00  0.00     0.029 A 
ATOM     68  C   UNL A   1      31.832  23.060  23.613  1.00  0.00     0.069 A 
BRANCH  68  69
ATOM     69  N   UNL A   1      31.665  24.415  23.180  1.00  0.00    -0.196 N 
ATOM     70  N   UNL A   1      30.463  24.984  23.570  1.00  0.00    -0.153 NA
ATOM     71  C   UNL A   1      32.612  25.087  22.395  1.00  0.00     0.271 A 
ATOM     72  C   UNL A   1      30.221  26.204  23.219  1.00  0.00     0.150 A 
ATOM     73  C   UNL A   1      32.256  26.473  22.007  1.00  0.00     0.077 A 
ATOM     74  O   UNL A   1      33.673  24.647  21.958  1.00  0.00    -0.267 OA
ATOM     75  Cl  UNL A   1      28.728  26.865  23.775  1.00  0.00    -0.060 Cl
ATOM     76  C   UNL A   1      31.112  27.031  22.397  1.00  0.00     0.049 A 
ENDBRANCH  68  69
ENDBRANCH  60  63
ENDBRANCH  58  59
ENDBRANCH  57  58
ENDBRANCH   1  57
TORSDOF 12
ENDMDL
MODEL 2
REMARK VINA RESULT:     -11.5      2.322      7.780
REMARK SMILES O=C(NCCCCNC(=O)c1ccc(-n2nc(Cl)ccc2=O)cc1)c1ccc(-c2c3nc(c(-c4ccccc4)c4ccc([nH]4)c(-c4ccccc4)c4nc(c(-c5ccccc5)c5ccc2[nH]5)C=C4)C=C3)cc1
REMARK SMILES IDX 5 1 4 2 3 3 1 4 2 5 25 7 26 8 72 9 27 10 71 11 28 12 29 13
REMARK SMILES IDX 30 14 65 15 31 16 70 17 64 18 66 19 32 20 69 21 63 22 62 23
REMARK SMILES IDX 33 25 55 26 40 27 54 28 41 29 44 30 53 31 67 32 42 33 43 34
REMARK SMILES IDX 52 36 68 37 45 38 34 39 35 40 39 41 36 42 38 43 37 44 56 45
REMARK SMILES IDX 57 46 61 47 58 48 60 49 59 50 46 51 47 52 51 53 48 54 50 55
REMARK SMILES IDX 49 56 6 57 7 58 8 59 9 60 10 62 11 63 12 64 24 65 13 66
REMARK SMILES IDX 23 67 14 68 15 69 16 70 21 71 17 72 20 73 22 74 18 75 19 76
REMARK H PARENT 3 6 66 24 44 35 8 61
REMARK Flexibility Score: inf
ROOT
ATOM      1  C   UNL A   1      33.917  28.345  25.791  1.00  0.00     0.023 C 
ENDROOT
BRANCH   1   2
ATOM      2  C   UNL A   1      33.632  28.522  27.277  1.00  0.00     0.116 C 
BRANCH   2   3
ATOM      3  N   UNL A   1      33.553  29.917  27.682  1.00  0.00    -0.352 N 
ATOM      4  O   UNL A   1      34.227  31.836  28.661  1.00  0.00    -0.269 OA
ATOM      5  C   UNL A   1      34.511  30.708  28.270  1.00  0.00     0.251 C 
ATOM      6  H   UNL A   1      32.690  30.358  27.510  1.00  0.00     0.163 HD
BRANCH   5   7
ATOM      7  C   UNL A   1      35.883  30.187  28.459  1.00  0.00     0.039 A 
ATOM      8  C   UNL A   1      36.277  29.644  29.683  1.00  0.00     0.014 A 
ATOM      9  C   UNL A   1      36.789  30.250  27.396  1.00  0.00     0.014 A 
ATOM     10  C   UNL A   1      37.610  29.311  29.893  1.00  0.00     0.010 A 
ATOM     11  C   UNL A   1      38.109  29.830  27.582  1.00  0.00     0.010 A 
ATOM     12  C   UNL A   1      38.539  29.390  28.842  1.00  0.00    -0.014 A 
BRANCH  12  13
ATOM     13  C   UNL A   1      39.938  28.949  29.078  1.00  0.00     0.031 A 
ATOM     14  C   UNL A   1      40.930  29.835  29.781  1.00  0.00     0.074 A 
ATOM     15  C   UNL A   1      40.300  27.715  28.679  1.00  0.00     0.049 A 
ATOM     16  N   UNL A   1      42.177  29.580  30.097  1.00  0.00    -0.248 NA
ATOM     17  C   UNL A   1      40.473  31.176  30.176  1.00  0.00     0.031 C 
ATOM     18  C   UNL A   1      39.429  26.766  27.979  1.00  0.00     0.029 A 
ATOM     19  N   UNL A   1      41.483  27.038  28.822  1.00  0.00    -0.354 N 
ATOM     20  C   UNL A   1      42.657  30.733  30.707  1.00  0.00     0.074 A 
ATOM     21  C   UNL A   1      41.576  31.695  30.698  1.00  0.00     0.031 C 
ATOM     22  C   UNL A   1      40.090  25.613  27.802  1.00  0.00     0.029 A 
ATOM     23  C   UNL A   1      41.446  25.761  28.318  1.00  0.00     0.049 A 
ATOM     24  H   UNL A   1      42.282  27.428  29.245  1.00  0.00     0.167 HD
ATOM     25  C   UNL A   1      43.886  30.965  31.229  1.00  0.00     0.031 A 
ATOM     26  C   UNL A   1      42.399  24.814  28.261  1.00  0.00     0.031 A 
ATOM     27  C   UNL A   1      44.960  30.005  31.240  1.00  0.00     0.049 A 
ATOM     28  C   UNL A   1      43.756  25.106  28.828  1.00  0.00     0.074 A 
ATOM     29  C   UNL A   1      46.230  30.139  31.777  1.00  0.00     0.029 A 
ATOM     30  N   UNL A   1      44.893  28.737  30.687  1.00  0.00    -0.354 N 
ATOM     31  N   UNL A   1      44.181  26.190  29.430  1.00  0.00    -0.248 NA
ATOM     32  C   UNL A   1      44.763  24.044  28.707  1.00  0.00     0.031 C 
ATOM     33  C   UNL A   1      46.946  28.968  31.505  1.00  0.00     0.029 A 
ATOM     34  C   UNL A   1      46.106  28.086  30.846  1.00  0.00     0.049 A 
ATOM     35  H   UNL A   1      44.100  28.354  30.245  1.00  0.00     0.167 HD
ATOM     36  C   UNL A   1      45.501  25.936  29.772  1.00  0.00     0.074 A 
ATOM     37  C   UNL A   1      45.798  24.588  29.331  1.00  0.00     0.031 C 
ATOM     38  C   UNL A   1      46.390  26.750  30.392  1.00  0.00     0.031 A 
BRANCH  25  39
ATOM     39  C   UNL A   1      44.150  32.325  31.813  1.00  0.00    -0.014 A 
ATOM     40  C   UNL A   1      43.930  32.592  33.173  1.00  0.00     0.009 A 
ATOM     41  C   UNL A   1      44.680  33.340  31.000  1.00  0.00     0.009 A 
ATOM     42  C   UNL A   1      44.209  33.855  33.701  1.00  0.00     0.001 A 
ATOM     43  C   UNL A   1      44.982  34.594  31.535  1.00  0.00     0.001 A 
ATOM     44  C   UNL A   1      44.739  34.854  32.883  1.00  0.00     0.000 A 
ENDBRANCH  25  39
BRANCH  26  45
ATOM     45  C   UNL A   1      42.097  23.505  27.630  1.00  0.00    -0.014 A 
ATOM     46  C   UNL A   1      42.384  23.278  26.276  1.00  0.00     0.009 A 
ATOM     47  C   UNL A   1      41.535  22.465  28.390  1.00  0.00     0.009 A 
ATOM     48  C   UNL A   1      42.100  22.042  25.692  1.00  0.00     0.001 A 
ATOM     49  C   UNL A   1      41.279  21.221  27.810  1.00  0.00     0.001 A 
ATOM     50  C   UNL A   1      41.553  21.014  26.460  1.00  0.00     0.000 A 
ENDBRANCH  26  45
BRANCH  38  51
ATOM     51  C   UNL A   1      47.760  26.190  30.648  1.00  0.00    -0.014 A 
ATOM     52  C   UNL A   1      48.731  26.160  29.635  1.00  0.00     0.009 A 
ATOM     53  C   UNL A   1      48.086  25.705  31.923  1.00  0.00     0.009 A 
ATOM     54  C   UNL A   1      49.994  25.621  29.887  1.00  0.00     0.001 A 
ATOM     55  C   UNL A   1      49.359  25.192  32.179  1.00  0.00     0.001 A 
ATOM     56  C   UNL A   1      50.308  25.142  31.158  1.00  0.00     0.000 A 
ENDBRANCH  38  51
ENDBRANCH  12  13
ENDBRANCH   5   7
ENDBRANCH   2   3
ENDBRANCH   1   2
BRANCH   1  57
ATOM     57  C   UNL A   1      33.331  29.424  24.882  1.00  0.00     0.023 C 
BRANCH  57  58
ATOM     58  C   UNL A   1      33.322  29.086  23.393  1.00  0.00     0.116 C 
BRANCH  58  59
ATOM     59  N   UNL A   1      31.979  29.060  22.832  1.00  0.00    -0.352 N 
ATOM     60  C   UNL A   1      31.200  27.971  22.526  1.00  0.00     0.251 C 
ATOM     61  H   UNL A   1      31.576  29.939  22.647  1.00  0.00     0.163 HD
ATOM     62  O   UNL A   1      30.123  28.102  21.959  1.00  0.00    -0.269 OA
BRANCH  60  63
ATOM     63  C   UNL A   1      31.701  26.630  22.869  1.00  0.00     0.039 A 
ATOM     64  C   UNL A   1      32.478  25.945  21.938  1.00  0.00     0.016 A 
ATOM     65  C   UNL A   1      31.453  26.084  24.128  1.00  0.00     0.016 A 
ATOM     66  C   UNL A   1      33.094  24.747  22.308  1.00  0.00     0.029 A 
ATOM     67  C   UNL A   1      32.058  24.876  24.482  1.00  0.00     0.029 A 
ATOM     68  C   UNL A   1      32.929  24.211  23.596  1.00  0.00     0.069 A 
BRANCH  68  69
ATOM     69  N   UNL A   1      33.634  23.042  24.030  1.00  0.00    -0.196 N 
ATOM     70  N   UNL A   1      32.862  21.890  24.026  1.00  0.00    -0.153 NA
ATOM     71  C   UNL A   1      34.968  23.070  24.461  1.00  0.00     0.271 A 
ATOM     72  C   UNL A   1      33.412  20.784  24.408  1.00  0.00     0.150 A 
ATOM     73  C   UNL A   1      35.523  21.772  24.910  1.00  0.00     0.077 A 
ATOM     74  O   UNL A   1      35.706  24.048  24.551  1.00  0.00    -0.267 OA
ATOM     75  Cl  UNL A   1      32.410  19.382  24.337  1.00  0.00    -0.060 Cl
ATOM     76  C   UNL A   1      34.794  20.659  24.889  1.00  0.00     0.049 A 
ENDBRANCH  68  69
ENDBRANCH  60  63
ENDBRANCH  58  59
ENDBRANCH  57  58
ENDBRANCH   1  57
TORSDOF 12
ENDMDL
MODEL 3
REMARK VINA RESULT:     -11.4      5.310     10.889
REMARK SMILES O=C(NCCCCNC(=O)c1ccc(-n2nc(Cl)ccc2=O)cc1)c1ccc(-c2c3nc(c(-c4ccccc4)c4ccc([nH]4)c(-c4ccccc4)c4nc(c(-c5ccccc5)c5ccc2[nH]5)C=C4)C=C3)cc1
REMARK SMILES IDX 5 1 4 2 3 3 1 4 2 5 25 7 26 8 72 9 27 10 71 11 28 12 29 13
REMARK SMILES IDX 30 14 65 15 31 16 70 17 64 18 66 19 32 20 69 21 63 22 62 23
REMARK SMILES IDX 33 25 55 26 40 27 54 28 41 29 44 30 53 31 67 32 42 33 43 34
REMARK SMILES IDX 52 36 68 37 45 38 34 39 35 40 39 41 36 42 38 43 37 44 56 45
REMARK SMILES IDX 57 46 61 47 58 48 60 49 59 50 46 51 47 52 51 53 48 54 50 55
REMARK SMILES IDX 49 56 6 57 7 58 8 59 9 60 10 62 11 63 12 64 24 65 13 66
REMARK SMILES IDX 23 67 14 68 15 69 16 70 21 71 17 72 20 73 22 74 18 75 19 76
REMARK H PARENT 3 6 66 24 44 35 8 61
REMARK Flexibility Score: inf
ROOT
ATOM      1  C   UNL A   1      34.255  33.820  28.180  1.00  0.00     0.023 C 
ENDROOT
BRANCH   1   2
ATOM      2  C   UNL A   1      34.616  32.541  28.924  1.00  0.00     0.116 C 
BRANCH   2   3
ATOM      3  N   UNL A   1      33.967  31.359  28.378  1.00  0.00    -0.352 N 
ATOM      4  O   UNL A   1      33.833  29.303  27.455  1.00  0.00    -0.269 OA
ATOM      5  C   UNL A   1      34.517  30.150  28.023  1.00  0.00     0.251 C 
ATOM      6  H   UNL A   1      32.994  31.436  28.245  1.00  0.00     0.163 HD
BRANCH   5   7
ATOM      7  C   UNL A   1      35.945  29.881  28.296  1.00  0.00     0.039 A 
ATOM      8  C   UNL A   1      36.916  30.115  27.321  1.00  0.00     0.014 A 
ATOM      9  C   UNL A   1      36.317  29.380  29.549  1.00  0.00     0.014 A 
ATOM     10  C   UNL A   1      38.226  29.704  27.538  1.00  0.00     0.010 A 
ATOM     11  C   UNL A   1      37.652  29.052  29.797  1.00  0.00     0.010 A 
ATOM     12  C   UNL A   1      38.612  29.178  28.782  1.00  0.00    -0.014 A 
BRANCH  12  13
ATOM     13  C   UNL A   1      40.036  28.824  29.008  1.00  0.00     0.031 A 
ATOM     14  C   UNL A   1      40.976  29.768  29.708  1.00  0.00     0.074 A 
ATOM     15  C   UNL A   1      40.471  27.615  28.604  1.00  0.00     0.049 A 
ATOM     16  N   UNL A   1      42.238  29.590  30.016  1.00  0.00    -0.248 NA
ATOM     17  C   UNL A   1      40.440  31.077  30.108  1.00  0.00     0.031 C 
ATOM     18  C   UNL A   1      39.656  26.616  27.908  1.00  0.00     0.029 A 
ATOM     19  N   UNL A   1      41.695  27.012  28.740  1.00  0.00    -0.354 N 
ATOM     20  C   UNL A   1      42.650  30.769  30.625  1.00  0.00     0.074 A 
ATOM     21  C   UNL A   1      41.513  31.663  30.625  1.00  0.00     0.031 C 
ATOM     22  C   UNL A   1      40.385  25.505  27.725  1.00  0.00     0.029 A 
ATOM     23  C   UNL A   1      41.732  25.736  28.233  1.00  0.00     0.049 A 
ATOM     24  H   UNL A   1      42.470  27.449  29.159  1.00  0.00     0.167 HD
ATOM     25  C   UNL A   1      43.866  31.075  31.140  1.00  0.00     0.031 A 
ATOM     26  C   UNL A   1      42.742  24.849  28.168  1.00  0.00     0.031 A 
ATOM     27  C   UNL A   1      44.997  30.183  31.143  1.00  0.00     0.049 A 
ATOM     28  C   UNL A   1      44.082  25.223  28.728  1.00  0.00     0.074 A 
ATOM     29  C   UNL A   1      46.259  30.393  31.673  1.00  0.00     0.029 A 
ATOM     30  N   UNL A   1      45.004  28.914  30.588  1.00  0.00    -0.354 N 
ATOM     31  N   UNL A   1      44.443  26.330  29.330  1.00  0.00    -0.248 NA
ATOM     32  C   UNL A   1      45.151  24.225  28.599  1.00  0.00     0.031 C 
ATOM     33  C   UNL A   1      47.045  29.269  31.395  1.00  0.00     0.029 A 
ATOM     34  C   UNL A   1      46.256  28.338  30.738  1.00  0.00     0.049 A 
ATOM     35  H   UNL A   1      44.234  28.484  30.150  1.00  0.00     0.167 HD
ATOM     36  C   UNL A   1      45.778  26.157  29.663  1.00  0.00     0.074 A 
ATOM     37  C   UNL A   1      46.155  24.831  29.218  1.00  0.00     0.031 C 
ATOM     38  C   UNL A   1      46.619  27.023  30.280  1.00  0.00     0.031 A 
BRANCH  25  39
ATOM     39  C   UNL A   1      44.049  32.447  31.726  1.00  0.00    -0.014 A 
ATOM     40  C   UNL A   1      44.478  33.528  30.938  1.00  0.00     0.009 A 
ATOM     41  C   UNL A   1      43.733  32.675  33.075  1.00  0.00     0.009 A 
ATOM     42  C   UNL A   1      44.614  34.801  31.496  1.00  0.00     0.001 A 
ATOM     43  C   UNL A   1      43.846  33.954  33.625  1.00  0.00     0.001 A 
ATOM     44  C   UNL A   1      44.293  35.014  32.838  1.00  0.00     0.000 A 
ENDBRANCH  25  39
BRANCH  26  45
ATOM     45  C   UNL A   1      42.517  23.525  27.537  1.00  0.00    -0.014 A 
ATOM     46  C   UNL A   1      42.781  23.327  26.174  1.00  0.00     0.009 A 
ATOM     47  C   UNL A   1      42.053  22.444  28.304  1.00  0.00     0.009 A 
ATOM     48  C   UNL A   1      42.570  22.077  25.588  1.00  0.00     0.001 A 
ATOM     49  C   UNL A   1      41.871  21.188  27.723  1.00  0.00     0.001 A 
ATOM     50  C   UNL A   1      42.121  21.008  26.364  1.00  0.00     0.000 A 
ENDBRANCH  26  45
BRANCH  38  51
ATOM     51  C   UNL A   1      48.022  26.548  30.526  1.00  0.00    -0.014 A 
ATOM     52  C   UNL A   1      48.365  25.882  31.713  1.00  0.00     0.009 A 
ATOM     53  C   UNL A   1      49.007  26.751  29.548  1.00  0.00     0.009 A 
ATOM     54  C   UNL A   1      49.678  25.461  31.930  1.00  0.00     0.001 A 
ATOM     55  C   UNL A   1      50.313  26.305  29.757  1.00  0.00     0.001 A 
ATOM     56  C   UNL A   1      50.649  25.669  30.952  1.00  0.00     0.000 A 
ENDBRANCH  38  51
ENDBRANCH  12  13
ENDBRANCH   5   7
ENDBRANCH   2   3
ENDBRANCH   1   2
BRANCH   1  57
ATOM     57  C   UNL A   1      33.156  34.662  28.826  1.00  0.00     0.023 C 
BRANCH  57  58
ATOM     58  C   UNL A   1      33.639  35.907  29.565  1.00  0.00     0.116 C 
BRANCH  58  59
ATOM     59  N   UNL A   1      32.660  36.411  30.517  1.00  0.00    -0.352 N 
ATOM     60  C   UNL A   1      32.540  36.123  31.854  1.00  0.00     0.251 C 
ATOM     61  H   UNL A   1      31.996  37.041  30.154  1.00  0.00     0.163 HD
ATOM     62  O   UNL A   1      31.596  36.544  32.511  1.00  0.00    -0.269 OA
BRANCH  60  63
ATOM     63  C   UNL A   1      33.559  35.267  32.483  1.00  0.00     0.039 A 
ATOM     64  C   UNL A   1      33.354  33.890  32.511  1.00  0.00     0.016 A 
ATOM     65  C   UNL A   1      34.735  35.822  32.986  1.00  0.00     0.016 A 
ATOM     66  C   UNL A   1      34.382  33.053  32.956  1.00  0.00     0.029 A 
ATOM     67  C   UNL A   1      35.749  34.978  33.446  1.00  0.00     0.029 A 
ATOM     68  C   UNL A   1      35.610  33.577  33.393  1.00  0.00     0.069 A 
BRANCH  68  69
ATOM     69  N   UNL A   1      36.711  32.735  33.754  1.00  0.00    -0.196 N 
ATOM     70  N   UNL A   1      36.957  32.689  35.117  1.00  0.00    -0.153 NA
ATOM     71  C   UNL A   1      37.494  32.056  32.810  1.00  0.00     0.271 A 
ATOM     72  C   UNL A   1      37.937  31.959  35.537  1.00  0.00     0.150 A 
ATOM     73  C   UNL A   1      38.616  31.261  33.361  1.00  0.00     0.077 A 
ATOM     74  O   UNL A   1      37.385  32.083  31.586  1.00  0.00    -0.267 OA
ATOM     75  Cl  UNL A   1      38.162  31.911  37.247  1.00  0.00    -0.060 Cl
ATOM     76  C   UNL A   1      38.845  31.196  34.671  1.00  0.00     0.049 A 
ENDBRANCH  68  69
ENDBRANCH  60  63
ENDBRANCH  58  59
ENDBRANCH  57  58
ENDBRANCH   1  57
TORSDOF 12
ENDMDL
