MODEL 1
REMARK VINA RESULT:      -9.4      0.000      0.000
REMARK SMILES O=C(CC1CN(C(=O)C[C@H]2CCCCO2)C1)NCCCCNC(=O)c1ccc(-c2c3nc(c(-c4ccccc4)c4ccc([nH]4)c(-c4ccccc4)c4nc(c(-c5ccccc5)c5ccc2[nH]5)C=C4)C=C3)cc1
REMARK SMILES IDX 19 1 18 2 17 3 1 4 2 5 3 7 4 8 5 9 16 10 6 11 7 12 8 13 9 14
REMARK SMILES IDX 10 15 11 16 15 17 12 18 14 19 13 20 20 21 21 22 22 23 23 24
REMARK SMILES IDX 24 26 25 27 26 28 72 29 27 30 71 31 28 32 29 33 30 34 65 35
REMARK SMILES IDX 31 36 70 37 64 38 66 39 32 40 69 41 63 42 62 43 33 45 55 46
REMARK SMILES IDX 40 47 54 48 41 49 44 50 53 51 67 52 42 53 43 54 52 56 68 57
REMARK SMILES IDX 45 58 34 59 35 60 39 61 36 62 38 63 37 64 56 65 57 66 61 67
REMARK SMILES IDX 58 68 60 69 59 70 46 71 47 72 51 73 48 74 50 75 49 76
REMARK H PARENT 17 6 22 25 66 44 44 55
REMARK Flexibility Score: inf
ROOT
ATOM      1  C   UNL A   1      46.074  21.425  24.828  1.00  0.00     0.023 C 
ENDROOT
BRANCH   1   2
ATOM      2  C   UNL A   1      45.858  22.785  24.170  1.00  0.00     0.116 C 
BRANCH   2   3
ATOM      3  N   UNL A   1      46.230  23.887  25.040  1.00  0.00    -0.356 N 
ATOM      4  O   UNL A   1      47.693  24.850  23.558  1.00  0.00    -0.275 OA
ATOM      5  C   UNL A   1      47.113  24.864  24.639  1.00  0.00     0.220 C 
ATOM      6  H   UNL A   1      45.841  23.936  25.943  1.00  0.00     0.163 HD
BRANCH   5   7
ATOM      7  C   UNL A   1      47.345  25.973  25.647  1.00  0.00     0.107 C 
BRANCH   7   8
ATOM      8  C   UNL A   1      46.539  27.247  25.414  1.00  0.00     0.037 C 
ATOM      9  C   UNL A   1      45.015  27.174  25.700  1.00  0.00     0.125 C 
ATOM     10  C   UNL A   1      46.598  28.335  26.502  1.00  0.00     0.125 C 
ATOM     11  N   UNL A   1      45.173  28.476  26.317  1.00  0.00    -0.342 N 
ATOM     12  C   UNL A   1      44.251  29.414  26.682  1.00  0.00     0.225 C 
ATOM     13  O   UNL A   1      43.041  29.238  26.529  1.00  0.00    -0.275 OA
BRANCH  12  14
ATOM     14  C   UNL A   1      44.787  30.734  27.216  1.00  0.00     0.132 C 
BRANCH  14  15
ATOM     15  C   UNL A   1      44.094  31.989  26.681  1.00  0.00     0.127 C 
ATOM     16  C   UNL A   1      44.141  33.161  27.665  1.00  0.00     0.033 C 
ATOM     17  O   UNL A   1      44.661  32.333  25.419  1.00  0.00    -0.378 OA
ATOM     18  C   UNL A   1      43.548  34.419  27.035  1.00  0.00     0.005 C 
ATOM     19  C   UNL A   1      44.106  33.484  24.799  1.00  0.00     0.160 C 
ATOM     20  C   UNL A   1      44.224  34.700  25.700  1.00  0.00     0.029 C 
ENDBRANCH  14  15
ENDBRANCH  12  14
ENDBRANCH   7   8
ENDBRANCH   5   7
ENDBRANCH   2   3
ENDBRANCH   1   2
BRANCH   1  21
ATOM     21  C   UNL A   1      45.093  20.333  24.391  1.00  0.00     0.023 C 
BRANCH  21  22
ATOM     22  C   UNL A   1      44.647  19.373  25.490  1.00  0.00     0.116 C 
BRANCH  22  23
ATOM     23  N   UNL A   1      43.253  18.976  25.369  1.00  0.00    -0.352 N 
ATOM     24  C   UNL A   1      42.118  19.632  25.781  1.00  0.00     0.251 C 
ATOM     25  H   UNL A   1      43.100  18.111  24.926  1.00  0.00     0.163 HD
ATOM     26  O   UNL A   1      41.027  19.071  25.713  1.00  0.00    -0.269 OA
BRANCH  24  27
ATOM     27  C   UNL A   1      42.202  21.002  26.337  1.00  0.00     0.039 A 
ATOM     28  C   UNL A   1      42.128  21.170  27.723  1.00  0.00     0.014 A 
ATOM     29  C   UNL A   1      42.349  22.116  25.507  1.00  0.00     0.014 A 
ATOM     30  C   UNL A   1      42.279  22.443  28.279  1.00  0.00     0.010 A 
ATOM     31  C   UNL A   1      42.573  23.374  26.066  1.00  0.00     0.010 A 
ATOM     32  C   UNL A   1      42.545  23.552  27.458  1.00  0.00    -0.014 A 
BRANCH  32  33
ATOM     33  C   UNL A   1      42.824  24.891  28.039  1.00  0.00     0.031 A 
ATOM     34  C   UNL A   1      44.203  25.245  28.525  1.00  0.00     0.074 A 
ATOM     35  C   UNL A   1      41.817  25.774  28.190  1.00  0.00     0.049 A 
ATOM     36  N   UNL A   1      44.614  26.340  29.112  1.00  0.00    -0.248 NA
ATOM     37  C   UNL A   1      45.253  24.228  28.349  1.00  0.00     0.031 C 
ATOM     38  C   UNL A   1      40.424  25.547  27.797  1.00  0.00     0.029 A 
ATOM     39  N   UNL A   1      41.808  27.040  28.721  1.00  0.00    -0.354 N 
ATOM     40  C   UNL A   1      45.961  26.139  29.390  1.00  0.00     0.074 A 
ATOM     41  C   UNL A   1      46.287  24.801  28.948  1.00  0.00     0.031 C 
ATOM     42  C   UNL A   1      39.704  26.645  28.074  1.00  0.00     0.029 A 
ATOM     43  C   UNL A   1      40.570  27.637  28.705  1.00  0.00     0.049 A 
ATOM     44  H   UNL A   1      42.613  27.480  29.080  1.00  0.00     0.167 HD
ATOM     45  C   UNL A   1      46.848  26.995  29.950  1.00  0.00     0.031 A 
ATOM     46  C   UNL A   1      40.168  28.841  29.154  1.00  0.00     0.031 A 
ATOM     47  C   UNL A   1      46.530  28.332  30.380  1.00  0.00     0.049 A 
ATOM     48  C   UNL A   1      41.171  29.768  29.781  1.00  0.00     0.074 A 
ATOM     49  C   UNL A   1      47.381  29.291  30.902  1.00  0.00     0.029 A 
ATOM     50  N   UNL A   1      45.265  28.896  30.343  1.00  0.00    -0.354 N 
ATOM     51  N   UNL A   1      42.452  29.583  29.983  1.00  0.00    -0.248 NA
ATOM     52  C   UNL A   1      40.672  31.076  30.230  1.00  0.00     0.031 C 
ATOM     53  C   UNL A   1      46.619  30.414  31.238  1.00  0.00     0.029 A 
ATOM     54  C   UNL A   1      45.307  30.180  30.860  1.00  0.00     0.049 A 
ATOM     55  H   UNL A   1      44.456  28.450  30.001  1.00  0.00     0.167 HD
ATOM     56  C   UNL A   1      42.919  30.758  30.559  1.00  0.00     0.074 A 
ATOM     57  C   UNL A   1      41.786  31.655  30.658  1.00  0.00     0.031 C 
ATOM     58  C   UNL A   1      44.175  31.064  30.965  1.00  0.00     0.031 A 
BRANCH  45  59
ATOM     59  C   UNL A   1      48.260  26.513  30.141  1.00  0.00    -0.014 A 
ATOM     60  C   UNL A   1      48.665  25.895  31.335  1.00  0.00     0.009 A 
ATOM     61  C   UNL A   1      49.181  26.618  29.086  1.00  0.00     0.009 A 
ATOM     62  C   UNL A   1      49.969  25.416  31.477  1.00  0.00     0.001 A 
ATOM     63  C   UNL A   1      50.475  26.112  29.220  1.00  0.00     0.001 A 
ATOM     64  C   UNL A   1      50.870  25.519  30.418  1.00  0.00     0.000 A 
ENDBRANCH  45  59
BRANCH  46  65
ATOM     65  C   UNL A   1      38.743  29.242  29.015  1.00  0.00    -0.014 A 
ATOM     66  C   UNL A   1      38.264  29.762  27.803  1.00  0.00     0.009 A 
ATOM     67  C   UNL A   1      37.851  29.093  30.088  1.00  0.00     0.009 A 
ATOM     68  C   UNL A   1      36.925  30.141  27.675  1.00  0.00     0.001 A 
ATOM     69  C   UNL A   1      36.508  29.444  29.949  1.00  0.00     0.001 A 
ATOM     70  C   UNL A   1      36.047  29.975  28.745  1.00  0.00     0.000 A 
ENDBRANCH  46  65
BRANCH  58  71
ATOM     71  C   UNL A   1      44.405  32.439  31.528  1.00  0.00    -0.014 A 
ATOM     72  C   UNL A   1      44.816  33.505  30.714  1.00  0.00     0.009 A 
ATOM     73  C   UNL A   1      44.159  32.681  32.889  1.00  0.00     0.009 A 
ATOM     74  C   UNL A   1      45.007  34.777  31.257  1.00  0.00     0.001 A 
ATOM     75  C   UNL A   1      44.318  33.960  33.424  1.00  0.00     0.001 A 
ATOM     76  C   UNL A   1      44.751  35.005  32.609  1.00  0.00     0.000 A 
ENDBRANCH  58  71
ENDBRANCH  32  33
ENDBRANCH  24  27
ENDBRANCH  22  23
ENDBRANCH  21  22
ENDBRANCH   1  21
TORSDOF 14
ENDMDL
MODEL 2
REMARK VINA RESULT:      -9.1      0.652      6.076
REMARK SMILES O=C(CC1CN(C(=O)C[C@H]2CCCCO2)C1)NCCCCNC(=O)c1ccc(-c2c3nc(c(-c4ccccc4)c4ccc([nH]4)c(-c4ccccc4)c4nc(c(-c5ccccc5)c5ccc2[nH]5)C=C4)C=C3)cc1
REMARK SMILES IDX 19 1 18 2 17 3 1 4 2 5 3 7 4 8 5 9 16 10 6 11 7 12 8 13 9 14
REMARK SMILES IDX 10 15 11 16 15 17 12 18 14 19 13 20 20 21 21 22 22 23 23 24
REMARK SMILES IDX 24 26 25 27 26 28 72 29 27 30 71 31 28 32 29 33 30 34 65 35
REMARK SMILES IDX 31 36 70 37 64 38 66 39 32 40 69 41 63 42 62 43 33 45 55 46
REMARK SMILES IDX 40 47 54 48 41 49 44 50 53 51 67 52 42 53 43 54 52 56 68 57
REMARK SMILES IDX 45 58 34 59 35 60 39 61 36 62 38 63 37 64 56 65 57 66 61 67
REMARK SMILES IDX 58 68 60 69 59 70 46 71 47 72 51 73 48 74 50 75 49 76
REMARK H PARENT 17 6 22 25 66 44 44 55
REMARK Flexibility Score: inf
ROOT
ATOM      1  C   UNL A   1      45.476  20.891  25.368  1.00  0.00     0.023 C 
ENDROOT
BRANCH   1   2
ATOM      2  C   UNL A   1      45.885  21.897  24.295  1.00  0.00     0.116 C 
BRANCH   2   3
ATOM      3  N   UNL A   1      46.420  23.124  24.859  1.00  0.00    -0.356 N 
ATOM      4  O   UNL A   1      44.601  24.417  24.329  1.00  0.00    -0.275 OA
ATOM      5  C   UNL A   1      45.703  24.299  24.855  1.00  0.00     0.220 C 
ATOM      6  H   UNL A   1      47.321  23.115  25.255  1.00  0.00     0.163 HD
BRANCH   5   7
ATOM      7  C   UNL A   1      46.384  25.468  25.538  1.00  0.00     0.107 C 
BRANCH   7   8
ATOM      8  C   UNL A   1      45.716  26.825  25.333  1.00  0.00     0.037 C 
ATOM      9  C   UNL A   1      44.288  26.997  25.917  1.00  0.00     0.125 C 
ATOM     10  C   UNL A   1      46.138  27.973  26.268  1.00  0.00     0.125 C 
ATOM     11  N   UNL A   1      44.735  28.306  26.350  1.00  0.00    -0.342 N 
ATOM     12  C   UNL A   1      44.036  29.394  26.786  1.00  0.00     0.225 C 
ATOM     13  O   UNL A   1      42.809  29.386  26.890  1.00  0.00    -0.275 OA
BRANCH  12  14
ATOM     14  C   UNL A   1      44.834  30.660  27.063  1.00  0.00     0.132 C 
BRANCH  14  15
ATOM     15  C   UNL A   1      44.162  31.968  26.638  1.00  0.00     0.127 C 
ATOM     16  C   UNL A   1      44.351  33.093  27.659  1.00  0.00     0.033 C 
ATOM     17  O   UNL A   1      44.637  32.337  25.346  1.00  0.00    -0.378 OA
ATOM     18  C   UNL A   1      43.770  34.403  27.131  1.00  0.00     0.005 C 
ATOM     19  C   UNL A   1      44.090  33.539  24.820  1.00  0.00     0.160 C 
ATOM     20  C   UNL A   1      44.344  34.708  25.754  1.00  0.00     0.029 C 
ENDBRANCH  14  15
ENDBRANCH  12  14
ENDBRANCH   7   8
ENDBRANCH   5   7
ENDBRANCH   2   3
ENDBRANCH   1   2
BRANCH   1  21
ATOM     21  C   UNL A   1      44.575  19.753  24.878  1.00  0.00     0.023 C 
BRANCH  21  22
ATOM     22  C   UNL A   1      43.867  18.961  25.972  1.00  0.00     0.116 C 
BRANCH  22  23
ATOM     23  N   UNL A   1      42.457  18.738  25.692  1.00  0.00    -0.352 N 
ATOM     24  C   UNL A   1      41.373  19.532  25.976  1.00  0.00     0.251 C 
ATOM     25  H   UNL A   1      42.249  17.893  25.231  1.00  0.00     0.163 HD
ATOM     26  O   UNL A   1      40.235  19.108  25.783  1.00  0.00    -0.269 OA
BRANCH  24  27
ATOM     27  C   UNL A   1      41.561  20.885  26.546  1.00  0.00     0.039 A 
ATOM     28  C   UNL A   1      41.427  21.058  27.927  1.00  0.00     0.014 A 
ATOM     29  C   UNL A   1      41.865  21.980  25.733  1.00  0.00     0.014 A 
ATOM     30  C   UNL A   1      41.672  22.309  28.499  1.00  0.00     0.010 A 
ATOM     31  C   UNL A   1      42.182  23.209  26.312  1.00  0.00     0.010 A 
ATOM     32  C   UNL A   1      42.094  23.387  27.701  1.00  0.00    -0.014 A 
BRANCH  32  33
ATOM     33  C   UNL A   1      42.472  24.691  28.306  1.00  0.00     0.031 A 
ATOM     34  C   UNL A   1      41.446  25.776  28.491  1.00  0.00     0.074 A 
ATOM     35  C   UNL A   1      43.758  24.926  28.633  1.00  0.00     0.049 A 
ATOM     36  N   UNL A   1      41.607  26.994  28.945  1.00  0.00    -0.248 NA
ATOM     37  C   UNL A   1      40.063  25.462  28.095  1.00  0.00     0.031 C 
ATOM     38  C   UNL A   1      44.861  23.976  28.471  1.00  0.00     0.029 A 
ATOM     39  N   UNL A   1      44.357  26.042  29.164  1.00  0.00    -0.354 N 
ATOM     40  C   UNL A   1      40.356  27.593  28.873  1.00  0.00     0.074 A 
ATOM     41  C   UNL A   1      39.455  26.623  28.291  1.00  0.00     0.031 C 
ATOM     42  C   UNL A   1      45.994  24.538  28.919  1.00  0.00     0.029 A 
ATOM     43  C   UNL A   1      45.711  25.901  29.358  1.00  0.00     0.049 A 
ATOM     44  H   UNL A   1      43.864  26.865  29.386  1.00  0.00     0.167 HD
ATOM     45  C   UNL A   1      39.987  28.835  29.269  1.00  0.00     0.031 A 
ATOM     46  C   UNL A   1      46.627  26.771  29.826  1.00  0.00     0.031 A 
ATOM     47  C   UNL A   1      40.877  29.800  29.859  1.00  0.00     0.049 A 
ATOM     48  C   UNL A   1      46.193  28.146  30.248  1.00  0.00     0.074 A 
ATOM     49  C   UNL A   1      40.577  31.061  30.346  1.00  0.00     0.029 A 
ATOM     50  N   UNL A   1      42.239  29.616  30.038  1.00  0.00    -0.354 N 
ATOM     51  N   UNL A   1      44.995  28.675  30.226  1.00  0.00    -0.248 NA
ATOM     52  C   UNL A   1      47.238  29.038  30.771  1.00  0.00     0.031 C 
ATOM     53  C   UNL A   1      41.767  31.663  30.763  1.00  0.00     0.029 A 
ATOM     54  C   UNL A   1      42.797  30.751  30.602  1.00  0.00     0.049 A 
ATOM     55  H   UNL A   1      42.736  28.800  29.801  1.00  0.00     0.167 HD
ATOM     56  C   UNL A   1      45.135  29.953  30.755  1.00  0.00     0.074 A 
ATOM     57  C   UNL A   1      46.532  30.111  31.103  1.00  0.00     0.031 C 
ATOM     58  C   UNL A   1      44.190  30.905  30.937  1.00  0.00     0.031 A 
BRANCH  45  59
ATOM     59  C   UNL A   1      38.550  29.234  29.070  1.00  0.00    -0.014 A 
ATOM     60  C   UNL A   1      37.626  29.188  30.126  1.00  0.00     0.009 A 
ATOM     61  C   UNL A   1      38.131  29.727  27.823  1.00  0.00     0.009 A 
ATOM     62  C   UNL A   1      36.307  29.603  29.931  1.00  0.00     0.001 A 
ATOM     63  C   UNL A   1      36.820  30.169  27.639  1.00  0.00     0.001 A 
ATOM     64  C   UNL A   1      35.907  30.099  28.690  1.00  0.00     0.000 A 
ENDBRANCH  45  59
BRANCH  46  65
ATOM     65  C   UNL A   1      48.051  26.356  29.929  1.00  0.00    -0.014 A 
ATOM     66  C   UNL A   1      48.553  25.821  31.126  1.00  0.00     0.009 A 
ATOM     67  C   UNL A   1      48.912  26.479  28.828  1.00  0.00     0.009 A 
ATOM     68  C   UNL A   1      49.893  25.435  31.221  1.00  0.00     0.001 A 
ATOM     69  C   UNL A   1      50.242  26.064  28.917  1.00  0.00     0.001 A 
ATOM     70  C   UNL A   1      50.733  25.550  30.115  1.00  0.00     0.000 A 
ENDBRANCH  46  65
BRANCH  58  71
ATOM     71  C   UNL A   1      44.621  32.199  31.570  1.00  0.00    -0.014 A 
ATOM     72  C   UNL A   1      44.732  32.332  32.962  1.00  0.00     0.009 A 
ATOM     73  C   UNL A   1      44.971  33.288  30.754  1.00  0.00     0.009 A 
ATOM     74  C   UNL A   1      45.153  33.539  33.526  1.00  0.00     0.001 A 
ATOM     75  C   UNL A   1      45.421  34.482  31.318  1.00  0.00     0.001 A 
ATOM     76  C   UNL A   1      45.503  34.610  32.703  1.00  0.00     0.000 A 
ENDBRANCH  58  71
ENDBRANCH  32  33
ENDBRANCH  24  27
ENDBRANCH  22  23
ENDBRANCH  21  22
ENDBRANCH   1  21
TORSDOF 14
ENDMDL
MODEL 3
REMARK VINA RESULT:      -8.6      6.078     12.269
REMARK SMILES O=C(CC1CN(C(=O)C[C@H]2CCCCO2)C1)NCCCCNC(=O)c1ccc(-c2c3nc(c(-c4ccccc4)c4ccc([nH]4)c(-c4ccccc4)c4nc(c(-c5ccccc5)c5ccc2[nH]5)C=C4)C=C3)cc1
REMARK SMILES IDX 19 1 18 2 17 3 1 4 2 5 3 7 4 8 5 9 16 10 6 11 7 12 8 13 9 14
REMARK SMILES IDX 10 15 11 16 15 17 12 18 14 19 13 20 20 21 21 22 22 23 23 24
REMARK SMILES IDX 24 26 25 27 26 28 72 29 27 30 71 31 28 32 29 33 30 34 65 35
REMARK SMILES IDX 31 36 70 37 64 38 66 39 32 40 69 41 63 42 62 43 33 45 55 46
REMARK SMILES IDX 40 47 54 48 41 49 44 50 53 51 67 52 42 53 43 54 52 56 68 57
REMARK SMILES IDX 45 58 34 59 35 60 39 61 36 62 38 63 37 64 56 65 57 66 61 67
REMARK SMILES IDX 58 68 60 69 59 70 46 71 47 72 51 73 48 74 50 75 49 76
REMARK H PARENT 17 6 22 25 66 44 44 55
REMARK Flexibility Score: inf
ROOT
ATOM      1  C   UNL A   1      31.744  30.569  26.085  1.00  0.00     0.023 C 
ENDROOT
BRANCH   1   2
ATOM      2  C   UNL A   1      32.155  29.510  27.105  1.00  0.00     0.116 C 
BRANCH   2   3
ATOM      3  N   UNL A   1      32.816  28.373  26.488  1.00  0.00    -0.356 N 
ATOM      4  O   UNL A   1      31.178  26.856  27.018  1.00  0.00    -0.275 OA
ATOM      5  C   UNL A   1      32.243  27.121  26.470  1.00  0.00     0.220 C 
ATOM      6  H   UNL A   1      33.698  28.501  26.071  1.00  0.00     0.163 HD
BRANCH   5   7
ATOM      7  C   UNL A   1      33.039  26.062  25.733  1.00  0.00     0.107 C 
BRANCH   7   8
ATOM      8  C   UNL A   1      32.302  24.750  25.477  1.00  0.00     0.037 C 
ATOM      9  C   UNL A   1      32.484  24.108  24.075  1.00  0.00     0.125 C 
ATOM     10  C   UNL A   1      32.925  23.463  26.046  1.00  0.00     0.125 C 
ATOM     11  N   UNL A   1      32.597  22.848  24.781  1.00  0.00    -0.342 N 
ATOM     12  C   UNL A   1      32.530  21.560  24.335  1.00  0.00     0.225 C 
ATOM     13  O   UNL A   1      32.363  21.287  23.145  1.00  0.00    -0.275 OA
BRANCH  12  14
ATOM     14  C   UNL A   1      32.588  20.463  25.387  1.00  0.00     0.132 C 
BRANCH  14  15
ATOM     15  C   UNL A   1      32.890  19.059  24.857  1.00  0.00     0.127 C 
ATOM     16  C   UNL A   1      34.384  18.819  24.624  1.00  0.00     0.033 C 
ATOM     17  O   UNL A   1      32.329  18.095  25.745  1.00  0.00    -0.378 OA
ATOM     18  C   UNL A   1      34.641  17.370  24.216  1.00  0.00     0.005 C 
ATOM     19  C   UNL A   1      32.530  16.738  25.371  1.00  0.00     0.160 C 
ATOM     20  C   UNL A   1      34.009  16.425  25.228  1.00  0.00     0.029 C 
ENDBRANCH  14  15
ENDBRANCH  12  14
ENDBRANCH   7   8
ENDBRANCH   5   7
ENDBRANCH   2   3
ENDBRANCH   1   2
BRANCH   1  21
ATOM     21  C   UNL A   1      31.462  31.956  26.671  1.00  0.00     0.023 C 
BRANCH  21  22
ATOM     22  C   UNL A   1      32.670  32.676  27.262  1.00  0.00     0.116 C 
BRANCH  22  23
ATOM     23  N   UNL A   1      32.400  34.066  27.593  1.00  0.00    -0.352 N 
ATOM     24  C   UNL A   1      33.007  34.878  28.520  1.00  0.00     0.251 C 
ATOM     25  H   UNL A   1      31.676  34.487  27.076  1.00  0.00     0.163 HD
ATOM     26  O   UNL A   1      32.546  35.993  28.753  1.00  0.00    -0.269 OA
BRANCH  24  27
ATOM     27  C   UNL A   1      34.195  34.408  29.267  1.00  0.00     0.039 A 
ATOM     28  C   UNL A   1      34.011  33.812  30.518  1.00  0.00     0.014 A 
ATOM     29  C   UNL A   1      35.484  34.553  28.748  1.00  0.00     0.014 A 
ATOM     30  C   UNL A   1      35.108  33.293  31.211  1.00  0.00     0.010 A 
ATOM     31  C   UNL A   1      36.567  33.969  29.405  1.00  0.00     0.010 A 
ATOM     32  C   UNL A   1      36.392  33.329  30.641  1.00  0.00    -0.014 A 
BRANCH  32  33
ATOM     33  C   UNL A   1      37.550  32.680  31.310  1.00  0.00     0.031 A 
ATOM     34  C   UNL A   1      38.236  31.499  30.679  1.00  0.00     0.074 A 
ATOM     35  C   UNL A   1      37.947  33.113  32.522  1.00  0.00     0.049 A 
ATOM     36  N   UNL A   1      39.221  30.772  31.145  1.00  0.00    -0.248 NA
ATOM     37  C   UNL A   1      37.740  31.063  29.363  1.00  0.00     0.031 C 
ATOM     38  C   UNL A   1      37.346  34.223  33.265  1.00  0.00     0.029 A 
ATOM     39  N   UNL A   1      38.950  32.667  33.348  1.00  0.00    -0.354 N 
ATOM     40  C   UNL A   1      39.448  29.786  30.192  1.00  0.00     0.074 A 
ATOM     41  C   UNL A   1      38.472  29.981  29.142  1.00  0.00     0.031 C 
ATOM     42  C   UNL A   1      38.008  34.388  34.421  1.00  0.00     0.029 A 
ATOM     43  C   UNL A   1      39.049  33.371  34.524  1.00  0.00     0.049 A 
ATOM     44  H   UNL A   1      39.541  31.913  33.120  1.00  0.00     0.167 HD
ATOM     45  C   UNL A   1      40.394  28.817  30.184  1.00  0.00     0.031 A 
ATOM     46  C   UNL A   1      39.877  33.214  35.575  1.00  0.00     0.031 A 
ATOM     47  C   UNL A   1      41.374  28.628  31.221  1.00  0.00     0.049 A 
ATOM     48  C   UNL A   1      40.910  32.123  35.547  1.00  0.00     0.074 A 
ATOM     49  C   UNL A   1      42.409  27.709  31.267  1.00  0.00     0.029 A 
ATOM     50  N   UNL A   1      41.440  29.364  32.393  1.00  0.00    -0.354 N 
ATOM     51  N   UNL A   1      41.148  31.237  34.612  1.00  0.00    -0.248 NA
ATOM     52  C   UNL A   1      41.796  32.020  36.715  1.00  0.00     0.031 C 
ATOM     53  C   UNL A   1      43.063  27.848  32.494  1.00  0.00     0.029 A 
ATOM     54  C   UNL A   1      42.481  28.901  33.182  1.00  0.00     0.049 A 
ATOM     55  H   UNL A   1      40.838  30.106  32.630  1.00  0.00     0.167 HD
ATOM     56  C   UNL A   1      42.226  30.488  35.065  1.00  0.00     0.074 A 
ATOM     57  C   UNL A   1      42.605  31.034  36.351  1.00  0.00     0.031 C 
ATOM     58  C   UNL A   1      42.846  29.443  34.465  1.00  0.00     0.031 A 
BRANCH  45  59
ATOM     59  C   UNL A   1      40.414  27.869  29.017  1.00  0.00    -0.014 A 
ATOM     60  C   UNL A   1      39.681  26.671  29.036  1.00  0.00     0.009 A 
ATOM     61  C   UNL A   1      41.123  28.212  27.854  1.00  0.00     0.009 A 
ATOM     62  C   UNL A   1      39.680  25.825  27.924  1.00  0.00     0.001 A 
ATOM     63  C   UNL A   1      41.095  27.379  26.734  1.00  0.00     0.001 A 
ATOM     64  C   UNL A   1      40.381  26.183  26.773  1.00  0.00     0.000 A 
ENDBRANCH  45  59
BRANCH  46  65
ATOM     65  C   UNL A   1      39.765  34.127  36.744  1.00  0.00    -0.014 A 
ATOM     66  C   UNL A   1      39.012  33.757  37.868  1.00  0.00     0.009 A 
ATOM     67  C   UNL A   1      40.423  35.367  36.746  1.00  0.00     0.009 A 
ATOM     68  C   UNL A   1      38.906  34.618  38.963  1.00  0.00     0.001 A 
ATOM     69  C   UNL A   1      40.340  36.212  37.854  1.00  0.00     0.001 A 
ATOM     70  C   UNL A   1      39.575  35.841  38.958  1.00  0.00     0.000 A 
ENDBRANCH  46  65
BRANCH  58  71
ATOM     71  C   UNL A   1      44.023  28.835  35.176  1.00  0.00    -0.014 A 
ATOM     72  C   UNL A   1      43.872  27.741  36.042  1.00  0.00     0.009 A 
ATOM     73  C   UNL A   1      45.313  29.335  34.934  1.00  0.00     0.009 A 
ATOM     74  C   UNL A   1      44.984  27.182  36.676  1.00  0.00     0.001 A 
ATOM     75  C   UNL A   1      46.426  28.755  35.544  1.00  0.00     0.001 A 
ATOM     76  C   UNL A   1      46.260  27.685  36.422  1.00  0.00     0.000 A 
ENDBRANCH  58  71
ENDBRANCH  32  33
ENDBRANCH  24  27
ENDBRANCH  22  23
ENDBRANCH  21  22
ENDBRANCH   1  21
TORSDOF 14
ENDMDL
