MODEL 1
REMARK VINA RESULT:     -11.9      0.000      0.000
REMARK SMILES O=C(NCCCCNC(=O)c1ccc(-c2c3nc(c(-c4ccccc4)c4ccc([nH]4)c(-c4ccccc4)c4nc(c(-c5ccccc5)c5ccc2[nH]5)C=C4)C=C3)cc1)C1=Cc2c(Cl)ccc(Cl)c2O[C@@H]1C(F)(F)F
REMARK SMILES IDX 6 1 5 2 4 3 3 4 1 5 2 6 59 8 60 9 70 10 61 11 69 12 62 13
REMARK SMILES IDX 68 14 63 15 64 16 66 17 65 18 67 19 71 20 72 21 73 22 74 23
REMARK SMILES IDX 7 24 8 25 9 26 10 28 11 29 12 30 58 31 13 32 57 33 14 34
REMARK SMILES IDX 15 35 16 36 51 37 17 38 56 39 50 40 52 41 18 42 55 43 49 44
REMARK SMILES IDX 48 45 19 47 41 48 26 49 40 50 27 51 30 52 39 53 53 54 28 55
REMARK SMILES IDX 29 56 38 58 54 59 31 60 20 61 21 62 25 63 22 64 24 65 23 66
REMARK SMILES IDX 42 67 43 68 47 69 44 70 46 71 45 72 32 73 33 74 37 75 34 76
REMARK SMILES IDX 36 77 35 78
REMARK H PARENT 3 7 8 27 52 46 30 57
REMARK Flexibility Score: inf
ROOT
ATOM      1  C   UNL A   1      33.415  28.788  27.233  1.00  0.00     0.023 C 
ENDROOT
BRANCH   1   2
ATOM      2  C   UNL A   1      31.900  28.633  27.256  1.00  0.00     0.023 C 
BRANCH   2   3
ATOM      3  C   UNL A   1      31.312  27.575  26.332  1.00  0.00     0.116 C 
BRANCH   3   4
ATOM      4  N   UNL A   1      31.182  26.247  26.900  1.00  0.00    -0.352 N 
ATOM      5  O   UNL A   1      31.674  24.085  27.251  1.00  0.00    -0.270 OA
ATOM      6  C   UNL A   1      31.808  25.083  26.543  1.00  0.00     0.251 C 
ATOM      7  H   UNL A   1      30.551  26.171  27.652  1.00  0.00     0.163 HD
BRANCH   6   8
ATOM      8  C   UNL A   1      32.729  24.994  25.369  1.00  0.00     0.067 C 
ATOM      9  C   UNL A   1      34.048  24.774  25.500  1.00  0.00     0.027 C 
ATOM     10  C   UNL A   1      32.039  24.511  24.117  1.00  0.00     0.314 C 
ATOM     11  C   UNL A   1      34.428  23.389  25.088  1.00  0.00     0.037 A 
ATOM     12  O   UNL A   1      32.316  23.104  23.888  1.00  0.00    -0.474 OA
ATOM     13  C   UNL A   1      35.596  22.792  25.600  1.00  0.00     0.052 A 
ATOM     14  C   UNL A   1      33.490  22.596  24.397  1.00  0.00     0.148 A 
ATOM     15  Cl  UNL A   1      36.776  23.702  26.481  1.00  0.00    -0.084 Cl
ATOM     16  C   UNL A   1      35.781  21.413  25.505  1.00  0.00     0.023 A 
ATOM     17  C   UNL A   1      33.692  21.213  24.301  1.00  0.00     0.083 A 
ATOM     18  C   UNL A   1      34.821  20.622  24.873  1.00  0.00     0.026 A 
ATOM     19  Cl  UNL A   1      32.515  20.184  23.569  1.00  0.00    -0.080 Cl
BRANCH  10  20
ATOM     20  C   UNL A   1      32.387  25.364  22.885  1.00  0.00     0.429 C 
ATOM     21  F   UNL A   1      32.677  26.640  23.233  1.00  0.00    -0.167 F 
ATOM     22  F   UNL A   1      33.466  24.878  22.228  1.00  0.00    -0.167 F 
ATOM     23  F   UNL A   1      31.367  25.415  21.993  1.00  0.00    -0.167 F 
ENDBRANCH  10  20
ENDBRANCH   6   8
ENDBRANCH   3   4
ENDBRANCH   2   3
ENDBRANCH   1   2
BRANCH   1  24
ATOM     24  C   UNL A   1      33.962  30.201  27.030  1.00  0.00     0.116 C 
BRANCH  24  25
ATOM     25  N   UNL A   1      34.045  31.011  28.237  1.00  0.00    -0.352 N 
ATOM     26  C   UNL A   1      35.067  31.124  29.157  1.00  0.00     0.251 C 
ATOM     27  H   UNL A   1      33.251  31.562  28.426  1.00  0.00     0.163 HD
ATOM     28  O   UNL A   1      34.943  31.866  30.122  1.00  0.00    -0.269 OA
BRANCH  26  29
ATOM     29  C   UNL A   1      36.290  30.299  29.009  1.00  0.00     0.039 A 
ATOM     30  C   UNL A   1      36.972  30.326  27.790  1.00  0.00     0.014 A 
ATOM     31  C   UNL A   1      36.797  29.552  30.074  1.00  0.00     0.014 A 
ATOM     32  C   UNL A   1      38.217  29.701  27.678  1.00  0.00     0.010 A 
ATOM     33  C   UNL A   1      38.075  29.002  29.989  1.00  0.00     0.010 A 
ATOM     34  C   UNL A   1      38.807  29.086  28.795  1.00  0.00    -0.014 A 
BRANCH  34  35
ATOM     35  C   UNL A   1      40.207  28.588  28.738  1.00  0.00     0.031 A 
ATOM     36  C   UNL A   1      40.509  27.162  28.373  1.00  0.00     0.074 A 
ATOM     37  C   UNL A   1      41.216  29.417  29.076  1.00  0.00     0.049 A 
ATOM     38  N   UNL A   1      41.673  26.576  28.235  1.00  0.00    -0.248 NA
ATOM     39  C   UNL A   1      39.359  26.271  28.160  1.00  0.00     0.031 C 
ATOM     40  C   UNL A   1      41.062  30.805  29.523  1.00  0.00     0.029 A 
ATOM     41  N   UNL A   1      42.574  29.216  29.088  1.00  0.00    -0.354 N 
ATOM     42  C   UNL A   1      41.395  25.248  27.937  1.00  0.00     0.074 A 
ATOM     43  C   UNL A   1      39.956  25.104  27.964  1.00  0.00     0.031 C 
ATOM     44  C   UNL A   1      42.277  31.343  29.712  1.00  0.00     0.029 A 
ATOM     45  C   UNL A   1      43.294  30.336  29.428  1.00  0.00     0.049 A 
ATOM     46  H   UNL A   1      42.993  28.351  28.874  1.00  0.00     0.167 HD
ATOM     47  C   UNL A   1      42.256  24.243  27.646  1.00  0.00     0.031 A 
ATOM     48  C   UNL A   1      44.623  30.539  29.486  1.00  0.00     0.031 A 
ATOM     49  C   UNL A   1      43.687  24.384  27.606  1.00  0.00     0.049 A 
ATOM     50  C   UNL A   1      45.557  29.417  29.131  1.00  0.00     0.074 A 
ATOM     51  C   UNL A   1      44.637  23.443  27.245  1.00  0.00     0.029 A 
ATOM     52  N   UNL A   1      44.376  25.537  27.947  1.00  0.00    -0.354 N 
ATOM     53  N   UNL A   1      45.275  28.195  28.750  1.00  0.00    -0.248 NA
ATOM     54  C   UNL A   1      46.995  29.713  29.199  1.00  0.00     0.031 C 
ATOM     55  C   UNL A   1      45.904  24.015  27.409  1.00  0.00     0.029 A 
ATOM     56  C   UNL A   1      45.740  25.327  27.827  1.00  0.00     0.049 A 
ATOM     57  H   UNL A   1      43.958  26.381  28.233  1.00  0.00     0.167 HD
ATOM     58  C   UNL A   1      46.497  27.585  28.504  1.00  0.00     0.074 A 
ATOM     59  C   UNL A   1      47.522  28.576  28.764  1.00  0.00     0.031 C 
ATOM     60  C   UNL A   1      46.748  26.317  28.097  1.00  0.00     0.031 A 
BRANCH  47  61
ATOM     61  C   UNL A   1      41.660  22.895  27.353  1.00  0.00    -0.014 A 
ATOM     62  C   UNL A   1      41.931  21.785  28.171  1.00  0.00     0.009 A 
ATOM     63  C   UNL A   1      40.801  22.734  26.254  1.00  0.00     0.009 A 
ATOM     64  C   UNL A   1      41.392  20.533  27.867  1.00  0.00     0.001 A 
ATOM     65  C   UNL A   1      40.241  21.487  25.970  1.00  0.00     0.001 A 
ATOM     66  C   UNL A   1      40.545  20.385  26.769  1.00  0.00     0.000 A 
ENDBRANCH  47  61
BRANCH  48  67
ATOM     67  C   UNL A   1      45.157  31.880  29.835  1.00  0.00    -0.014 A 
ATOM     68  C   UNL A   1      45.434  32.199  31.174  1.00  0.00     0.009 A 
ATOM     69  C   UNL A   1      45.387  32.845  28.844  1.00  0.00     0.009 A 
ATOM     70  C   UNL A   1      45.906  33.468  31.517  1.00  0.00     0.001 A 
ATOM     71  C   UNL A   1      45.884  34.105  29.187  1.00  0.00     0.001 A 
ATOM     72  C   UNL A   1      46.135  34.417  30.523  1.00  0.00     0.000 A 
ENDBRANCH  48  67
BRANCH  60  73
ATOM     73  C   UNL A   1      48.189  25.946  27.882  1.00  0.00    -0.014 A 
ATOM     74  C   UNL A   1      48.796  26.078  26.623  1.00  0.00     0.009 A 
ATOM     75  C   UNL A   1      48.951  25.466  28.958  1.00  0.00     0.009 A 
ATOM     76  C   UNL A   1      50.125  25.693  26.436  1.00  0.00     0.001 A 
ATOM     77  C   UNL A   1      50.288  25.109  28.775  1.00  0.00     0.001 A 
ATOM     78  C   UNL A   1      50.869  25.211  27.512  1.00  0.00     0.000 A 
ENDBRANCH  60  73
ENDBRANCH  34  35
ENDBRANCH  26  29
ENDBRANCH  24  25
ENDBRANCH   1  24
TORSDOF 12
ENDMDL
MODEL 2
REMARK VINA RESULT:     -11.6      2.654      7.694
REMARK SMILES O=C(NCCCCNC(=O)c1ccc(-c2c3nc(c(-c4ccccc4)c4ccc([nH]4)c(-c4ccccc4)c4nc(c(-c5ccccc5)c5ccc2[nH]5)C=C4)C=C3)cc1)C1=Cc2c(Cl)ccc(Cl)c2O[C@@H]1C(F)(F)F
REMARK SMILES IDX 6 1 5 2 4 3 3 4 1 5 2 6 59 8 60 9 70 10 61 11 69 12 62 13
REMARK SMILES IDX 68 14 63 15 64 16 66 17 65 18 67 19 71 20 72 21 73 22 74 23
REMARK SMILES IDX 7 24 8 25 9 26 10 28 11 29 12 30 58 31 13 32 57 33 14 34
REMARK SMILES IDX 15 35 16 36 51 37 17 38 56 39 50 40 52 41 18 42 55 43 49 44
REMARK SMILES IDX 48 45 19 47 41 48 26 49 40 50 27 51 30 52 39 53 53 54 28 55
REMARK SMILES IDX 29 56 38 58 54 59 31 60 20 61 21 62 25 63 22 64 24 65 23 66
REMARK SMILES IDX 42 67 43 68 47 69 44 70 46 71 45 72 32 73 33 74 37 75 34 76
REMARK SMILES IDX 36 77 35 78
REMARK H PARENT 3 7 8 27 52 46 30 57
REMARK Flexibility Score: inf
ROOT
ATOM      1  C   UNL A   1      37.141  20.986  24.612  1.00  0.00     0.023 C 
ENDROOT
BRANCH   1   2
ATOM      2  C   UNL A   1      36.426  22.284  24.260  1.00  0.00     0.023 C 
BRANCH   2   3
ATOM      3  C   UNL A   1      34.904  22.241  24.252  1.00  0.00     0.116 C 
BRANCH   3   4
ATOM      4  N   UNL A   1      34.267  22.762  23.058  1.00  0.00    -0.352 N 
ATOM      5  O   UNL A   1      33.269  24.273  21.731  1.00  0.00    -0.270 OA
ATOM      6  C   UNL A   1      33.612  23.949  22.868  1.00  0.00     0.251 C 
ATOM      7  H   UNL A   1      34.310  22.176  22.268  1.00  0.00     0.163 HD
BRANCH   6   8
ATOM      8  C   UNL A   1      33.374  24.920  23.978  1.00  0.00     0.067 C 
ATOM      9  C   UNL A   1      33.667  26.228  23.871  1.00  0.00     0.027 C 
ATOM     10  C   UNL A   1      32.240  24.509  24.885  1.00  0.00     0.314 C 
ATOM     11  C   UNL A   1      32.438  27.068  23.734  1.00  0.00     0.037 A 
ATOM     12  O   UNL A   1      31.031  25.247  24.563  1.00  0.00    -0.474 OA
ATOM     13  C   UNL A   1      32.509  28.332  23.118  1.00  0.00     0.052 A 
ATOM     14  C   UNL A   1      31.179  26.489  23.985  1.00  0.00     0.148 A 
ATOM     15  Cl  UNL A   1      34.023  29.089  22.756  1.00  0.00    -0.084 Cl
ATOM     16  C   UNL A   1      31.347  28.966  22.677  1.00  0.00     0.023 A 
ATOM     17  C   UNL A   1      30.018  27.140  23.545  1.00  0.00     0.083 A 
ATOM     18  C   UNL A   1      30.105  28.362  22.874  1.00  0.00     0.026 A 
ATOM     19  Cl  UNL A   1      28.462  26.415  23.724  1.00  0.00    -0.080 Cl
BRANCH  10  20
ATOM     20  C   UNL A   1      32.599  24.635  26.375  1.00  0.00     0.429 C 
ATOM     21  F   UNL A   1      32.379  25.890  26.833  1.00  0.00    -0.167 F 
ATOM     22  F   UNL A   1      31.859  23.799  27.141  1.00  0.00    -0.167 F 
ATOM     23  F   UNL A   1      33.902  24.346  26.613  1.00  0.00    -0.167 F 
ENDBRANCH  10  20
ENDBRANCH   6   8
ENDBRANCH   3   4
ENDBRANCH   2   3
ENDBRANCH   1   2
BRANCH   1  24
ATOM     24  C   UNL A   1      38.370  21.096  25.514  1.00  0.00     0.116 C 
BRANCH  24  25
ATOM     25  N   UNL A   1      39.292  19.972  25.441  1.00  0.00    -0.352 N 
ATOM     26  C   UNL A   1      40.586  19.859  25.907  1.00  0.00     0.251 C 
ATOM     27  H   UNL A   1      38.940  19.170  24.991  1.00  0.00     0.163 HD
ATOM     28  O   UNL A   1      41.208  18.818  25.743  1.00  0.00    -0.269 OA
BRANCH  26  29
ATOM     29  C   UNL A   1      41.245  21.021  26.551  1.00  0.00     0.039 A 
ATOM     30  C   UNL A   1      41.872  21.969  25.738  1.00  0.00     0.014 A 
ATOM     31  C   UNL A   1      41.198  21.210  27.933  1.00  0.00     0.014 A 
ATOM     32  C   UNL A   1      42.346  23.158  26.300  1.00  0.00     0.010 A 
ATOM     33  C   UNL A   1      41.593  22.430  28.480  1.00  0.00     0.010 A 
ATOM     34  C   UNL A   1      42.155  23.425  27.666  1.00  0.00    -0.014 A 
BRANCH  34  35
ATOM     35  C   UNL A   1      42.482  24.760  28.233  1.00  0.00     0.031 A 
ATOM     36  C   UNL A   1      43.884  25.104  28.651  1.00  0.00     0.074 A 
ATOM     37  C   UNL A   1      41.492  25.654  28.427  1.00  0.00     0.049 A 
ATOM     38  N   UNL A   1      44.349  26.234  29.124  1.00  0.00    -0.248 NA
ATOM     39  C   UNL A   1      44.890  24.036  28.551  1.00  0.00     0.031 C 
ATOM     40  C   UNL A   1      40.072  25.427  28.138  1.00  0.00     0.029 A 
ATOM     41  N   UNL A   1      41.527  26.940  28.908  1.00  0.00    -0.354 N 
ATOM     42  C   UNL A   1      45.693  26.008  29.392  1.00  0.00     0.074 A 
ATOM     43  C   UNL A   1      45.956  24.621  29.078  1.00  0.00     0.031 C 
ATOM     44  C   UNL A   1      39.385  26.551  28.394  1.00  0.00     0.029 A 
ATOM     45  C   UNL A   1      40.305  27.568  28.892  1.00  0.00     0.049 A 
ATOM     46  H   UNL A   1      42.350  27.372  29.233  1.00  0.00     0.167 HD
ATOM     47  C   UNL A   1      46.630  26.878  29.839  1.00  0.00     0.031 A 
ATOM     48  C   UNL A   1      39.963  28.828  29.220  1.00  0.00     0.031 A 
ATOM     49  C   UNL A   1      46.376  28.263  30.141  1.00  0.00     0.049 A 
ATOM     50  C   UNL A   1      41.025  29.783  29.687  1.00  0.00     0.074 A 
ATOM     51  C   UNL A   1      47.277  29.241  30.523  1.00  0.00     0.029 A 
ATOM     52  N   UNL A   1      45.127  28.862  30.102  1.00  0.00    -0.354 N 
ATOM     53  N   UNL A   1      42.311  29.581  29.836  1.00  0.00    -0.248 NA
ATOM     54  C   UNL A   1      40.585  31.147  30.012  1.00  0.00     0.031 C 
ATOM     55  C   UNL A   1      46.566  30.424  30.759  1.00  0.00     0.029 A 
ATOM     56  C   UNL A   1      45.229  30.192  30.476  1.00  0.00     0.049 A 
ATOM     57  H   UNL A   1      44.291  28.409  29.847  1.00  0.00     0.167 HD
ATOM     58  C   UNL A   1      42.839  30.798  30.243  1.00  0.00     0.074 A 
ATOM     59  C   UNL A   1      41.736  31.736  30.302  1.00  0.00     0.031 C 
ATOM     60  C   UNL A   1      44.124  31.112  30.540  1.00  0.00     0.031 A 
BRANCH  47  61
ATOM     61  C   UNL A   1      48.022  26.346  30.031  1.00  0.00    -0.014 A 
ATOM     62  C   UNL A   1      48.958  26.360  28.983  1.00  0.00     0.009 A 
ATOM     63  C   UNL A   1      48.411  25.841  31.281  1.00  0.00     0.009 A 
ATOM     64  C   UNL A   1      50.239  25.834  29.171  1.00  0.00     0.001 A 
ATOM     65  C   UNL A   1      49.701  25.343  31.474  1.00  0.00     0.001 A 
ATOM     66  C   UNL A   1      50.610  25.330  30.416  1.00  0.00     0.000 A 
ENDBRANCH  47  61
BRANCH  48  67
ATOM     67  C   UNL A   1      38.558  29.284  29.061  1.00  0.00    -0.014 A 
ATOM     68  C   UNL A   1      37.684  29.263  30.159  1.00  0.00     0.009 A 
ATOM     69  C   UNL A   1      38.083  29.734  27.821  1.00  0.00     0.009 A 
ATOM     70  C   UNL A   1      36.353  29.660  30.012  1.00  0.00     0.001 A 
ATOM     71  C   UNL A   1      36.758  30.154  27.683  1.00  0.00     0.001 A 
ATOM     72  C   UNL A   1      35.893  30.109  28.776  1.00  0.00     0.000 A 
ENDBRANCH  48  67
BRANCH  60  73
ATOM     73  C   UNL A   1      44.403  32.537  30.927  1.00  0.00    -0.014 A 
ATOM     74  C   UNL A   1      44.355  32.952  32.267  1.00  0.00     0.009 A 
ATOM     75  C   UNL A   1      44.726  33.476  29.935  1.00  0.00     0.009 A 
ATOM     76  C   UNL A   1      44.582  34.289  32.600  1.00  0.00     0.001 A 
ATOM     77  C   UNL A   1      44.980  34.805  30.274  1.00  0.00     0.001 A 
ATOM     78  C   UNL A   1      44.895  35.213  31.603  1.00  0.00     0.000 A 
ENDBRANCH  60  73
ENDBRANCH  34  35
ENDBRANCH  26  29
ENDBRANCH  24  25
ENDBRANCH   1  24
TORSDOF 12
ENDMDL
MODEL 3
REMARK VINA RESULT:     -11.6      2.914      7.095
REMARK SMILES O=C(NCCCCNC(=O)c1ccc(-c2c3nc(c(-c4ccccc4)c4ccc([nH]4)c(-c4ccccc4)c4nc(c(-c5ccccc5)c5ccc2[nH]5)C=C4)C=C3)cc1)C1=Cc2c(Cl)ccc(Cl)c2O[C@@H]1C(F)(F)F
REMARK SMILES IDX 6 1 5 2 4 3 3 4 1 5 2 6 59 8 60 9 70 10 61 11 69 12 62 13
REMARK SMILES IDX 68 14 63 15 64 16 66 17 65 18 67 19 71 20 72 21 73 22 74 23
REMARK SMILES IDX 7 24 8 25 9 26 10 28 11 29 12 30 58 31 13 32 57 33 14 34
REMARK SMILES IDX 15 35 16 36 51 37 17 38 56 39 50 40 52 41 18 42 55 43 49 44
REMARK SMILES IDX 48 45 19 47 41 48 26 49 40 50 27 51 30 52 39 53 53 54 28 55
REMARK SMILES IDX 29 56 38 58 54 59 31 60 20 61 21 62 25 63 22 64 24 65 23 66
REMARK SMILES IDX 42 67 43 68 47 69 44 70 46 71 45 72 32 73 33 74 37 75 34 76
REMARK SMILES IDX 36 77 35 78
REMARK H PARENT 3 7 8 27 52 46 30 57
REMARK Flexibility Score: inf
ROOT
ATOM      1  C   UNL A   1      31.820  30.140  26.768  1.00  0.00     0.023 C 
ENDROOT
BRANCH   1   2
ATOM      2  C   UNL A   1      32.041  28.695  27.194  1.00  0.00     0.023 C 
BRANCH   2   3
ATOM      3  C   UNL A   1      31.489  27.621  26.267  1.00  0.00     0.116 C 
BRANCH   3   4
ATOM      4  N   UNL A   1      31.304  26.311  26.861  1.00  0.00    -0.352 N 
ATOM      5  O   UNL A   1      31.685  24.130  27.231  1.00  0.00    -0.270 OA
ATOM      6  C   UNL A   1      31.850  25.108  26.503  1.00  0.00     0.251 C 
ATOM      7  H   UNL A   1      30.697  26.282  27.635  1.00  0.00     0.163 HD
BRANCH   6   8
ATOM      8  C   UNL A   1      32.722  24.949  25.299  1.00  0.00     0.067 C 
ATOM      9  C   UNL A   1      34.040  24.699  25.389  1.00  0.00     0.027 C 
ATOM     10  C   UNL A   1      31.973  24.436  24.094  1.00  0.00     0.314 C 
ATOM     11  C   UNL A   1      34.369  23.290  25.018  1.00  0.00     0.037 A 
ATOM     12  O   UNL A   1      32.205  23.015  23.911  1.00  0.00    -0.474 OA
ATOM     13  C   UNL A   1      35.541  22.682  25.509  1.00  0.00     0.052 A 
ATOM     14  C   UNL A   1      33.386  22.496  24.395  1.00  0.00     0.148 A 
ATOM     15  Cl  UNL A   1      36.776  23.593  26.308  1.00  0.00    -0.084 Cl
ATOM     16  C   UNL A   1      35.687  21.296  25.463  1.00  0.00     0.023 A 
ATOM     17  C   UNL A   1      33.549  21.104  24.347  1.00  0.00     0.083 A 
ATOM     18  C   UNL A   1      34.684  20.506  24.900  1.00  0.00     0.026 A 
ATOM     19  Cl  UNL A   1      32.318  20.080  23.702  1.00  0.00    -0.080 Cl
BRANCH  10  20
ATOM     20  C   UNL A   1      32.294  25.231  22.817  1.00  0.00     0.429 C 
ATOM     21  F   UNL A   1      33.277  24.637  22.099  1.00  0.00    -0.167 F 
ATOM     22  F   UNL A   1      31.216  25.329  22.004  1.00  0.00    -0.167 F 
ATOM     23  F   UNL A   1      32.704  26.493  23.089  1.00  0.00    -0.167 F 
ENDBRANCH  10  20
ENDBRANCH   6   8
ENDBRANCH   3   4
ENDBRANCH   2   3
ENDBRANCH   1   2
BRANCH   1  24
ATOM     24  C   UNL A   1      32.910  31.144  27.140  1.00  0.00     0.116 C 
BRANCH  24  25
ATOM     25  N   UNL A   1      32.435  32.485  27.452  1.00  0.00    -0.352 N 
ATOM     26  C   UNL A   1      33.069  33.516  28.115  1.00  0.00     0.251 C 
ATOM     27  H   UNL A   1      31.522  32.688  27.143  1.00  0.00     0.163 HD
ATOM     28  O   UNL A   1      32.493  34.582  28.284  1.00  0.00    -0.269 OA
BRANCH  26  29
ATOM     29  C   UNL A   1      34.426  33.310  28.678  1.00  0.00     0.039 A 
ATOM     30  C   UNL A   1      34.548  32.658  29.908  1.00  0.00     0.014 A 
ATOM     31  C   UNL A   1      35.570  33.699  27.978  1.00  0.00     0.014 A 
ATOM     32  C   UNL A   1      35.813  32.296  30.377  1.00  0.00     0.010 A 
ATOM     33  C   UNL A   1      36.823  33.263  28.404  1.00  0.00     0.010 A 
ATOM     34  C   UNL A   1      36.958  32.540  29.599  1.00  0.00    -0.014 A 
BRANCH  34  35
ATOM     35  C   UNL A   1      38.281  31.990  29.997  1.00  0.00     0.031 A 
ATOM     36  C   UNL A   1      39.161  32.719  30.974  1.00  0.00     0.074 A 
ATOM     37  C   UNL A   1      38.719  30.850  29.428  1.00  0.00     0.049 A 
ATOM     38  N   UNL A   1      40.323  32.359  31.461  1.00  0.00    -0.248 NA
ATOM     39  C   UNL A   1      38.692  34.030  31.445  1.00  0.00     0.031 C 
ATOM     40  C   UNL A   1      38.001  30.078  28.409  1.00  0.00     0.029 A 
ATOM     41  N   UNL A   1      39.873  30.133  29.631  1.00  0.00    -0.354 N 
ATOM     42  C   UNL A   1      40.729  33.404  32.281  1.00  0.00     0.074 A 
ATOM     43  C   UNL A   1      39.716  34.432  32.185  1.00  0.00     0.031 C 
ATOM     44  C   UNL A   1      38.704  28.972  28.119  1.00  0.00     0.029 A 
ATOM     45  C   UNL A   1      39.932  28.968  28.906  1.00  0.00     0.049 A 
ATOM     46  H   UNL A   1      40.590  30.426  30.239  1.00  0.00     0.167 HD
ATOM     47  C   UNL A   1      41.835  33.496  33.059  1.00  0.00     0.031 A 
ATOM     48  C   UNL A   1      40.859  27.992  28.890  1.00  0.00     0.031 A 
ATOM     49  C   UNL A   1      42.840  32.472  33.167  1.00  0.00     0.049 A 
ATOM     50  C   UNL A   1      42.062  28.102  29.783  1.00  0.00     0.074 A 
ATOM     51  C   UNL A   1      43.954  32.440  33.989  1.00  0.00     0.029 A 
ATOM     52  N   UNL A   1      42.858  31.303  32.424  1.00  0.00    -0.354 N 
ATOM     53  N   UNL A   1      42.379  29.051  30.630  1.00  0.00    -0.248 NA
ATOM     54  C   UNL A   1      43.025  26.994  29.728  1.00  0.00     0.031 C 
ATOM     55  C   UNL A   1      44.670  31.270  33.711  1.00  0.00     0.029 A 
ATOM     56  C   UNL A   1      43.976  30.552  32.750  1.00  0.00     0.049 A 
ATOM     57  H   UNL A   1      42.178  31.045  31.761  1.00  0.00     0.167 HD
ATOM     58  C   UNL A   1      43.561  28.641  31.230  1.00  0.00     0.074 A 
ATOM     59  C   UNL A   1      43.896  27.351  30.662  1.00  0.00     0.031 C 
ATOM     60  C   UNL A   1      44.303  29.276  32.171  1.00  0.00     0.031 A 
BRANCH  47  61
ATOM     61  C   UNL A   1      42.010  34.760  33.854  1.00  0.00    -0.014 A 
ATOM     62  C   UNL A   1      42.723  35.853  33.334  1.00  0.00     0.009 A 
ATOM     63  C   UNL A   1      41.439  34.867  35.131  1.00  0.00     0.009 A 
ATOM     64  C   UNL A   1      42.901  37.009  34.098  1.00  0.00     0.001 A 
ATOM     65  C   UNL A   1      41.594  36.035  35.881  1.00  0.00     0.001 A 
ATOM     66  C   UNL A   1      42.335  37.101  35.368  1.00  0.00     0.000 A 
ENDBRANCH  47  61
BRANCH  48  67
ATOM     67  C   UNL A   1      40.660  26.788  28.042  1.00  0.00    -0.014 A 
ATOM     68  C   UNL A   1      40.006  25.661  28.566  1.00  0.00     0.009 A 
ATOM     69  C   UNL A   1      41.123  26.754  26.720  1.00  0.00     0.009 A 
ATOM     70  C   UNL A   1      39.841  24.513  27.787  1.00  0.00     0.001 A 
ATOM     71  C   UNL A   1      40.934  25.613  25.935  1.00  0.00     0.001 A 
ATOM     72  C   UNL A   1      40.302  24.492  26.472  1.00  0.00     0.000 A 
ENDBRANCH  48  67
BRANCH  60  73
ATOM     73  C   UNL A   1      45.533  28.564  32.660  1.00  0.00    -0.014 A 
ATOM     74  C   UNL A   1      46.777  28.746  32.036  1.00  0.00     0.009 A 
ATOM     75  C   UNL A   1      45.445  27.706  33.766  1.00  0.00     0.009 A 
ATOM     76  C   UNL A   1      47.900  28.047  32.483  1.00  0.00     0.001 A 
ATOM     77  C   UNL A   1      46.575  27.030  34.229  1.00  0.00     0.001 A 
ATOM     78  C   UNL A   1      47.798  27.191  33.580  1.00  0.00     0.000 A 
ENDBRANCH  60  73
ENDBRANCH  34  35
ENDBRANCH  26  29
ENDBRANCH  24  25
ENDBRANCH   1  24
TORSDOF 12
ENDMDL
