MODEL 1
REMARK VINA RESULT:     -10.1      0.000      0.000
REMARK SMILES COC[C@@H](C)N(C)C(=O)N1CCC(CC(=O)NCCCCNC(=O)c2ccc(-c3c4nc(c(-c5ccccc5)c5ccc([nH]5)c(-c5ccccc5)c5nc(c(-c6ccccc6)c6ccc3[nH]6)C=C5)C=C4)cc2)CC1
REMARK SMILES IDX 18 1 17 2 15 3 16 4 14 6 13 7 8 8 9 9 10 10 11 11 74 12
REMARK SMILES IDX 12 13 73 14 6 15 7 16 4 17 5 18 3 19 2 20 1 21 19 22 20 23
REMARK SMILES IDX 21 24 22 25 23 26 24 28 25 29 26 30 72 31 27 32 71 33 28 34
REMARK SMILES IDX 29 35 30 36 65 37 31 38 70 39 64 40 66 41 32 42 69 43 63 44
REMARK SMILES IDX 62 45 33 47 55 48 40 49 54 50 41 51 44 52 53 53 67 54 42 55
REMARK SMILES IDX 43 56 52 58 68 59 45 60 34 61 35 62 39 63 36 64 38 65 37 66
REMARK SMILES IDX 56 67 57 68 61 69 58 70 60 71 59 72 46 73 47 74 51 75 48 76
REMARK SMILES IDX 50 77 49 78
REMARK H PARENT 17 5 22 27 66 46 44 57
REMARK Flexibility Score: inf
ROOT
ATOM      1  C   UNL A   1      31.398  29.838  24.731  1.00  0.00     0.116 C 
ENDROOT
BRANCH   1   2
ATOM      2  N   UNL A   1      32.622  29.586  23.987  1.00  0.00    -0.356 N 
ATOM      3  C   UNL A   1      32.915  28.624  23.062  1.00  0.00     0.220 C 
ATOM      4  O   UNL A   1      34.063  28.577  22.616  1.00  0.00    -0.275 OA
ATOM      5  H   UNL A   1      33.360  30.208  24.183  1.00  0.00     0.163 HD
BRANCH   3   6
ATOM      6  C   UNL A   1      31.858  27.630  22.599  1.00  0.00     0.103 C 
BRANCH   6   7
ATOM      7  C   UNL A   1      31.648  26.439  23.561  1.00  0.00     0.002 C 
ATOM      8  C   UNL A   1      33.241  22.845  23.467  1.00  0.00     0.320 C 
ATOM      9  O   UNL A   1      33.329  22.885  22.241  1.00  0.00    -0.248 OA
ATOM     10  N   UNL A   1      32.377  23.676  24.156  1.00  0.00    -0.325 N 
ATOM     11  C   UNL A   1      31.074  23.938  23.593  1.00  0.00     0.121 C 
ATOM     12  C   UNL A   1      32.891  24.731  25.019  1.00  0.00     0.121 C 
ATOM     13  C   UNL A   1      31.079  25.235  22.813  1.00  0.00     0.026 C 
ATOM     14  C   UNL A   1      32.971  26.065  24.260  1.00  0.00     0.026 C 
BRANCH   8  15
ATOM     15  N   UNL A   1      33.931  21.927  24.246  1.00  0.00    -0.323 N 
ATOM     16  C   UNL A   1      35.379  21.963  24.398  1.00  0.00     0.149 C 
BRANCH  15  17
ATOM     17  C   UNL A   1      33.195  20.979  25.114  1.00  0.00     0.109 C 
ATOM     18  C   UNL A   1      33.690  21.054  26.559  1.00  0.00     0.033 C 
BRANCH  17  19
ATOM     19  C   UNL A   1      33.204  19.539  24.544  1.00  0.00     0.184 C 
BRANCH  19  20
ATOM     20  O   UNL A   1      32.175  18.709  25.096  1.00  0.00    -0.383 OA
ATOM     21  C   UNL A   1      32.658  17.527  25.719  1.00  0.00     0.194 C 
ENDBRANCH  19  20
ENDBRANCH  17  19
ENDBRANCH  15  17
ENDBRANCH   8  15
ENDBRANCH   6   7
ENDBRANCH   3   6
ENDBRANCH   1   2
BRANCH   1  22
ATOM     22  C   UNL A   1      31.636  29.825  26.245  1.00  0.00     0.023 C 
BRANCH  22  23
ATOM     23  C   UNL A   1      32.375  28.614  26.782  1.00  0.00     0.023 C 
BRANCH  23  24
ATOM     24  C   UNL A   1      33.704  28.941  27.432  1.00  0.00     0.116 C 
BRANCH  24  25
ATOM     25  N   UNL A   1      33.763  30.282  28.000  1.00  0.00    -0.352 N 
ATOM     26  C   UNL A   1      34.825  30.913  28.607  1.00  0.00     0.251 C 
ATOM     27  H   UNL A   1      32.931  30.807  27.942  1.00  0.00     0.163 HD
ATOM     28  O   UNL A   1      34.700  32.016  29.116  1.00  0.00    -0.269 OA
BRANCH  26  29
ATOM     29  C   UNL A   1      36.118  30.203  28.671  1.00  0.00     0.039 A 
ATOM     30  C   UNL A   1      36.983  30.269  27.578  1.00  0.00     0.014 A 
ATOM     31  C   UNL A   1      36.507  29.565  29.850  1.00  0.00     0.014 A 
ATOM     32  C   UNL A   1      38.278  29.768  27.702  1.00  0.00     0.010 A 
ATOM     33  C   UNL A   1      37.826  29.174  30.009  1.00  0.00     0.010 A 
ATOM     34  C   UNL A   1      38.723  29.260  28.934  1.00  0.00    -0.014 A 
BRANCH  34  35
ATOM     35  C   UNL A   1      40.112  28.781  29.124  1.00  0.00     0.031 A 
ATOM     36  C   UNL A   1      41.137  29.706  29.718  1.00  0.00     0.074 A 
ATOM     37  C   UNL A   1      40.468  27.557  28.687  1.00  0.00     0.049 A 
ATOM     38  N   UNL A   1      42.422  29.522  29.880  1.00  0.00    -0.248 NA
ATOM     39  C   UNL A   1      40.662  31.033  30.147  1.00  0.00     0.031 C 
ATOM     40  C   UNL A   1      39.579  26.588  28.042  1.00  0.00     0.029 A 
ATOM     41  N   UNL A   1      41.684  26.923  28.719  1.00  0.00    -0.354 N 
ATOM     42  C   UNL A   1      42.907  30.717  30.394  1.00  0.00     0.074 A 
ATOM     43  C   UNL A   1      41.796  31.638  30.459  1.00  0.00     0.031 C 
ATOM     44  C   UNL A   1      40.271  25.468  27.776  1.00  0.00     0.029 A 
ATOM     45  C   UNL A   1      41.656  25.653  28.196  1.00  0.00     0.049 A 
ATOM     46  H   UNL A   1      42.500  27.338  29.084  1.00  0.00     0.167 HD
ATOM     47  C   UNL A   1      44.161  31.015  30.806  1.00  0.00     0.031 A 
ATOM     48  C   UNL A   1      42.639  24.743  28.072  1.00  0.00     0.031 A 
ATOM     49  C   UNL A   1      45.256  30.085  30.777  1.00  0.00     0.049 A 
ATOM     50  C   UNL A   1      44.018  25.085  28.560  1.00  0.00     0.074 A 
ATOM     51  C   UNL A   1      46.548  30.260  31.237  1.00  0.00     0.029 A 
ATOM     52  N   UNL A   1      45.179  28.799  30.267  1.00  0.00    -0.354 N 
ATOM     53  N   UNL A   1      44.449  26.196  29.105  1.00  0.00    -0.248 NA
ATOM     54  C   UNL A   1      45.044  24.041  28.425  1.00  0.00     0.031 C 
ATOM     55  C   UNL A   1      47.266  29.088  30.970  1.00  0.00     0.029 A 
ATOM     56  C   UNL A   1      46.406  28.172  30.386  1.00  0.00     0.049 A 
ATOM     57  H   UNL A   1      44.371  28.393  29.877  1.00  0.00     0.167 HD
ATOM     58  C   UNL A   1      45.788  25.978  29.401  1.00  0.00     0.074 A 
ATOM     59  C   UNL A   1      46.093  24.623  28.988  1.00  0.00     0.031 C 
ATOM     60  C   UNL A   1      46.685  26.823  29.968  1.00  0.00     0.031 A 
BRANCH  47  61
ATOM     61  C   UNL A   1      44.400  32.406  31.321  1.00  0.00    -0.014 A 
ATOM     62  C   UNL A   1      44.237  32.714  32.682  1.00  0.00     0.009 A 
ATOM     63  C   UNL A   1      44.787  33.423  30.436  1.00  0.00     0.009 A 
ATOM     64  C   UNL A   1      44.411  34.022  33.137  1.00  0.00     0.001 A 
ATOM     65  C   UNL A   1      44.990  34.724  30.900  1.00  0.00     0.001 A 
ATOM     66  C   UNL A   1      44.790  35.025  32.246  1.00  0.00     0.000 A 
ENDBRANCH  47  61
BRANCH  48  67
ATOM     67  C   UNL A   1      42.345  23.404  27.498  1.00  0.00    -0.014 A 
ATOM     68  C   UNL A   1      41.773  22.403  28.299  1.00  0.00     0.009 A 
ATOM     69  C   UNL A   1      42.626  23.120  26.153  1.00  0.00     0.009 A 
ATOM     70  C   UNL A   1      41.509  21.138  27.770  1.00  0.00     0.001 A 
ATOM     71  C   UNL A   1      42.339  21.860  25.620  1.00  0.00     0.001 A 
ATOM     72  C   UNL A   1      41.788  20.868  26.431  1.00  0.00     0.000 A 
ENDBRANCH  48  67
BRANCH  60  73
ATOM     73  C   UNL A   1      48.069  26.294  30.199  1.00  0.00    -0.014 A 
ATOM     74  C   UNL A   1      48.442  25.752  31.438  1.00  0.00     0.009 A 
ATOM     75  C   UNL A   1      48.997  26.295  29.146  1.00  0.00     0.009 A 
ATOM     76  C   UNL A   1      49.730  25.247  31.626  1.00  0.00     0.001 A 
ATOM     77  C   UNL A   1      50.275  25.766  29.329  1.00  0.00     0.001 A 
ATOM     78  C   UNL A   1      50.642  25.250  30.572  1.00  0.00     0.000 A 
ENDBRANCH  60  73
ENDBRANCH  34  35
ENDBRANCH  26  29
ENDBRANCH  24  25
ENDBRANCH  23  24
ENDBRANCH  22  23
ENDBRANCH   1  22
TORSDOF 16
ENDMDL
MODEL 2
REMARK VINA RESULT:     -10.0      3.381      5.025
REMARK SMILES COC[C@@H](C)N(C)C(=O)N1CCC(CC(=O)NCCCCNC(=O)c2ccc(-c3c4nc(c(-c5ccccc5)c5ccc([nH]5)c(-c5ccccc5)c5nc(c(-c6ccccc6)c6ccc3[nH]6)C=C5)C=C4)cc2)CC1
REMARK SMILES IDX 18 1 17 2 15 3 16 4 14 6 13 7 8 8 9 9 10 10 11 11 74 12
REMARK SMILES IDX 12 13 73 14 6 15 7 16 4 17 5 18 3 19 2 20 1 21 19 22 20 23
REMARK SMILES IDX 21 24 22 25 23 26 24 28 25 29 26 30 72 31 27 32 71 33 28 34
REMARK SMILES IDX 29 35 30 36 65 37 31 38 70 39 64 40 66 41 32 42 69 43 63 44
REMARK SMILES IDX 62 45 33 47 55 48 40 49 54 50 41 51 44 52 53 53 67 54 42 55
REMARK SMILES IDX 43 56 52 58 68 59 45 60 34 61 35 62 39 63 36 64 38 65 37 66
REMARK SMILES IDX 56 67 57 68 61 69 58 70 60 71 59 72 46 73 47 74 51 75 48 76
REMARK SMILES IDX 50 77 49 78
REMARK H PARENT 17 5 22 27 66 46 44 57
REMARK Flexibility Score: inf
ROOT
ATOM      1  C   UNL A   1      32.910  30.082  25.978  1.00  0.00     0.116 C 
ENDROOT
BRANCH   1   2
ATOM      2  N   UNL A   1      33.301  29.755  24.615  1.00  0.00    -0.356 N 
ATOM      3  C   UNL A   1      32.873  28.757  23.785  1.00  0.00     0.220 C 
ATOM      4  O   UNL A   1      33.412  28.645  22.684  1.00  0.00    -0.275 OA
ATOM      5  H   UNL A   1      33.986  30.347  24.228  1.00  0.00     0.163 HD
BRANCH   3   6
ATOM      6  C   UNL A   1      31.766  27.801  24.211  1.00  0.00     0.103 C 
BRANCH   6   7
ATOM      7  C   UNL A   1      32.173  26.827  25.339  1.00  0.00     0.002 C 
ATOM      8  C   UNL A   1      32.954  22.977  25.149  1.00  0.00     0.320 C 
ATOM      9  O   UNL A   1      32.180  22.838  24.204  1.00  0.00    -0.248 OA
ATOM     10  N   UNL A   1      32.874  24.070  25.994  1.00  0.00    -0.325 N 
ATOM     11  C   UNL A   1      31.569  24.556  26.371  1.00  0.00     0.121 C 
ATOM     12  C   UNL A   1      33.927  25.077  26.009  1.00  0.00     0.121 C 
ATOM     13  C   UNL A   1      31.147  25.704  25.480  1.00  0.00     0.026 C 
ATOM     14  C   UNL A   1      33.577  26.245  25.075  1.00  0.00     0.026 C 
BRANCH   8  15
ATOM     15  N   UNL A   1      33.910  22.031  25.492  1.00  0.00    -0.323 N 
ATOM     16  C   UNL A   1      33.909  21.351  26.781  1.00  0.00     0.149 C 
BRANCH  15  17
ATOM     17  C   UNL A   1      34.868  21.533  24.479  1.00  0.00     0.109 C 
ATOM     18  C   UNL A   1      35.748  20.420  25.050  1.00  0.00     0.033 C 
BRANCH  17  19
ATOM     19  C   UNL A   1      35.684  22.680  23.835  1.00  0.00     0.184 C 
BRANCH  19  20
ATOM     20  O   UNL A   1      37.043  22.727  24.285  1.00  0.00    -0.383 OA
ATOM     21  C   UNL A   1      37.270  23.649  25.342  1.00  0.00     0.194 C 
ENDBRANCH  19  20
ENDBRANCH  17  19
ENDBRANCH  15  17
ENDBRANCH   8  15
ENDBRANCH   6   7
ENDBRANCH   3   6
ENDBRANCH   1   2
BRANCH   1  22
ATOM     22  C   UNL A   1      31.626  30.917  26.018  1.00  0.00     0.023 C 
BRANCH  22  23
ATOM     23  C   UNL A   1      31.531  31.920  27.153  1.00  0.00     0.023 C 
BRANCH  23  24
ATOM     24  C   UNL A   1      32.723  32.849  27.256  1.00  0.00     0.116 C 
BRANCH  24  25
ATOM     25  N   UNL A   1      32.369  34.216  27.620  1.00  0.00    -0.352 N 
ATOM     26  C   UNL A   1      32.964  35.040  28.549  1.00  0.00     0.251 C 
ATOM     27  H   UNL A   1      31.602  34.601  27.136  1.00  0.00     0.163 HD
ATOM     28  O   UNL A   1      32.500  36.140  28.808  1.00  0.00    -0.269 OA
BRANCH  26  29
ATOM     29  C   UNL A   1      34.156  34.544  29.264  1.00  0.00     0.039 A 
ATOM     30  C   UNL A   1      33.988  33.869  30.475  1.00  0.00     0.014 A 
ATOM     31  C   UNL A   1      35.419  34.659  28.681  1.00  0.00     0.014 A 
ATOM     32  C   UNL A   1      35.083  33.232  31.057  1.00  0.00     0.010 A 
ATOM     33  C   UNL A   1      36.476  33.930  29.199  1.00  0.00     0.010 A 
ATOM     34  C   UNL A   1      36.323  33.219  30.398  1.00  0.00    -0.014 A 
BRANCH  34  35
ATOM     35  C   UNL A   1      37.492  32.495  30.952  1.00  0.00     0.031 A 
ATOM     36  C   UNL A   1      38.132  32.987  32.219  1.00  0.00     0.074 A 
ATOM     37  C   UNL A   1      38.025  31.459  30.276  1.00  0.00     0.049 A 
ATOM     38  N   UNL A   1      39.215  32.562  32.818  1.00  0.00    -0.248 NA
ATOM     39  C   UNL A   1      37.495  34.140  32.879  1.00  0.00     0.031 C 
ATOM     40  C   UNL A   1      37.530  30.923  29.006  1.00  0.00     0.029 A 
ATOM     41  N   UNL A   1      39.111  30.673  30.568  1.00  0.00    -0.354 N 
ATOM     42  C   UNL A   1      39.402  33.415  33.898  1.00  0.00     0.074 A 
ATOM     43  C   UNL A   1      38.363  34.416  33.838  1.00  0.00     0.031 C 
ATOM     44  C   UNL A   1      38.287  29.871  28.649  1.00  0.00     0.029 A 
ATOM     45  C   UNL A   1      39.339  29.684  29.642  1.00  0.00     0.049 A 
ATOM     46  H   UNL A   1      39.674  30.805  31.365  1.00  0.00     0.167 HD
ATOM     47  C   UNL A   1      40.339  33.355  34.872  1.00  0.00     0.031 A 
ATOM     48  C   UNL A   1      40.289  28.733  29.604  1.00  0.00     0.031 A 
ATOM     49  C   UNL A   1      41.349  32.336  34.952  1.00  0.00     0.049 A 
ATOM     50  C   UNL A   1      41.304  28.667  30.710  1.00  0.00     0.074 A 
ATOM     51  C   UNL A   1      42.300  32.139  35.936  1.00  0.00     0.029 A 
ATOM     52  N   UNL A   1      41.527  31.334  34.010  1.00  0.00    -0.354 N 
ATOM     53  N   UNL A   1      41.430  29.440  31.761  1.00  0.00    -0.248 NA
ATOM     54  C   UNL A   1      42.300  27.590  30.629  1.00  0.00     0.031 C 
ATOM     55  C   UNL A   1      43.081  31.036  35.569  1.00  0.00     0.029 A 
ATOM     56  C   UNL A   1      42.583  30.523  34.382  1.00  0.00     0.049 A 
ATOM     57  H   UNL A   1      40.982  31.218  33.199  1.00  0.00     0.167 HD
ATOM     58  C   UNL A   1      42.502  28.929  32.480  1.00  0.00     0.074 A 
ATOM     59  C   UNL A   1      42.982  27.772  31.752  1.00  0.00     0.031 C 
ATOM     60  C   UNL A   1      43.041  29.377  33.641  1.00  0.00     0.031 A 
BRANCH  47  61
ATOM     61  C   UNL A   1      40.302  34.426  35.925  1.00  0.00    -0.014 A 
ATOM     62  C   UNL A   1      41.079  35.590  35.805  1.00  0.00     0.009 A 
ATOM     63  C   UNL A   1      39.484  34.269  37.054  1.00  0.00     0.009 A 
ATOM     64  C   UNL A   1      41.075  36.552  36.818  1.00  0.00     0.001 A 
ATOM     65  C   UNL A   1      39.457  35.247  38.049  1.00  0.00     0.001 A 
ATOM     66  C   UNL A   1      40.262  36.381  37.937  1.00  0.00     0.000 A 
ENDBRANCH  47  61
BRANCH  48  67
ATOM     67  C   UNL A   1      40.302  27.738  28.500  1.00  0.00    -0.014 A 
ATOM     68  C   UNL A   1      39.602  26.529  28.631  1.00  0.00     0.009 A 
ATOM     69  C   UNL A   1      41.005  27.990  27.312  1.00  0.00     0.009 A 
ATOM     70  C   UNL A   1      39.623  25.583  27.604  1.00  0.00     0.001 A 
ATOM     71  C   UNL A   1      41.005  27.052  26.276  1.00  0.00     0.001 A 
ATOM     72  C   UNL A   1      40.320  25.846  26.426  1.00  0.00     0.000 A 
ENDBRANCH  48  67
BRANCH  60  73
ATOM     73  C   UNL A   1      44.188  28.593  34.208  1.00  0.00    -0.014 A 
ATOM     74  C   UNL A   1      45.516  28.933  33.911  1.00  0.00     0.009 A 
ATOM     75  C   UNL A   1      43.933  27.530  35.088  1.00  0.00     0.009 A 
ATOM     76  C   UNL A   1      46.570  28.201  34.465  1.00  0.00     0.001 A 
ATOM     77  C   UNL A   1      44.988  26.818  35.660  1.00  0.00     0.001 A 
ATOM     78  C   UNL A   1      46.305  27.150  35.341  1.00  0.00     0.000 A 
ENDBRANCH  60  73
ENDBRANCH  34  35
ENDBRANCH  26  29
ENDBRANCH  24  25
ENDBRANCH  23  24
ENDBRANCH  22  23
ENDBRANCH   1  22
TORSDOF 16
ENDMDL
MODEL 3
REMARK VINA RESULT:      -9.9      2.523      6.982
REMARK SMILES COC[C@@H](C)N(C)C(=O)N1CCC(CC(=O)NCCCCNC(=O)c2ccc(-c3c4nc(c(-c5ccccc5)c5ccc([nH]5)c(-c5ccccc5)c5nc(c(-c6ccccc6)c6ccc3[nH]6)C=C5)C=C4)cc2)CC1
REMARK SMILES IDX 18 1 17 2 15 3 16 4 14 6 13 7 8 8 9 9 10 10 11 11 74 12
REMARK SMILES IDX 12 13 73 14 6 15 7 16 4 17 5 18 3 19 2 20 1 21 19 22 20 23
REMARK SMILES IDX 21 24 22 25 23 26 24 28 25 29 26 30 72 31 27 32 71 33 28 34
REMARK SMILES IDX 29 35 30 36 65 37 31 38 70 39 64 40 66 41 32 42 69 43 63 44
REMARK SMILES IDX 62 45 33 47 55 48 40 49 54 50 41 51 44 52 53 53 67 54 42 55
REMARK SMILES IDX 43 56 52 58 68 59 45 60 34 61 35 62 39 63 36 64 38 65 37 66
REMARK SMILES IDX 56 67 57 68 61 69 58 70 60 71 59 72 46 73 47 74 51 75 48 76
REMARK SMILES IDX 50 77 49 78
REMARK H PARENT 17 5 22 27 66 46 44 57
REMARK Flexibility Score: inf
ROOT
ATOM      1  C   UNL A   1      32.213  27.720  26.623  1.00  0.00     0.116 C 
ENDROOT
BRANCH   1   2
ATOM      2  N   UNL A   1      31.299  26.615  26.865  1.00  0.00    -0.356 N 
ATOM      3  C   UNL A   1      30.409  26.002  26.029  1.00  0.00     0.220 C 
ATOM      4  O   UNL A   1      29.688  25.118  26.495  1.00  0.00    -0.275 OA
ATOM      5  H   UNL A   1      31.325  26.249  27.779  1.00  0.00     0.163 HD
BRANCH   3   6
ATOM      6  C   UNL A   1      30.300  26.405  24.564  1.00  0.00     0.103 C 
BRANCH   6   7
ATOM      7  C   UNL A   1      31.298  25.679  23.634  1.00  0.00     0.002 C 
ATOM      8  C   UNL A   1      34.822  24.145  24.467  1.00  0.00     0.320 C 
ATOM      9  O   UNL A   1      35.005  24.977  25.355  1.00  0.00    -0.248 OA
ATOM     10  N   UNL A   1      33.893  24.353  23.464  1.00  0.00    -0.325 N 
ATOM     11  C   UNL A   1      33.760  25.680  22.911  1.00  0.00     0.121 C 
ATOM     12  C   UNL A   1      32.689  23.536  23.385  1.00  0.00     0.121 C 
ATOM     13  C   UNL A   1      32.628  26.428  23.580  1.00  0.00     0.026 C 
ATOM     14  C   UNL A   1      31.516  24.225  24.100  1.00  0.00     0.026 C 
BRANCH   8  15
ATOM     15  N   UNL A   1      35.570  22.982  24.352  1.00  0.00    -0.323 N 
ATOM     16  C   UNL A   1      36.547  22.784  23.290  1.00  0.00     0.149 C 
BRANCH  15  17
ATOM     17  C   UNL A   1      35.539  21.962  25.425  1.00  0.00     0.109 C 
ATOM     18  C   UNL A   1      36.143  20.640  24.949  1.00  0.00     0.033 C 
BRANCH  17  19
ATOM     19  C   UNL A   1      34.125  21.798  26.033  1.00  0.00     0.184 C 
BRANCH  19  20
ATOM     20  O   UNL A   1      33.645  20.449  25.988  1.00  0.00    -0.383 OA
ATOM     21  C   UNL A   1      32.535  20.259  25.122  1.00  0.00     0.194 C 
ENDBRANCH  19  20
ENDBRANCH  17  19
ENDBRANCH  15  17
ENDBRANCH   8  15
ENDBRANCH   6   7
ENDBRANCH   3   6
ENDBRANCH   1   2
BRANCH   1  22
ATOM     22  C   UNL A   1      31.745  29.008  27.309  1.00  0.00     0.023 C 
BRANCH  22  23
ATOM     23  C   UNL A   1      31.939  30.284  26.511  1.00  0.00     0.023 C 
BRANCH  23  24
ATOM     24  C   UNL A   1      32.980  31.220  27.090  1.00  0.00     0.116 C 
BRANCH  24  25
ATOM     25  N   UNL A   1      32.473  32.560  27.365  1.00  0.00    -0.352 N 
ATOM     26  C   UNL A   1      33.054  33.563  28.109  1.00  0.00     0.251 C 
ATOM     27  H   UNL A   1      31.600  32.776  26.964  1.00  0.00     0.163 HD
ATOM     28  O   UNL A   1      32.466  34.612  28.324  1.00  0.00    -0.269 OA
BRANCH  26  29
ATOM     29  C   UNL A   1      34.392  33.323  28.685  1.00  0.00     0.039 A 
ATOM     30  C   UNL A   1      34.494  32.652  29.904  1.00  0.00     0.014 A 
ATOM     31  C   UNL A   1      35.535  33.673  27.964  1.00  0.00     0.014 A 
ATOM     32  C   UNL A   1      35.751  32.253  30.359  1.00  0.00     0.010 A 
ATOM     33  C   UNL A   1      36.766  33.175  28.359  1.00  0.00     0.010 A 
ATOM     34  C   UNL A   1      36.889  32.470  29.565  1.00  0.00    -0.014 A 
BRANCH  34  35
ATOM     35  C   UNL A   1      38.231  32.000  29.982  1.00  0.00     0.031 A 
ATOM     36  C   UNL A   1      38.751  30.691  29.458  1.00  0.00     0.074 A 
ATOM     37  C   UNL A   1      38.939  32.701  30.890  1.00  0.00     0.049 A 
ATOM     38  N   UNL A   1      39.849  30.053  29.770  1.00  0.00    -0.248 NA
ATOM     39  C   UNL A   1      37.900  29.983  28.486  1.00  0.00     0.031 C 
ATOM     40  C   UNL A   1      38.518  33.957  31.516  1.00  0.00     0.029 A 
ATOM     41  N   UNL A   1      40.167  32.447  31.447  1.00  0.00    -0.354 N 
ATOM     42  C   UNL A   1      39.801  28.860  29.060  1.00  0.00     0.074 A 
ATOM     43  C   UNL A   1      38.542  28.833  28.354  1.00  0.00     0.031 C 
ATOM     44  C   UNL A   1      39.490  34.383  32.340  1.00  0.00     0.029 A 
ATOM     45  C   UNL A   1      40.581  33.415  32.329  1.00  0.00     0.049 A 
ATOM     46  H   UNL A   1      40.700  31.648  31.233  1.00  0.00     0.167 HD
ATOM     47  C   UNL A   1      40.735  27.884  28.979  1.00  0.00     0.031 A 
ATOM     48  C   UNL A   1      41.716  33.509  33.045  1.00  0.00     0.031 A 
ATOM     49  C   UNL A   1      42.004  27.931  29.651  1.00  0.00     0.049 A 
ATOM     50  C   UNL A   1      42.751  32.427  32.920  1.00  0.00     0.074 A 
ATOM     51  C   UNL A   1      43.052  27.032  29.580  1.00  0.00     0.029 A 
ATOM     52  N   UNL A   1      42.397  28.944  30.513  1.00  0.00    -0.354 N 
ATOM     53  N   UNL A   1      42.721  31.336  32.194  1.00  0.00    -0.248 NA
ATOM     54  C   UNL A   1      43.983  32.597  33.704  1.00  0.00     0.031 C 
ATOM     55  C   UNL A   1      44.069  27.483  30.430  1.00  0.00     0.029 A 
ATOM     56  C   UNL A   1      43.668  28.684  30.992  1.00  0.00     0.049 A 
ATOM     57  H   UNL A   1      41.853  29.729  30.748  1.00  0.00     0.167 HD
ATOM     58  C   UNL A   1      43.937  30.702  32.414  1.00  0.00     0.074 A 
ATOM     59  C   UNL A   1      44.686  31.538  33.330  1.00  0.00     0.031 C 
ATOM     60  C   UNL A   1      44.393  29.532  31.902  1.00  0.00     0.031 A 
BRANCH  47  61
ATOM     61  C   UNL A   1      40.406  26.691  28.127  1.00  0.00    -0.014 A 
ATOM     62  C   UNL A   1      40.857  26.599  26.800  1.00  0.00     0.009 A 
ATOM     63  C   UNL A   1      39.630  25.648  28.655  1.00  0.00     0.009 A 
ATOM     64  C   UNL A   1      40.498  25.509  26.005  1.00  0.00     0.001 A 
ATOM     65  C   UNL A   1      39.299  24.545  27.867  1.00  0.00     0.001 A 
ATOM     66  C   UNL A   1      39.722  24.482  26.540  1.00  0.00     0.000 A 
ENDBRANCH  47  61
BRANCH  48  67
ATOM     67  C   UNL A   1      41.952  34.691  33.914  1.00  0.00    -0.014 A 
ATOM     68  C   UNL A   1      42.549  35.846  33.387  1.00  0.00     0.009 A 
ATOM     69  C   UNL A   1      41.578  34.676  35.267  1.00  0.00     0.009 A 
ATOM     70  C   UNL A   1      42.789  36.954  34.203  1.00  0.00     0.001 A 
ATOM     71  C   UNL A   1      41.797  35.795  36.074  1.00  0.00     0.001 A 
ATOM     72  C   UNL A   1      42.409  36.930  35.543  1.00  0.00     0.000 A 
ENDBRANCH  48  67
BRANCH  60  73
ATOM     73  C   UNL A   1      45.777  29.108  32.298  1.00  0.00    -0.014 A 
ATOM     74  C   UNL A   1      45.993  28.282  33.410  1.00  0.00     0.009 A 
ATOM     75  C   UNL A   1      46.873  29.504  31.516  1.00  0.00     0.009 A 
ATOM     76  C   UNL A   1      47.288  27.883  33.749  1.00  0.00     0.001 A 
ATOM     77  C   UNL A   1      48.163  29.082  31.842  1.00  0.00     0.001 A 
ATOM     78  C   UNL A   1      48.369  28.279  32.963  1.00  0.00     0.000 A 
ENDBRANCH  60  73
ENDBRANCH  34  35
ENDBRANCH  26  29
ENDBRANCH  24  25
ENDBRANCH  23  24
ENDBRANCH  22  23
ENDBRANCH   1  22
TORSDOF 16
ENDMDL
