MODEL 1
REMARK VINA RESULT:     -11.2      0.000      0.000
REMARK SMILES O=C(NCCCCNC(=O)c1cc(F)c(OCc2ccc(Br)cc2)c(F)c1)c1ccc(-c2c3nc(c(-c4ccccc4)c4ccc([nH]4)c(-c4ccccc4)c4nc(c(-c5ccccc5)c5ccc2[nH]5)C=C4)C=C3)cc1
REMARK SMILES IDX 6 1 5 2 4 3 3 4 1 5 2 6 28 8 29 9 75 10 30 11 74 12 31 13
REMARK SMILES IDX 32 14 33 15 68 16 34 17 73 18 67 19 69 20 35 21 72 22 66 23
REMARK SMILES IDX 65 24 36 26 58 27 43 28 57 29 44 30 47 31 56 32 70 33 45 34
REMARK SMILES IDX 46 35 55 37 71 38 48 39 37 40 38 41 42 42 39 43 41 44 40 45
REMARK SMILES IDX 59 46 60 47 64 48 61 49 63 50 62 51 49 52 50 53 54 54 51 55
REMARK SMILES IDX 53 56 52 57 7 58 8 59 9 60 10 62 11 63 12 64 27 65 13 66
REMARK SMILES IDX 25 67 14 68 15 69 26 70 16 71 17 72 18 73 19 74 24 75 20 76
REMARK SMILES IDX 23 77 21 78 22 79
REMARK H PARENT 3 7 69 25 47 36 8 61
REMARK Flexibility Score: inf
ROOT
ATOM      1  C   UNL A   1      35.403  21.923  26.396  1.00  0.00     0.023 C 
ENDROOT
BRANCH   1   2
ATOM      2  C   UNL A   1      35.429  23.223  25.593  1.00  0.00     0.023 C 
BRANCH   2   3
ATOM      3  C   UNL A   1      36.810  23.690  25.147  1.00  0.00     0.116 C 
BRANCH   3   4
ATOM      4  N   UNL A   1      37.858  22.722  25.434  1.00  0.00    -0.352 N 
ATOM      5  O   UNL A   1      39.872  21.981  26.124  1.00  0.00    -0.269 OA
ATOM      6  C   UNL A   1      39.048  22.892  26.100  1.00  0.00     0.251 C 
ATOM      7  H   UNL A   1      37.689  21.811  25.102  1.00  0.00     0.163 HD
BRANCH   6   8
ATOM      8  C   UNL A   1      39.357  24.178  26.761  1.00  0.00     0.039 A 
ATOM      9  C   UNL A   1      40.062  25.183  26.092  1.00  0.00     0.014 A 
ATOM     10  C   UNL A   1      38.919  24.386  28.072  1.00  0.00     0.014 A 
ATOM     11  C   UNL A   1      40.452  26.331  26.779  1.00  0.00     0.010 A 
ATOM     12  C   UNL A   1      39.245  25.572  28.735  1.00  0.00     0.010 A 
ATOM     13  C   UNL A   1      40.044  26.539  28.106  1.00  0.00    -0.014 A 
BRANCH  13  14
ATOM     14  C   UNL A   1      40.428  27.787  28.809  1.00  0.00     0.031 A 
ATOM     15  C   UNL A   1      41.796  27.944  29.417  1.00  0.00     0.074 A 
ATOM     16  C   UNL A   1      39.537  28.793  28.895  1.00  0.00     0.049 A 
ATOM     17  N   UNL A   1      42.291  28.961  30.079  1.00  0.00    -0.248 NA
ATOM     18  C   UNL A   1      42.725  26.814  29.269  1.00  0.00     0.031 C 
ATOM     19  C   UNL A   1      38.179  28.765  28.346  1.00  0.00     0.029 A 
ATOM     20  N   UNL A   1      39.639  30.034  29.468  1.00  0.00    -0.354 N 
ATOM     21  C   UNL A   1      43.577  28.586  30.444  1.00  0.00     0.074 A 
ATOM     22  C   UNL A   1      43.780  27.240  29.951  1.00  0.00     0.031 C 
ATOM     23  C   UNL A   1      37.588  29.946  28.579  1.00  0.00     0.029 A 
ATOM     24  C   UNL A   1      38.499  30.789  29.343  1.00  0.00     0.049 A 
ATOM     25  H   UNL A   1      40.451  30.352  29.924  1.00  0.00     0.167 HD
ATOM     26  C   UNL A   1      44.507  29.299  31.126  1.00  0.00     0.031 A 
ATOM     27  C   UNL A   1      38.208  32.017  29.809  1.00  0.00     0.031 A 
ATOM     28  C   UNL A   1      44.306  30.637  31.619  1.00  0.00     0.049 A 
ATOM     29  C   UNL A   1      39.240  32.771  30.593  1.00  0.00     0.074 A 
ATOM     30  C   UNL A   1      45.201  31.451  32.293  1.00  0.00     0.029 A 
ATOM     31  N   UNL A   1      43.126  31.355  31.497  1.00  0.00    -0.354 N 
ATOM     32  N   UNL A   1      40.463  32.413  30.903  1.00  0.00    -0.248 NA
ATOM     33  C   UNL A   1      38.854  34.097  31.092  1.00  0.00     0.031 C 
ATOM     34  C   UNL A   1      44.545  32.643  32.622  1.00  0.00     0.029 A 
ATOM     35  C   UNL A   1      43.261  32.593  32.105  1.00  0.00     0.049 A 
ATOM     36  H   UNL A   1      42.314  31.032  31.045  1.00  0.00     0.167 HD
ATOM     37  C   UNL A   1      40.999  33.478  31.614  1.00  0.00     0.074 A 
ATOM     38  C   UNL A   1      39.973  34.499  31.678  1.00  0.00     0.031 C 
ATOM     39  C   UNL A   1      42.231  33.597  32.165  1.00  0.00     0.031 A 
BRANCH  26  40
ATOM     40  C   UNL A   1      45.824  28.629  31.408  1.00  0.00    -0.014 A 
ATOM     41  C   UNL A   1      46.906  28.739  30.521  1.00  0.00     0.009 A 
ATOM     42  C   UNL A   1      45.994  27.904  32.598  1.00  0.00     0.009 A 
ATOM     43  C   UNL A   1      48.120  28.107  30.804  1.00  0.00     0.001 A 
ATOM     44  C   UNL A   1      47.215  27.296  32.891  1.00  0.00     0.001 A 
ATOM     45  C   UNL A   1      48.274  27.390  31.990  1.00  0.00     0.000 A 
ENDBRANCH  26  40
BRANCH  27  46
ATOM     46  C   UNL A   1      36.868  32.601  29.545  1.00  0.00    -0.014 A 
ATOM     47  C   UNL A   1      36.602  33.261  28.338  1.00  0.00     0.009 A 
ATOM     48  C   UNL A   1      35.840  32.473  30.493  1.00  0.00     0.009 A 
ATOM     49  C   UNL A   1      35.336  33.795  28.090  1.00  0.00     0.001 A 
ATOM     50  C   UNL A   1      34.567  32.983  30.231  1.00  0.00     0.001 A 
ATOM     51  C   UNL A   1      34.318  33.650  29.033  1.00  0.00     0.000 A 
ENDBRANCH  27  46
BRANCH  39  52
ATOM     52  C   UNL A   1      42.548  34.892  32.856  1.00  0.00    -0.014 A 
ATOM     53  C   UNL A   1      42.189  35.111  34.194  1.00  0.00     0.009 A 
ATOM     54  C   UNL A   1      43.247  35.894  32.164  1.00  0.00     0.009 A 
ATOM     55  C   UNL A   1      42.499  36.322  34.818  1.00  0.00     0.001 A 
ATOM     56  C   UNL A   1      43.577  37.092  32.797  1.00  0.00     0.001 A 
ATOM     57  C   UNL A   1      43.195  37.309  34.120  1.00  0.00     0.000 A 
ENDBRANCH  39  52
ENDBRANCH  13  14
ENDBRANCH   6   8
ENDBRANCH   3   4
ENDBRANCH   2   3
ENDBRANCH   1   2
BRANCH   1  58
ATOM     58  C   UNL A   1      34.064  21.582  27.047  1.00  0.00     0.116 C 
BRANCH  58  59
ATOM     59  N   UNL A   1      33.471  20.364  26.513  1.00  0.00    -0.352 N 
ATOM     60  C   UNL A   1      32.626  20.207  25.443  1.00  0.00     0.251 C 
ATOM     61  H   UNL A   1      33.711  19.534  26.985  1.00  0.00     0.163 HD
ATOM     62  O   UNL A   1      32.125  19.120  25.179  1.00  0.00    -0.269 OA
BRANCH  60  63
ATOM     63  C   UNL A   1      32.289  21.384  24.627  1.00  0.00     0.045 A 
ATOM     64  C   UNL A   1      32.856  21.552  23.364  1.00  0.00     0.057 A 
ATOM     65  C   UNL A   1      31.456  22.357  25.171  1.00  0.00     0.057 A 
ATOM     66  C   UNL A   1      32.693  22.765  22.702  1.00  0.00     0.168 A 
ATOM     67  C   UNL A   1      31.306  23.560  24.491  1.00  0.00     0.168 A 
ATOM     68  F   UNL A   1      33.312  22.909  21.522  1.00  0.00    -0.203 F 
ATOM     69  C   UNL A   1      31.972  23.809  23.284  1.00  0.00     0.191 A 
ATOM     70  F   UNL A   1      30.573  24.526  25.064  1.00  0.00    -0.203 F 
BRANCH  69  71
ATOM     71  O   UNL A   1      31.918  25.107  22.857  1.00  0.00    -0.483 OA
BRANCH  71  72
ATOM     72  C   UNL A   1      33.106  25.903  22.862  1.00  0.00     0.265 C 
BRANCH  72  73
ATOM     73  C   UNL A   1      33.274  26.911  23.992  1.00  0.00    -0.011 A 
ATOM     74  C   UNL A   1      33.076  28.271  23.695  1.00  0.00     0.008 A 
ATOM     75  C   UNL A   1      33.643  26.571  25.303  1.00  0.00     0.008 A 
ATOM     76  C   UNL A   1      33.270  29.260  24.665  1.00  0.00     0.016 A 
ATOM     77  C   UNL A   1      33.865  27.558  26.268  1.00  0.00     0.016 A 
ATOM     78  C   UNL A   1      33.680  28.898  25.944  1.00  0.00     0.017 A 
ATOM     79  Br  UNL A   1      33.989  30.231  27.248  1.00  0.00    -0.051 Br
ENDBRANCH  72  73
ENDBRANCH  71  72
ENDBRANCH  69  71
ENDBRANCH  60  63
ENDBRANCH  58  59
ENDBRANCH   1  58
TORSDOF 14
ENDMDL
MODEL 2
REMARK VINA RESULT:     -10.9      2.904      7.829
REMARK SMILES O=C(NCCCCNC(=O)c1cc(F)c(OCc2ccc(Br)cc2)c(F)c1)c1ccc(-c2c3nc(c(-c4ccccc4)c4ccc([nH]4)c(-c4ccccc4)c4nc(c(-c5ccccc5)c5ccc2[nH]5)C=C4)C=C3)cc1
REMARK SMILES IDX 6 1 5 2 4 3 3 4 1 5 2 6 28 8 29 9 75 10 30 11 74 12 31 13
REMARK SMILES IDX 32 14 33 15 68 16 34 17 73 18 67 19 69 20 35 21 72 22 66 23
REMARK SMILES IDX 65 24 36 26 58 27 43 28 57 29 44 30 47 31 56 32 70 33 45 34
REMARK SMILES IDX 46 35 55 37 71 38 48 39 37 40 38 41 42 42 39 43 41 44 40 45
REMARK SMILES IDX 59 46 60 47 64 48 61 49 63 50 62 51 49 52 50 53 54 54 51 55
REMARK SMILES IDX 53 56 52 57 7 58 8 59 9 60 10 62 11 63 12 64 27 65 13 66
REMARK SMILES IDX 25 67 14 68 15 69 26 70 16 71 17 72 18 73 19 74 24 75 20 76
REMARK SMILES IDX 23 77 21 78 22 79
REMARK H PARENT 3 7 69 25 47 36 8 61
REMARK Flexibility Score: inf
ROOT
ATOM      1  C   UNL A   1      31.934  29.323  25.516  1.00  0.00     0.023 C 
ENDROOT
BRANCH   1   2
ATOM      2  C   UNL A   1      32.456  28.233  26.451  1.00  0.00     0.023 C 
BRANCH   2   3
ATOM      3  C   UNL A   1      33.657  28.623  27.305  1.00  0.00     0.116 C 
BRANCH   3   4
ATOM      4  N   UNL A   1      33.619  30.009  27.741  1.00  0.00    -0.352 N 
ATOM      5  O   UNL A   1      34.325  31.884  28.776  1.00  0.00    -0.269 OA
ATOM      6  C   UNL A   1      34.592  30.761  28.358  1.00  0.00     0.251 C 
ATOM      7  H   UNL A   1      32.771  30.480  27.570  1.00  0.00     0.163 HD
BRANCH   6   8
ATOM      8  C   UNL A   1      35.951  30.210  28.549  1.00  0.00     0.039 A 
ATOM      9  C   UNL A   1      36.347  29.672  29.777  1.00  0.00     0.014 A 
ATOM     10  C   UNL A   1      36.842  30.222  27.472  1.00  0.00     0.014 A 
ATOM     11  C   UNL A   1      37.669  29.280  29.968  1.00  0.00     0.010 A 
ATOM     12  C   UNL A   1      38.148  29.756  27.643  1.00  0.00     0.010 A 
ATOM     13  C   UNL A   1      38.583  29.314  28.902  1.00  0.00    -0.014 A 
BRANCH  13  14
ATOM     14  C   UNL A   1      39.977  28.851  29.110  1.00  0.00     0.031 A 
ATOM     15  C   UNL A   1      41.007  29.750  29.737  1.00  0.00     0.074 A 
ATOM     16  C   UNL A   1      40.315  27.603  28.734  1.00  0.00     0.049 A 
ATOM     17  N   UNL A   1      42.273  29.509  29.978  1.00  0.00    -0.248 NA
ATOM     18  C   UNL A   1      40.563  31.093  30.140  1.00  0.00     0.031 C 
ATOM     19  C   UNL A   1      39.408  26.633  28.116  1.00  0.00     0.029 A 
ATOM     20  N   UNL A   1      41.508  26.933  28.823  1.00  0.00    -0.354 N 
ATOM     21  C   UNL A   1      42.780  30.675  30.538  1.00  0.00     0.074 A 
ATOM     22  C   UNL A   1      41.693  31.630  30.583  1.00  0.00     0.031 C 
ATOM     23  C   UNL A   1      40.068  25.483  27.913  1.00  0.00     0.029 A 
ATOM     24  C   UNL A   1      41.455  25.653  28.329  1.00  0.00     0.049 A 
ATOM     25  H   UNL A   1      42.324  27.332  29.204  1.00  0.00     0.167 HD
ATOM     26  C   UNL A   1      44.037  30.926  30.980  1.00  0.00     0.031 A 
ATOM     27  C   UNL A   1      42.418  24.723  28.205  1.00  0.00     0.031 A 
ATOM     28  C   UNL A   1      45.120  29.977  30.935  1.00  0.00     0.049 A 
ATOM     29  C   UNL A   1      43.810  25.038  28.665  1.00  0.00     0.074 A 
ATOM     30  C   UNL A   1      46.419  30.130  31.388  1.00  0.00     0.029 A 
ATOM     31  N   UNL A   1      45.031  28.701  30.400  1.00  0.00    -0.354 N 
ATOM     32  N   UNL A   1      44.265  26.134  29.222  1.00  0.00    -0.248 NA
ATOM     33  C   UNL A   1      44.821  23.988  28.483  1.00  0.00     0.031 C 
ATOM     34  C   UNL A   1      47.130  28.964  31.081  1.00  0.00     0.029 A 
ATOM     35  C   UNL A   1      46.259  28.065  30.489  1.00  0.00     0.049 A 
ATOM     36  H   UNL A   1      44.215  28.307  30.015  1.00  0.00     0.167 HD
ATOM     37  C   UNL A   1      45.609  25.899  29.474  1.00  0.00     0.074 A 
ATOM     38  C   UNL A   1      45.892  24.551  29.023  1.00  0.00     0.031 C 
ATOM     39  C   UNL A   1      46.526  26.727  30.031  1.00  0.00     0.031 A 
BRANCH  26  40
ATOM     40  C   UNL A   1      44.318  32.299  31.524  1.00  0.00    -0.014 A 
ATOM     41  C   UNL A   1      44.149  32.595  32.886  1.00  0.00     0.009 A 
ATOM     42  C   UNL A   1      44.793  33.303  30.666  1.00  0.00     0.009 A 
ATOM     43  C   UNL A   1      44.417  33.879  33.369  1.00  0.00     0.001 A 
ATOM     44  C   UNL A   1      45.085  34.577  31.156  1.00  0.00     0.001 A 
ATOM     45  C   UNL A   1      44.887  34.867  32.505  1.00  0.00     0.000 A 
ENDBRANCH  26  40
BRANCH  27  46
ATOM     46  C   UNL A   1      42.089  23.404  27.604  1.00  0.00    -0.014 A 
ATOM     47  C   UNL A   1      41.504  22.394  28.381  1.00  0.00     0.009 A 
ATOM     48  C   UNL A   1      42.333  23.163  26.244  1.00  0.00     0.009 A 
ATOM     49  C   UNL A   1      41.184  21.162  27.807  1.00  0.00     0.001 A 
ATOM     50  C   UNL A   1      41.986  21.941  25.666  1.00  0.00     0.001 A 
ATOM     51  C   UNL A   1      41.418  20.938  26.450  1.00  0.00     0.000 A 
ENDBRANCH  27  46
BRANCH  39  52
ATOM     52  C   UNL A   1      47.915  26.184  30.213  1.00  0.00    -0.014 A 
ATOM     53  C   UNL A   1      48.839  26.177  29.158  1.00  0.00     0.009 A 
ATOM     54  C   UNL A   1      48.312  25.703  31.471  1.00  0.00     0.009 A 
ATOM     55  C   UNL A   1      50.127  25.672  29.352  1.00  0.00     0.001 A 
ATOM     56  C   UNL A   1      49.607  25.223  31.668  1.00  0.00     0.001 A 
ATOM     57  C   UNL A   1      50.510  25.200  30.607  1.00  0.00     0.000 A 
ENDBRANCH  39  52
ENDBRANCH  13  14
ENDBRANCH   6   8
ENDBRANCH   3   4
ENDBRANCH   2   3
ENDBRANCH   1   2
BRANCH   1  58
ATOM     58  C   UNL A   1      32.486  29.284  24.092  1.00  0.00     0.116 C 
BRANCH  58  59
ATOM     59  N   UNL A   1      31.461  29.519  23.084  1.00  0.00    -0.352 N 
ATOM     60  C   UNL A   1      30.549  28.642  22.552  1.00  0.00     0.251 C 
ATOM     61  H   UNL A   1      31.415  30.438  22.734  1.00  0.00     0.163 HD
ATOM     62  O   UNL A   1      29.814  28.968  21.627  1.00  0.00    -0.269 OA
BRANCH  60  63
ATOM     63  C   UNL A   1      30.490  27.271  23.083  1.00  0.00     0.045 A 
ATOM     64  C   UNL A   1      29.726  26.987  24.215  1.00  0.00     0.057 A 
ATOM     65  C   UNL A   1      31.268  26.288  22.480  1.00  0.00     0.057 A 
ATOM     66  C   UNL A   1      29.851  25.741  24.822  1.00  0.00     0.168 A 
ATOM     67  C   UNL A   1      31.376  25.050  23.103  1.00  0.00     0.168 A 
ATOM     68  F   UNL A   1      29.152  25.533  25.947  1.00  0.00    -0.203 F 
ATOM     69  C   UNL A   1      30.726  24.779  24.314  1.00  0.00     0.191 A 
ATOM     70  F   UNL A   1      32.196  24.136  22.565  1.00  0.00    -0.203 F 
BRANCH  69  71
ATOM     71  O   UNL A   1      31.110  23.616  24.923  1.00  0.00    -0.483 OA
BRANCH  71  72
ATOM     72  C   UNL A   1      31.896  23.669  26.117  1.00  0.00     0.265 C 
BRANCH  72  73
ATOM     73  C   UNL A   1      33.401  23.481  25.978  1.00  0.00    -0.011 A 
ATOM     74  C   UNL A   1      33.952  22.255  26.392  1.00  0.00     0.008 A 
ATOM     75  C   UNL A   1      34.277  24.464  25.490  1.00  0.00     0.008 A 
ATOM     76  C   UNL A   1      35.332  22.030  26.350  1.00  0.00     0.016 A 
ATOM     77  C   UNL A   1      35.660  24.253  25.473  1.00  0.00     0.016 A 
ATOM     78  C   UNL A   1      36.181  23.039  25.905  1.00  0.00     0.017 A 
ATOM     79  Br  UNL A   1      38.050  22.760  25.890  1.00  0.00    -0.051 Br
ENDBRANCH  72  73
ENDBRANCH  71  72
ENDBRANCH  69  71
ENDBRANCH  60  63
ENDBRANCH  58  59
ENDBRANCH   1  58
TORSDOF 14
ENDMDL
MODEL 3
REMARK VINA RESULT:     -10.9      2.895      7.105
REMARK SMILES O=C(NCCCCNC(=O)c1cc(F)c(OCc2ccc(Br)cc2)c(F)c1)c1ccc(-c2c3nc(c(-c4ccccc4)c4ccc([nH]4)c(-c4ccccc4)c4nc(c(-c5ccccc5)c5ccc2[nH]5)C=C4)C=C3)cc1
REMARK SMILES IDX 6 1 5 2 4 3 3 4 1 5 2 6 28 8 29 9 75 10 30 11 74 12 31 13
REMARK SMILES IDX 32 14 33 15 68 16 34 17 73 18 67 19 69 20 35 21 72 22 66 23
REMARK SMILES IDX 65 24 36 26 58 27 43 28 57 29 44 30 47 31 56 32 70 33 45 34
REMARK SMILES IDX 46 35 55 37 71 38 48 39 37 40 38 41 42 42 39 43 41 44 40 45
REMARK SMILES IDX 59 46 60 47 64 48 61 49 63 50 62 51 49 52 50 53 54 54 51 55
REMARK SMILES IDX 53 56 52 57 7 58 8 59 9 60 10 62 11 63 12 64 27 65 13 66
REMARK SMILES IDX 25 67 14 68 15 69 26 70 16 71 17 72 18 73 19 74 24 75 20 76
REMARK SMILES IDX 23 77 21 78 22 79
REMARK H PARENT 3 7 69 25 47 36 8 61
REMARK Flexibility Score: inf
ROOT
ATOM      1  C   UNL A   1      36.745  19.013  24.882  1.00  0.00     0.023 C 
ENDROOT
BRANCH   1   2
ATOM      2  C   UNL A   1      37.879  20.010  24.646  1.00  0.00     0.023 C 
BRANCH   2   3
ATOM      3  C   UNL A   1      38.835  20.204  25.817  1.00  0.00     0.116 C 
BRANCH   3   4
ATOM      4  N   UNL A   1      39.914  19.228  25.838  1.00  0.00    -0.352 N 
ATOM      5  O   UNL A   1      42.037  18.478  25.940  1.00  0.00    -0.269 OA
ATOM      6  C   UNL A   1      41.251  19.406  26.106  1.00  0.00     0.251 C 
ATOM      7  H   UNL A   1      39.647  18.303  25.629  1.00  0.00     0.163 HD
BRANCH   6   8
ATOM      8  C   UNL A   1      41.752  20.721  26.562  1.00  0.00     0.039 A 
ATOM      9  C   UNL A   1      41.825  21.033  27.923  1.00  0.00     0.014 A 
ATOM     10  C   UNL A   1      42.168  21.653  25.608  1.00  0.00     0.014 A 
ATOM     11  C   UNL A   1      42.177  22.321  28.320  1.00  0.00     0.010 A 
ATOM     12  C   UNL A   1      42.595  22.921  26.012  1.00  0.00     0.010 A 
ATOM     13  C   UNL A   1      42.569  23.277  27.370  1.00  0.00    -0.014 A 
BRANCH  13  14
ATOM     14  C   UNL A   1      42.985  24.631  27.812  1.00  0.00     0.031 A 
ATOM     15  C   UNL A   1      41.964  25.682  28.152  1.00  0.00     0.074 A 
ATOM     16  C   UNL A   1      44.297  24.912  27.914  1.00  0.00     0.049 A 
ATOM     17  N   UNL A   1      42.153  26.919  28.540  1.00  0.00    -0.248 NA
ATOM     18  C   UNL A   1      40.548  25.299  28.036  1.00  0.00     0.031 C 
ATOM     19  C   UNL A   1      45.386  23.979  27.615  1.00  0.00     0.029 A 
ATOM     20  N   UNL A   1      44.939  26.060  28.305  1.00  0.00    -0.354 N 
ATOM     21  C   UNL A   1      40.886  27.468  28.693  1.00  0.00     0.074 A 
ATOM     22  C   UNL A   1      39.935  26.437  28.335  1.00  0.00     0.031 C 
ATOM     23  C   UNL A   1      46.559  24.580  27.865  1.00  0.00     0.029 A 
ATOM     24  C   UNL A   1      46.308  25.954  28.283  1.00  0.00     0.049 A 
ATOM     25  H   UNL A   1      44.464  26.878  28.574  1.00  0.00     0.167 HD
ATOM     26  C   UNL A   1      40.546  28.716  29.098  1.00  0.00     0.031 A 
ATOM     27  C   UNL A   1      47.260  26.867  28.550  1.00  0.00     0.031 A 
ATOM     28  C   UNL A   1      41.491  29.742  29.453  1.00  0.00     0.049 A 
ATOM     29  C   UNL A   1      46.857  28.252  28.959  1.00  0.00     0.074 A 
ATOM     30  C   UNL A   1      41.240  31.026  29.906  1.00  0.00     0.029 A 
ATOM     31  N   UNL A   1      42.869  29.604  29.389  1.00  0.00    -0.354 N 
ATOM     32  N   UNL A   1      45.655  28.744  29.129  1.00  0.00    -0.248 NA
ATOM     33  C   UNL A   1      47.943  29.207  29.216  1.00  0.00     0.031 C 
ATOM     34  C   UNL A   1      42.466  31.681  30.067  1.00  0.00     0.029 A 
ATOM     35  C   UNL A   1      43.481  30.787  29.769  1.00  0.00     0.049 A 
ATOM     36  H   UNL A   1      43.341  28.785  29.114  1.00  0.00     0.167 HD
ATOM     37  C   UNL A   1      45.839  30.060  29.531  1.00  0.00     0.074 A 
ATOM     38  C   UNL A   1      47.269  30.283  29.594  1.00  0.00     0.031 C 
ATOM     39  C   UNL A   1      44.904  30.997  29.822  1.00  0.00     0.031 A 
BRANCH  26  40
ATOM     40  C   UNL A   1      39.080  29.051  29.149  1.00  0.00    -0.014 A 
ATOM     41  C   UNL A   1      38.404  29.543  28.021  1.00  0.00     0.009 A 
ATOM     42  C   UNL A   1      38.358  28.839  30.333  1.00  0.00     0.009 A 
ATOM     43  C   UNL A   1      37.042  29.847  28.091  1.00  0.00     0.001 A 
ATOM     44  C   UNL A   1      36.993  29.120  30.393  1.00  0.00     0.001 A 
ATOM     45  C   UNL A   1      36.337  29.632  29.275  1.00  0.00     0.000 A 
ENDBRANCH  26  40
BRANCH  27  46
ATOM     46  C   UNL A   1      48.691  26.488  28.424  1.00  0.00    -0.014 A 
ATOM     47  C   UNL A   1      49.403  26.014  29.535  1.00  0.00     0.009 A 
ATOM     48  C   UNL A   1      49.342  26.576  27.184  1.00  0.00     0.009 A 
ATOM     49  C   UNL A   1      50.744  25.647  29.408  1.00  0.00     0.001 A 
ATOM     50  C   UNL A   1      50.674  26.182  27.053  1.00  0.00     0.001 A 
ATOM     51  C   UNL A   1      51.376  25.724  28.166  1.00  0.00     0.000 A 
ENDBRANCH  27  46
BRANCH  39  52
ATOM     52  C   UNL A   1      45.402  32.342  30.268  1.00  0.00    -0.014 A 
ATOM     53  C   UNL A   1      45.704  32.599  31.614  1.00  0.00     0.009 A 
ATOM     54  C   UNL A   1      45.604  33.356  29.319  1.00  0.00     0.009 A 
ATOM     55  C   UNL A   1      46.170  33.856  32.004  1.00  0.00     0.001 A 
ATOM     56  C   UNL A   1      46.094  34.603  29.708  1.00  0.00     0.001 A 
ATOM     57  C   UNL A   1      46.368  34.854  31.051  1.00  0.00     0.000 A 
ENDBRANCH  39  52
ENDBRANCH  13  14
ENDBRANCH   6   8
ENDBRANCH   3   4
ENDBRANCH   2   3
ENDBRANCH   1   2
BRANCH   1  58
ATOM     58  C   UNL A   1      35.342  19.616  24.936  1.00  0.00     0.116 C 
BRANCH  58  59
ATOM     59  N   UNL A   1      34.308  18.618  25.174  1.00  0.00    -0.352 N 
ATOM     60  C   UNL A   1      32.951  18.714  24.990  1.00  0.00     0.251 C 
ATOM     61  H   UNL A   1      34.628  17.751  25.513  1.00  0.00     0.163 HD
ATOM     62  O   UNL A   1      32.195  17.813  25.337  1.00  0.00    -0.269 OA
BRANCH  60  63
ATOM     63  C   UNL A   1      32.400  19.944  24.401  1.00  0.00     0.045 A 
ATOM     64  C   UNL A   1      32.310  20.083  23.016  1.00  0.00     0.057 A 
ATOM     65  C   UNL A   1      32.044  20.988  25.249  1.00  0.00     0.057 A 
ATOM     66  C   UNL A   1      31.987  21.325  22.478  1.00  0.00     0.168 A 
ATOM     67  C   UNL A   1      31.723  22.219  24.689  1.00  0.00     0.168 A 
ATOM     68  F   UNL A   1      31.979  21.433  21.143  1.00  0.00    -0.203 F 
ATOM     69  C   UNL A   1      31.755  22.426  23.304  1.00  0.00     0.191 A 
ATOM     70  F   UNL A   1      31.466  23.245  25.514  1.00  0.00    -0.203 F 
BRANCH  69  71
ATOM     71  O   UNL A   1      31.649  23.734  22.918  1.00  0.00    -0.483 OA
BRANCH  71  72
ATOM     72  C   UNL A   1      32.831  24.477  22.608  1.00  0.00     0.265 C 
BRANCH  72  73
ATOM     73  C   UNL A   1      34.078  24.193  23.434  1.00  0.00    -0.011 A 
ATOM     74  C   UNL A   1      34.222  24.864  24.662  1.00  0.00     0.008 A 
ATOM     75  C   UNL A   1      35.107  23.325  23.035  1.00  0.00     0.008 A 
ATOM     76  C   UNL A   1      35.368  24.700  25.447  1.00  0.00     0.016 A 
ATOM     77  C   UNL A   1      36.266  23.179  23.804  1.00  0.00     0.016 A 
ATOM     78  C   UNL A   1      36.392  23.869  25.005  1.00  0.00     0.017 A 
ATOM     79  Br  UNL A   1      37.963  23.677  26.038  1.00  0.00    -0.051 Br
ENDBRANCH  72  73
ENDBRANCH  71  72
ENDBRANCH  69  71
ENDBRANCH  60  63
ENDBRANCH  58  59
ENDBRANCH   1  58
TORSDOF 14
ENDMDL
