MODEL 1
REMARK VINA RESULT:     -11.3      0.000      0.000
REMARK SMILES Cc1ccc(CNc2nc(OCC(=O)NCCCCNC(=O)c3ccc(-c4c5nc(c(-c6ccccc6)c6ccc([nH]6)c(-c6ccccc6)c6nc(c(-c7ccccc7)c7ccc4[nH]7)C=C6)C=C5)cc3)cc(C(F)(F)F)n2)cc1
REMARK SMILES IDX 16 1 15 2 13 3 14 4 12 6 11 7 10 8 8 9 9 10 77 11 72 12
REMARK SMILES IDX 71 13 7 14 6 16 5 17 1 18 2 19 3 20 79 21 4 22 78 23 73 24
REMARK SMILES IDX 74 25 75 26 76 27 17 28 18 29 19 30 20 31 21 32 22 34 23 35
REMARK SMILES IDX 24 36 70 37 25 38 69 39 26 40 27 41 28 42 63 43 29 44 68 45
REMARK SMILES IDX 62 46 64 47 30 48 67 49 61 50 60 51 31 53 53 54 38 55 52 56
REMARK SMILES IDX 39 57 42 58 51 59 65 60 40 61 41 62 50 64 66 65 43 66 32 67
REMARK SMILES IDX 33 68 37 69 34 70 36 71 35 72 54 73 55 74 59 75 56 76 58 77
REMARK SMILES IDX 57 78 44 79 45 80 49 81 46 82 48 83 47 84
REMARK H PARENT 15 5 7 15 20 33 64 52 42 63
REMARK Flexibility Score: inf
ROOT
ATOM      1  C   UNL A   1      33.272  26.739  25.077  1.00  0.00     0.116 C 
ENDROOT
BRANCH   1   2
ATOM      2  N   UNL A   1      33.487  27.173  23.707  1.00  0.00    -0.353 N 
ATOM      3  C   UNL A   1      33.576  26.432  22.567  1.00  0.00     0.258 C 
ATOM      4  O   UNL A   1      33.771  27.012  21.496  1.00  0.00    -0.271 OA
ATOM      5  H   UNL A   1      33.579  28.146  23.583  1.00  0.00     0.163 HD
BRANCH   3   6
ATOM      6  C   UNL A   1      33.432  24.907  22.618  1.00  0.00     0.331 C 
BRANCH   6   7
ATOM      7  O   UNL A   1      34.622  24.148  22.701  1.00  0.00    -0.467 OA
BRANCH   7   8
ATOM      8  C   UNL A   1      34.979  23.634  23.912  1.00  0.00     0.219 A 
ATOM      9  C   UNL A   1      36.796  22.931  25.122  1.00  0.00     0.226 A 
ATOM     10  N   UNL A   1      36.308  23.504  24.022  1.00  0.00    -0.177 NA
ATOM     11  N   UNL A   1      36.036  22.497  26.127  1.00  0.00    -0.208 NA
ATOM     12  C   UNL A   1      34.694  22.678  26.030  1.00  0.00     0.153 A 
ATOM     13  C   UNL A   1      34.119  23.263  24.916  1.00  0.00     0.102 A 
BRANCH   9  14
ATOM     14  N   UNL A   1      38.151  22.774  25.151  1.00  0.00    -0.350 N 
ATOM     15  H   UNL A   1      38.729  23.503  24.827  1.00  0.00     0.164 HD
BRANCH  14  16
ATOM     16  C   UNL A   1      38.751  21.562  25.643  1.00  0.00     0.152 C 
BRANCH  16  17
ATOM     17  C   UNL A   1      39.914  21.923  26.542  1.00  0.00    -0.029 A 
ATOM     18  C   UNL A   1      43.160  22.953  29.200  1.00  0.00     0.044 C 
ATOM     19  C   UNL A   1      42.046  22.598  28.261  1.00  0.00    -0.051 A 
ATOM     20  C   UNL A   1      40.914  23.415  28.186  1.00  0.00     0.004 A 
ATOM     21  C   UNL A   1      42.111  21.449  27.464  1.00  0.00     0.004 A 
ATOM     22  C   UNL A   1      39.863  23.085  27.329  1.00  0.00     0.006 A 
ATOM     23  C   UNL A   1      41.054  21.113  26.611  1.00  0.00     0.006 A 
ENDBRANCH  16  17
ENDBRANCH  14  16
ENDBRANCH   9  14
BRANCH  12  24
ATOM     24  C   UNL A   1      33.819  22.223  27.184  1.00  0.00     0.433 C 
ATOM     25  F   UNL A   1      33.800  20.868  27.340  1.00  0.00    -0.165 F 
ATOM     26  F   UNL A   1      34.215  22.736  28.384  1.00  0.00    -0.165 F 
ATOM     27  F   UNL A   1      32.510  22.589  27.048  1.00  0.00    -0.165 F 
ENDBRANCH  12  24
ENDBRANCH   7   8
ENDBRANCH   6   7
ENDBRANCH   3   6
ENDBRANCH   1   2
BRANCH   1  28
ATOM     28  C   UNL A   1      34.270  27.346  26.072  1.00  0.00     0.023 C 
BRANCH  28  29
ATOM     29  C   UNL A   1      33.682  28.313  27.103  1.00  0.00     0.023 C 
BRANCH  29  30
ATOM     30  C   UNL A   1      34.470  29.602  27.308  1.00  0.00     0.116 C 
BRANCH  30  31
ATOM     31  N   UNL A   1      33.683  30.823  27.201  1.00  0.00    -0.352 N 
ATOM     32  C   UNL A   1      33.849  32.042  27.850  1.00  0.00     0.251 C 
ATOM     33  H   UNL A   1      32.923  30.779  26.578  1.00  0.00     0.163 HD
ATOM     34  O   UNL A   1      33.070  32.950  27.654  1.00  0.00    -0.269 OA
BRANCH  32  35
ATOM     35  C   UNL A   1      35.068  32.270  28.675  1.00  0.00     0.039 A 
ATOM     36  C   UNL A   1      36.104  33.021  28.107  1.00  0.00     0.014 A 
ATOM     37  C   UNL A   1      35.276  31.592  29.872  1.00  0.00     0.014 A 
ATOM     38  C   UNL A   1      37.403  32.863  28.585  1.00  0.00     0.010 A 
ATOM     39  C   UNL A   1      36.574  31.348  30.283  1.00  0.00     0.010 A 
ATOM     40  C   UNL A   1      37.640  31.916  29.581  1.00  0.00    -0.014 A 
BRANCH  40  41
ATOM     41  C   UNL A   1      38.951  31.308  29.788  1.00  0.00     0.031 A 
ATOM     42  C   UNL A   1      39.316  30.020  29.168  1.00  0.00     0.074 A 
ATOM     43  C   UNL A   1      39.876  31.971  30.521  1.00  0.00     0.049 A 
ATOM     44  N   UNL A   1      40.145  29.179  29.693  1.00  0.00    -0.248 NA
ATOM     45  C   UNL A   1      38.744  29.566  27.907  1.00  0.00     0.031 C 
ATOM     46  C   UNL A   1      41.298  31.659  30.640  1.00  0.00     0.029 A 
ATOM     47  N   UNL A   1      39.664  32.947  31.498  1.00  0.00    -0.354 N 
ATOM     48  C   UNL A   1      40.456  28.261  28.716  1.00  0.00     0.074 A 
ATOM     49  C   UNL A   1      39.488  28.482  27.664  1.00  0.00     0.031 C 
ATOM     50  C   UNL A   1      41.751  32.169  31.798  1.00  0.00     0.029 A 
ATOM     51  C   UNL A   1      40.601  32.700  32.512  1.00  0.00     0.049 A 
ATOM     52  H   UNL A   1      38.991  33.665  31.478  1.00  0.00     0.167 HD
ATOM     53  C   UNL A   1      41.600  27.525  28.804  1.00  0.00     0.031 A 
ATOM     54  C   UNL A   1      40.266  32.413  33.802  1.00  0.00     0.031 A 
ATOM     55  C   UNL A   1      42.358  27.815  30.018  1.00  0.00     0.049 A 
ATOM     56  C   UNL A   1      40.852  31.108  34.296  1.00  0.00     0.074 A 
ATOM     57  C   UNL A   1      43.486  28.583  30.258  1.00  0.00     0.029 A 
ATOM     58  N   UNL A   1      41.817  27.510  31.260  1.00  0.00    -0.354 N 
ATOM     59  N   UNL A   1      41.333  30.186  33.512  1.00  0.00    -0.248 NA
ATOM     60  C   UNL A   1      40.863  30.704  35.700  1.00  0.00     0.031 C 
ATOM     61  C   UNL A   1      43.600  28.775  31.656  1.00  0.00     0.029 A 
ATOM     62  C   UNL A   1      42.549  28.113  32.264  1.00  0.00     0.049 A 
ATOM     63  H   UNL A   1      41.024  26.945  31.405  1.00  0.00     0.167 HD
ATOM     64  C   UNL A   1      41.683  29.087  34.253  1.00  0.00     0.074 A 
ATOM     65  C   UNL A   1      41.385  29.466  35.620  1.00  0.00     0.031 C 
ATOM     66  C   UNL A   1      42.162  27.956  33.659  1.00  0.00     0.031 A 
BRANCH  53  67
ATOM     67  C   UNL A   1      42.181  26.790  27.621  1.00  0.00    -0.014 A 
ATOM     68  C   UNL A   1      41.371  26.515  26.501  1.00  0.00     0.009 A 
ATOM     69  C   UNL A   1      43.497  26.303  27.566  1.00  0.00     0.009 A 
ATOM     70  C   UNL A   1      41.808  25.702  25.448  1.00  0.00     0.001 A 
ATOM     71  C   UNL A   1      43.929  25.455  26.534  1.00  0.00     0.001 A 
ATOM     72  C   UNL A   1      43.077  25.143  25.482  1.00  0.00     0.000 A 
ENDBRANCH  53  67
BRANCH  54  73
ATOM     73  C   UNL A   1      38.938  32.925  34.234  1.00  0.00    -0.014 A 
ATOM     74  C   UNL A   1      38.759  34.315  34.374  1.00  0.00     0.009 A 
ATOM     75  C   UNL A   1      37.803  32.104  34.170  1.00  0.00     0.009 A 
ATOM     76  C   UNL A   1      37.478  34.874  34.357  1.00  0.00     0.001 A 
ATOM     77  C   UNL A   1      36.523  32.668  34.163  1.00  0.00     0.001 A 
ATOM     78  C   UNL A   1      36.362  34.053  34.227  1.00  0.00     0.000 A 
ENDBRANCH  54  73
BRANCH  66  79
ATOM     79  C   UNL A   1      42.378  26.610  34.312  1.00  0.00    -0.014 A 
ATOM     80  C   UNL A   1      41.450  25.971  35.145  1.00  0.00     0.009 A 
ATOM     81  C   UNL A   1      43.535  25.871  33.975  1.00  0.00     0.009 A 
ATOM     82  C   UNL A   1      41.684  24.680  35.642  1.00  0.00     0.001 A 
ATOM     83  C   UNL A   1      43.752  24.569  34.432  1.00  0.00     0.001 A 
ATOM     84  C   UNL A   1      42.828  23.975  35.277  1.00  0.00     0.000 A 
ENDBRANCH  66  79
ENDBRANCH  40  41
ENDBRANCH  32  35
ENDBRANCH  30  31
ENDBRANCH  29  30
ENDBRANCH  28  29
ENDBRANCH   1  28
TORSDOF 17
ENDMDL
MODEL 2
REMARK VINA RESULT:     -11.0      3.318      5.339
REMARK SMILES Cc1ccc(CNc2nc(OCC(=O)NCCCCNC(=O)c3ccc(-c4c5nc(c(-c6ccccc6)c6ccc([nH]6)c(-c6ccccc6)c6nc(c(-c7ccccc7)c7ccc4[nH]7)C=C6)C=C5)cc3)cc(C(F)(F)F)n2)cc1
REMARK SMILES IDX 16 1 15 2 13 3 14 4 12 6 11 7 10 8 8 9 9 10 77 11 72 12
REMARK SMILES IDX 71 13 7 14 6 16 5 17 1 18 2 19 3 20 79 21 4 22 78 23 73 24
REMARK SMILES IDX 74 25 75 26 76 27 17 28 18 29 19 30 20 31 21 32 22 34 23 35
REMARK SMILES IDX 24 36 70 37 25 38 69 39 26 40 27 41 28 42 63 43 29 44 68 45
REMARK SMILES IDX 62 46 64 47 30 48 67 49 61 50 60 51 31 53 53 54 38 55 52 56
REMARK SMILES IDX 39 57 42 58 51 59 65 60 40 61 41 62 50 64 66 65 43 66 32 67
REMARK SMILES IDX 33 68 37 69 34 70 36 71 35 72 54 73 55 74 59 75 56 76 58 77
REMARK SMILES IDX 57 78 44 79 45 80 49 81 46 82 48 83 47 84
REMARK H PARENT 15 5 7 15 20 33 64 52 42 63
REMARK Flexibility Score: inf
ROOT
ATOM      1  C   UNL A   1      31.789  27.474  26.558  1.00  0.00     0.116 C 
ENDROOT
BRANCH   1   2
ATOM      2  N   UNL A   1      31.775  26.142  27.138  1.00  0.00    -0.353 N 
ATOM      3  C   UNL A   1      31.266  24.983  26.634  1.00  0.00     0.258 C 
ATOM      4  O   UNL A   1      31.357  23.953  27.307  1.00  0.00    -0.271 OA
ATOM      5  H   UNL A   1      32.195  26.065  28.026  1.00  0.00     0.163 HD
BRANCH   3   6
ATOM      6  C   UNL A   1      30.600  24.962  25.254  1.00  0.00     0.331 C 
BRANCH   6   7
ATOM      7  O   UNL A   1      29.551  25.883  25.029  1.00  0.00    -0.467 OA
BRANCH   7   8
ATOM      8  C   UNL A   1      29.665  26.753  23.986  1.00  0.00     0.219 A 
ATOM      9  C   UNL A   1      30.992  27.265  22.186  1.00  0.00     0.226 A 
ATOM     10  N   UNL A   1      30.707  26.448  23.199  1.00  0.00    -0.177 NA
ATOM     11  N   UNL A   1      30.288  28.361  21.901  1.00  0.00    -0.208 NA
ATOM     12  C   UNL A   1      29.205  28.635  22.672  1.00  0.00     0.153 A 
ATOM     13  C   UNL A   1      28.851  27.831  23.741  1.00  0.00     0.102 A 
BRANCH   9  14
ATOM     14  N   UNL A   1      32.097  26.934  21.458  1.00  0.00    -0.350 N 
ATOM     15  H   UNL A   1      32.008  26.781  20.489  1.00  0.00     0.164 HD
BRANCH  14  16
ATOM     16  C   UNL A   1      33.389  26.805  22.078  1.00  0.00     0.152 C 
BRANCH  16  17
ATOM     17  C   UNL A   1      33.526  25.403  22.634  1.00  0.00    -0.029 A 
ATOM     18  C   UNL A   1      33.848  21.436  24.311  1.00  0.00     0.044 C 
ATOM     19  C   UNL A   1      33.751  22.807  23.714  1.00  0.00    -0.051 A 
ATOM     20  C   UNL A   1      34.156  23.919  24.458  1.00  0.00     0.004 A 
ATOM     21  C   UNL A   1      33.242  23.000  22.424  1.00  0.00     0.004 A 
ATOM     22  C   UNL A   1      34.053  25.203  23.920  1.00  0.00     0.006 A 
ATOM     23  C   UNL A   1      33.130  24.287  21.887  1.00  0.00     0.006 A 
ENDBRANCH  16  17
ENDBRANCH  14  16
ENDBRANCH   9  14
BRANCH  12  24
ATOM     24  C   UNL A   1      28.371  29.859  22.335  1.00  0.00     0.433 C 
ATOM     25  F   UNL A   1      27.965  29.887  21.034  1.00  0.00    -0.165 F 
ATOM     26  F   UNL A   1      27.237  29.950  23.087  1.00  0.00    -0.165 F 
ATOM     27  F   UNL A   1      29.034  31.036  22.534  1.00  0.00    -0.165 F 
ENDBRANCH  12  24
ENDBRANCH   7   8
ENDBRANCH   6   7
ENDBRANCH   3   6
ENDBRANCH   1   2
BRANCH   1  28
ATOM     28  C   UNL A   1      33.163  27.886  26.010  1.00  0.00     0.023 C 
BRANCH  28  29
ATOM     29  C   UNL A   1      33.571  29.341  26.252  1.00  0.00     0.023 C 
BRANCH  29  30
ATOM     30  C   UNL A   1      33.552  29.787  27.709  1.00  0.00     0.116 C 
BRANCH  30  31
ATOM     31  N   UNL A   1      34.268  31.027  27.979  1.00  0.00    -0.352 N 
ATOM     32  C   UNL A   1      35.613  31.227  28.268  1.00  0.00     0.251 C 
ATOM     33  H   UNL A   1      33.718  31.843  27.952  1.00  0.00     0.163 HD
ATOM     34  O   UNL A   1      36.031  32.342  28.495  1.00  0.00    -0.269 OA
BRANCH  32  35
ATOM     35  C   UNL A   1      36.561  30.084  28.158  1.00  0.00     0.039 A 
ATOM     36  C   UNL A   1      36.750  29.286  29.294  1.00  0.00     0.014 A 
ATOM     37  C   UNL A   1      37.395  29.930  27.055  1.00  0.00     0.014 A 
ATOM     38  C   UNL A   1      37.926  28.551  29.424  1.00  0.00     0.010 A 
ATOM     39  C   UNL A   1      38.609  29.290  27.221  1.00  0.00     0.010 A 
ATOM     40  C   UNL A   1      38.907  28.676  28.440  1.00  0.00    -0.014 A 
BRANCH  40  41
ATOM     41  C   UNL A   1      40.316  28.395  28.699  1.00  0.00     0.031 A 
ATOM     42  C   UNL A   1      40.979  27.193  28.158  1.00  0.00     0.074 A 
ATOM     43  C   UNL A   1      41.048  29.289  29.405  1.00  0.00     0.049 A 
ATOM     44  N   UNL A   1      41.963  26.591  28.741  1.00  0.00    -0.248 NA
ATOM     45  C   UNL A   1      40.558  26.554  26.918  1.00  0.00     0.031 C 
ATOM     46  C   UNL A   1      42.500  29.315  29.560  1.00  0.00     0.029 A 
ATOM     47  N   UNL A   1      40.595  30.241  30.322  1.00  0.00    -0.354 N 
ATOM     48  C   UNL A   1      42.499  25.719  27.823  1.00  0.00     0.074 A 
ATOM     49  C   UNL A   1      41.534  25.657  26.747  1.00  0.00     0.031 C 
ATOM     50  C   UNL A   1      42.795  29.975  30.693  1.00  0.00     0.029 A 
ATOM     51  C   UNL A   1      41.537  30.268  31.360  1.00  0.00     0.049 A 
ATOM     52  H   UNL A   1      39.777  30.785  30.252  1.00  0.00     0.167 HD
ATOM     53  C   UNL A   1      43.778  25.268  27.968  1.00  0.00     0.031 A 
ATOM     54  C   UNL A   1      41.243  29.980  32.660  1.00  0.00     0.031 A 
ATOM     55  C   UNL A   1      44.419  25.786  29.173  1.00  0.00     0.049 A 
ATOM     56  C   UNL A   1      42.096  28.871  33.236  1.00  0.00     0.074 A 
ATOM     57  C   UNL A   1      45.336  26.803  29.383  1.00  0.00     0.029 A 
ATOM     58  N   UNL A   1      43.929  25.432  30.423  1.00  0.00    -0.354 N 
ATOM     59  N   UNL A   1      42.793  28.042  32.512  1.00  0.00    -0.248 NA
ATOM     60  C   UNL A   1      42.163  28.555  34.660  1.00  0.00     0.031 C 
ATOM     61  C   UNL A   1      45.368  27.089  30.770  1.00  0.00     0.029 A 
ATOM     62  C   UNL A   1      44.479  26.237  31.400  1.00  0.00     0.049 A 
ATOM     63  H   UNL A   1      43.281  24.710  30.590  1.00  0.00     0.167 HD
ATOM     64  C   UNL A   1      43.364  27.092  33.319  1.00  0.00     0.074 A 
ATOM     65  C   UNL A   1      42.953  27.465  34.659  1.00  0.00     0.031 C 
ATOM     66  C   UNL A   1      44.102  26.070  32.797  1.00  0.00     0.031 A 
BRANCH  53  67
ATOM     67  C   UNL A   1      44.540  24.623  26.836  1.00  0.00    -0.014 A 
ATOM     68  C   UNL A   1      44.502  23.225  26.674  1.00  0.00     0.009 A 
ATOM     69  C   UNL A   1      45.348  25.328  25.930  1.00  0.00     0.009 A 
ATOM     70  C   UNL A   1      45.313  22.561  25.745  1.00  0.00     0.001 A 
ATOM     71  C   UNL A   1      46.192  24.668  25.024  1.00  0.00     0.001 A 
ATOM     72  C   UNL A   1      46.185  23.282  24.943  1.00  0.00     0.000 A 
ENDBRANCH  53  67
BRANCH  54  73
ATOM     73  C   UNL A   1      39.823  30.199  33.044  1.00  0.00    -0.014 A 
ATOM     74  C   UNL A   1      39.339  31.518  33.137  1.00  0.00     0.009 A 
ATOM     75  C   UNL A   1      38.898  29.147  32.979  1.00  0.00     0.009 A 
ATOM     76  C   UNL A   1      37.968  31.782  33.072  1.00  0.00     0.001 A 
ATOM     77  C   UNL A   1      37.525  29.416  32.925  1.00  0.00     0.001 A 
ATOM     78  C   UNL A   1      37.064  30.732  32.942  1.00  0.00     0.000 A 
ENDBRANCH  54  73
BRANCH  66  79
ATOM     79  C   UNL A   1      44.600  24.846  33.529  1.00  0.00    -0.014 A 
ATOM     80  C   UNL A   1      43.814  23.729  33.841  1.00  0.00     0.009 A 
ATOM     81  C   UNL A   1      45.981  24.744  33.818  1.00  0.00     0.009 A 
ATOM     82  C   UNL A   1      44.370  22.590  34.443  1.00  0.00     0.001 A 
ATOM     83  C   UNL A   1      46.547  23.595  34.376  1.00  0.00     0.001 A 
ATOM     84  C   UNL A   1      45.736  22.519  34.699  1.00  0.00     0.000 A 
ENDBRANCH  66  79
ENDBRANCH  40  41
ENDBRANCH  32  35
ENDBRANCH  30  31
ENDBRANCH  29  30
ENDBRANCH  28  29
ENDBRANCH   1  28
TORSDOF 17
ENDMDL
MODEL 3
REMARK VINA RESULT:     -10.9      1.958      3.171
REMARK SMILES Cc1ccc(CNc2nc(OCC(=O)NCCCCNC(=O)c3ccc(-c4c5nc(c(-c6ccccc6)c6ccc([nH]6)c(-c6ccccc6)c6nc(c(-c7ccccc7)c7ccc4[nH]7)C=C6)C=C5)cc3)cc(C(F)(F)F)n2)cc1
REMARK SMILES IDX 16 1 15 2 13 3 14 4 12 6 11 7 10 8 8 9 9 10 77 11 72 12
REMARK SMILES IDX 71 13 7 14 6 16 5 17 1 18 2 19 3 20 79 21 4 22 78 23 73 24
REMARK SMILES IDX 74 25 75 26 76 27 17 28 18 29 19 30 20 31 21 32 22 34 23 35
REMARK SMILES IDX 24 36 70 37 25 38 69 39 26 40 27 41 28 42 63 43 29 44 68 45
REMARK SMILES IDX 62 46 64 47 30 48 67 49 61 50 60 51 31 53 53 54 38 55 52 56
REMARK SMILES IDX 39 57 42 58 51 59 65 60 40 61 41 62 50 64 66 65 43 66 32 67
REMARK SMILES IDX 33 68 37 69 34 70 36 71 35 72 54 73 55 74 59 75 56 76 58 77
REMARK SMILES IDX 57 78 44 79 45 80 49 81 46 82 48 83 47 84
REMARK H PARENT 15 5 7 15 20 33 64 52 42 63
REMARK Flexibility Score: inf
ROOT
ATOM      1  C   UNL A   1      32.694  29.618  25.365  1.00  0.00     0.116 C 
ENDROOT
BRANCH   1   2
ATOM      2  N   UNL A   1      33.298  29.486  24.050  1.00  0.00    -0.353 N 
ATOM      3  C   UNL A   1      33.555  28.363  23.324  1.00  0.00     0.258 C 
ATOM      4  O   UNL A   1      34.087  28.481  22.217  1.00  0.00    -0.271 OA
ATOM      5  H   UNL A   1      33.557  30.333  23.619  1.00  0.00     0.163 HD
BRANCH   3   6
ATOM      6  C   UNL A   1      33.184  26.980  23.872  1.00  0.00     0.331 C 
BRANCH   6   7
ATOM      7  O   UNL A   1      34.069  26.398  24.807  1.00  0.00    -0.467 OA
BRANCH   7   8
ATOM      8  C   UNL A   1      34.028  25.046  24.982  1.00  0.00     0.219 A 
ATOM      9  C   UNL A   1      35.359  23.232  25.427  1.00  0.00     0.226 A 
ATOM     10  N   UNL A   1      35.231  24.553  25.310  1.00  0.00    -0.177 NA
ATOM     11  N   UNL A   1      34.354  22.374  25.254  1.00  0.00    -0.208 NA
ATOM     12  C   UNL A   1      33.128  22.886  24.972  1.00  0.00     0.153 A 
ATOM     13  C   UNL A   1      32.922  24.246  24.834  1.00  0.00     0.102 A 
BRANCH   9  14
ATOM     14  N   UNL A   1      36.619  22.787  25.704  1.00  0.00    -0.350 N 
ATOM     15  H   UNL A   1      37.125  23.198  26.442  1.00  0.00     0.164 HD
BRANCH  14  16
ATOM     16  C   UNL A   1      37.222  21.729  24.937  1.00  0.00     0.152 C 
BRANCH  16  17
ATOM     17  C   UNL A   1      38.528  21.333  25.593  1.00  0.00    -0.029 A 
ATOM     18  C   UNL A   1      42.296  20.175  27.358  1.00  0.00     0.044 C 
ATOM     19  C   UNL A   1      40.980  20.579  26.765  1.00  0.00    -0.051 A 
ATOM     20  C   UNL A   1      40.252  19.664  25.999  1.00  0.00     0.004 A 
ATOM     21  C   UNL A   1      40.469  21.870  26.950  1.00  0.00     0.004 A 
ATOM     22  C   UNL A   1      39.035  20.034  25.426  1.00  0.00     0.006 A 
ATOM     23  C   UNL A   1      39.253  22.244  26.369  1.00  0.00     0.006 A 
ENDBRANCH  16  17
ENDBRANCH  14  16
ENDBRANCH   9  14
BRANCH  12  24
ATOM     24  C   UNL A   1      31.965  21.923  24.810  1.00  0.00     0.433 C 
ATOM     25  F   UNL A   1      30.862  22.291  25.524  1.00  0.00    -0.165 F 
ATOM     26  F   UNL A   1      31.553  21.802  23.516  1.00  0.00    -0.165 F 
ATOM     27  F   UNL A   1      32.253  20.652  25.219  1.00  0.00    -0.165 F 
ENDBRANCH  12  24
ENDBRANCH   7   8
ENDBRANCH   6   7
ENDBRANCH   3   6
ENDBRANCH   1   2
BRANCH   1  28
ATOM     28  C   UNL A   1      33.712  29.555  26.512  1.00  0.00     0.023 C 
BRANCH  28  29
ATOM     29  C   UNL A   1      33.524  30.583  27.631  1.00  0.00     0.023 C 
BRANCH  29  30
ATOM     30  C   UNL A   1      34.565  31.695  27.674  1.00  0.00     0.116 C 
BRANCH  30  31
ATOM     31  N   UNL A   1      34.975  32.097  29.014  1.00  0.00    -0.352 N 
ATOM     32  C   UNL A   1      35.880  31.493  29.880  1.00  0.00     0.251 C 
ATOM     33  H   UNL A   1      34.550  32.916  29.354  1.00  0.00     0.163 HD
ATOM     34  O   UNL A   1      36.077  31.961  30.981  1.00  0.00    -0.269 OA
BRANCH  32  35
ATOM     35  C   UNL A   1      36.707  30.354  29.394  1.00  0.00     0.039 A 
ATOM     36  C   UNL A   1      36.890  29.270  30.261  1.00  0.00     0.014 A 
ATOM     37  C   UNL A   1      37.452  30.440  28.222  1.00  0.00     0.014 A 
ATOM     38  C   UNL A   1      37.997  28.441  30.094  1.00  0.00     0.010 A 
ATOM     39  C   UNL A   1      38.608  29.690  28.111  1.00  0.00     0.010 A 
ATOM     40  C   UNL A   1      38.923  28.752  29.097  1.00  0.00    -0.014 A 
BRANCH  40  41
ATOM     41  C   UNL A   1      40.312  28.308  29.152  1.00  0.00     0.031 A 
ATOM     42  C   UNL A   1      40.736  27.014  28.585  1.00  0.00     0.074 A 
ATOM     43  C   UNL A   1      41.246  29.130  29.685  1.00  0.00     0.049 A 
ATOM     44  N   UNL A   1      41.723  26.317  29.043  1.00  0.00    -0.248 NA
ATOM     45  C   UNL A   1      40.050  26.387  27.462  1.00  0.00     0.031 C 
ATOM     46  C   UNL A   1      42.697  28.982  29.614  1.00  0.00     0.029 A 
ATOM     47  N   UNL A   1      41.059  30.165  30.606  1.00  0.00    -0.354 N 
ATOM     48  C   UNL A   1      42.000  25.351  28.103  1.00  0.00     0.074 A 
ATOM     49  C   UNL A   1      40.876  25.369  27.194  1.00  0.00     0.031 C 
ATOM     50  C   UNL A   1      43.244  29.642  30.649  1.00  0.00     0.029 A 
ATOM     51  C   UNL A   1      42.151  30.113  31.484  1.00  0.00     0.049 A 
ATOM     52  H   UNL A   1      40.310  30.803  30.632  1.00  0.00     0.167 HD
ATOM     53  C   UNL A   1      43.224  24.751  28.076  1.00  0.00     0.031 A 
ATOM     54  C   UNL A   1      42.037  29.913  32.828  1.00  0.00     0.031 A 
ATOM     55  C   UNL A   1      44.105  25.230  29.137  1.00  0.00     0.049 A 
ATOM     56  C   UNL A   1      42.836  28.729  33.328  1.00  0.00     0.074 A 
ATOM     57  C   UNL A   1      45.157  26.132  29.146  1.00  0.00     0.029 A 
ATOM     58  N   UNL A   1      43.783  24.987  30.466  1.00  0.00    -0.354 N 
ATOM     59  N   UNL A   1      43.307  27.794  32.553  1.00  0.00    -0.248 NA
ATOM     60  C   UNL A   1      43.091  28.460  34.741  1.00  0.00     0.031 C 
ATOM     61  C   UNL A   1      45.442  26.463  30.493  1.00  0.00     0.029 A 
ATOM     62  C   UNL A   1      44.572  25.753  31.299  1.00  0.00     0.049 A 
ATOM     63  H   UNL A   1      43.090  24.357  30.770  1.00  0.00     0.167 HD
ATOM     64  C   UNL A   1      43.884  26.811  33.315  1.00  0.00     0.074 A 
ATOM     65  C   UNL A   1      43.738  27.282  34.679  1.00  0.00     0.031 C 
ATOM     66  C   UNL A   1      44.405  25.687  32.745  1.00  0.00     0.031 A 
BRANCH  53  67
ATOM     67  C   UNL A   1      43.716  23.974  26.878  1.00  0.00    -0.014 A 
ATOM     68  C   UNL A   1      43.098  24.153  25.626  1.00  0.00     0.009 A 
ATOM     69  C   UNL A   1      44.746  23.022  26.928  1.00  0.00     0.009 A 
ATOM     70  C   UNL A   1      43.404  23.348  24.522  1.00  0.00     0.001 A 
ATOM     71  C   UNL A   1      45.032  22.184  25.839  1.00  0.00     0.001 A 
ATOM     72  C   UNL A   1      44.348  22.338  24.639  1.00  0.00     0.000 A 
ENDBRANCH  53  67
BRANCH  54  73
ATOM     73  C   UNL A   1      40.731  30.320  33.413  1.00  0.00    -0.014 A 
ATOM     74  C   UNL A   1      40.499  31.685  33.671  1.00  0.00     0.009 A 
ATOM     75  C   UNL A   1      39.636  29.445  33.389  1.00  0.00     0.009 A 
ATOM     76  C   UNL A   1      39.197  32.173  33.810  1.00  0.00     0.001 A 
ATOM     77  C   UNL A   1      38.335  29.937  33.538  1.00  0.00     0.001 A 
ATOM     78  C   UNL A   1      38.114  31.303  33.719  1.00  0.00     0.000 A 
ENDBRANCH  54  73
BRANCH  66  79
ATOM     79  C   UNL A   1      44.867  24.438  33.459  1.00  0.00    -0.014 A 
ATOM     80  C   UNL A   1      46.165  24.232  33.946  1.00  0.00     0.009 A 
ATOM     81  C   UNL A   1      43.910  23.448  33.783  1.00  0.00     0.009 A 
ATOM     82  C   UNL A   1      46.495  23.084  34.680  1.00  0.00     0.001 A 
ATOM     83  C   UNL A   1      44.224  22.325  34.552  1.00  0.00     0.001 A 
ATOM     84  C   UNL A   1      45.525  22.138  34.993  1.00  0.00     0.000 A 
ENDBRANCH  66  79
ENDBRANCH  40  41
ENDBRANCH  32  35
ENDBRANCH  30  31
ENDBRANCH  29  30
ENDBRANCH  28  29
ENDBRANCH   1  28
TORSDOF 17
ENDMDL
