MODEL 1
REMARK VINA RESULT:     -11.3      0.000      0.000
REMARK SMILES CCOC(=O)C1=NN(c2ccc(F)cc2F)[C@@H](C(=O)NCCCCNC(=O)c2ccc(-c3c4nc(c(-c5ccccc5)c5ccc([nH]5)c(-c5ccccc5)c5nc(c(-c6ccccc6)c6ccc3[nH]6)C=C5)C=C4)cc2)C1
REMARK SMILES IDX 22 1 21 2 20 3 18 4 19 5 17 7 6 8 7 9 76 10 8 11 4 12 5 13
REMARK SMILES IDX 3 14 2 15 1 16 9 17 10 18 15 19 11 20 14 21 16 22 12 23
REMARK SMILES IDX 13 24 23 25 24 26 25 27 26 28 27 30 28 31 29 32 75 33 30 34
REMARK SMILES IDX 74 35 31 36 32 37 33 38 68 39 34 40 73 41 67 42 69 43 35 44
REMARK SMILES IDX 72 45 66 46 65 47 36 49 58 50 43 51 57 52 44 53 47 54 56 55
REMARK SMILES IDX 70 56 45 57 46 58 55 60 71 61 48 62 37 63 38 64 42 65 39 66
REMARK SMILES IDX 41 67 40 68 59 69 60 70 64 71 61 72 63 73 62 74 49 75 50 76
REMARK SMILES IDX 54 77 51 78 53 79 52 80
REMARK H PARENT 20 6 25 29 69 48 47 59
REMARK Flexibility Score: inf
ROOT
ATOM      1  C   UNL A   1      36.576  19.928  24.884  1.00  0.00     0.023 C 
ENDROOT
BRANCH   1   2
ATOM      2  C   UNL A   1      36.601  21.452  24.961  1.00  0.00     0.116 C 
BRANCH   2   3
ATOM      3  N   UNL A   1      35.755  22.096  23.977  1.00  0.00    -0.354 N 
ATOM      4  C   UNL A   1      34.477  22.577  24.072  1.00  0.00     0.245 C 
ATOM      5  O   UNL A   1      34.059  23.157  23.065  1.00  0.00    -0.273 OA
ATOM      6  H   UNL A   1      36.169  22.206  23.091  1.00  0.00     0.163 HD
BRANCH   4   7
ATOM      7  C   UNL A   1      33.609  22.298  25.321  1.00  0.00     0.203 C 
ATOM      8  C   UNL A   1      31.498  22.922  26.034  1.00  0.00     0.148 C 
ATOM      9  N   UNL A   1      31.313  21.729  25.568  1.00  0.00    -0.169 NA
ATOM     10  C   UNL A   1      32.842  23.519  25.821  1.00  0.00     0.103 C 
ATOM     11  N   UNL A   1      32.516  21.353  25.037  1.00  0.00    -0.249 N 
BRANCH   8  12
ATOM     12  C   UNL A   1      30.460  23.709  26.781  1.00  0.00     0.354 C 
ATOM     13  O   UNL A   1      29.607  23.184  27.475  1.00  0.00    -0.245 OA
BRANCH  12  14
ATOM     14  O   UNL A   1      30.733  25.022  26.642  1.00  0.00    -0.461 OA
BRANCH  14  15
ATOM     15  C   UNL A   1      29.868  25.738  25.750  1.00  0.00     0.230 C 
ATOM     16  C   UNL A   1      30.662  26.720  24.910  1.00  0.00     0.049 C 
ENDBRANCH  14  15
ENDBRANCH  12  14
ENDBRANCH   8  12
BRANCH  11  17
ATOM     17  C   UNL A   1      32.674  20.036  24.617  1.00  0.00     0.096 A 
ATOM     18  C   UNL A   1      33.143  19.036  25.482  1.00  0.00     0.034 A 
ATOM     19  C   UNL A   1      32.360  19.659  23.297  1.00  0.00     0.151 A 
ATOM     20  C   UNL A   1      33.287  17.716  25.043  1.00  0.00     0.041 A 
ATOM     21  C   UNL A   1      32.521  18.352  22.845  1.00  0.00     0.080 A 
ATOM     22  F   UNL A   1      31.938  20.578  22.412  1.00  0.00    -0.205 F 
ATOM     23  C   UNL A   1      32.982  17.390  23.727  1.00  0.00     0.126 A 
ATOM     24  F   UNL A   1      33.133  16.127  23.309  1.00  0.00    -0.207 F 
ENDBRANCH  11  17
ENDBRANCH   4   7
ENDBRANCH   2   3
ENDBRANCH   1   2
BRANCH   1  25
ATOM     25  C   UNL A   1      37.930  19.219  24.917  1.00  0.00     0.023 C 
BRANCH  25  26
ATOM     26  C   UNL A   1      39.050  19.931  25.668  1.00  0.00     0.116 C 
BRANCH  26  27
ATOM     27  N   UNL A   1      40.287  19.172  25.711  1.00  0.00    -0.352 N 
ATOM     28  C   UNL A   1      41.557  19.563  26.056  1.00  0.00     0.251 C 
ATOM     29  H   UNL A   1      40.201  18.226  25.451  1.00  0.00     0.163 HD
ATOM     30  O   UNL A   1      42.487  18.770  25.922  1.00  0.00    -0.269 OA
BRANCH  28  31
ATOM     31  C   UNL A   1      41.832  20.930  26.562  1.00  0.00     0.039 A 
ATOM     32  C   UNL A   1      41.695  21.171  27.933  1.00  0.00     0.014 A 
ATOM     33  C   UNL A   1      42.177  21.980  25.707  1.00  0.00     0.014 A 
ATOM     34  C   UNL A   1      41.952  22.444  28.451  1.00  0.00     0.010 A 
ATOM     35  C   UNL A   1      42.500  23.232  26.231  1.00  0.00     0.010 A 
ATOM     36  C   UNL A   1      42.380  23.480  27.607  1.00  0.00    -0.014 A 
BRANCH  36  37
ATOM     37  C   UNL A   1      42.669  24.835  28.143  1.00  0.00     0.031 A 
ATOM     38  C   UNL A   1      44.073  25.210  28.533  1.00  0.00     0.074 A 
ATOM     39  C   UNL A   1      41.666  25.715  28.328  1.00  0.00     0.049 A 
ATOM     40  N   UNL A   1      44.515  26.325  29.059  1.00  0.00    -0.248 NA
ATOM     41  C   UNL A   1      45.113  24.189  28.327  1.00  0.00     0.031 C 
ATOM     42  C   UNL A   1      40.253  25.468  28.034  1.00  0.00     0.029 A 
ATOM     43  N   UNL A   1      41.687  26.999  28.813  1.00  0.00    -0.354 N 
ATOM     44  C   UNL A   1      45.873  26.129  29.274  1.00  0.00     0.074 A 
ATOM     45  C   UNL A   1      46.176  24.777  28.855  1.00  0.00     0.031 C 
ATOM     46  C   UNL A   1      39.546  26.574  28.321  1.00  0.00     0.029 A 
ATOM     47  C   UNL A   1      40.451  27.597  28.840  1.00  0.00     0.049 A 
ATOM     48  H   UNL A   1      42.509  27.448  29.113  1.00  0.00     0.167 HD
ATOM     49  C   UNL A   1      46.792  26.995  29.761  1.00  0.00     0.031 A 
ATOM     50  C   UNL A   1      40.086  28.833  29.230  1.00  0.00     0.031 A 
ATOM     51  C   UNL A   1      46.509  28.350  30.151  1.00  0.00     0.049 A 
ATOM     52  C   UNL A   1      41.133  29.795  29.717  1.00  0.00     0.074 A 
ATOM     53  C   UNL A   1      47.383  29.318  30.613  1.00  0.00     0.029 A 
ATOM     54  N   UNL A   1      45.251  28.930  30.113  1.00  0.00    -0.354 N 
ATOM     55  N   UNL A   1      42.421  29.608  29.867  1.00  0.00    -0.248 NA
ATOM     56  C   UNL A   1      40.674  31.147  30.067  1.00  0.00     0.031 C 
ATOM     57  C   UNL A   1      46.650  30.482  30.874  1.00  0.00     0.029 A 
ATOM     58  C   UNL A   1      45.326  30.245  30.540  1.00  0.00     0.049 A 
ATOM     59  H   UNL A   1      44.427  28.476  29.824  1.00  0.00     0.167 HD
ATOM     60  C   UNL A   1      42.930  30.825  30.300  1.00  0.00     0.074 A 
ATOM     61  C   UNL A   1      41.815  31.745  30.379  1.00  0.00     0.031 C 
ATOM     62  C   UNL A   1      44.210  31.151  30.601  1.00  0.00     0.031 A 
BRANCH  49  63
ATOM     63  C   UNL A   1      48.201  26.493  29.897  1.00  0.00    -0.014 A 
ATOM     64  C   UNL A   1      48.626  25.832  31.060  1.00  0.00     0.009 A 
ATOM     65  C   UNL A   1      49.112  26.674  28.844  1.00  0.00     0.009 A 
ATOM     66  C   UNL A   1      49.946  25.396  31.182  1.00  0.00     0.001 A 
ATOM     67  C   UNL A   1      50.426  26.214  28.960  1.00  0.00     0.001 A 
ATOM     68  C   UNL A   1      50.844  25.585  30.132  1.00  0.00     0.000 A 
ENDBRANCH  49  63
BRANCH  50  69
ATOM     69  C   UNL A   1      38.667  29.253  29.133  1.00  0.00    -0.014 A 
ATOM     70  C   UNL A   1      38.185  29.848  27.957  1.00  0.00     0.009 A 
ATOM     71  C   UNL A   1      37.791  29.072  30.213  1.00  0.00     0.009 A 
ATOM     72  C   UNL A   1      36.859  30.276  27.872  1.00  0.00     0.001 A 
ATOM     73  C   UNL A   1      36.459  29.482  30.118  1.00  0.00     0.001 A 
ATOM     74  C   UNL A   1      35.997  30.091  28.952  1.00  0.00     0.000 A 
ENDBRANCH  50  69
BRANCH  62  75
ATOM     75  C   UNL A   1      44.477  32.573  30.998  1.00  0.00    -0.014 A 
ATOM     76  C   UNL A   1      44.780  33.552  30.041  1.00  0.00     0.009 A 
ATOM     77  C   UNL A   1      44.398  32.940  32.351  1.00  0.00     0.009 A 
ATOM     78  C   UNL A   1      45.032  34.868  30.435  1.00  0.00     0.001 A 
ATOM     79  C   UNL A   1      44.630  34.259  32.740  1.00  0.00     0.001 A 
ATOM     80  C   UNL A   1      44.955  35.220  31.783  1.00  0.00     0.000 A 
ENDBRANCH  62  75
ENDBRANCH  36  37
ENDBRANCH  28  31
ENDBRANCH  26  27
ENDBRANCH  25  26
ENDBRANCH   1  25
TORSDOF 15
ENDMDL
MODEL 2
REMARK VINA RESULT:     -11.3      0.394      5.886
REMARK SMILES CCOC(=O)C1=NN(c2ccc(F)cc2F)[C@@H](C(=O)NCCCCNC(=O)c2ccc(-c3c4nc(c(-c5ccccc5)c5ccc([nH]5)c(-c5ccccc5)c5nc(c(-c6ccccc6)c6ccc3[nH]6)C=C5)C=C4)cc2)C1
REMARK SMILES IDX 22 1 21 2 20 3 18 4 19 5 17 7 6 8 7 9 76 10 8 11 4 12 5 13
REMARK SMILES IDX 3 14 2 15 1 16 9 17 10 18 15 19 11 20 14 21 16 22 12 23
REMARK SMILES IDX 13 24 23 25 24 26 25 27 26 28 27 30 28 31 29 32 75 33 30 34
REMARK SMILES IDX 74 35 31 36 32 37 33 38 68 39 34 40 73 41 67 42 69 43 35 44
REMARK SMILES IDX 72 45 66 46 65 47 36 49 58 50 43 51 57 52 44 53 47 54 56 55
REMARK SMILES IDX 70 56 45 57 46 58 55 60 71 61 48 62 37 63 38 64 42 65 39 66
REMARK SMILES IDX 41 67 40 68 59 69 60 70 64 71 61 72 63 73 62 74 49 75 50 76
REMARK SMILES IDX 54 77 51 78 53 79 52 80
REMARK H PARENT 20 6 25 29 69 48 47 59
REMARK Flexibility Score: inf
ROOT
ATOM      1  C   UNL A   1      36.440  20.281  24.872  1.00  0.00     0.023 C 
ENDROOT
BRANCH   1   2
ATOM      2  C   UNL A   1      36.567  21.778  24.605  1.00  0.00     0.116 C 
BRANCH   2   3
ATOM      3  N   UNL A   1      35.609  22.278  23.639  1.00  0.00    -0.354 N 
ATOM      4  C   UNL A   1      34.299  22.648  23.785  1.00  0.00     0.245 C 
ATOM      5  O   UNL A   1      33.773  23.121  22.773  1.00  0.00    -0.273 OA
ATOM      6  H   UNL A   1      35.959  22.366  22.724  1.00  0.00     0.163 HD
BRANCH   4   7
ATOM      7  C   UNL A   1      33.534  22.376  25.101  1.00  0.00     0.203 C 
ATOM      8  C   UNL A   1      31.461  22.954  25.951  1.00  0.00     0.148 C 
ATOM      9  N   UNL A   1      31.282  21.744  25.530  1.00  0.00    -0.169 NA
ATOM     10  C   UNL A   1      32.766  23.586  25.626  1.00  0.00     0.103 C 
ATOM     11  N   UNL A   1      32.455  21.390  24.922  1.00  0.00    -0.249 N 
BRANCH   8  12
ATOM     12  C   UNL A   1      30.455  23.728  26.753  1.00  0.00     0.354 C 
ATOM     13  O   UNL A   1      29.624  23.192  27.465  1.00  0.00    -0.245 OA
BRANCH  12  14
ATOM     14  O   UNL A   1      30.730  25.043  26.634  1.00  0.00    -0.461 OA
BRANCH  14  15
ATOM     15  C   UNL A   1      29.866  25.774  25.754  1.00  0.00     0.230 C 
ATOM     16  C   UNL A   1      30.656  26.794  24.956  1.00  0.00     0.049 C 
ENDBRANCH  14  15
ENDBRANCH  12  14
ENDBRANCH   8  12
BRANCH  11  17
ATOM     17  C   UNL A   1      32.625  20.069  24.524  1.00  0.00     0.096 A 
ATOM     18  C   UNL A   1      33.132  19.094  25.397  1.00  0.00     0.034 A 
ATOM     19  C   UNL A   1      32.286  19.660  23.219  1.00  0.00     0.151 A 
ATOM     20  C   UNL A   1      33.288  17.767  24.980  1.00  0.00     0.041 A 
ATOM     21  C   UNL A   1      32.459  18.347  22.789  1.00  0.00     0.080 A 
ATOM     22  F   UNL A   1      31.827  20.554  22.328  1.00  0.00    -0.205 F 
ATOM     23  C   UNL A   1      32.957  17.410  23.679  1.00  0.00     0.126 A 
ATOM     24  F   UNL A   1      33.119  16.142  23.283  1.00  0.00    -0.207 F 
ENDBRANCH  11  17
ENDBRANCH   4   7
ENDBRANCH   2   3
ENDBRANCH   1   2
BRANCH   1  25
ATOM     25  C   UNL A   1      37.742  19.481  24.916  1.00  0.00     0.023 C 
BRANCH  25  26
ATOM     26  C   UNL A   1      38.918  20.140  25.629  1.00  0.00     0.116 C 
BRANCH  26  27
ATOM     27  N   UNL A   1      40.085  19.281  25.725  1.00  0.00    -0.352 N 
ATOM     28  C   UNL A   1      41.372  19.572  26.109  1.00  0.00     0.251 C 
ATOM     29  H   UNL A   1      39.929  18.342  25.476  1.00  0.00     0.163 HD
ATOM     30  O   UNL A   1      42.235  18.702  26.018  1.00  0.00    -0.269 OA
BRANCH  28  31
ATOM     31  C   UNL A   1      41.742  20.920  26.603  1.00  0.00     0.039 A 
ATOM     32  C   UNL A   1      41.679  21.163  27.980  1.00  0.00     0.014 A 
ATOM     33  C   UNL A   1      42.106  21.952  25.735  1.00  0.00     0.014 A 
ATOM     34  C   UNL A   1      42.028  22.419  28.487  1.00  0.00     0.010 A 
ATOM     35  C   UNL A   1      42.519  23.183  26.246  1.00  0.00     0.010 A 
ATOM     36  C   UNL A   1      42.474  23.432  27.626  1.00  0.00    -0.014 A 
BRANCH  36  37
ATOM     37  C   UNL A   1      42.860  24.767  28.150  1.00  0.00     0.031 A 
ATOM     38  C   UNL A   1      41.810  25.820  28.386  1.00  0.00     0.074 A 
ATOM     39  C   UNL A   1      44.157  25.057  28.371  1.00  0.00     0.049 A 
ATOM     40  N   UNL A   1      41.955  27.055  28.796  1.00  0.00    -0.248 NA
ATOM     41  C   UNL A   1      40.417  25.442  28.098  1.00  0.00     0.031 C 
ATOM     42  C   UNL A   1      45.282  24.147  28.144  1.00  0.00     0.029 A 
ATOM     43  N   UNL A   1      44.747  26.207  28.834  1.00  0.00    -0.354 N 
ATOM     44  C   UNL A   1      40.681  27.608  28.787  1.00  0.00     0.074 A 
ATOM     45  C   UNL A   1      39.781  26.586  28.298  1.00  0.00     0.031 C 
ATOM     46  C   UNL A   1      46.422  24.765  28.493  1.00  0.00     0.029 A 
ATOM     47  C   UNL A   1      46.113  26.119  28.944  1.00  0.00     0.049 A 
ATOM     48  H   UNL A   1      44.238  27.017  29.064  1.00  0.00     0.167 HD
ATOM     49  C   UNL A   1      40.287  28.847  29.165  1.00  0.00     0.031 A 
ATOM     50  C   UNL A   1      47.015  27.023  29.369  1.00  0.00     0.031 A 
ATOM     51  C   UNL A   1      41.168  29.859  29.682  1.00  0.00     0.049 A 
ATOM     52  C   UNL A   1      46.548  28.374  29.833  1.00  0.00     0.074 A 
ATOM     53  C   UNL A   1      40.855  31.129  30.134  1.00  0.00     0.029 A 
ATOM     54  N   UNL A   1      42.538  29.709  29.825  1.00  0.00    -0.354 N 
ATOM     55  N   UNL A   1      45.332  28.862  29.864  1.00  0.00    -0.248 NA
ATOM     56  C   UNL A   1      47.580  29.289  30.343  1.00  0.00     0.031 C 
ATOM     57  C   UNL A   1      42.041  31.756  30.534  1.00  0.00     0.029 A 
ATOM     58  C   UNL A   1      43.085  30.862  30.362  1.00  0.00     0.049 A 
ATOM     59  H   UNL A   1      43.047  28.902  29.582  1.00  0.00     0.167 HD
ATOM     60  C   UNL A   1      45.449  30.128  30.422  1.00  0.00     0.074 A 
ATOM     61  C   UNL A   1      46.852  30.328  30.724  1.00  0.00     0.031 C 
ATOM     62  C   UNL A   1      44.479  31.041  30.667  1.00  0.00     0.031 A 
BRANCH  49  63
ATOM     63  C   UNL A   1      38.827  29.172  29.030  1.00  0.00    -0.014 A 
ATOM     64  C   UNL A   1      38.288  29.591  27.804  1.00  0.00     0.009 A 
ATOM     65  C   UNL A   1      37.978  29.046  30.141  1.00  0.00     0.009 A 
ATOM     66  C   UNL A   1      36.935  29.916  27.702  1.00  0.00     0.001 A 
ATOM     67  C   UNL A   1      36.619  29.348  30.029  1.00  0.00     0.001 A 
ATOM     68  C   UNL A   1      36.101  29.792  28.813  1.00  0.00     0.000 A 
ENDBRANCH  49  63
BRANCH  50  69
ATOM     69  C   UNL A   1      48.454  26.668  29.420  1.00  0.00    -0.014 A 
ATOM     70  C   UNL A   1      48.982  26.021  30.548  1.00  0.00     0.009 A 
ATOM     71  C   UNL A   1      49.308  26.979  28.352  1.00  0.00     0.009 A 
ATOM     72  C   UNL A   1      50.342  25.714  30.616  1.00  0.00     0.001 A 
ATOM     73  C   UNL A   1      50.664  26.652  28.413  1.00  0.00     0.001 A 
ATOM     74  C   UNL A   1      51.182  26.028  29.548  1.00  0.00     0.000 A 
ENDBRANCH  50  69
BRANCH  62  75
ATOM     75  C   UNL A   1      44.896  32.319  31.334  1.00  0.00    -0.014 A 
ATOM     76  C   UNL A   1      45.231  33.456  30.585  1.00  0.00     0.009 A 
ATOM     77  C   UNL A   1      44.929  32.389  32.735  1.00  0.00     0.009 A 
ATOM     78  C   UNL A   1      45.624  34.632  31.227  1.00  0.00     0.001 A 
ATOM     79  C   UNL A   1      45.302  33.571  33.375  1.00  0.00     0.001 A 
ATOM     80  C   UNL A   1      45.657  34.689  32.621  1.00  0.00     0.000 A 
ENDBRANCH  62  75
ENDBRANCH  36  37
ENDBRANCH  28  31
ENDBRANCH  26  27
ENDBRANCH  25  26
ENDBRANCH   1  25
TORSDOF 15
ENDMDL
MODEL 3
REMARK VINA RESULT:     -11.2      2.689      7.479
REMARK SMILES CCOC(=O)C1=NN(c2ccc(F)cc2F)[C@@H](C(=O)NCCCCNC(=O)c2ccc(-c3c4nc(c(-c5ccccc5)c5ccc([nH]5)c(-c5ccccc5)c5nc(c(-c6ccccc6)c6ccc3[nH]6)C=C5)C=C4)cc2)C1
REMARK SMILES IDX 22 1 21 2 20 3 18 4 19 5 17 7 6 8 7 9 76 10 8 11 4 12 5 13
REMARK SMILES IDX 3 14 2 15 1 16 9 17 10 18 15 19 11 20 14 21 16 22 12 23
REMARK SMILES IDX 13 24 23 25 24 26 25 27 26 28 27 30 28 31 29 32 75 33 30 34
REMARK SMILES IDX 74 35 31 36 32 37 33 38 68 39 34 40 73 41 67 42 69 43 35 44
REMARK SMILES IDX 72 45 66 46 65 47 36 49 58 50 43 51 57 52 44 53 47 54 56 55
REMARK SMILES IDX 70 56 45 57 46 58 55 60 71 61 48 62 37 63 38 64 42 65 39 66
REMARK SMILES IDX 41 67 40 68 59 69 60 70 64 71 61 72 63 73 62 74 49 75 50 76
REMARK SMILES IDX 54 77 51 78 53 79 52 80
REMARK H PARENT 20 6 25 29 69 48 47 59
REMARK Flexibility Score: inf
ROOT
ATOM      1  C   UNL A   1      31.952  26.373  26.699  1.00  0.00     0.023 C 
ENDROOT
BRANCH   1   2
ATOM      2  C   UNL A   1      31.809  25.474  25.474  1.00  0.00     0.116 C 
BRANCH   2   3
ATOM      3  N   UNL A   1      31.769  24.062  25.792  1.00  0.00    -0.354 N 
ATOM      4  C   UNL A   1      32.248  22.975  25.111  1.00  0.00     0.245 C 
ATOM      5  O   UNL A   1      32.131  21.895  25.698  1.00  0.00    -0.273 OA
ATOM      6  H   UNL A   1      31.321  23.846  26.642  1.00  0.00     0.163 HD
BRANCH   4   7
ATOM      7  C   UNL A   1      32.787  23.112  23.668  1.00  0.00     0.203 C 
ATOM      8  C   UNL A   1      32.895  24.814  22.104  1.00  0.00     0.148 C 
ATOM      9  N   UNL A   1      34.085  24.800  22.609  1.00  0.00    -0.169 NA
ATOM     10  C   UNL A   1      31.886  23.934  22.752  1.00  0.00     0.103 C 
ATOM     11  N   UNL A   1      34.045  23.875  23.617  1.00  0.00    -0.249 N 
BRANCH   8  12
ATOM     12  C   UNL A   1      32.490  25.633  20.912  1.00  0.00     0.354 C 
ATOM     13  O   UNL A   1      33.083  25.587  19.848  1.00  0.00    -0.245 OA
BRANCH  12  14
ATOM     14  O   UNL A   1      31.342  26.277  21.202  1.00  0.00    -0.461 OA
BRANCH  14  15
ATOM     15  C   UNL A   1      31.467  27.373  22.118  1.00  0.00     0.230 C 
ATOM     16  C   UNL A   1      30.194  27.544  22.924  1.00  0.00     0.049 C 
ENDBRANCH  14  15
ENDBRANCH  12  14
ENDBRANCH   8  12
BRANCH  11  17
ATOM     17  C   UNL A   1      35.238  23.511  24.231  1.00  0.00     0.096 A 
ATOM     18  C   UNL A   1      36.026  22.455  23.749  1.00  0.00     0.034 A 
ATOM     19  C   UNL A   1      35.702  24.201  25.369  1.00  0.00     0.151 A 
ATOM     20  C   UNL A   1      37.227  22.109  24.377  1.00  0.00     0.041 A 
ATOM     21  C   UNL A   1      36.886  23.849  26.013  1.00  0.00     0.080 A 
ATOM     22  F   UNL A   1      34.976  25.200  25.898  1.00  0.00    -0.205 F 
ATOM     23  C   UNL A   1      37.640  22.806  25.506  1.00  0.00     0.126 A 
ATOM     24  F   UNL A   1      38.785  22.462  26.110  1.00  0.00    -0.207 F 
ENDBRANCH  11  17
ENDBRANCH   4   7
ENDBRANCH   2   3
ENDBRANCH   1   2
BRANCH   1  25
ATOM     25  C   UNL A   1      32.351  27.825  26.439  1.00  0.00     0.023 C 
BRANCH  25  26
ATOM     26  C   UNL A   1      33.566  28.342  27.204  1.00  0.00     0.116 C 
BRANCH  26  27
ATOM     27  N   UNL A   1      33.470  29.749  27.550  1.00  0.00    -0.352 N 
ATOM     28  C   UNL A   1      34.412  30.598  28.078  1.00  0.00     0.251 C 
ATOM     29  H   UNL A   1      32.592  30.158  27.379  1.00  0.00     0.163 HD
ATOM     30  O   UNL A   1      34.080  31.740  28.391  1.00  0.00    -0.269 OA
BRANCH  28  31
ATOM     31  C   UNL A   1      35.809  30.156  28.303  1.00  0.00     0.039 A 
ATOM     32  C   UNL A   1      36.145  29.628  29.555  1.00  0.00     0.014 A 
ATOM     33  C   UNL A   1      36.795  30.293  27.324  1.00  0.00     0.014 A 
ATOM     34  C   UNL A   1      37.450  29.192  29.805  1.00  0.00     0.010 A 
ATOM     35  C   UNL A   1      38.079  29.796  27.550  1.00  0.00     0.010 A 
ATOM     36  C   UNL A   1      38.423  29.251  28.796  1.00  0.00    -0.014 A 
BRANCH  36  37
ATOM     37  C   UNL A   1      39.810  28.781  29.042  1.00  0.00     0.031 A 
ATOM     38  C   UNL A   1      40.813  29.693  29.697  1.00  0.00     0.074 A 
ATOM     39  C   UNL A   1      40.189  27.553  28.635  1.00  0.00     0.049 A 
ATOM     40  N   UNL A   1      42.079  29.481  29.955  1.00  0.00    -0.248 NA
ATOM     41  C   UNL A   1      40.335  31.028  30.090  1.00  0.00     0.031 C 
ATOM     42  C   UNL A   1      39.333  26.583  27.950  1.00  0.00     0.029 A 
ATOM     43  N   UNL A   1      41.400  26.915  28.740  1.00  0.00    -0.354 N 
ATOM     44  C   UNL A   1      42.554  30.661  30.511  1.00  0.00     0.074 A 
ATOM     45  C   UNL A   1      41.451  31.597  30.521  1.00  0.00     0.031 C 
ATOM     46  C   UNL A   1      40.039  25.464  27.719  1.00  0.00     0.029 A 
ATOM     47  C   UNL A   1      41.399  25.646  28.217  1.00  0.00     0.049 A 
ATOM     48  H   UNL A   1      42.193  27.329  29.151  1.00  0.00     0.167 HD
ATOM     49  C   UNL A   1      43.791  30.941  30.986  1.00  0.00     0.031 A 
ATOM     50  C   UNL A   1      42.381  24.727  28.152  1.00  0.00     0.031 A 
ATOM     51  C   UNL A   1      44.885  30.009  31.010  1.00  0.00     0.049 A 
ATOM     52  C   UNL A   1      43.730  25.042  28.734  1.00  0.00     0.074 A 
ATOM     53  C   UNL A   1      46.162  30.186  31.513  1.00  0.00     0.029 A 
ATOM     54  N   UNL A   1      44.825  28.716  30.516  1.00  0.00    -0.354 N 
ATOM     55  N   UNL A   1      44.148  26.148  29.302  1.00  0.00    -0.248 NA
ATOM     56  C   UNL A   1      44.737  23.971  28.685  1.00  0.00     0.031 C 
ATOM     57  C   UNL A   1      46.883  29.004  31.306  1.00  0.00     0.029 A 
ATOM     58  C   UNL A   1      46.041  28.082  30.705  1.00  0.00     0.049 A 
ATOM     59  H   UNL A   1      44.035  28.307  30.094  1.00  0.00     0.167 HD
ATOM     60  C   UNL A   1      45.453  25.895  29.703  1.00  0.00     0.074 A 
ATOM     61  C   UNL A   1      45.755  24.531  29.323  1.00  0.00     0.031 C 
ATOM     62  C   UNL A   1      46.322  26.721  30.334  1.00  0.00     0.031 A 
BRANCH  49  63
ATOM     63  C   UNL A   1      44.020  32.325  31.523  1.00  0.00    -0.014 A 
ATOM     64  C   UNL A   1      44.471  33.360  30.690  1.00  0.00     0.009 A 
ATOM     65  C   UNL A   1      43.771  32.599  32.877  1.00  0.00     0.009 A 
ATOM     66  C   UNL A   1      44.705  34.634  31.210  1.00  0.00     0.001 A 
ATOM     67  C   UNL A   1      43.983  33.881  33.389  1.00  0.00     0.001 A 
ATOM     68  C   UNL A   1      44.459  34.894  32.557  1.00  0.00     0.000 A 
ENDBRANCH  49  63
BRANCH  50  69
ATOM     69  C   UNL A   1      42.115  23.397  27.552  1.00  0.00    -0.014 A 
ATOM     70  C   UNL A   1      41.567  22.367  28.332  1.00  0.00     0.009 A 
ATOM     71  C   UNL A   1      42.413  23.147  26.204  1.00  0.00     0.009 A 
ATOM     72  C   UNL A   1      41.346  21.104  27.781  1.00  0.00     0.001 A 
ATOM     73  C   UNL A   1      42.170  21.888  25.650  1.00  0.00     0.001 A 
ATOM     74  C   UNL A   1      41.646  20.865  26.440  1.00  0.00     0.000 A 
ENDBRANCH  50  69
BRANCH  62  75
ATOM     75  C   UNL A   1      47.663  26.154  30.694  1.00  0.00    -0.014 A 
ATOM     76  C   UNL A   1      48.692  26.057  29.745  1.00  0.00     0.009 A 
ATOM     77  C   UNL A   1      47.906  25.735  32.011  1.00  0.00     0.009 A 
ATOM     78  C   UNL A   1      49.930  25.518  30.102  1.00  0.00     0.001 A 
ATOM     79  C   UNL A   1      49.151  25.216  32.370  1.00  0.00     0.001 A 
ATOM     80  C   UNL A   1      50.159  25.101  31.413  1.00  0.00     0.000 A 
ENDBRANCH  62  75
ENDBRANCH  36  37
ENDBRANCH  28  31
ENDBRANCH  26  27
ENDBRANCH  25  26
ENDBRANCH   1  25
TORSDOF 15
ENDMDL
