MODEL 1
REMARK VINA RESULT:     -12.8      0.000      0.000
REMARK SMILES Cc1ccccc1OC1(C(=O)NCCCCNC(=O)c2ccc(-c3c4nc(c(-c5ccccc5)c5ccc([nH]5)c(-c5ccccc5)c5nc(c(-c6ccccc6)c6ccc3[nH]6)C=C5)C=C4)cc2)CCN(C(=O)[C@H]2CCCCO2)CC1
REMARK SMILES IDX 14 1 13 2 12 3 10 4 11 5 9 7 68 8 80 9 69 10 79 11 70 12
REMARK SMILES IDX 71 13 72 14 8 15 7 16 1 17 2 18 3 19 4 20 6 21 5 22 73 23
REMARK SMILES IDX 74 24 78 25 75 26 77 27 76 28 15 29 16 30 17 31 18 32 19 34
REMARK SMILES IDX 20 35 21 36 67 37 22 38 66 39 23 40 24 41 25 42 60 43 26 44
REMARK SMILES IDX 65 45 59 46 61 47 27 48 64 49 58 50 57 51 28 53 50 54 35 55
REMARK SMILES IDX 49 56 36 57 39 58 48 59 62 60 37 61 38 62 47 64 63 65 40 66
REMARK SMILES IDX 29 67 30 68 34 69 31 70 33 71 32 72 51 73 52 74 56 75 53 76
REMARK SMILES IDX 55 77 54 78 41 79 42 80 46 81 43 82 45 83 44 84
REMARK H PARENT 12 6 17 33 61 52 39 63
REMARK Flexibility Score: inf
ROOT
ATOM      1  C   UNL A   1      35.075  29.234  27.256  1.00  0.00     0.023 C 
ENDROOT
BRANCH   1   2
ATOM      2  C   UNL A   1      33.811  29.269  26.383  1.00  0.00     0.116 C 
BRANCH   2   3
ATOM      3  N   UNL A   1      34.097  29.276  24.959  1.00  0.00    -0.353 N 
ATOM      4  C   UNL A   1      33.638  28.551  23.895  1.00  0.00     0.264 C 
ATOM      5  O   UNL A   1      34.073  28.941  22.803  1.00  0.00    -0.270 OA
ATOM      6  H   UNL A   1      34.769  29.949  24.705  1.00  0.00     0.163 HD
BRANCH   4   7
ATOM      7  C   UNL A   1      32.644  27.324  24.014  1.00  0.00     0.190 C 
ATOM      8  C   UNL A   1      32.373  26.805  22.609  1.00  0.00     0.080 C 
ATOM      9  C   UNL A   1      33.183  26.369  25.082  1.00  0.00     0.080 C 
ATOM     10  C   UNL A   1      33.019  25.482  22.254  1.00  0.00     0.124 C 
ATOM     11  C   UNL A   1      33.593  24.967  24.644  1.00  0.00     0.124 C 
ATOM     12  N   UNL A   1      33.133  24.516  23.334  1.00  0.00    -0.340 N 
ATOM     13  C   UNL A   1      33.121  23.168  22.947  1.00  0.00     0.251 C 
ATOM     14  O   UNL A   1      33.019  22.859  21.755  1.00  0.00    -0.272 OA
BRANCH   7  15
ATOM     15  O   UNL A   1      31.451  27.993  24.521  1.00  0.00    -0.477 OA
BRANCH  15  16
ATOM     16  C   UNL A   1      30.253  28.329  23.966  1.00  0.00     0.123 A 
ATOM     17  C   UNL A   1      28.876  26.134  23.865  1.00  0.00     0.048 C 
ATOM     18  C   UNL A   1      29.100  27.593  23.655  1.00  0.00    -0.009 A 
ATOM     19  C   UNL A   1      28.015  28.238  23.009  1.00  0.00     0.007 A 
ATOM     20  C   UNL A   1      28.042  29.589  22.692  1.00  0.00     0.001 A 
ATOM     21  C   UNL A   1      30.252  29.700  23.632  1.00  0.00     0.047 A 
ATOM     22  C   UNL A   1      29.166  30.325  23.010  1.00  0.00     0.004 A 
ENDBRANCH  15  16
ENDBRANCH   7  15
BRANCH  13  23
ATOM     23  C   UNL A   1      33.182  22.081  24.044  1.00  0.00     0.207 C 
ATOM     24  C   UNL A   1      32.409  20.851  23.547  1.00  0.00     0.042 C 
ATOM     25  O   UNL A   1      34.559  21.764  24.284  1.00  0.00    -0.368 OA
ATOM     26  C   UNL A   1      32.647  19.623  24.414  1.00  0.00     0.006 C 
ATOM     27  C   UNL A   1      34.753  20.688  25.192  1.00  0.00     0.161 C 
ATOM     28  C   UNL A   1      34.136  19.415  24.639  1.00  0.00     0.029 C 
ENDBRANCH  13  23
ENDBRANCH   4   7
ENDBRANCH   2   3
ENDBRANCH   1   2
BRANCH   1  29
ATOM     29  C   UNL A   1      35.182  30.339  28.301  1.00  0.00     0.023 C 
BRANCH  29  30
ATOM     30  C   UNL A   1      35.277  31.739  27.711  1.00  0.00     0.116 C 
BRANCH  30  31
ATOM     31  N   UNL A   1      34.315  32.703  28.235  1.00  0.00    -0.352 N 
ATOM     32  C   UNL A   1      34.388  33.486  29.380  1.00  0.00     0.251 C 
ATOM     33  H   UNL A   1      33.496  32.814  27.700  1.00  0.00     0.163 HD
ATOM     34  O   UNL A   1      33.451  34.203  29.696  1.00  0.00    -0.269 OA
BRANCH  32  35
ATOM     35  C   UNL A   1      35.669  33.573  30.131  1.00  0.00     0.039 A 
ATOM     36  C   UNL A   1      36.752  34.193  29.492  1.00  0.00     0.014 A 
ATOM     37  C   UNL A   1      35.879  32.833  31.289  1.00  0.00     0.014 A 
ATOM     38  C   UNL A   1      38.046  33.811  29.828  1.00  0.00     0.010 A 
ATOM     39  C   UNL A   1      37.146  32.347  31.532  1.00  0.00     0.010 A 
ATOM     40  C   UNL A   1      38.215  32.771  30.739  1.00  0.00    -0.014 A 
BRANCH  40  41
ATOM     41  C   UNL A   1      39.422  31.955  30.803  1.00  0.00     0.031 A 
ATOM     42  C   UNL A   1      39.487  30.661  30.098  1.00  0.00     0.074 A 
ATOM     43  C   UNL A   1      40.516  32.445  31.430  1.00  0.00     0.049 A 
ATOM     44  N   UNL A   1      40.299  29.704  30.402  1.00  0.00    -0.248 NA
ATOM     45  C   UNL A   1      38.573  30.315  29.016  1.00  0.00     0.031 C 
ATOM     46  C   UNL A   1      41.880  31.924  31.365  1.00  0.00     0.029 A 
ATOM     47  N   UNL A   1      40.574  33.398  32.453  1.00  0.00    -0.354 N 
ATOM     48  C   UNL A   1      40.250  28.787  29.376  1.00  0.00     0.074 A 
ATOM     49  C   UNL A   1      39.080  29.148  28.612  1.00  0.00     0.031 C 
ATOM     50  C   UNL A   1      42.537  32.306  32.473  1.00  0.00     0.029 A 
ATOM     51  C   UNL A   1      41.567  32.956  33.340  1.00  0.00     0.049 A 
ATOM     52  H   UNL A   1      40.028  34.213  32.534  1.00  0.00     0.167 HD
ATOM     53  C   UNL A   1      41.295  27.931  29.194  1.00  0.00     0.031 A 
ATOM     54  C   UNL A   1      41.318  32.610  34.637  1.00  0.00     0.031 A 
ATOM     55  C   UNL A   1      42.256  28.012  30.297  1.00  0.00     0.049 A 
ATOM     56  C   UNL A   1      41.710  31.181  34.958  1.00  0.00     0.074 A 
ATOM     57  C   UNL A   1      43.505  28.598  30.429  1.00  0.00     0.029 A 
ATOM     58  N   UNL A   1      41.842  27.678  31.581  1.00  0.00    -0.354 N 
ATOM     59  N   UNL A   1      41.959  30.274  34.054  1.00  0.00    -0.248 NA
ATOM     60  C   UNL A   1      41.789  30.644  36.315  1.00  0.00     0.031 C 
ATOM     61  C   UNL A   1      43.796  28.700  31.815  1.00  0.00     0.029 A 
ATOM     62  C   UNL A   1      42.743  28.145  32.519  1.00  0.00     0.049 A 
ATOM     63  H   UNL A   1      41.020  27.179  31.794  1.00  0.00     0.167 HD
ATOM     64  C   UNL A   1      42.220  29.076  34.660  1.00  0.00     0.074 A 
ATOM     65  C   UNL A   1      42.111  29.359  36.079  1.00  0.00     0.031 C 
ATOM     66  C   UNL A   1      42.486  27.947  33.939  1.00  0.00     0.031 A 
BRANCH  53  67
ATOM     67  C   UNL A   1      41.598  27.247  27.875  1.00  0.00    -0.014 A 
ATOM     68  C   UNL A   1      42.043  28.016  26.781  1.00  0.00     0.009 A 
ATOM     69  C   UNL A   1      41.391  25.883  27.606  1.00  0.00     0.009 A 
ATOM     70  C   UNL A   1      42.175  27.478  25.491  1.00  0.00     0.001 A 
ATOM     71  C   UNL A   1      41.495  25.341  26.317  1.00  0.00     0.001 A 
ATOM     72  C   UNL A   1      41.874  26.144  25.254  1.00  0.00     0.000 A 
ENDBRANCH  53  67
BRANCH  54  73
ATOM     73  C   UNL A   1      40.169  33.323  35.260  1.00  0.00    -0.014 A 
ATOM     74  C   UNL A   1      38.890  32.743  35.163  1.00  0.00     0.009 A 
ATOM     75  C   UNL A   1      40.380  34.326  36.217  1.00  0.00     0.009 A 
ATOM     76  C   UNL A   1      37.879  33.083  36.067  1.00  0.00     0.001 A 
ATOM     77  C   UNL A   1      39.362  34.665  37.119  1.00  0.00     0.001 A 
ATOM     78  C   UNL A   1      38.127  34.022  37.064  1.00  0.00     0.000 A 
ENDBRANCH  54  73
BRANCH  66  79
ATOM     79  C   UNL A   1      42.586  26.545  34.489  1.00  0.00    -0.014 A 
ATOM     80  C   UNL A   1      41.605  25.936  35.282  1.00  0.00     0.009 A 
ATOM     81  C   UNL A   1      43.663  25.730  34.074  1.00  0.00     0.009 A 
ATOM     82  C   UNL A   1      41.716  24.594  35.672  1.00  0.00     0.001 A 
ATOM     83  C   UNL A   1      43.755  24.381  34.423  1.00  0.00     0.001 A 
ATOM     84  C   UNL A   1      42.784  23.815  35.234  1.00  0.00     0.000 A 
ENDBRANCH  66  79
ENDBRANCH  40  41
ENDBRANCH  32  35
ENDBRANCH  30  31
ENDBRANCH  29  30
ENDBRANCH   1  29
TORSDOF 14
ENDMDL
MODEL 2
REMARK VINA RESULT:     -12.7      1.773      2.990
REMARK SMILES Cc1ccccc1OC1(C(=O)NCCCCNC(=O)c2ccc(-c3c4nc(c(-c5ccccc5)c5ccc([nH]5)c(-c5ccccc5)c5nc(c(-c6ccccc6)c6ccc3[nH]6)C=C5)C=C4)cc2)CCN(C(=O)[C@H]2CCCCO2)CC1
REMARK SMILES IDX 14 1 13 2 12 3 10 4 11 5 9 7 68 8 80 9 69 10 79 11 70 12
REMARK SMILES IDX 71 13 72 14 8 15 7 16 1 17 2 18 3 19 4 20 6 21 5 22 73 23
REMARK SMILES IDX 74 24 78 25 75 26 77 27 76 28 15 29 16 30 17 31 18 32 19 34
REMARK SMILES IDX 20 35 21 36 67 37 22 38 66 39 23 40 24 41 25 42 60 43 26 44
REMARK SMILES IDX 65 45 59 46 61 47 27 48 64 49 58 50 57 51 28 53 50 54 35 55
REMARK SMILES IDX 49 56 36 57 39 58 48 59 62 60 37 61 38 62 47 64 63 65 40 66
REMARK SMILES IDX 29 67 30 68 34 69 31 70 33 71 32 72 51 73 52 74 56 75 53 76
REMARK SMILES IDX 55 77 54 78 41 79 42 80 46 81 43 82 45 83 44 84
REMARK H PARENT 12 6 17 33 61 52 39 63
REMARK Flexibility Score: inf
ROOT
ATOM      1  C   UNL A   1      34.000  30.266  27.228  1.00  0.00     0.023 C 
ENDROOT
BRANCH   1   2
ATOM      2  C   UNL A   1      33.021  29.669  26.206  1.00  0.00     0.116 C 
BRANCH   2   3
ATOM      3  N   UNL A   1      33.598  29.509  24.883  1.00  0.00    -0.353 N 
ATOM      4  C   UNL A   1      33.397  28.624  23.861  1.00  0.00     0.264 C 
ATOM      5  O   UNL A   1      34.038  28.895  22.835  1.00  0.00    -0.270 OA
ATOM      6  H   UNL A   1      34.283  30.185  24.678  1.00  0.00     0.163 HD
BRANCH   4   7
ATOM      7  C   UNL A   1      32.446  27.361  23.948  1.00  0.00     0.190 C 
ATOM      8  C   UNL A   1      32.247  26.828  22.536  1.00  0.00     0.080 C 
ATOM      9  C   UNL A   1      32.980  26.430  25.039  1.00  0.00     0.080 C 
ATOM     10  C   UNL A   1      32.955  25.528  22.212  1.00  0.00     0.124 C 
ATOM     11  C   UNL A   1      33.457  25.042  24.623  1.00  0.00     0.124 C 
ATOM     12  N   UNL A   1      33.063  24.571  23.299  1.00  0.00    -0.340 N 
ATOM     13  C   UNL A   1      33.116  23.222  22.918  1.00  0.00     0.251 C 
ATOM     14  O   UNL A   1      33.070  22.906  21.724  1.00  0.00    -0.272 OA
BRANCH   7  15
ATOM     15  O   UNL A   1      31.211  27.987  24.407  1.00  0.00    -0.477 OA
BRANCH  15  16
ATOM     16  C   UNL A   1      30.080  28.409  23.777  1.00  0.00     0.123 A 
ATOM     17  C   UNL A   1      28.424  26.416  23.878  1.00  0.00     0.048 C 
ATOM     18  C   UNL A   1      28.845  27.798  23.512  1.00  0.00    -0.009 A 
ATOM     19  C   UNL A   1      27.868  28.499  22.760  1.00  0.00     0.007 A 
ATOM     20  C   UNL A   1      28.081  29.788  22.293  1.00  0.00     0.001 A 
ATOM     21  C   UNL A   1      30.267  29.719  23.290  1.00  0.00     0.047 A 
ATOM     22  C   UNL A   1      29.287  30.404  22.564  1.00  0.00     0.004 A 
ENDBRANCH  15  16
ENDBRANCH   7  15
BRANCH  13  23
ATOM     23  C   UNL A   1      33.176  22.141  24.021  1.00  0.00     0.207 C 
ATOM     24  C   UNL A   1      32.367  20.925  23.548  1.00  0.00     0.042 C 
ATOM     25  O   UNL A   1      34.550  21.797  24.237  1.00  0.00    -0.368 OA
ATOM     26  C   UNL A   1      32.596  19.698  24.419  1.00  0.00     0.006 C 
ATOM     27  C   UNL A   1      34.740  20.724  25.148  1.00  0.00     0.161 C 
ATOM     28  C   UNL A   1      34.085  19.460  24.616  1.00  0.00     0.029 C 
ENDBRANCH  13  23
ENDBRANCH   4   7
ENDBRANCH   2   3
ENDBRANCH   1   2
BRANCH   1  29
ATOM     29  C   UNL A   1      33.648  31.658  27.741  1.00  0.00     0.023 C 
BRANCH  29  30
ATOM     30  C   UNL A   1      34.852  32.569  27.930  1.00  0.00     0.116 C 
BRANCH  30  31
ATOM     31  N   UNL A   1      35.265  32.779  29.313  1.00  0.00    -0.352 N 
ATOM     32  C   UNL A   1      36.004  31.949  30.146  1.00  0.00     0.251 C 
ATOM     33  H   UNL A   1      34.978  33.631  29.714  1.00  0.00     0.163 HD
ATOM     34  O   UNL A   1      36.207  32.266  31.308  1.00  0.00    -0.269 OA
BRANCH  32  35
ATOM     35  C   UNL A   1      36.682  30.753  29.579  1.00  0.00     0.039 A 
ATOM     36  C   UNL A   1      36.769  29.613  30.390  1.00  0.00     0.014 A 
ATOM     37  C   UNL A   1      37.442  30.837  28.419  1.00  0.00     0.014 A 
ATOM     38  C   UNL A   1      37.828  28.731  30.209  1.00  0.00     0.010 A 
ATOM     39  C   UNL A   1      38.570  30.049  28.319  1.00  0.00     0.010 A 
ATOM     40  C   UNL A   1      38.806  29.054  29.271  1.00  0.00    -0.014 A 
BRANCH  40  41
ATOM     41  C   UNL A   1      40.165  28.526  29.321  1.00  0.00     0.031 A 
ATOM     42  C   UNL A   1      40.467  27.187  28.781  1.00  0.00     0.074 A 
ATOM     43  C   UNL A   1      41.163  29.319  29.776  1.00  0.00     0.049 A 
ATOM     44  N   UNL A   1      41.488  26.475  29.123  1.00  0.00    -0.248 NA
ATOM     45  C   UNL A   1      39.582  26.507  27.843  1.00  0.00     0.031 C 
ATOM     46  C   UNL A   1      42.601  29.091  29.647  1.00  0.00     0.029 A 
ATOM     47  N   UNL A   1      41.077  30.399  30.661  1.00  0.00    -0.354 N 
ATOM     48  C   UNL A   1      41.574  25.432  28.230  1.00  0.00     0.074 A 
ATOM     49  C   UNL A   1      40.306  25.427  27.541  1.00  0.00     0.031 C 
ATOM     50  C   UNL A   1      43.228  29.756  30.630  1.00  0.00     0.029 A 
ATOM     51  C   UNL A   1      42.199  30.305  31.498  1.00  0.00     0.049 A 
ATOM     52  H   UNL A   1      40.371  31.084  30.691  1.00  0.00     0.167 HD
ATOM     53  C   UNL A   1      42.768  24.797  28.057  1.00  0.00     0.031 A 
ATOM     54  C   UNL A   1      42.118  30.104  32.846  1.00  0.00     0.031 A 
ATOM     55  C   UNL A   1      43.758  25.233  29.045  1.00  0.00     0.049 A 
ATOM     56  C   UNL A   1      42.835  28.850  33.305  1.00  0.00     0.074 A 
ATOM     57  C   UNL A   1      44.853  26.080  28.983  1.00  0.00     0.029 A 
ATOM     58  N   UNL A   1      43.513  25.007  30.395  1.00  0.00    -0.354 N 
ATOM     59  N   UNL A   1      43.218  27.895  32.501  1.00  0.00    -0.248 NA
ATOM     60  C   UNL A   1      43.120  28.540  34.704  1.00  0.00     0.031 C 
ATOM     61  C   UNL A   1      45.206  26.437  30.312  1.00  0.00     0.029 A 
ATOM     62  C   UNL A   1      44.349  25.781  31.176  1.00  0.00     0.049 A 
ATOM     63  H   UNL A   1      42.837  24.382  30.745  1.00  0.00     0.167 HD
ATOM     64  C   UNL A   1      43.776  26.877  33.225  1.00  0.00     0.074 A 
ATOM     65  C   UNL A   1      43.701  27.331  34.601  1.00  0.00     0.031 C 
ATOM     66  C   UNL A   1      44.236  25.738  32.628  1.00  0.00     0.031 A 
BRANCH  53  67
ATOM     67  C   UNL A   1      43.127  24.011  26.811  1.00  0.00    -0.014 A 
ATOM     68  C   UNL A   1      42.877  22.624  26.769  1.00  0.00     0.009 A 
ATOM     69  C   UNL A   1      43.783  24.537  25.686  1.00  0.00     0.009 A 
ATOM     70  C   UNL A   1      43.339  21.811  25.724  1.00  0.00     0.001 A 
ATOM     71  C   UNL A   1      44.272  23.730  24.648  1.00  0.00     0.001 A 
ATOM     72  C   UNL A   1      44.061  22.362  24.674  1.00  0.00     0.000 A 
ENDBRANCH  53  67
BRANCH  54  73
ATOM     73  C   UNL A   1      40.884  30.642  33.481  1.00  0.00    -0.014 A 
ATOM     74  C   UNL A   1      40.643  32.027  33.407  1.00  0.00     0.009 A 
ATOM     75  C   UNL A   1      39.818  29.793  33.812  1.00  0.00     0.009 A 
ATOM     76  C   UNL A   1      39.351  32.539  33.558  1.00  0.00     0.001 A 
ATOM     77  C   UNL A   1      38.525  30.311  33.966  1.00  0.00     0.001 A 
ATOM     78  C   UNL A   1      38.287  31.676  33.807  1.00  0.00     0.000 A 
ENDBRANCH  54  73
BRANCH  66  79
ATOM     79  C   UNL A   1      44.678  24.482  33.338  1.00  0.00    -0.014 A 
ATOM     80  C   UNL A   1      46.012  24.162  33.620  1.00  0.00     0.009 A 
ATOM     81  C   UNL A   1      43.692  23.630  33.885  1.00  0.00     0.009 A 
ATOM     82  C   UNL A   1      46.344  23.028  34.375  1.00  0.00     0.001 A 
ATOM     83  C   UNL A   1      44.016  22.525  34.675  1.00  0.00     0.001 A 
ATOM     84  C   UNL A   1      45.347  22.217  34.911  1.00  0.00     0.000 A 
ENDBRANCH  66  79
ENDBRANCH  40  41
ENDBRANCH  32  35
ENDBRANCH  30  31
ENDBRANCH  29  30
ENDBRANCH   1  29
TORSDOF 14
ENDMDL
MODEL 3
REMARK VINA RESULT:     -12.7      3.716      9.309
REMARK SMILES Cc1ccccc1OC1(C(=O)NCCCCNC(=O)c2ccc(-c3c4nc(c(-c5ccccc5)c5ccc([nH]5)c(-c5ccccc5)c5nc(c(-c6ccccc6)c6ccc3[nH]6)C=C5)C=C4)cc2)CCN(C(=O)[C@H]2CCCCO2)CC1
REMARK SMILES IDX 14 1 13 2 12 3 10 4 11 5 9 7 68 8 80 9 69 10 79 11 70 12
REMARK SMILES IDX 71 13 72 14 8 15 7 16 1 17 2 18 3 19 4 20 6 21 5 22 73 23
REMARK SMILES IDX 74 24 78 25 75 26 77 27 76 28 15 29 16 30 17 31 18 32 19 34
REMARK SMILES IDX 20 35 21 36 67 37 22 38 66 39 23 40 24 41 25 42 60 43 26 44
REMARK SMILES IDX 65 45 59 46 61 47 27 48 64 49 58 50 57 51 28 53 50 54 35 55
REMARK SMILES IDX 49 56 36 57 39 58 48 59 62 60 37 61 38 62 47 64 63 65 40 66
REMARK SMILES IDX 29 67 30 68 34 69 31 70 33 71 32 72 51 73 52 74 56 75 53 76
REMARK SMILES IDX 55 77 54 78 41 79 42 80 46 81 43 82 45 83 44 84
REMARK H PARENT 12 6 17 33 61 52 39 63
REMARK Flexibility Score: inf
ROOT
ATOM      1  C   UNL A   1      37.860  23.225  25.679  1.00  0.00     0.023 C 
ENDROOT
BRANCH   1   2
ATOM      2  C   UNL A   1      37.024  21.942  25.552  1.00  0.00     0.116 C 
BRANCH   2   3
ATOM      3  N   UNL A   1      36.039  21.792  26.608  1.00  0.00    -0.353 N 
ATOM      4  C   UNL A   1      34.683  21.949  26.670  1.00  0.00     0.264 C 
ATOM      5  O   UNL A   1      34.194  21.620  27.760  1.00  0.00    -0.270 OA
ATOM      6  H   UNL A   1      36.435  21.517  27.466  1.00  0.00     0.163 HD
BRANCH   4   7
ATOM      7  C   UNL A   1      33.792  22.497  25.481  1.00  0.00     0.190 C 
ATOM      8  C   UNL A   1      32.332  22.325  25.873  1.00  0.00     0.080 C 
ATOM      9  C   UNL A   1      34.312  23.882  25.089  1.00  0.00     0.080 C 
ATOM     10  C   UNL A   1      31.586  23.596  26.227  1.00  0.00     0.124 C 
ATOM     11  C   UNL A   1      33.379  25.074  25.275  1.00  0.00     0.124 C 
ATOM     12  N   UNL A   1      31.964  24.786  25.484  1.00  0.00    -0.340 N 
ATOM     13  C   UNL A   1      30.953  25.745  25.320  1.00  0.00     0.251 C 
ATOM     14  O   UNL A   1      29.827  25.556  25.791  1.00  0.00    -0.272 OA
BRANCH   7  15
ATOM     15  O   UNL A   1      34.127  21.539  24.433  1.00  0.00    -0.477 OA
BRANCH  15  16
ATOM     16  C   UNL A   1      33.592  20.350  24.040  1.00  0.00     0.123 A 
ATOM     17  C   UNL A   1      31.851  20.923  22.205  1.00  0.00     0.048 C 
ATOM     18  C   UNL A   1      32.618  20.002  23.092  1.00  0.00    -0.009 A 
ATOM     19  C   UNL A   1      32.227  18.645  22.961  1.00  0.00     0.007 A 
ATOM     20  C   UNL A   1      32.796  17.635  23.723  1.00  0.00     0.001 A 
ATOM     21  C   UNL A   1      34.153  19.302  24.801  1.00  0.00     0.047 A 
ATOM     22  C   UNL A   1      33.769  17.966  24.647  1.00  0.00     0.004 A 
ENDBRANCH  15  16
ENDBRANCH   7  15
BRANCH  13  23
ATOM     23  C   UNL A   1      31.263  27.014  24.492  1.00  0.00     0.207 C 
ATOM     24  C   UNL A   1      30.215  27.127  23.376  1.00  0.00     0.042 C 
ATOM     25  O   UNL A   1      31.207  28.145  25.370  1.00  0.00    -0.368 OA
ATOM     26  C   UNL A   1      30.246  28.483  22.684  1.00  0.00     0.006 C 
ATOM     27  C   UNL A   1      31.357  29.394  24.711  1.00  0.00     0.161 C 
ATOM     28  C   UNL A   1      30.231  29.602  23.713  1.00  0.00     0.029 C 
ENDBRANCH  13  23
ENDBRANCH   4   7
ENDBRANCH   2   3
ENDBRANCH   1   2
BRANCH   1  29
ATOM     29  C   UNL A   1      39.351  23.017  25.921  1.00  0.00     0.023 C 
BRANCH  29  30
ATOM     30  C   UNL A   1      39.673  21.807  26.786  1.00  0.00     0.116 C 
BRANCH  30  31
ATOM     31  N   UNL A   1      40.533  20.806  26.164  1.00  0.00    -0.352 N 
ATOM     32  C   UNL A   1      41.920  20.757  26.097  1.00  0.00     0.251 C 
ATOM     33  H   UNL A   1      40.064  20.059  25.728  1.00  0.00     0.163 HD
ATOM     34  O   UNL A   1      42.475  19.863  25.477  1.00  0.00    -0.269 OA
BRANCH  32  35
ATOM     35  C   UNL A   1      42.729  21.700  26.915  1.00  0.00     0.039 A 
ATOM     36  C   UNL A   1      42.527  21.691  28.301  1.00  0.00     0.014 A 
ATOM     37  C   UNL A   1      43.443  22.736  26.326  1.00  0.00     0.014 A 
ATOM     38  C   UNL A   1      42.757  22.854  29.028  1.00  0.00     0.010 A 
ATOM     39  C   UNL A   1      43.543  23.931  27.008  1.00  0.00     0.010 A 
ATOM     40  C   UNL A   1      43.113  24.009  28.335  1.00  0.00    -0.014 A 
BRANCH  40  41
ATOM     41  C   UNL A   1      42.899  25.352  28.860  1.00  0.00     0.031 A 
ATOM     42  C   UNL A   1      41.738  26.150  28.423  1.00  0.00     0.074 A 
ATOM     43  C   UNL A   1      43.721  25.819  29.829  1.00  0.00     0.049 A 
ATOM     44  N   UNL A   1      41.669  27.437  28.492  1.00  0.00    -0.248 NA
ATOM     45  C   UNL A   1      40.567  25.545  27.799  1.00  0.00     0.031 C 
ATOM     46  C   UNL A   1      43.515  26.995  30.671  1.00  0.00     0.029 A 
ATOM     47  N   UNL A   1      45.042  25.446  30.099  1.00  0.00    -0.354 N 
ATOM     48  C   UNL A   1      40.360  27.788  28.248  1.00  0.00     0.074 A 
ATOM     49  C   UNL A   1      39.752  26.597  27.703  1.00  0.00     0.031 C 
ATOM     50  C   UNL A   1      44.712  27.429  31.100  1.00  0.00     0.029 A 
ATOM     51  C   UNL A   1      45.721  26.629  30.425  1.00  0.00     0.049 A 
ATOM     52  H   UNL A   1      45.418  24.537  30.066  1.00  0.00     0.167 HD
ATOM     53  C   UNL A   1      39.898  28.992  28.690  1.00  0.00     0.031 A 
ATOM     54  C   UNL A   1      46.757  27.129  29.689  1.00  0.00     0.031 A 
ATOM     55  C   UNL A   1      40.983  29.829  29.206  1.00  0.00     0.049 A 
ATOM     56  C   UNL A   1      46.495  28.527  29.165  1.00  0.00     0.074 A 
ATOM     57  C   UNL A   1      41.397  30.167  30.484  1.00  0.00     0.029 A 
ATOM     58  N   UNL A   1      42.005  30.219  28.347  1.00  0.00    -0.354 N 
ATOM     59  N   UNL A   1      45.315  29.083  29.135  1.00  0.00    -0.248 NA
ATOM     60  C   UNL A   1      47.523  29.383  28.577  1.00  0.00     0.031 C 
ATOM     61  C   UNL A   1      42.719  30.678  30.396  1.00  0.00     0.029 A 
ATOM     62  C   UNL A   1      43.092  30.682  29.063  1.00  0.00     0.049 A 
ATOM     63  H   UNL A   1      41.961  30.172  27.365  1.00  0.00     0.167 HD
ATOM     64  C   UNL A   1      45.399  30.317  28.549  1.00  0.00     0.074 A 
ATOM     65  C   UNL A   1      46.806  30.465  28.225  1.00  0.00     0.031 C 
ATOM     66  C   UNL A   1      44.299  31.104  28.366  1.00  0.00     0.031 A 
BRANCH  53  67
ATOM     67  C   UNL A   1      38.431  29.289  28.933  1.00  0.00    -0.014 A 
ATOM     68  C   UNL A   1      37.632  29.756  27.871  1.00  0.00     0.009 A 
ATOM     69  C   UNL A   1      37.789  29.217  30.181  1.00  0.00     0.009 A 
ATOM     70  C   UNL A   1      36.319  30.212  28.064  1.00  0.00     0.001 A 
ATOM     71  C   UNL A   1      36.487  29.693  30.391  1.00  0.00     0.001 A 
ATOM     72  C   UNL A   1      35.755  30.205  29.333  1.00  0.00     0.000 A 
ENDBRANCH  53  67
BRANCH  54  73
ATOM     73  C   UNL A   1      47.560  26.103  28.970  1.00  0.00    -0.014 A 
ATOM     74  C   UNL A   1      47.266  25.852  27.615  1.00  0.00     0.009 A 
ATOM     75  C   UNL A   1      48.790  25.665  29.480  1.00  0.00     0.009 A 
ATOM     76  C   UNL A   1      48.219  25.273  26.771  1.00  0.00     0.001 A 
ATOM     77  C   UNL A   1      49.739  25.081  28.632  1.00  0.00     0.001 A 
ATOM     78  C   UNL A   1      49.466  24.916  27.274  1.00  0.00     0.000 A 
ENDBRANCH  54  73
BRANCH  66  79
ATOM     79  C   UNL A   1      44.243  32.378  27.559  1.00  0.00    -0.014 A 
ATOM     80  C   UNL A   1      44.353  32.435  26.164  1.00  0.00     0.009 A 
ATOM     81  C   UNL A   1      43.920  33.585  28.220  1.00  0.00     0.009 A 
ATOM     82  C   UNL A   1      44.188  33.643  25.471  1.00  0.00     0.001 A 
ATOM     83  C   UNL A   1      43.710  34.780  27.530  1.00  0.00     0.001 A 
ATOM     84  C   UNL A   1      43.856  34.811  26.151  1.00  0.00     0.000 A 
ENDBRANCH  66  79
ENDBRANCH  40  41
ENDBRANCH  32  35
ENDBRANCH  30  31
ENDBRANCH  29  30
ENDBRANCH   1  29
TORSDOF 14
ENDMDL
