MODEL 1
REMARK VINA RESULT:      -9.9      0.000      0.000
REMARK SMILES CC(C)OCCS(=O)(=O)N[C@@H]1COC[C@@H]1C(=O)NCCCCNC(=O)c1ccc(-c2c3nc(c(-c4ccccc4)c4ccc([nH]4)c(-c4ccccc4)c4nc(c(-c5ccccc5)c5ccc2[nH]5)C=C4)C=C3)cc1
REMARK SMILES IDX 16 1 17 2 18 3 15 5 11 6 12 7 13 8 14 9 10 10 7 12 8 13 9 14
REMARK SMILES IDX 6 15 5 16 4 17 2 18 1 19 3 20 19 21 20 22 21 23 22 24 23 25
REMARK SMILES IDX 24 26 25 28 26 29 27 30 73 31 28 32 72 33 29 34 30 35 31 36
REMARK SMILES IDX 66 37 32 38 71 39 65 40 67 41 33 42 70 43 64 44 63 45 34 47
REMARK SMILES IDX 56 48 41 49 55 50 42 51 45 52 54 53 68 54 43 55 44 56 53 58
REMARK SMILES IDX 69 59 46 60 35 61 36 62 40 63 37 64 39 65 38 66 57 67 58 68
REMARK SMILES IDX 62 69 59 70 61 71 60 72 47 73 48 74 52 75 49 76 51 77 50 78
REMARK H PARENT 18 4 10 11 23 27 67 46 45 57
REMARK Flexibility Score: inf
ROOT
ATOM      1  C   UNL A   1      33.320  28.469  23.826  1.00  0.00     0.227 C 
ATOM      2  O   UNL A   1      34.071  28.528  22.840  1.00  0.00    -0.275 OA
ATOM      3  N   UNL A   1      33.662  29.309  24.845  1.00  0.00    -0.356 N 
ATOM      4  H   UNL A   1      34.586  29.643  24.774  1.00  0.00     0.163 HD
ENDROOT
BRANCH   1   5
ATOM      5  C   UNL A   1      32.191  27.429  23.782  1.00  0.00     0.124 C 
ATOM      6  C   UNL A   1      32.301  26.045  23.105  1.00  0.00     0.110 C 
ATOM      7  C   UNL A   1      31.598  26.368  21.782  1.00  0.00     0.181 C 
ATOM      8  O   UNL A   1      30.648  27.425  21.973  1.00  0.00    -0.379 OA
ATOM      9  C   UNL A   1      30.920  28.051  23.221  1.00  0.00     0.175 C 
BRANCH   6  10
ATOM     10  N   UNL A   1      33.732  25.456  23.083  1.00  0.00    -0.209 NA
ATOM     11  H   UNL A   1      34.166  25.831  22.240  1.00  0.00     0.141 HD
BRANCH  10  12
ATOM     12  S   UNL A   1      34.116  23.777  23.087  1.00  0.00     0.214 S 
ATOM     13  O   UNL A   1      35.545  23.620  23.102  1.00  0.00    -0.212 OA
ATOM     14  O   UNL A   1      33.357  23.315  21.929  1.00  0.00    -0.212 OA
BRANCH  12  15
ATOM     15  C   UNL A   1      33.343  22.874  24.527  1.00  0.00     0.182 C 
BRANCH  15  16
ATOM     16  C   UNL A   1      31.831  22.674  24.803  1.00  0.00     0.178 C 
BRANCH  16  17
ATOM     17  O   UNL A   1      30.891  23.755  24.824  1.00  0.00    -0.378 OA
BRANCH  17  18
ATOM     18  C   UNL A   1      30.604  24.251  26.116  1.00  0.00     0.112 C 
ATOM     19  C   UNL A   1      29.919  25.615  25.940  1.00  0.00     0.038 C 
ATOM     20  C   UNL A   1      30.085  22.996  26.833  1.00  0.00     0.038 C 
ENDBRANCH  17  18
ENDBRANCH  16  17
ENDBRANCH  15  16
ENDBRANCH  12  15
ENDBRANCH  10  12
ENDBRANCH   6  10
ENDBRANCH   1   5
BRANCH   3  21
ATOM     21  C   UNL A   1      32.959  29.818  26.015  1.00  0.00     0.116 C 
BRANCH  21  22
ATOM     22  C   UNL A   1      31.634  30.547  25.778  1.00  0.00     0.023 C 
BRANCH  22  23
ATOM     23  C   UNL A   1      31.399  31.889  26.488  1.00  0.00     0.023 C 
BRANCH  23  24
ATOM     24  C   UNL A   1      32.569  32.567  27.207  1.00  0.00     0.116 C 
BRANCH  24  25
ATOM     25  N   UNL A   1      32.325  33.943  27.620  1.00  0.00    -0.352 N 
ATOM     26  C   UNL A   1      32.983  34.742  28.533  1.00  0.00     0.251 C 
ATOM     27  H   UNL A   1      31.561  34.376  27.173  1.00  0.00     0.163 HD
ATOM     28  O   UNL A   1      32.550  35.865  28.782  1.00  0.00    -0.269 OA
BRANCH  26  29
ATOM     29  C   UNL A   1      34.183  34.257  29.257  1.00  0.00     0.039 A 
ATOM     30  C   UNL A   1      34.012  33.584  30.471  1.00  0.00     0.014 A 
ATOM     31  C   UNL A   1      35.472  34.466  28.763  1.00  0.00     0.014 A 
ATOM     32  C   UNL A   1      35.116  33.026  31.126  1.00  0.00     0.010 A 
ATOM     33  C   UNL A   1      36.561  33.841  29.373  1.00  0.00     0.010 A 
ATOM     34  C   UNL A   1      36.396  33.098  30.552  1.00  0.00    -0.014 A 
BRANCH  34  35
ATOM     35  C   UNL A   1      37.557  32.374  31.147  1.00  0.00     0.031 A 
ATOM     36  C   UNL A   1      38.214  32.876  32.406  1.00  0.00     0.074 A 
ATOM     37  C   UNL A   1      38.075  31.304  30.509  1.00  0.00     0.049 A 
ATOM     38  N   UNL A   1      39.273  32.417  33.024  1.00  0.00    -0.248 NA
ATOM     39  C   UNL A   1      37.620  34.065  33.042  1.00  0.00     0.031 C 
ATOM     40  C   UNL A   1      37.569  30.734  29.255  1.00  0.00     0.029 A 
ATOM     41  N   UNL A   1      39.151  30.507  30.817  1.00  0.00    -0.354 N 
ATOM     42  C   UNL A   1      39.487  33.270  34.100  1.00  0.00     0.074 A 
ATOM     43  C   UNL A   1      38.471  34.298  34.031  1.00  0.00     0.031 C 
ATOM     44  C   UNL A   1      38.317  29.671  28.919  1.00  0.00     0.029 A 
ATOM     45  C   UNL A   1      39.386  29.508  29.900  1.00  0.00     0.049 A 
ATOM     46  H   UNL A   1      39.704  30.638  31.622  1.00  0.00     0.167 HD
ATOM     47  C   UNL A   1      40.434  33.200  35.065  1.00  0.00     0.031 A 
ATOM     48  C   UNL A   1      40.356  28.576  29.841  1.00  0.00     0.031 A 
ATOM     49  C   UNL A   1      41.433  32.167  35.152  1.00  0.00     0.049 A 
ATOM     50  C   UNL A   1      41.400  28.531  30.925  1.00  0.00     0.074 A 
ATOM     51  C   UNL A   1      42.379  31.967  36.144  1.00  0.00     0.029 A 
ATOM     52  N   UNL A   1      41.622  31.168  34.212  1.00  0.00    -0.354 N 
ATOM     53  N   UNL A   1      41.524  29.288  31.988  1.00  0.00    -0.248 NA
ATOM     54  C   UNL A   1      42.435  27.491  30.805  1.00  0.00     0.031 C 
ATOM     55  C   UNL A   1      43.186  30.891  35.768  1.00  0.00     0.029 A 
ATOM     56  C   UNL A   1      42.695  30.373  34.581  1.00  0.00     0.049 A 
ATOM     57  H   UNL A   1      41.075  31.040  33.403  1.00  0.00     0.167 HD
ATOM     58  C   UNL A   1      42.624  28.795  32.678  1.00  0.00     0.074 A 
ATOM     59  C   UNL A   1      43.120  27.662  31.927  1.00  0.00     0.031 C 
ATOM     60  C   UNL A   1      43.176  29.243  33.832  1.00  0.00     0.031 A 
BRANCH  47  61
ATOM     61  C   UNL A   1      40.456  34.278  36.115  1.00  0.00    -0.014 A 
ATOM     62  C   UNL A   1      41.265  35.417  35.981  1.00  0.00     0.009 A 
ATOM     63  C   UNL A   1      39.586  34.189  37.215  1.00  0.00     0.009 A 
ATOM     64  C   UNL A   1      41.222  36.432  36.938  1.00  0.00     0.001 A 
ATOM     65  C   UNL A   1      39.524  35.220  38.154  1.00  0.00     0.001 A 
ATOM     66  C   UNL A   1      40.345  36.338  38.019  1.00  0.00     0.000 A 
ENDBRANCH  47  61
BRANCH  48  67
ATOM     67  C   UNL A   1      40.410  27.606  28.712  1.00  0.00    -0.014 A 
ATOM     68  C   UNL A   1      41.093  27.922  27.527  1.00  0.00     0.009 A 
ATOM     69  C   UNL A   1      39.731  26.380  28.792  1.00  0.00     0.009 A 
ATOM     70  C   UNL A   1      41.056  27.053  26.433  1.00  0.00     0.001 A 
ATOM     71  C   UNL A   1      39.727  25.497  27.710  1.00  0.00     0.001 A 
ATOM     72  C   UNL A   1      40.375  25.842  26.527  1.00  0.00     0.000 A 
ENDBRANCH  48  67
BRANCH  60  73
ATOM     73  C   UNL A   1      44.348  28.478  34.383  1.00  0.00    -0.014 A 
ATOM     74  C   UNL A   1      44.179  27.462  35.336  1.00  0.00     0.009 A 
ATOM     75  C   UNL A   1      45.639  28.754  33.907  1.00  0.00     0.009 A 
ATOM     76  C   UNL A   1      45.285  26.763  35.828  1.00  0.00     0.001 A 
ATOM     77  C   UNL A   1      46.738  28.031  34.373  1.00  0.00     0.001 A 
ATOM     78  C   UNL A   1      46.562  27.044  35.341  1.00  0.00     0.000 A 
ENDBRANCH  60  73
ENDBRANCH  34  35
ENDBRANCH  26  29
ENDBRANCH  24  25
ENDBRANCH  23  24
ENDBRANCH  22  23
ENDBRANCH  21  22
ENDBRANCH   3  21
TORSDOF 17
ENDMDL
MODEL 2
REMARK VINA RESULT:      -9.8      3.544      5.243
REMARK SMILES CC(C)OCCS(=O)(=O)N[C@@H]1COC[C@@H]1C(=O)NCCCCNC(=O)c1ccc(-c2c3nc(c(-c4ccccc4)c4ccc([nH]4)c(-c4ccccc4)c4nc(c(-c5ccccc5)c5ccc2[nH]5)C=C4)C=C3)cc1
REMARK SMILES IDX 16 1 17 2 18 3 15 5 11 6 12 7 13 8 14 9 10 10 7 12 8 13 9 14
REMARK SMILES IDX 6 15 5 16 4 17 2 18 1 19 3 20 19 21 20 22 21 23 22 24 23 25
REMARK SMILES IDX 24 26 25 28 26 29 27 30 73 31 28 32 72 33 29 34 30 35 31 36
REMARK SMILES IDX 66 37 32 38 71 39 65 40 67 41 33 42 70 43 64 44 63 45 34 47
REMARK SMILES IDX 56 48 41 49 55 50 42 51 45 52 54 53 68 54 43 55 44 56 53 58
REMARK SMILES IDX 69 59 46 60 35 61 36 62 40 63 37 64 39 65 38 66 57 67 58 68
REMARK SMILES IDX 62 69 59 70 61 71 60 72 47 73 48 74 52 75 49 76 51 77 50 78
REMARK H PARENT 18 4 10 11 23 27 67 46 45 57
REMARK Flexibility Score: inf
ROOT
ATOM      1  C   UNL A   1      30.537  25.744  25.534  1.00  0.00     0.227 C 
ATOM      2  O   UNL A   1      29.777  25.601  26.505  1.00  0.00    -0.275 OA
ATOM      3  N   UNL A   1      30.915  27.034  25.301  1.00  0.00    -0.356 N 
ATOM      4  H   UNL A   1      30.338  27.692  25.755  1.00  0.00     0.163 HD
ENDROOT
BRANCH   1   5
ATOM      5  C   UNL A   1      30.867  24.487  24.715  1.00  0.00     0.124 C 
ATOM      6  C   UNL A   1      32.200  23.712  24.799  1.00  0.00     0.110 C 
ATOM      7  C   UNL A   1      32.891  24.290  23.559  1.00  0.00     0.181 C 
ATOM      8  O   UNL A   1      31.913  24.692  22.590  1.00  0.00    -0.379 OA
ATOM      9  C   UNL A   1      30.645  24.748  23.232  1.00  0.00     0.175 C 
BRANCH   6  10
ATOM     10  N   UNL A   1      32.904  23.798  26.174  1.00  0.00    -0.209 NA
ATOM     11  H   UNL A   1      33.492  24.630  26.126  1.00  0.00     0.141 HD
BRANCH  10  12
ATOM     12  S   UNL A   1      33.904  22.573  26.858  1.00  0.00     0.214 S 
ATOM     13  O   UNL A   1      33.774  22.603  28.289  1.00  0.00    -0.212 OA
ATOM     14  O   UNL A   1      35.190  22.892  26.249  1.00  0.00    -0.212 OA
BRANCH  12  15
ATOM     15  C   UNL A   1      33.497  20.874  26.198  1.00  0.00     0.182 C 
BRANCH  15  16
ATOM     16  C   UNL A   1      33.752  20.341  24.766  1.00  0.00     0.178 C 
BRANCH  16  17
ATOM     17  O   UNL A   1      33.947  18.952  24.473  1.00  0.00    -0.378 OA
BRANCH  17  18
ATOM     18  C   UNL A   1      32.751  18.231  24.253  1.00  0.00     0.112 C 
ATOM     19  C   UNL A   1      32.733  17.815  22.774  1.00  0.00     0.038 C 
ATOM     20  C   UNL A   1      32.676  17.346  25.506  1.00  0.00     0.038 C 
ENDBRANCH  17  18
ENDBRANCH  16  17
ENDBRANCH  15  16
ENDBRANCH  12  15
ENDBRANCH  10  12
ENDBRANCH   6  10
ENDBRANCH   1   5
BRANCH   3  21
ATOM     21  C   UNL A   1      31.986  27.649  24.528  1.00  0.00     0.116 C 
BRANCH  21  22
ATOM     22  C   UNL A   1      33.415  27.492  25.054  1.00  0.00     0.023 C 
BRANCH  22  23
ATOM     23  C   UNL A   1      34.003  28.615  25.923  1.00  0.00     0.023 C 
BRANCH  23  24
ATOM     24  C   UNL A   1      33.397  28.884  27.303  1.00  0.00     0.116 C 
BRANCH  24  25
ATOM     25  N   UNL A   1      33.542  30.252  27.784  1.00  0.00    -0.352 N 
ATOM     26  C   UNL A   1      34.618  30.899  28.355  1.00  0.00     0.251 C 
ATOM     27  H   UNL A   1      32.735  30.809  27.684  1.00  0.00     0.163 HD
ATOM     28  O   UNL A   1      34.490  32.053  28.761  1.00  0.00    -0.269 OA
BRANCH  26  29
ATOM     29  C   UNL A   1      35.923  30.217  28.532  1.00  0.00     0.039 A 
ATOM     30  C   UNL A   1      36.835  30.219  27.471  1.00  0.00     0.014 A 
ATOM     31  C   UNL A   1      36.256  29.568  29.723  1.00  0.00     0.014 A 
ATOM     32  C   UNL A   1      38.112  29.672  27.642  1.00  0.00     0.010 A 
ATOM     33  C   UNL A   1      37.555  29.097  29.919  1.00  0.00     0.010 A 
ATOM     34  C   UNL A   1      38.506  29.158  28.889  1.00  0.00    -0.014 A 
BRANCH  34  35
ATOM     35  C   UNL A   1      39.909  28.721  29.140  1.00  0.00     0.031 A 
ATOM     36  C   UNL A   1      40.914  29.667  29.746  1.00  0.00     0.074 A 
ATOM     37  C   UNL A   1      40.306  27.491  28.750  1.00  0.00     0.049 A 
ATOM     38  N   UNL A   1      42.191  29.482  29.970  1.00  0.00    -0.248 NA
ATOM     39  C   UNL A   1      40.428  31.003  30.126  1.00  0.00     0.031 C 
ATOM     40  C   UNL A   1      39.452  26.486  28.108  1.00  0.00     0.029 A 
ATOM     41  N   UNL A   1      41.534  26.877  28.822  1.00  0.00    -0.354 N 
ATOM     42  C   UNL A   1      42.664  30.681  30.490  1.00  0.00     0.074 A 
ATOM     43  C   UNL A   1      41.547  31.599  30.515  1.00  0.00     0.031 C 
ATOM     44  C   UNL A   1      40.174  25.380  27.870  1.00  0.00     0.029 A 
ATOM     45  C   UNL A   1      41.552  25.607  28.293  1.00  0.00     0.049 A 
ATOM     46  H   UNL A   1      42.327  27.307  29.216  1.00  0.00     0.167 HD
ATOM     47  C   UNL A   1      43.911  30.986  30.921  1.00  0.00     0.031 A 
ATOM     48  C   UNL A   1      42.562  24.728  28.148  1.00  0.00     0.031 A 
ATOM     49  C   UNL A   1      45.020  30.069  30.921  1.00  0.00     0.049 A 
ATOM     50  C   UNL A   1      43.939  25.103  28.628  1.00  0.00     0.074 A 
ATOM     51  C   UNL A   1      46.298  30.266  31.417  1.00  0.00     0.029 A 
ATOM     52  N   UNL A   1      44.989  28.789  30.392  1.00  0.00    -0.354 N 
ATOM     53  N   UNL A   1      44.342  26.207  29.209  1.00  0.00    -0.248 NA
ATOM     54  C   UNL A   1      45.001  24.101  28.442  1.00  0.00     0.031 C 
ATOM     55  C   UNL A   1      47.060  29.132  31.126  1.00  0.00     0.029 A 
ATOM     56  C   UNL A   1      46.237  28.200  30.516  1.00  0.00     0.049 A 
ATOM     57  H   UNL A   1      44.199  28.362  29.990  1.00  0.00     0.167 HD
ATOM     58  C   UNL A   1      45.690  26.018  29.487  1.00  0.00     0.074 A 
ATOM     59  C   UNL A   1      46.032  24.688  29.033  1.00  0.00     0.031 C 
ATOM     60  C   UNL A   1      46.567  26.873  30.068  1.00  0.00     0.031 A 
BRANCH  47  61
ATOM     61  C   UNL A   1      44.162  32.382  31.424  1.00  0.00    -0.014 A 
ATOM     62  C   UNL A   1      44.547  33.417  30.558  1.00  0.00     0.009 A 
ATOM     63  C   UNL A   1      43.927  32.682  32.777  1.00  0.00     0.009 A 
ATOM     64  C   UNL A   1      44.715  34.717  31.039  1.00  0.00     0.001 A 
ATOM     65  C   UNL A   1      44.067  33.988  33.248  1.00  0.00     0.001 A 
ATOM     66  C   UNL A   1      44.466  35.003  32.382  1.00  0.00     0.000 A 
ENDBRANCH  47  61
BRANCH  48  67
ATOM     67  C   UNL A   1      42.330  23.403  27.509  1.00  0.00    -0.014 A 
ATOM     68  C   UNL A   1      41.902  22.304  28.271  1.00  0.00     0.009 A 
ATOM     69  C   UNL A   1      42.588  23.216  26.142  1.00  0.00     0.009 A 
ATOM     70  C   UNL A   1      41.782  21.039  27.688  1.00  0.00     0.001 A 
ATOM     71  C   UNL A   1      42.432  21.959  25.554  1.00  0.00     0.001 A 
ATOM     72  C   UNL A   1      42.046  20.869  26.330  1.00  0.00     0.000 A 
ENDBRANCH  48  67
BRANCH  60  73
ATOM     73  C   UNL A   1      47.970  26.381  30.292  1.00  0.00    -0.014 A 
ATOM     74  C   UNL A   1      48.354  25.782  31.502  1.00  0.00     0.009 A 
ATOM     75  C   UNL A   1      48.911  26.482  29.256  1.00  0.00     0.009 A 
ATOM     76  C   UNL A   1      49.664  25.329  31.681  1.00  0.00     0.001 A 
ATOM     77  C   UNL A   1      50.209  25.997  29.425  1.00  0.00     0.001 A 
ATOM     78  C   UNL A   1      50.587  25.431  30.641  1.00  0.00     0.000 A 
ENDBRANCH  60  73
ENDBRANCH  34  35
ENDBRANCH  26  29
ENDBRANCH  24  25
ENDBRANCH  23  24
ENDBRANCH  22  23
ENDBRANCH  21  22
ENDBRANCH   3  21
TORSDOF 17
ENDMDL
MODEL 3
REMARK VINA RESULT:      -9.8      2.436      7.814
REMARK SMILES CC(C)OCCS(=O)(=O)N[C@@H]1COC[C@@H]1C(=O)NCCCCNC(=O)c1ccc(-c2c3nc(c(-c4ccccc4)c4ccc([nH]4)c(-c4ccccc4)c4nc(c(-c5ccccc5)c5ccc2[nH]5)C=C4)C=C3)cc1
REMARK SMILES IDX 16 1 17 2 18 3 15 5 11 6 12 7 13 8 14 9 10 10 7 12 8 13 9 14
REMARK SMILES IDX 6 15 5 16 4 17 2 18 1 19 3 20 19 21 20 22 21 23 22 24 23 25
REMARK SMILES IDX 24 26 25 28 26 29 27 30 73 31 28 32 72 33 29 34 30 35 31 36
REMARK SMILES IDX 66 37 32 38 71 39 65 40 67 41 33 42 70 43 64 44 63 45 34 47
REMARK SMILES IDX 56 48 41 49 55 50 42 51 45 52 54 53 68 54 43 55 44 56 53 58
REMARK SMILES IDX 69 59 46 60 35 61 36 62 40 63 37 64 39 65 38 66 57 67 58 68
REMARK SMILES IDX 62 69 59 70 61 71 60 72 47 73 48 74 52 75 49 76 51 77 50 78
REMARK H PARENT 18 4 10 11 23 27 67 46 45 57
REMARK Flexibility Score: inf
ROOT
ATOM      1  C   UNL A   1      33.618  22.793  23.541  1.00  0.00     0.227 C 
ATOM      2  O   UNL A   1      33.948  23.187  22.411  1.00  0.00    -0.275 OA
ATOM      3  N   UNL A   1      34.379  21.769  24.023  1.00  0.00    -0.356 N 
ATOM      4  H   UNL A   1      34.899  21.312  23.322  1.00  0.00     0.163 HD
ENDROOT
BRANCH   1   5
ATOM      5  C   UNL A   1      32.384  23.451  24.176  1.00  0.00     0.124 C 
ATOM      6  C   UNL A   1      32.307  24.932  24.609  1.00  0.00     0.110 C 
ATOM      7  C   UNL A   1      32.567  24.757  26.109  1.00  0.00     0.181 C 
ATOM      8  O   UNL A   1      32.125  23.462  26.539  1.00  0.00    -0.379 OA
ATOM      9  C   UNL A   1      31.923  22.653  25.387  1.00  0.00     0.175 C 
BRANCH   6  10
ATOM     10  N   UNL A   1      33.204  25.886  23.786  1.00  0.00    -0.209 NA
ATOM     11  H   UNL A   1      33.521  26.596  24.446  1.00  0.00     0.141 HD
BRANCH  10  12
ATOM     12  S   UNL A   1      32.708  26.756  22.384  1.00  0.00     0.214 S 
ATOM     13  O   UNL A   1      31.559  26.112  21.810  1.00  0.00    -0.212 OA
ATOM     14  O   UNL A   1      33.956  26.800  21.629  1.00  0.00    -0.212 OA
BRANCH  12  15
ATOM     15  C   UNL A   1      32.338  28.549  22.755  1.00  0.00     0.182 C 
BRANCH  15  16
ATOM     16  C   UNL A   1      32.148  29.196  24.150  1.00  0.00     0.178 C 
BRANCH  16  17
ATOM     17  O   UNL A   1      32.736  28.667  25.344  1.00  0.00    -0.378 OA
BRANCH  17  18
ATOM     18  C   UNL A   1      33.276  29.646  26.209  1.00  0.00     0.112 C 
ATOM     19  C   UNL A   1      32.101  30.471  26.756  1.00  0.00     0.038 C 
ATOM     20  C   UNL A   1      34.334  28.843  26.980  1.00  0.00     0.038 C 
ENDBRANCH  17  18
ENDBRANCH  16  17
ENDBRANCH  15  16
ENDBRANCH  12  15
ENDBRANCH  10  12
ENDBRANCH   6  10
ENDBRANCH   1   5
BRANCH   3  21
ATOM     21  C   UNL A   1      34.587  21.203  25.350  1.00  0.00     0.116 C 
BRANCH  21  22
ATOM     22  C   UNL A   1      35.474  21.988  26.319  1.00  0.00     0.023 C 
BRANCH  22  23
ATOM     23  C   UNL A   1      36.080  23.318  25.845  1.00  0.00     0.023 C 
BRANCH  23  24
ATOM     24  C   UNL A   1      37.313  23.293  24.937  1.00  0.00     0.116 C 
BRANCH  24  25
ATOM     25  N   UNL A   1      38.424  22.489  25.428  1.00  0.00    -0.352 N 
ATOM     26  C   UNL A   1      39.485  22.819  26.248  1.00  0.00     0.251 C 
ATOM     27  H   UNL A   1      38.418  21.553  25.123  1.00  0.00     0.163 HD
ATOM     28  O   UNL A   1      40.360  21.987  26.474  1.00  0.00    -0.269 OA
BRANCH  26  29
ATOM     29  C   UNL A   1      39.615  24.176  26.831  1.00  0.00     0.039 A 
ATOM     30  C   UNL A   1      39.064  24.424  28.093  1.00  0.00     0.014 A 
ATOM     31  C   UNL A   1      40.262  25.208  26.149  1.00  0.00     0.014 A 
ATOM     32  C   UNL A   1      39.258  25.663  28.713  1.00  0.00     0.010 A 
ATOM     33  C   UNL A   1      40.526  26.415  26.800  1.00  0.00     0.010 A 
ATOM     34  C   UNL A   1      40.043  26.653  28.097  1.00  0.00    -0.014 A 
BRANCH  34  35
ATOM     35  C   UNL A   1      40.399  27.915  28.806  1.00  0.00     0.031 A 
ATOM     36  C   UNL A   1      41.723  28.056  29.510  1.00  0.00     0.074 A 
ATOM     37  C   UNL A   1      39.494  28.914  28.886  1.00  0.00     0.049 A 
ATOM     38  N   UNL A   1      42.172  29.052  30.234  1.00  0.00    -0.248 NA
ATOM     39  C   UNL A   1      42.658  26.923  29.410  1.00  0.00     0.031 C 
ATOM     40  C   UNL A   1      38.154  28.896  28.292  1.00  0.00     0.029 A 
ATOM     41  N   UNL A   1      39.557  30.136  29.512  1.00  0.00    -0.354 N 
ATOM     42  C   UNL A   1      43.422  28.655  30.694  1.00  0.00     0.074 A 
ATOM     43  C   UNL A   1      43.647  27.315  30.200  1.00  0.00     0.031 C 
ATOM     44  C   UNL A   1      37.536  30.058  28.560  1.00  0.00     0.029 A 
ATOM     45  C   UNL A   1      38.410  30.885  29.386  1.00  0.00     0.049 A 
ATOM     46  H   UNL A   1      40.351  30.448  30.005  1.00  0.00     0.167 HD
ATOM     47  C   UNL A   1      44.308  29.348  31.450  1.00  0.00     0.031 A 
ATOM     48  C   UNL A   1      38.086  32.092  29.888  1.00  0.00     0.031 A 
ATOM     49  C   UNL A   1      44.099  30.690  31.924  1.00  0.00     0.049 A 
ATOM     50  C   UNL A   1      39.090  32.831  30.733  1.00  0.00     0.074 A 
ATOM     51  C   UNL A   1      44.977  31.501  32.623  1.00  0.00     0.029 A 
ATOM     52  N   UNL A   1      42.930  31.415  31.759  1.00  0.00    -0.354 N 
ATOM     53  N   UNL A   1      40.306  32.479  31.073  1.00  0.00    -0.248 NA
ATOM     54  C   UNL A   1      38.678  34.145  31.254  1.00  0.00     0.031 C 
ATOM     55  C   UNL A   1      44.316  32.690  32.942  1.00  0.00     0.029 A 
ATOM     56  C   UNL A   1      43.052  32.650  32.378  1.00  0.00     0.049 A 
ATOM     57  H   UNL A   1      42.133  31.102  31.274  1.00  0.00     0.167 HD
ATOM     58  C   UNL A   1      40.813  33.538  31.814  1.00  0.00     0.074 A 
ATOM     59  C   UNL A   1      39.785  34.555  31.857  1.00  0.00     0.031 C 
ATOM     60  C   UNL A   1      42.026  33.657  32.408  1.00  0.00     0.031 A 
BRANCH  47  61
ATOM     61  C   UNL A   1      45.595  28.668  31.830  1.00  0.00    -0.014 A 
ATOM     62  C   UNL A   1      45.696  27.883  32.989  1.00  0.00     0.009 A 
ATOM     63  C   UNL A   1      46.700  28.748  30.965  1.00  0.00     0.009 A 
ATOM     64  C   UNL A   1      46.884  27.213  33.288  1.00  0.00     0.001 A 
ATOM     65  C   UNL A   1      47.876  28.053  31.253  1.00  0.00     0.001 A 
ATOM     66  C   UNL A   1      47.970  27.291  32.415  1.00  0.00     0.000 A 
ENDBRANCH  47  61
BRANCH  48  67
ATOM     67  C   UNL A   1      36.747  32.689  29.627  1.00  0.00    -0.014 A 
ATOM     68  C   UNL A   1      36.515  33.458  28.475  1.00  0.00     0.009 A 
ATOM     69  C   UNL A   1      35.706  32.540  30.558  1.00  0.00     0.009 A 
ATOM     70  C   UNL A   1      35.289  34.100  28.284  1.00  0.00     0.001 A 
ATOM     71  C   UNL A   1      34.469  33.152  30.346  1.00  0.00     0.001 A 
ATOM     72  C   UNL A   1      34.267  33.945  29.219  1.00  0.00     0.000 A 
ENDBRANCH  48  67
BRANCH  60  73
ATOM     73  C   UNL A   1      42.328  34.950  33.114  1.00  0.00    -0.014 A 
ATOM     74  C   UNL A   1      41.878  35.196  34.421  1.00  0.00     0.009 A 
ATOM     75  C   UNL A   1      43.112  35.922  32.472  1.00  0.00     0.009 A 
ATOM     76  C   UNL A   1      42.177  36.405  35.055  1.00  0.00     0.001 A 
ATOM     77  C   UNL A   1      43.439  37.113  33.122  1.00  0.00     0.001 A 
ATOM     78  C   UNL A   1      42.962  37.359  34.408  1.00  0.00     0.000 A 
ENDBRANCH  60  73
ENDBRANCH  34  35
ENDBRANCH  26  29
ENDBRANCH  24  25
ENDBRANCH  23  24
ENDBRANCH  22  23
ENDBRANCH  21  22
ENDBRANCH   3  21
TORSDOF 17
ENDMDL
