MODEL 1
REMARK VINA RESULT:     -12.0      0.000      0.000
REMARK SMILES COc1cccc(Cn2c(=O)c(=O)n(CC(=O)NCCCCNC(=O)c3ccc(-c4c5nc(c(-c6ccccc6)c6ccc([nH]6)c(-c6ccccc6)c6nc(c(-c7ccccc7)c7ccc4[nH]7)C=C6)C=C5)cc3)c3ccccc32)c1
REMARK SMILES IDX 19 1 18 2 16 3 17 4 15 6 14 7 9 8 10 9 79 10 11 11 12 12
REMARK SMILES IDX 74 13 78 14 13 15 75 16 77 17 76 18 8 19 7 20 3 21 4 22
REMARK SMILES IDX 80 23 5 24 6 25 2 26 1 27 20 28 21 29 22 30 23 31 24 32
REMARK SMILES IDX 25 34 26 35 27 36 73 37 28 38 72 39 29 40 30 41 31 42 66 43
REMARK SMILES IDX 32 44 71 45 65 46 67 47 33 48 70 49 64 50 63 51 34 53 56 54
REMARK SMILES IDX 41 55 55 56 42 57 45 58 54 59 68 60 43 61 44 62 53 64 69 65
REMARK SMILES IDX 46 66 35 67 36 68 40 69 37 70 39 71 38 72 57 73 58 74 62 75
REMARK SMILES IDX 59 76 61 77 60 78 47 79 48 80 52 81 49 82 51 83 50 84
REMARK H PARENT 18 5 23 33 67 52 45 63
REMARK Flexibility Score: inf
ROOT
ATOM      1  C   UNL A   1      31.520  29.352  25.022  1.00  0.00     0.116 C 
ENDROOT
BRANCH   1   2
ATOM      2  N   UNL A   1      31.131  29.678  23.667  1.00  0.00    -0.355 N 
ATOM      3  C   UNL A   1      30.500  28.941  22.718  1.00  0.00     0.240 C 
ATOM      4  O   UNL A   1      30.270  29.524  21.649  1.00  0.00    -0.273 OA
ATOM      5  H   UNL A   1      31.364  30.592  23.384  1.00  0.00     0.163 HD
BRANCH   3   6
ATOM      6  C   UNL A   1      29.879  27.557  22.950  1.00  0.00     0.226 C 
BRANCH   6   7
ATOM      7  N   UNL A   1      30.593  26.292  23.024  1.00  0.00    -0.293 N 
ATOM      8  N   UNL A   1      32.258  24.026  23.081  1.00  0.00    -0.298 N 
ATOM      9  C   UNL A   1      32.651  25.138  22.366  1.00  0.00     0.317 A 
ATOM     10  C   UNL A   1      31.417  24.278  24.198  1.00  0.00     0.068 A 
ATOM     11  O   UNL A   1      33.795  25.384  21.991  1.00  0.00    -0.263 OA
ATOM     12  C   UNL A   1      31.493  26.048  21.994  1.00  0.00     0.317 A 
ATOM     13  C   UNL A   1      30.618  25.462  24.195  1.00  0.00     0.069 A 
ATOM     14  C   UNL A   1      31.492  23.490  25.354  1.00  0.00     0.028 A 
ATOM     15  O   UNL A   1      31.449  26.549  20.873  1.00  0.00    -0.263 OA
ATOM     16  C   UNL A   1      29.881  25.787  25.339  1.00  0.00     0.028 A 
ATOM     17  C   UNL A   1      30.807  23.879  26.509  1.00  0.00     0.002 A 
ATOM     18  C   UNL A   1      29.996  25.013  26.497  1.00  0.00     0.002 A 
BRANCH   8  19
ATOM     19  C   UNL A   1      32.791  22.731  22.665  1.00  0.00     0.162 C 
BRANCH  19  20
ATOM     20  C   UNL A   1      33.709  22.199  23.779  1.00  0.00    -0.024 A 
ATOM     21  C   UNL A   1      35.959  22.211  24.725  1.00  0.00     0.119 A 
ATOM     22  C   UNL A   1      35.753  20.927  25.216  1.00  0.00     0.046 A 
ATOM     23  C   UNL A   1      34.912  22.877  24.091  1.00  0.00     0.052 A 
ATOM     24  C   UNL A   1      34.513  20.307  25.070  1.00  0.00     0.004 A 
ATOM     25  C   UNL A   1      33.503  20.924  24.325  1.00  0.00     0.006 A 
BRANCH  21  26
ATOM     26  O   UNL A   1      37.260  22.634  24.718  1.00  0.00    -0.497 OA
ATOM     27  C   UNL A   1      38.195  21.820  25.410  1.00  0.00     0.278 C 
ENDBRANCH  21  26
ENDBRANCH  19  20
ENDBRANCH   8  19
ENDBRANCH   6   7
ENDBRANCH   3   6
ENDBRANCH   1   2
BRANCH   1  28
ATOM     28  C   UNL A   1      32.763  28.463  25.049  1.00  0.00     0.023 C 
BRANCH  28  29
ATOM     29  C   UNL A   1      33.912  28.993  25.915  1.00  0.00     0.023 C 
BRANCH  29  30
ATOM     30  C   UNL A   1      33.586  29.102  27.399  1.00  0.00     0.116 C 
BRANCH  30  31
ATOM     31  N   UNL A   1      33.686  30.457  27.925  1.00  0.00    -0.352 N 
ATOM     32  C   UNL A   1      34.787  31.031  28.521  1.00  0.00     0.251 C 
ATOM     33  H   UNL A   1      32.883  31.021  27.845  1.00  0.00     0.163 HD
ATOM     34  O   UNL A   1      34.735  32.144  29.028  1.00  0.00    -0.269 OA
BRANCH  32  35
ATOM     35  C   UNL A   1      36.027  30.229  28.582  1.00  0.00     0.039 A 
ATOM     36  C   UNL A   1      36.919  30.270  27.508  1.00  0.00     0.014 A 
ATOM     37  C   UNL A   1      36.357  29.561  29.762  1.00  0.00     0.014 A 
ATOM     38  C   UNL A   1      38.191  29.714  27.657  1.00  0.00     0.010 A 
ATOM     39  C   UNL A   1      37.648  29.078  29.933  1.00  0.00     0.010 A 
ATOM     40  C   UNL A   1      38.582  29.163  28.889  1.00  0.00    -0.014 A 
BRANCH  40  41
ATOM     41  C   UNL A   1      39.972  28.694  29.122  1.00  0.00     0.031 A 
ATOM     42  C   UNL A   1      40.989  29.625  29.716  1.00  0.00     0.074 A 
ATOM     43  C   UNL A   1      40.340  27.463  28.712  1.00  0.00     0.049 A 
ATOM     44  N   UNL A   1      42.268  29.429  29.918  1.00  0.00    -0.248 NA
ATOM     45  C   UNL A   1      40.516  30.963  30.105  1.00  0.00     0.031 C 
ATOM     46  C   UNL A   1      39.463  26.482  28.068  1.00  0.00     0.029 A 
ATOM     47  N   UNL A   1      41.557  26.832  28.768  1.00  0.00    -0.354 N 
ATOM     48  C   UNL A   1      42.753  30.624  30.433  1.00  0.00     0.074 A 
ATOM     49  C   UNL A   1      41.644  31.553  30.469  1.00  0.00     0.031 C 
ATOM     50  C   UNL A   1      40.164  25.365  27.814  1.00  0.00     0.029 A 
ATOM     51  C   UNL A   1      41.545  25.562  28.242  1.00  0.00     0.049 A 
ATOM     52  H   UNL A   1      42.363  27.248  29.150  1.00  0.00     0.167 HD
ATOM     53  C   UNL A   1      44.004  30.917  30.860  1.00  0.00     0.031 A 
ATOM     54  C   UNL A   1      42.536  24.659  28.114  1.00  0.00     0.031 A 
ATOM     55  C   UNL A   1      45.101  29.990  30.848  1.00  0.00     0.049 A 
ATOM     56  C   UNL A   1      43.914  25.006  28.601  1.00  0.00     0.074 A 
ATOM     57  C   UNL A   1      46.386  30.168  31.330  1.00  0.00     0.029 A 
ATOM     58  N   UNL A   1      45.042  28.708  30.324  1.00  0.00    -0.354 N 
ATOM     59  N   UNL A   1      44.338  26.114  29.161  1.00  0.00    -0.248 NA
ATOM     60  C   UNL A   1      44.951  23.975  28.445  1.00  0.00     0.031 C 
ATOM     61  C   UNL A   1      47.117  29.005  31.061  1.00  0.00     0.029 A 
ATOM     62  C   UNL A   1      46.274  28.090  30.451  1.00  0.00     0.049 A 
ATOM     63  H   UNL A   1      44.242  28.297  29.923  1.00  0.00     0.167 HD
ATOM     64  C   UNL A   1      45.681  25.906  29.442  1.00  0.00     0.074 A 
ATOM     65  C   UNL A   1      45.999  24.562  29.006  1.00  0.00     0.031 C 
ATOM     66  C   UNL A   1      46.573  26.754  30.009  1.00  0.00     0.031 A 
BRANCH  53  67
ATOM     67  C   UNL A   1      44.245  32.307  31.376  1.00  0.00    -0.014 A 
ATOM     68  C   UNL A   1      44.072  32.616  32.735  1.00  0.00     0.009 A 
ATOM     69  C   UNL A   1      44.671  33.316  30.498  1.00  0.00     0.009 A 
ATOM     70  C   UNL A   1      44.281  33.917  33.197  1.00  0.00     0.001 A 
ATOM     71  C   UNL A   1      44.905  34.610  30.968  1.00  0.00     0.001 A 
ATOM     72  C   UNL A   1      44.701  34.910  32.314  1.00  0.00     0.000 A 
ENDBRANCH  53  67
BRANCH  54  73
ATOM     73  C   UNL A   1      42.259  23.329  27.516  1.00  0.00    -0.014 A 
ATOM     74  C   UNL A   1      41.663  22.316  28.284  1.00  0.00     0.009 A 
ATOM     75  C   UNL A   1      42.592  23.059  26.179  1.00  0.00     0.009 A 
ATOM     76  C   UNL A   1      41.429  21.054  27.732  1.00  0.00     0.001 A 
ATOM     77  C   UNL A   1      42.335  21.804  25.623  1.00  0.00     0.001 A 
ATOM     78  C   UNL A   1      41.761  20.801  26.403  1.00  0.00     0.000 A 
ENDBRANCH  54  73
BRANCH  66  79
ATOM     79  C   UNL A   1      47.971  26.246  30.210  1.00  0.00    -0.014 A 
ATOM     80  C   UNL A   1      48.923  26.323  29.183  1.00  0.00     0.009 A 
ATOM     81  C   UNL A   1      48.350  25.727  31.458  1.00  0.00     0.009 A 
ATOM     82  C   UNL A   1      50.225  25.868  29.395  1.00  0.00     0.001 A 
ATOM     83  C   UNL A   1      49.660  25.296  31.675  1.00  0.00     0.001 A 
ATOM     84  C   UNL A   1      50.594  25.361  30.641  1.00  0.00     0.000 A 
ENDBRANCH  66  79
ENDBRANCH  40  41
ENDBRANCH  32  35
ENDBRANCH  30  31
ENDBRANCH  29  30
ENDBRANCH  28  29
ENDBRANCH   1  28
TORSDOF 15
ENDMDL
MODEL 2
REMARK VINA RESULT:     -11.9      3.254      4.728
REMARK SMILES COc1cccc(Cn2c(=O)c(=O)n(CC(=O)NCCCCNC(=O)c3ccc(-c4c5nc(c(-c6ccccc6)c6ccc([nH]6)c(-c6ccccc6)c6nc(c(-c7ccccc7)c7ccc4[nH]7)C=C6)C=C5)cc3)c3ccccc32)c1
REMARK SMILES IDX 19 1 18 2 16 3 17 4 15 6 14 7 9 8 10 9 79 10 11 11 12 12
REMARK SMILES IDX 74 13 78 14 13 15 75 16 77 17 76 18 8 19 7 20 3 21 4 22
REMARK SMILES IDX 80 23 5 24 6 25 2 26 1 27 20 28 21 29 22 30 23 31 24 32
REMARK SMILES IDX 25 34 26 35 27 36 73 37 28 38 72 39 29 40 30 41 31 42 66 43
REMARK SMILES IDX 32 44 71 45 65 46 67 47 33 48 70 49 64 50 63 51 34 53 56 54
REMARK SMILES IDX 41 55 55 56 42 57 45 58 54 59 68 60 43 61 44 62 53 64 69 65
REMARK SMILES IDX 46 66 35 67 36 68 40 69 37 70 39 71 38 72 57 73 58 74 62 75
REMARK SMILES IDX 59 76 61 77 60 78 47 79 48 80 52 81 49 82 51 83 50 84
REMARK H PARENT 18 5 23 33 67 52 45 63
REMARK Flexibility Score: inf
ROOT
ATOM      1  C   UNL A   1      31.958  29.769  25.173  1.00  0.00     0.116 C 
ENDROOT
BRANCH   1   2
ATOM      2  N   UNL A   1      33.081  29.521  24.295  1.00  0.00    -0.355 N 
ATOM      3  C   UNL A   1      33.248  28.622  23.292  1.00  0.00     0.240 C 
ATOM      4  O   UNL A   1      34.329  28.681  22.691  1.00  0.00    -0.273 OA
ATOM      5  H   UNL A   1      33.858  30.104  24.452  1.00  0.00     0.163 HD
BRANCH   3   6
ATOM      6  C   UNL A   1      32.142  27.717  22.731  1.00  0.00     0.226 C 
BRANCH   6   7
ATOM      7  N   UNL A   1      32.072  26.269  22.842  1.00  0.00    -0.293 N 
ATOM      8  N   UNL A   1      32.283  23.471  23.029  1.00  0.00    -0.298 N 
ATOM      9  C   UNL A   1      33.311  24.192  22.458  1.00  0.00     0.317 A 
ATOM     10  C   UNL A   1      31.517  24.160  24.007  1.00  0.00     0.068 A 
ATOM     11  O   UNL A   1      34.461  23.793  22.292  1.00  0.00    -0.263 OA
ATOM     12  C   UNL A   1      32.876  25.559  21.959  1.00  0.00     0.317 A 
ATOM     13  C   UNL A   1      31.462  25.586  23.947  1.00  0.00     0.069 A 
ATOM     14  C   UNL A   1      30.973  23.486  25.108  1.00  0.00     0.028 A 
ATOM     15  O   UNL A   1      33.292  25.972  20.880  1.00  0.00    -0.263 OA
ATOM     16  C   UNL A   1      30.816  26.284  24.974  1.00  0.00     0.028 A 
ATOM     17  C   UNL A   1      30.402  24.212  26.158  1.00  0.00     0.002 A 
ATOM     18  C   UNL A   1      30.312  25.601  26.085  1.00  0.00     0.002 A 
BRANCH   8  19
ATOM     19  C   UNL A   1      32.130  22.075  22.625  1.00  0.00     0.162 C 
BRANCH  19  20
ATOM     20  C   UNL A   1      32.818  21.184  23.675  1.00  0.00    -0.024 A 
ATOM     21  C   UNL A   1      34.879  20.719  24.896  1.00  0.00     0.119 A 
ATOM     22  C   UNL A   1      34.513  19.381  24.992  1.00  0.00     0.046 A 
ATOM     23  C   UNL A   1      33.995  21.630  24.322  1.00  0.00     0.052 A 
ATOM     24  C   UNL A   1      33.276  18.953  24.513  1.00  0.00     0.004 A 
ATOM     25  C   UNL A   1      32.443  19.841  23.826  1.00  0.00     0.006 A 
BRANCH  21  26
ATOM     26  O   UNL A   1      36.188  20.990  25.185  1.00  0.00    -0.497 OA
ATOM     27  C   UNL A   1      36.871  21.847  24.283  1.00  0.00     0.278 C 
ENDBRANCH  21  26
ENDBRANCH  19  20
ENDBRANCH   8  19
ENDBRANCH   6   7
ENDBRANCH   3   6
ENDBRANCH   1   2
BRANCH   1  28
ATOM     28  C   UNL A   1      32.414  30.307  26.528  1.00  0.00     0.023 C 
BRANCH  28  29
ATOM     29  C   UNL A   1      31.903  31.713  26.866  1.00  0.00     0.023 C 
BRANCH  29  30
ATOM     30  C   UNL A   1      32.966  32.655  27.414  1.00  0.00     0.116 C 
BRANCH  30  31
ATOM     31  N   UNL A   1      32.489  34.013  27.637  1.00  0.00    -0.352 N 
ATOM     32  C   UNL A   1      32.990  34.927  28.539  1.00  0.00     0.251 C 
ATOM     33  H   UNL A   1      31.730  34.310  27.085  1.00  0.00     0.163 HD
ATOM     34  O   UNL A   1      32.448  36.009  28.725  1.00  0.00    -0.269 OA
BRANCH  32  35
ATOM     35  C   UNL A   1      34.177  34.530  29.324  1.00  0.00     0.039 A 
ATOM     36  C   UNL A   1      34.001  33.907  30.560  1.00  0.00     0.014 A 
ATOM     37  C   UNL A   1      35.447  34.652  28.758  1.00  0.00     0.014 A 
ATOM     38  C   UNL A   1      35.099  33.317  31.189  1.00  0.00     0.010 A 
ATOM     39  C   UNL A   1      36.522  33.999  29.348  1.00  0.00     0.010 A 
ATOM     40  C   UNL A   1      36.356  33.313  30.562  1.00  0.00    -0.014 A 
BRANCH  40  41
ATOM     41  C   UNL A   1      37.507  32.572  31.137  1.00  0.00     0.031 A 
ATOM     42  C   UNL A   1      38.139  33.041  32.417  1.00  0.00     0.074 A 
ATOM     43  C   UNL A   1      38.041  31.536  30.460  1.00  0.00     0.049 A 
ATOM     44  N   UNL A   1      39.199  32.580  33.030  1.00  0.00    -0.248 NA
ATOM     45  C   UNL A   1      37.518  34.201  33.076  1.00  0.00     0.031 C 
ATOM     46  C   UNL A   1      37.559  31.017  29.178  1.00  0.00     0.029 A 
ATOM     47  N   UNL A   1      39.119  30.739  30.754  1.00  0.00    -0.354 N 
ATOM     48  C   UNL A   1      39.384  33.406  34.130  1.00  0.00     0.074 A 
ATOM     49  C   UNL A   1      38.358  34.424  34.075  1.00  0.00     0.031 C 
ATOM     50  C   UNL A   1      38.320  29.973  28.811  1.00  0.00     0.029 A 
ATOM     51  C   UNL A   1      39.365  29.772  29.809  1.00  0.00     0.049 A 
ATOM     52  H   UNL A   1      39.665  30.849  31.566  1.00  0.00     0.167 HD
ATOM     53  C   UNL A   1      40.312  33.315  35.113  1.00  0.00     0.031 A 
ATOM     54  C   UNL A   1      40.327  28.831  29.751  1.00  0.00     0.031 A 
ATOM     55  C   UNL A   1      41.318  32.291  35.183  1.00  0.00     0.049 A 
ATOM     56  C   UNL A   1      41.340  28.746  30.857  1.00  0.00     0.074 A 
ATOM     57  C   UNL A   1      42.253  32.068  36.178  1.00  0.00     0.029 A 
ATOM     58  N   UNL A   1      41.520  31.319  34.216  1.00  0.00    -0.354 N 
ATOM     59  N   UNL A   1      41.452  29.486  31.933  1.00  0.00    -0.248 NA
ATOM     60  C   UNL A   1      42.358  27.690  30.742  1.00  0.00     0.031 C 
ATOM     61  C   UNL A   1      43.049  30.984  35.794  1.00  0.00     0.029 A 
ATOM     62  C   UNL A   1      42.580  30.507  34.580  1.00  0.00     0.049 A 
ATOM     63  H   UNL A   1      40.988  31.220  33.393  1.00  0.00     0.167 HD
ATOM     64  C   UNL A   1      42.535  28.974  32.634  1.00  0.00     0.074 A 
ATOM     65  C   UNL A   1      43.038  27.851  31.868  1.00  0.00     0.031 C 
ATOM     66  C   UNL A   1      43.068  29.397  33.805  1.00  0.00     0.031 A 
BRANCH  53  67
ATOM     67  C   UNL A   1      40.274  34.359  36.192  1.00  0.00    -0.014 A 
ATOM     68  C   UNL A   1      39.483  34.186  37.340  1.00  0.00     0.009 A 
ATOM     69  C   UNL A   1      41.053  35.519  36.071  1.00  0.00     0.009 A 
ATOM     70  C   UNL A   1      39.443  35.174  38.326  1.00  0.00     0.001 A 
ATOM     71  C   UNL A   1      41.031  36.493  37.071  1.00  0.00     0.001 A 
ATOM     72  C   UNL A   1      40.220  36.323  38.192  1.00  0.00     0.000 A 
ENDBRANCH  53  67
BRANCH  54  73
ATOM     73  C   UNL A   1      40.368  27.877  28.613  1.00  0.00    -0.014 A 
ATOM     74  C   UNL A   1      41.075  28.198  27.444  1.00  0.00     0.009 A 
ATOM     75  C   UNL A   1      39.699  26.645  28.685  1.00  0.00     0.009 A 
ATOM     76  C   UNL A   1      41.090  27.316  26.361  1.00  0.00     0.001 A 
ATOM     77  C   UNL A   1      39.736  25.754  27.609  1.00  0.00     0.001 A 
ATOM     78  C   UNL A   1      40.425  26.094  26.446  1.00  0.00     0.000 A 
ENDBRANCH  54  73
BRANCH  66  79
ATOM     79  C   UNL A   1      44.242  28.631  34.342  1.00  0.00    -0.014 A 
ATOM     80  C   UNL A   1      45.556  28.993  34.008  1.00  0.00     0.009 A 
ATOM     81  C   UNL A   1      44.030  27.564  35.229  1.00  0.00     0.009 A 
ATOM     82  C   UNL A   1      46.636  28.284  34.536  1.00  0.00     0.001 A 
ATOM     83  C   UNL A   1      45.113  26.873  35.774  1.00  0.00     0.001 A 
ATOM     84  C   UNL A   1      46.414  27.229  35.422  1.00  0.00     0.000 A 
ENDBRANCH  66  79
ENDBRANCH  40  41
ENDBRANCH  32  35
ENDBRANCH  30  31
ENDBRANCH  29  30
ENDBRANCH  28  29
ENDBRANCH   1  28
TORSDOF 15
ENDMDL
MODEL 3
REMARK VINA RESULT:     -11.9      0.286      5.738
REMARK SMILES COc1cccc(Cn2c(=O)c(=O)n(CC(=O)NCCCCNC(=O)c3ccc(-c4c5nc(c(-c6ccccc6)c6ccc([nH]6)c(-c6ccccc6)c6nc(c(-c7ccccc7)c7ccc4[nH]7)C=C6)C=C5)cc3)c3ccccc32)c1
REMARK SMILES IDX 19 1 18 2 16 3 17 4 15 6 14 7 9 8 10 9 79 10 11 11 12 12
REMARK SMILES IDX 74 13 78 14 13 15 75 16 77 17 76 18 8 19 7 20 3 21 4 22
REMARK SMILES IDX 80 23 5 24 6 25 2 26 1 27 20 28 21 29 22 30 23 31 24 32
REMARK SMILES IDX 25 34 26 35 27 36 73 37 28 38 72 39 29 40 30 41 31 42 66 43
REMARK SMILES IDX 32 44 71 45 65 46 67 47 33 48 70 49 64 50 63 51 34 53 56 54
REMARK SMILES IDX 41 55 55 56 42 57 45 58 54 59 68 60 43 61 44 62 53 64 69 65
REMARK SMILES IDX 46 66 35 67 36 68 40 69 37 70 39 71 38 72 57 73 58 74 62 75
REMARK SMILES IDX 59 76 61 77 60 78 47 79 48 80 52 81 49 82 51 83 50 84
REMARK H PARENT 18 5 23 33 67 52 45 63
REMARK Flexibility Score: inf
ROOT
ATOM      1  C   UNL A   1      31.609  29.257  25.032  1.00  0.00     0.116 C 
ENDROOT
BRANCH   1   2
ATOM      2  N   UNL A   1      31.239  29.615  23.680  1.00  0.00    -0.355 N 
ATOM      3  C   UNL A   1      30.584  28.916  22.718  1.00  0.00     0.240 C 
ATOM      4  O   UNL A   1      30.383  29.520  21.656  1.00  0.00    -0.273 OA
ATOM      5  H   UNL A   1      31.510  30.523  23.409  1.00  0.00     0.163 HD
BRANCH   3   6
ATOM      6  C   UNL A   1      29.908  27.554  22.931  1.00  0.00     0.226 C 
BRANCH   6   7
ATOM      7  N   UNL A   1      30.572  26.262  22.997  1.00  0.00    -0.293 N 
ATOM      8  N   UNL A   1      32.147  23.932  23.040  1.00  0.00    -0.298 N 
ATOM      9  C   UNL A   1      32.581  25.031  22.328  1.00  0.00     0.317 A 
ATOM     10  C   UNL A   1      31.319  24.212  24.160  1.00  0.00     0.068 A 
ATOM     11  O   UNL A   1      33.733  25.233  21.951  1.00  0.00    -0.263 OA
ATOM     12  C   UNL A   1      31.458  25.987  21.963  1.00  0.00     0.317 A 
ATOM     13  C   UNL A   1      30.568  25.427  24.164  1.00  0.00     0.069 A 
ATOM     14  C   UNL A   1      31.366  23.417  25.313  1.00  0.00     0.028 A 
ATOM     15  O   UNL A   1      31.432  26.494  20.845  1.00  0.00    -0.263 OA
ATOM     16  C   UNL A   1      29.847  25.775  25.312  1.00  0.00     0.028 A 
ATOM     17  C   UNL A   1      30.700  23.827  26.471  1.00  0.00     0.002 A 
ATOM     18  C   UNL A   1      29.935  24.992  26.467  1.00  0.00     0.002 A 
BRANCH   8  19
ATOM     19  C   UNL A   1      32.627  22.619  22.616  1.00  0.00     0.162 C 
BRANCH  19  20
ATOM     20  C   UNL A   1      33.587  22.079  23.691  1.00  0.00    -0.024 A 
ATOM     21  C   UNL A   1      35.890  22.010  24.495  1.00  0.00     0.119 A 
ATOM     22  C   UNL A   1      35.655  20.756  25.045  1.00  0.00     0.046 A 
ATOM     23  C   UNL A   1      34.839  22.706  23.902  1.00  0.00     0.052 A 
ATOM     24  C   UNL A   1      34.379  20.194  24.998  1.00  0.00     0.004 A 
ATOM     25  C   UNL A   1      33.355  20.836  24.295  1.00  0.00     0.006 A 
BRANCH  21  26
ATOM     26  O   UNL A   1      37.207  22.367  24.393  1.00  0.00    -0.497 OA
ATOM     27  C   UNL A   1      38.032  22.076  25.510  1.00  0.00     0.278 C 
ENDBRANCH  21  26
ENDBRANCH  19  20
ENDBRANCH   8  19
ENDBRANCH   6   7
ENDBRANCH   3   6
ENDBRANCH   1   2
BRANCH   1  28
ATOM     28  C   UNL A   1      32.783  28.280  25.052  1.00  0.00     0.023 C 
BRANCH  28  29
ATOM     29  C   UNL A   1      33.964  28.714  25.930  1.00  0.00     0.023 C 
BRANCH  29  30
ATOM     30  C   UNL A   1      33.631  28.858  27.409  1.00  0.00     0.116 C 
BRANCH  30  31
ATOM     31  N   UNL A   1      33.671  30.233  27.889  1.00  0.00    -0.352 N 
ATOM     32  C   UNL A   1      34.754  30.883  28.440  1.00  0.00     0.251 C 
ATOM     33  H   UNL A   1      32.837  30.751  27.811  1.00  0.00     0.163 HD
ATOM     34  O   UNL A   1      34.654  32.008  28.912  1.00  0.00    -0.269 OA
BRANCH  32  35
ATOM     35  C   UNL A   1      36.035  30.150  28.495  1.00  0.00     0.039 A 
ATOM     36  C   UNL A   1      36.908  30.219  27.407  1.00  0.00     0.014 A 
ATOM     37  C   UNL A   1      36.418  29.522  29.681  1.00  0.00     0.014 A 
ATOM     38  C   UNL A   1      38.210  29.735  27.545  1.00  0.00     0.010 A 
ATOM     39  C   UNL A   1      37.736  29.112  29.840  1.00  0.00     0.010 A 
ATOM     40  C   UNL A   1      38.648  29.227  28.780  1.00  0.00    -0.014 A 
BRANCH  40  41
ATOM     41  C   UNL A   1      40.065  28.838  28.999  1.00  0.00     0.031 A 
ATOM     42  C   UNL A   1      40.540  27.472  28.594  1.00  0.00     0.074 A 
ATOM     43  C   UNL A   1      40.896  29.678  29.647  1.00  0.00     0.049 A 
ATOM     44  N   UNL A   1      41.712  26.919  28.777  1.00  0.00    -0.248 NA
ATOM     45  C   UNL A   1      39.561  26.601  27.923  1.00  0.00     0.031 C 
ATOM     46  C   UNL A   1      40.543  31.010  30.145  1.00  0.00     0.029 A 
ATOM     47  N   UNL A   1      42.212  29.529  30.008  1.00  0.00    -0.354 N 
ATOM     48  C   UNL A   1      41.603  25.632  28.268  1.00  0.00     0.074 A 
ATOM     49  C   UNL A   1      40.240  25.470  27.812  1.00  0.00     0.031 C 
ATOM     50  C   UNL A   1      41.622  31.565  30.721  1.00  0.00     0.029 A 
ATOM     51  C   UNL A   1      42.730  30.617  30.668  1.00  0.00     0.049 A 
ATOM     52  H   UNL A   1      42.735  28.718  29.813  1.00  0.00     0.167 HD
ATOM     53  C   UNL A   1      42.556  24.676  28.168  1.00  0.00     0.031 A 
ATOM     54  C   UNL A   1      43.960  30.827  31.176  1.00  0.00     0.031 A 
ATOM     55  C   UNL A   1      43.917  24.842  28.599  1.00  0.00     0.049 A 
ATOM     56  C   UNL A   1      45.002  29.753  31.046  1.00  0.00     0.074 A 
ATOM     57  C   UNL A   1      44.976  23.960  28.470  1.00  0.00     0.029 A 
ATOM     58  N   UNL A   1      44.406  25.966  29.244  1.00  0.00    -0.354 N 
ATOM     59  N   UNL A   1      44.905  28.570  30.489  1.00  0.00    -0.248 NA
ATOM     60  C   UNL A   1      46.329  30.046  31.611  1.00  0.00     0.031 C 
ATOM     61  C   UNL A   1      46.098  24.537  29.074  1.00  0.00     0.029 A 
ATOM     62  C   UNL A   1      45.747  25.794  29.541  1.00  0.00     0.049 A 
ATOM     63  H   UNL A   1      43.879  26.770  29.459  1.00  0.00     0.167 HD
ATOM     64  C   UNL A   1      46.158  27.987  30.616  1.00  0.00     0.074 A 
ATOM     65  C   UNL A   1      47.004  28.952  31.290  1.00  0.00     0.031 C 
ATOM     66  C   UNL A   1      46.571  26.762  30.213  1.00  0.00     0.031 A 
BRANCH  53  67
ATOM     67  C   UNL A   1      42.150  23.361  27.566  1.00  0.00    -0.014 A 
ATOM     68  C   UNL A   1      42.374  23.086  26.207  1.00  0.00     0.009 A 
ATOM     69  C   UNL A   1      41.555  22.377  28.370  1.00  0.00     0.009 A 
ATOM     70  C   UNL A   1      41.974  21.867  25.657  1.00  0.00     0.001 A 
ATOM     71  C   UNL A   1      41.179  21.149  27.823  1.00  0.00     0.001 A 
ATOM     72  C   UNL A   1      41.381  20.899  26.466  1.00  0.00     0.000 A 
ENDBRANCH  53  67
BRANCH  54  73
ATOM     73  C   UNL A   1      44.282  32.116  31.839  1.00  0.00    -0.014 A 
ATOM     74  C   UNL A   1      44.095  32.268  33.223  1.00  0.00     0.009 A 
ATOM     75  C   UNL A   1      44.770  33.203  31.097  1.00  0.00     0.009 A 
ATOM     76  C   UNL A   1      44.369  33.489  33.844  1.00  0.00     0.001 A 
ATOM     77  C   UNL A   1      45.065  34.415  31.725  1.00  0.00     0.001 A 
ATOM     78  C   UNL A   1      44.857  34.559  33.096  1.00  0.00     0.000 A 
ENDBRANCH  54  73
BRANCH  66  79
ATOM     79  C   UNL A   1      48.006  26.403  30.471  1.00  0.00    -0.014 A 
ATOM     80  C   UNL A   1      48.392  25.777  31.666  1.00  0.00     0.009 A 
ATOM     81  C   UNL A   1      48.973  26.651  29.485  1.00  0.00     0.009 A 
ATOM     82  C   UNL A   1      49.727  25.428  31.877  1.00  0.00     0.001 A 
ATOM     83  C   UNL A   1      50.302  26.278  29.689  1.00  0.00     0.001 A 
ATOM     84  C   UNL A   1      50.679  25.674  30.888  1.00  0.00     0.000 A 
ENDBRANCH  66  79
ENDBRANCH  40  41
ENDBRANCH  32  35
ENDBRANCH  30  31
ENDBRANCH  29  30
ENDBRANCH  28  29
ENDBRANCH   1  28
TORSDOF 15
ENDMDL
