MODEL 1
REMARK VINA RESULT:     -11.9      0.000      0.000
REMARK SMILES CC1(C)[C@H](C(=O)Nc2ccc(NC(=O)C[NH+]3CCCCC3)cc2)[C@@H]1C(=O)NCCCCNC(=O)c1ccc(-c2c3nc(c(-c4ccccc4)c4ccc([nH]4)c(-c4ccccc4)c4nc(c(-c5ccccc5)c5ccc2[nH]5)C=C4)C=C3)cc1
REMARK SMILES IDX 28 1 27 2 25 3 26 4 24 6 1 7 2 8 3 9 4 10 5 11 6 12 7 13
REMARK SMILES IDX 8 15 9 16 23 17 10 18 22 19 11 20 12 21 13 22 14 24 15 25
REMARK SMILES IDX 16 26 17 27 21 28 18 30 20 31 19 32 29 33 30 34 31 35 32 36
REMARK SMILES IDX 33 37 34 39 35 40 36 41 82 42 37 43 81 44 38 45 39 46 40 47
REMARK SMILES IDX 75 48 41 49 80 50 74 51 76 52 42 53 79 54 73 55 72 56 43 58
REMARK SMILES IDX 65 59 50 60 64 61 51 62 54 63 63 64 77 65 52 66 53 67 62 69
REMARK SMILES IDX 78 70 55 71 44 72 45 73 49 74 46 75 48 76 47 77 66 78 67 79
REMARK SMILES IDX 71 80 68 81 70 82 69 83 56 84 57 85 61 86 58 87 60 88 59 89
REMARK H PARENT 27 5 7 14 12 23 16 29 32 38 76 57 54 68
REMARK Flexibility Score: inf
ROOT
ATOM      1  C   UNL A   1      37.461  21.989  25.618  1.00  0.00     0.116 C 
ENDROOT
BRANCH   1   2
ATOM      2  N   UNL A   1      36.326  21.765  26.488  1.00  0.00    -0.356 N 
ATOM      3  C   UNL A   1      35.017  21.541  26.140  1.00  0.00     0.224 C 
ATOM      4  O   UNL A   1      34.179  21.372  27.012  1.00  0.00    -0.275 OA
ATOM      5  H   UNL A   1      36.516  21.774  27.454  1.00  0.00     0.163 HD
BRANCH   3   6
ATOM      6  C   UNL A   1      34.636  21.667  24.716  1.00  0.00     0.098 C 
ATOM      7  C   UNL A   1      34.674  23.252  22.647  1.00  0.00     0.013 C 
ATOM      8  C   UNL A   1      34.184  22.980  24.061  1.00  0.00    -0.011 C 
ATOM      9  C   UNL A   1      34.057  24.251  24.840  1.00  0.00     0.013 C 
ATOM     10  C   UNL A   1      33.232  21.813  24.182  1.00  0.00     0.098 C 
BRANCH  10  11
ATOM     11  C   UNL A   1      31.958  21.530  24.903  1.00  0.00     0.228 C 
ATOM     12  O   UNL A   1      31.853  20.383  25.354  1.00  0.00    -0.274 OA
ATOM     13  N   UNL A   1      30.968  22.385  25.303  1.00  0.00    -0.326 N 
ATOM     14  H   UNL A   1      30.380  22.005  25.994  1.00  0.00     0.169 HD
BRANCH  13  15
ATOM     15  C   UNL A   1      30.623  23.674  24.938  1.00  0.00     0.041 A 
ATOM     16  C   UNL A   1      30.610  23.990  23.587  1.00  0.00     0.028 A 
ATOM     17  C   UNL A   1      30.443  24.677  25.879  1.00  0.00     0.028 A 
ATOM     18  C   UNL A   1      30.185  25.250  23.173  1.00  0.00     0.028 A 
ATOM     19  C   UNL A   1      30.062  25.958  25.460  1.00  0.00     0.028 A 
ATOM     20  C   UNL A   1      29.910  26.251  24.100  1.00  0.00     0.041 A 
BRANCH  20  21
ATOM     21  N   UNL A   1      29.439  27.531  23.760  1.00  0.00    -0.321 N 
ATOM     22  C   UNL A   1      30.078  28.671  23.347  1.00  0.00     0.279 C 
ATOM     23  H   UNL A   1      28.462  27.627  23.834  1.00  0.00     0.170 HD
ATOM     24  O   UNL A   1      29.377  29.607  22.941  1.00  0.00    -0.268 OA
BRANCH  22  25
ATOM     25  C   UNL A   1      31.604  28.833  23.421  1.00  0.00     0.363 C 
BRANCH  25  26
ATOM     26  N   UNL A   1      32.092  28.555  24.781  1.00  0.00    -0.327 N 
ATOM     27  C   UNL A   1      33.515  28.228  24.833  1.00  0.00     0.262 C 
ATOM     28  C   UNL A   1      31.750  29.623  25.726  1.00  0.00     0.262 C 
ATOM     29  H   UNL A   1      31.596  27.715  25.079  1.00  0.00     0.348 HD
ATOM     30  C   UNL A   1      33.851  27.683  26.222  1.00  0.00     0.062 C 
ATOM     31  C   UNL A   1      32.051  29.174  27.157  1.00  0.00     0.062 C 
ATOM     32  C   UNL A   1      33.492  28.692  27.309  1.00  0.00     0.012 C 
ENDBRANCH  25  26
ENDBRANCH  22  25
ENDBRANCH  20  21
ENDBRANCH  13  15
ENDBRANCH  10  11
ENDBRANCH   3   6
ENDBRANCH   1   2
BRANCH   1  33
ATOM     33  C   UNL A   1      37.603  20.913  24.545  1.00  0.00     0.023 C 
BRANCH  33  34
ATOM     34  C   UNL A   1      38.301  19.621  24.977  1.00  0.00     0.023 C 
BRANCH  34  35
ATOM     35  C   UNL A   1      39.322  19.743  26.102  1.00  0.00     0.116 C 
BRANCH  35  36
ATOM     36  N   UNL A   1      40.589  19.099  25.809  1.00  0.00    -0.352 N 
ATOM     37  C   UNL A   1      41.872  19.575  25.928  1.00  0.00     0.251 C 
ATOM     38  H   UNL A   1      40.518  18.176  25.474  1.00  0.00     0.163 HD
ATOM     39  O   UNL A   1      42.810  18.891  25.525  1.00  0.00    -0.269 OA
BRANCH  37  40
ATOM     40  C   UNL A   1      42.141  20.911  26.509  1.00  0.00     0.039 A 
ATOM     41  C   UNL A   1      42.523  21.944  25.646  1.00  0.00     0.014 A 
ATOM     42  C   UNL A   1      42.066  21.147  27.883  1.00  0.00     0.014 A 
ATOM     43  C   UNL A   1      42.780  23.221  26.155  1.00  0.00     0.010 A 
ATOM     44  C   UNL A   1      42.251  22.438  28.381  1.00  0.00     0.010 A 
ATOM     45  C   UNL A   1      42.625  23.486  27.524  1.00  0.00    -0.014 A 
BRANCH  45  46
ATOM     46  C   UNL A   1      42.893  24.839  28.075  1.00  0.00     0.031 A 
ATOM     47  C   UNL A   1      44.297  25.243  28.441  1.00  0.00     0.074 A 
ATOM     48  C   UNL A   1      41.877  25.700  28.280  1.00  0.00     0.049 A 
ATOM     49  N   UNL A   1      44.727  26.368  28.955  1.00  0.00    -0.248 NA
ATOM     50  C   UNL A   1      45.353  24.241  28.225  1.00  0.00     0.031 C 
ATOM     51  C   UNL A   1      40.465  25.428  28.004  1.00  0.00     0.029 A 
ATOM     52  N   UNL A   1      41.878  26.983  28.770  1.00  0.00    -0.354 N 
ATOM     53  C   UNL A   1      46.095  26.201  29.140  1.00  0.00     0.074 A 
ATOM     54  C   UNL A   1      46.413  24.851  28.733  1.00  0.00     0.031 C 
ATOM     55  C   UNL A   1      39.741  26.521  28.299  1.00  0.00     0.029 A 
ATOM     56  C   UNL A   1      40.631  27.557  28.812  1.00  0.00     0.049 A 
ATOM     57  H   UNL A   1      42.696  27.447  29.062  1.00  0.00     0.167 HD
ATOM     58  C   UNL A   1      47.009  27.095  29.586  1.00  0.00     0.031 A 
ATOM     59  C   UNL A   1      40.246  28.784  29.214  1.00  0.00     0.031 A 
ATOM     60  C   UNL A   1      46.703  28.446  29.971  1.00  0.00     0.049 A 
ATOM     61  C   UNL A   1      41.282  29.764  29.692  1.00  0.00     0.074 A 
ATOM     62  C   UNL A   1      47.569  29.442  30.390  1.00  0.00     0.029 A 
ATOM     63  N   UNL A   1      45.430  28.995  29.977  1.00  0.00    -0.354 N 
ATOM     64  N   UNL A   1      42.579  29.608  29.805  1.00  0.00    -0.248 NA
ATOM     65  C   UNL A   1      40.800  31.098  30.079  1.00  0.00     0.031 C 
ATOM     66  C   UNL A   1      46.815  30.582  30.687  1.00  0.00     0.029 A 
ATOM     67  C   UNL A   1      45.487  30.312  30.402  1.00  0.00     0.049 A 
ATOM     68  H   UNL A   1      44.609  28.519  29.718  1.00  0.00     0.167 HD
ATOM     69  C   UNL A   1      43.071  30.833  30.237  1.00  0.00     0.074 A 
ATOM     70  C   UNL A   1      41.935  31.723  30.357  1.00  0.00     0.031 C 
ATOM     71  C   UNL A   1      44.351  31.189  30.506  1.00  0.00     0.031 A 
BRANCH  58  72
ATOM     72  C   UNL A   1      48.436  26.630  29.680  1.00  0.00    -0.014 A 
ATOM     73  C   UNL A   1      49.331  26.807  28.613  1.00  0.00     0.009 A 
ATOM     74  C   UNL A   1      48.898  26.027  30.860  1.00  0.00     0.009 A 
ATOM     75  C   UNL A   1      50.648  26.351  28.709  1.00  0.00     0.001 A 
ATOM     76  C   UNL A   1      50.223  25.600  30.964  1.00  0.00     0.001 A 
ATOM     77  C   UNL A   1      51.093  25.752  29.886  1.00  0.00     0.000 A 
ENDBRANCH  58  72
BRANCH  59  78
ATOM     78  C   UNL A   1      38.814  29.177  29.147  1.00  0.00    -0.014 A 
ATOM     79  C   UNL A   1      38.281  29.720  27.968  1.00  0.00     0.009 A 
ATOM     80  C   UNL A   1      37.978  29.024  30.263  1.00  0.00     0.009 A 
ATOM     81  C   UNL A   1      36.947  30.132  27.918  1.00  0.00     0.001 A 
ATOM     82  C   UNL A   1      36.637  29.411  30.202  1.00  0.00     0.001 A 
ATOM     83  C   UNL A   1      36.127  29.974  29.034  1.00  0.00     0.000 A 
ENDBRANCH  59  78
BRANCH  71  84
ATOM     84  C   UNL A   1      44.598  32.618  30.903  1.00  0.00    -0.014 A 
ATOM     85  C   UNL A   1      44.571  33.022  32.246  1.00  0.00     0.009 A 
ATOM     86  C   UNL A   1      44.894  33.567  29.911  1.00  0.00     0.009 A 
ATOM     87  C   UNL A   1      44.800  34.358  32.584  1.00  0.00     0.001 A 
ATOM     88  C   UNL A   1      45.150  34.895  30.255  1.00  0.00     0.001 A 
ATOM     89  C   UNL A   1      45.092  35.292  31.590  1.00  0.00     0.000 A 
ENDBRANCH  71  84
ENDBRANCH  45  46
ENDBRANCH  37  40
ENDBRANCH  35  36
ENDBRANCH  34  35
ENDBRANCH  33  34
ENDBRANCH   1  33
TORSDOF 16
ENDMDL
MODEL 2
REMARK VINA RESULT:     -11.8      3.265      9.079
REMARK SMILES CC1(C)[C@H](C(=O)Nc2ccc(NC(=O)C[NH+]3CCCCC3)cc2)[C@@H]1C(=O)NCCCCNC(=O)c1ccc(-c2c3nc(c(-c4ccccc4)c4ccc([nH]4)c(-c4ccccc4)c4nc(c(-c5ccccc5)c5ccc2[nH]5)C=C4)C=C3)cc1
REMARK SMILES IDX 28 1 27 2 25 3 26 4 24 6 1 7 2 8 3 9 4 10 5 11 6 12 7 13
REMARK SMILES IDX 8 15 9 16 23 17 10 18 22 19 11 20 12 21 13 22 14 24 15 25
REMARK SMILES IDX 16 26 17 27 21 28 18 30 20 31 19 32 29 33 30 34 31 35 32 36
REMARK SMILES IDX 33 37 34 39 35 40 36 41 82 42 37 43 81 44 38 45 39 46 40 47
REMARK SMILES IDX 75 48 41 49 80 50 74 51 76 52 42 53 79 54 73 55 72 56 43 58
REMARK SMILES IDX 65 59 50 60 64 61 51 62 54 63 63 64 77 65 52 66 53 67 62 69
REMARK SMILES IDX 78 70 55 71 44 72 45 73 49 74 46 75 48 76 47 77 66 78 67 79
REMARK SMILES IDX 71 80 68 81 70 82 69 83 56 84 57 85 61 86 58 87 60 88 59 89
REMARK H PARENT 27 5 7 14 12 23 16 29 32 38 76 57 54 68
REMARK Flexibility Score: inf
ROOT
ATOM      1  C   UNL A   1      33.892  29.717  27.043  1.00  0.00     0.116 C 
ENDROOT
BRANCH   1   2
ATOM      2  N   UNL A   1      34.027  29.705  25.602  1.00  0.00    -0.356 N 
ATOM      3  C   UNL A   1      33.124  29.265  24.667  1.00  0.00     0.224 C 
ATOM      4  O   UNL A   1      33.405  29.326  23.479  1.00  0.00    -0.275 OA
ATOM      5  H   UNL A   1      34.874  30.059  25.247  1.00  0.00     0.163 HD
BRANCH   3   6
ATOM      6  C   UNL A   1      31.900  28.582  25.137  1.00  0.00     0.098 C 
ATOM      7  C   UNL A   1      30.984  26.746  26.745  1.00  0.00     0.013 C 
ATOM      8  C   UNL A   1      31.842  27.101  25.540  1.00  0.00    -0.011 C 
ATOM      9  C   UNL A   1      33.040  26.209  25.451  1.00  0.00     0.013 C 
ATOM     10  C   UNL A   1      31.068  27.604  24.344  1.00  0.00     0.098 C 
BRANCH  10  11
ATOM     11  C   UNL A   1      31.096  27.382  22.870  1.00  0.00     0.228 C 
ATOM     12  O   UNL A   1      30.873  28.385  22.183  1.00  0.00    -0.274 OA
ATOM     13  N   UNL A   1      31.507  26.290  22.155  1.00  0.00    -0.326 N 
ATOM     14  H   UNL A   1      31.690  26.490  21.209  1.00  0.00     0.169 HD
BRANCH  13  15
ATOM     15  C   UNL A   1      31.720  24.964  22.486  1.00  0.00     0.041 A 
ATOM     16  C   UNL A   1      32.866  24.345  22.008  1.00  0.00     0.028 A 
ATOM     17  C   UNL A   1      30.757  24.211  23.142  1.00  0.00     0.028 A 
ATOM     18  C   UNL A   1      33.160  23.039  22.388  1.00  0.00     0.028 A 
ATOM     19  C   UNL A   1      31.033  22.881  23.484  1.00  0.00     0.028 A 
ATOM     20  C   UNL A   1      32.250  22.288  23.125  1.00  0.00     0.041 A 
BRANCH  20  21
ATOM     21  N   UNL A   1      32.493  20.980  23.580  1.00  0.00    -0.321 N 
ATOM     22  C   UNL A   1      32.898  20.483  24.791  1.00  0.00     0.279 C 
ATOM     23  H   UNL A   1      32.343  20.288  22.896  1.00  0.00     0.170 HD
ATOM     24  O   UNL A   1      32.851  19.257  24.953  1.00  0.00    -0.268 OA
BRANCH  22  25
ATOM     25  C   UNL A   1      33.444  21.384  25.910  1.00  0.00     0.363 C 
BRANCH  25  26
ATOM     26  N   UNL A   1      34.685  22.049  25.484  1.00  0.00    -0.327 N 
ATOM     27  C   UNL A   1      35.129  23.094  26.404  1.00  0.00     0.262 C 
ATOM     28  C   UNL A   1      35.759  21.094  25.194  1.00  0.00     0.262 C 
ATOM     29  H   UNL A   1      34.452  22.520  24.610  1.00  0.00     0.348 HD
ATOM     30  C   UNL A   1      36.242  23.904  25.737  1.00  0.00     0.062 C 
ATOM     31  C   UNL A   1      36.930  21.812  24.520  1.00  0.00     0.062 C 
ATOM     32  C   UNL A   1      37.410  23.008  25.338  1.00  0.00     0.012 C 
ENDBRANCH  25  26
ENDBRANCH  22  25
ENDBRANCH  20  21
ENDBRANCH  13  15
ENDBRANCH  10  11
ENDBRANCH   3   6
ENDBRANCH   1   2
BRANCH   1  33
ATOM     33  C   UNL A   1      33.982  31.122  27.633  1.00  0.00     0.023 C 
BRANCH  33  34
ATOM     34  C   UNL A   1      32.687  31.939  27.621  1.00  0.00     0.023 C 
BRANCH  34  35
ATOM     35  C   UNL A   1      32.776  33.344  27.036  1.00  0.00     0.116 C 
BRANCH  35  36
ATOM     36  N   UNL A   1      32.474  34.393  27.993  1.00  0.00    -0.352 N 
ATOM     37  C   UNL A   1      33.132  34.758  29.142  1.00  0.00     0.251 C 
ATOM     38  H   UNL A   1      31.673  34.927  27.785  1.00  0.00     0.163 HD
ATOM     39  O   UNL A   1      32.644  35.620  29.869  1.00  0.00    -0.269 OA
BRANCH  37  40
ATOM     40  C   UNL A   1      34.405  34.110  29.533  1.00  0.00     0.039 A 
ATOM     41  C   UNL A   1      34.416  33.309  30.681  1.00  0.00     0.014 A 
ATOM     42  C   UNL A   1      35.587  34.312  28.818  1.00  0.00     0.014 A 
ATOM     43  C   UNL A   1      35.596  32.676  31.080  1.00  0.00     0.010 A 
ATOM     44  C   UNL A   1      36.746  33.622  29.175  1.00  0.00     0.010 A 
ATOM     45  C   UNL A   1      36.767  32.808  30.319  1.00  0.00    -0.014 A 
BRANCH  45  46
ATOM     46  C   UNL A   1      38.027  32.137  30.732  1.00  0.00     0.031 A 
ATOM     47  C   UNL A   1      38.863  32.715  31.844  1.00  0.00     0.074 A 
ATOM     48  C   UNL A   1      38.444  31.026  30.093  1.00  0.00     0.049 A 
ATOM     49  N   UNL A   1      40.001  32.288  32.331  1.00  0.00    -0.248 NA
ATOM     50  C   UNL A   1      38.367  33.949  32.474  1.00  0.00     0.031 C 
ATOM     51  C   UNL A   1      37.751  30.379  28.977  1.00  0.00     0.029 A 
ATOM     52  N   UNL A   1      39.554  30.244  30.294  1.00  0.00    -0.354 N 
ATOM     53  C   UNL A   1      40.364  33.210  33.306  1.00  0.00     0.074 A 
ATOM     54  C   UNL A   1      39.354  34.244  33.306  1.00  0.00     0.031 C 
ATOM     55  C   UNL A   1      38.436  29.282  28.613  1.00  0.00     0.029 A 
ATOM     56  C   UNL A   1      39.628  29.165  29.446  1.00  0.00     0.049 A 
ATOM     57  H   UNL A   1      40.232  30.438  30.981  1.00  0.00     0.167 HD
ATOM     58  C   UNL A   1      41.428  33.188  34.144  1.00  0.00     0.031 A 
ATOM     59  C   UNL A   1      40.550  28.187  29.354  1.00  0.00     0.031 A 
ATOM     60  C   UNL A   1      42.424  32.151  34.166  1.00  0.00     0.049 A 
ATOM     61  C   UNL A   1      41.716  28.178  30.305  1.00  0.00     0.074 A 
ATOM     62  C   UNL A   1      43.512  32.017  35.010  1.00  0.00     0.029 A 
ATOM     63  N   UNL A   1      42.449  31.065  33.305  1.00  0.00    -0.354 N 
ATOM     64  N   UNL A   1      42.011  29.026  31.259  1.00  0.00    -0.248 NA
ATOM     65  C   UNL A   1      42.663  27.061  30.175  1.00  0.00     0.031 C 
ATOM     66  C   UNL A   1      44.219  30.869  34.636  1.00  0.00     0.029 A 
ATOM     67  C   UNL A   1      43.540  30.261  33.593  1.00  0.00     0.049 A 
ATOM     68  H   UNL A   1      41.789  30.891  32.596  1.00  0.00     0.167 HD
ATOM     69  C   UNL A   1      43.155  28.525  31.869  1.00  0.00     0.074 A 
ATOM     70  C   UNL A   1      43.493  27.296  31.182  1.00  0.00     0.031 C 
ATOM     71  C   UNL A   1      43.859  29.036  32.909  1.00  0.00     0.031 A 
BRANCH  58  72
ATOM     72  C   UNL A   1      41.564  34.331  35.111  1.00  0.00    -0.014 A 
ATOM     73  C   UNL A   1      42.247  35.506  34.758  1.00  0.00     0.009 A 
ATOM     74  C   UNL A   1      40.983  34.242  36.386  1.00  0.00     0.009 A 
ATOM     75  C   UNL A   1      42.382  36.551  35.675  1.00  0.00     0.001 A 
ATOM     76  C   UNL A   1      41.094  35.300  37.290  1.00  0.00     0.001 A 
ATOM     77  C   UNL A   1      41.802  36.448  36.938  1.00  0.00     0.000 A 
ENDBRANCH  58  72
BRANCH  59  78
ATOM     78  C   UNL A   1      40.393  27.107  28.345  1.00  0.00    -0.014 A 
ATOM     79  C   UNL A   1      39.676  25.942  28.659  1.00  0.00     0.009 A 
ATOM     80  C   UNL A   1      40.971  27.228  27.072  1.00  0.00     0.009 A 
ATOM     81  C   UNL A   1      39.567  24.906  27.728  1.00  0.00     0.001 A 
ATOM     82  C   UNL A   1      40.837  26.202  26.134  1.00  0.00     0.001 A 
ATOM     83  C   UNL A   1      40.144  25.039  26.466  1.00  0.00     0.000 A 
ENDBRANCH  59  78
BRANCH  71  84
ATOM     84  C   UNL A   1      45.033  28.238  33.403  1.00  0.00    -0.014 A 
ATOM     85  C   UNL A   1      46.326  28.450  32.905  1.00  0.00     0.009 A 
ATOM     86  C   UNL A   1      44.839  27.278  34.409  1.00  0.00     0.009 A 
ATOM     87  C   UNL A   1      47.398  27.690  33.379  1.00  0.00     0.001 A 
ATOM     88  C   UNL A   1      45.916  26.540  34.901  1.00  0.00     0.001 A 
ATOM     89  C   UNL A   1      47.193  26.738  34.378  1.00  0.00     0.000 A 
ENDBRANCH  71  84
ENDBRANCH  45  46
ENDBRANCH  37  40
ENDBRANCH  35  36
ENDBRANCH  34  35
ENDBRANCH  33  34
ENDBRANCH   1  33
TORSDOF 16
ENDMDL
MODEL 3
REMARK VINA RESULT:     -11.8      0.603      5.659
REMARK SMILES CC1(C)[C@H](C(=O)Nc2ccc(NC(=O)C[NH+]3CCCCC3)cc2)[C@@H]1C(=O)NCCCCNC(=O)c1ccc(-c2c3nc(c(-c4ccccc4)c4ccc([nH]4)c(-c4ccccc4)c4nc(c(-c5ccccc5)c5ccc2[nH]5)C=C4)C=C3)cc1
REMARK SMILES IDX 28 1 27 2 25 3 26 4 24 6 1 7 2 8 3 9 4 10 5 11 6 12 7 13
REMARK SMILES IDX 8 15 9 16 23 17 10 18 22 19 11 20 12 21 13 22 14 24 15 25
REMARK SMILES IDX 16 26 17 27 21 28 18 30 20 31 19 32 29 33 30 34 31 35 32 36
REMARK SMILES IDX 33 37 34 39 35 40 36 41 82 42 37 43 81 44 38 45 39 46 40 47
REMARK SMILES IDX 75 48 41 49 80 50 74 51 76 52 42 53 79 54 73 55 72 56 43 58
REMARK SMILES IDX 65 59 50 60 64 61 51 62 54 63 63 64 77 65 52 66 53 67 62 69
REMARK SMILES IDX 78 70 55 71 44 72 45 73 49 74 46 75 48 76 47 77 66 78 67 79
REMARK SMILES IDX 71 80 68 81 70 82 69 83 56 84 57 85 61 86 58 87 60 88 59 89
REMARK H PARENT 27 5 7 14 12 23 16 29 32 38 76 57 54 68
REMARK Flexibility Score: inf
ROOT
ATOM      1  C   UNL A   1      37.436  22.207  25.599  1.00  0.00     0.116 C 
ENDROOT
BRANCH   1   2
ATOM      2  N   UNL A   1      36.324  21.899  26.473  1.00  0.00    -0.356 N 
ATOM      3  C   UNL A   1      35.034  21.582  26.128  1.00  0.00     0.224 C 
ATOM      4  O   UNL A   1      34.213  21.351  27.003  1.00  0.00    -0.275 OA
ATOM      5  H   UNL A   1      36.517  21.919  27.438  1.00  0.00     0.163 HD
BRANCH   3   6
ATOM      6  C   UNL A   1      34.639  21.685  24.706  1.00  0.00     0.098 C 
ATOM      7  C   UNL A   1      34.650  23.238  22.613  1.00  0.00     0.013 C 
ATOM      8  C   UNL A   1      34.174  22.985  24.035  1.00  0.00    -0.011 C 
ATOM      9  C   UNL A   1      34.048  24.267  24.796  1.00  0.00     0.013 C 
ATOM     10  C   UNL A   1      33.229  21.815  24.183  1.00  0.00     0.098 C 
BRANCH  10  11
ATOM     11  C   UNL A   1      31.963  21.537  24.919  1.00  0.00     0.228 C 
ATOM     12  O   UNL A   1      31.859  20.390  25.371  1.00  0.00    -0.274 OA
ATOM     13  N   UNL A   1      30.982  22.395  25.332  1.00  0.00    -0.326 N 
ATOM     14  H   UNL A   1      30.400  22.017  26.030  1.00  0.00     0.169 HD
BRANCH  13  15
ATOM     15  C   UNL A   1      30.637  23.686  24.972  1.00  0.00     0.041 A 
ATOM     16  C   UNL A   1      30.601  24.001  23.621  1.00  0.00     0.028 A 
ATOM     17  C   UNL A   1      30.480  24.692  25.915  1.00  0.00     0.028 A 
ATOM     18  C   UNL A   1      30.175  25.263  23.214  1.00  0.00     0.028 A 
ATOM     19  C   UNL A   1      30.098  25.974  25.502  1.00  0.00     0.028 A 
ATOM     20  C   UNL A   1      29.923  26.266  24.144  1.00  0.00     0.041 A 
BRANCH  20  21
ATOM     21  N   UNL A   1      29.453  27.548  23.812  1.00  0.00    -0.321 N 
ATOM     22  C   UNL A   1      30.088  28.678  23.366  1.00  0.00     0.279 C 
ATOM     23  H   UNL A   1      28.481  27.655  23.921  1.00  0.00     0.170 HD
ATOM     24  O   UNL A   1      29.382  29.619  22.978  1.00  0.00    -0.268 OA
BRANCH  22  25
ATOM     25  C   UNL A   1      31.618  28.825  23.382  1.00  0.00     0.363 C 
BRANCH  25  26
ATOM     26  N   UNL A   1      32.144  28.640  24.743  1.00  0.00    -0.327 N 
ATOM     27  C   UNL A   1      33.574  28.340  24.778  1.00  0.00     0.262 C 
ATOM     28  C   UNL A   1      31.808  29.760  25.629  1.00  0.00     0.262 C 
ATOM     29  H   UNL A   1      31.671  27.813  25.106  1.00  0.00     0.348 HD
ATOM     30  C   UNL A   1      33.954  27.888  26.189  1.00  0.00     0.062 C 
ATOM     31  C   UNL A   1      32.153  29.406  27.076  1.00  0.00     0.062 C 
ATOM     32  C   UNL A   1      33.605  28.957  27.220  1.00  0.00     0.012 C 
ENDBRANCH  25  26
ENDBRANCH  22  25
ENDBRANCH  20  21
ENDBRANCH  13  15
ENDBRANCH  10  11
ENDBRANCH   3   6
ENDBRANCH   1   2
BRANCH   1  33
ATOM     33  C   UNL A   1      37.628  21.167  24.499  1.00  0.00     0.023 C 
BRANCH  33  34
ATOM     34  C   UNL A   1      38.297  19.857  24.921  1.00  0.00     0.023 C 
BRANCH  34  35
ATOM     35  C   UNL A   1      39.286  19.941  26.079  1.00  0.00     0.116 C 
BRANCH  35  36
ATOM     36  N   UNL A   1      40.481  19.141  25.882  1.00  0.00    -0.352 N 
ATOM     37  C   UNL A   1      41.806  19.481  26.013  1.00  0.00     0.251 C 
ATOM     38  H   UNL A   1      40.317  18.208  25.613  1.00  0.00     0.163 HD
ATOM     39  O   UNL A   1      42.672  18.669  25.697  1.00  0.00    -0.269 OA
BRANCH  37  40
ATOM     40  C   UNL A   1      42.206  20.820  26.503  1.00  0.00     0.039 A 
ATOM     41  C   UNL A   1      42.525  21.803  25.560  1.00  0.00     0.014 A 
ATOM     42  C   UNL A   1      42.312  21.106  27.866  1.00  0.00     0.014 A 
ATOM     43  C   UNL A   1      42.902  23.081  25.982  1.00  0.00     0.010 A 
ATOM     44  C   UNL A   1      42.617  22.402  28.285  1.00  0.00     0.010 A 
ATOM     45  C   UNL A   1      42.931  23.400  27.348  1.00  0.00    -0.014 A 
BRANCH  45  46
ATOM     46  C   UNL A   1      43.327  24.756  27.808  1.00  0.00     0.031 A 
ATOM     47  C   UNL A   1      42.274  25.786  28.122  1.00  0.00     0.074 A 
ATOM     48  C   UNL A   1      44.631  25.080  27.916  1.00  0.00     0.049 A 
ATOM     49  N   UNL A   1      42.422  27.027  28.513  1.00  0.00    -0.248 NA
ATOM     50  C   UNL A   1      40.872  25.376  27.947  1.00  0.00     0.031 C 
ATOM     51  C   UNL A   1      45.754  24.192  27.612  1.00  0.00     0.029 A 
ATOM     52  N   UNL A   1      45.230  26.249  28.315  1.00  0.00    -0.354 N 
ATOM     53  C   UNL A   1      41.137  27.548  28.612  1.00  0.00     0.074 A 
ATOM     54  C   UNL A   1      40.227  26.506  28.190  1.00  0.00     0.031 C 
ATOM     55  C   UNL A   1      46.905  24.838  27.864  1.00  0.00     0.029 A 
ATOM     56  C   UNL A   1      46.603  26.191  28.317  1.00  0.00     0.049 A 
ATOM     57  H   UNL A   1      44.723  27.052  28.574  1.00  0.00     0.167 HD
ATOM     58  C   UNL A   1      40.745  28.772  29.038  1.00  0.00     0.031 A 
ATOM     59  C   UNL A   1      47.517  27.123  28.653  1.00  0.00     0.031 A 
ATOM     60  C   UNL A   1      41.642  29.804  29.480  1.00  0.00     0.049 A 
ATOM     61  C   UNL A   1      47.056  28.471  29.135  1.00  0.00     0.074 A 
ATOM     62  C   UNL A   1      41.337  31.061  29.974  1.00  0.00     0.029 A 
ATOM     63  N   UNL A   1      43.024  29.696  29.488  1.00  0.00    -0.354 N 
ATOM     64  N   UNL A   1      45.835  28.925  29.278  1.00  0.00    -0.248 NA
ATOM     65  C   UNL A   1      48.104  29.426  29.522  1.00  0.00     0.031 C 
ATOM     66  C   UNL A   1      42.537  31.728  30.245  1.00  0.00     0.029 A 
ATOM     67  C   UNL A   1      43.586  30.867  29.969  1.00  0.00     0.049 A 
ATOM     68  H   UNL A   1      43.531  28.905  29.195  1.00  0.00     0.167 HD
ATOM     69  C   UNL A   1      45.966  30.203  29.807  1.00  0.00     0.074 A 
ATOM     70  C   UNL A   1      47.385  30.447  29.968  1.00  0.00     0.031 C 
ATOM     71  C   UNL A   1      44.997  31.093  30.135  1.00  0.00     0.031 A 
BRANCH  58  72
ATOM     72  C   UNL A   1      39.269  29.058  29.042  1.00  0.00    -0.014 A 
ATOM     73  C   UNL A   1      38.478  28.789  30.170  1.00  0.00     0.009 A 
ATOM     74  C   UNL A   1      38.663  29.625  27.909  1.00  0.00     0.009 A 
ATOM     75  C   UNL A   1      37.105  29.043  30.150  1.00  0.00     0.001 A 
ATOM     76  C   UNL A   1      37.295  29.905  27.903  1.00  0.00     0.001 A 
ATOM     77  C   UNL A   1      36.516  29.603  29.018  1.00  0.00     0.000 A 
ENDBRANCH  58  72
BRANCH  59  78
ATOM     78  C   UNL A   1      48.967  26.804  28.583  1.00  0.00    -0.014 A 
ATOM     79  C   UNL A   1      49.699  27.080  27.418  1.00  0.00     0.009 A 
ATOM     80  C   UNL A   1      49.621  26.210  29.672  1.00  0.00     0.009 A 
ATOM     81  C   UNL A   1      51.051  26.738  27.335  1.00  0.00     0.001 A 
ATOM     82  C   UNL A   1      50.980  25.895  29.596  1.00  0.00     0.001 A 
ATOM     83  C   UNL A   1      51.690  26.150  28.424  1.00  0.00     0.000 A 
ENDBRANCH  59  78
BRANCH  71  84
ATOM     84  C   UNL A   1      45.436  32.391  30.752  1.00  0.00    -0.014 A 
ATOM     85  C   UNL A   1      45.599  32.527  32.138  1.00  0.00     0.009 A 
ATOM     86  C   UNL A   1      45.721  33.487  29.921  1.00  0.00     0.009 A 
ATOM     87  C   UNL A   1      46.004  33.747  32.684  1.00  0.00     0.001 A 
ATOM     88  C   UNL A   1      46.152  34.697  30.467  1.00  0.00     0.001 A 
ATOM     89  C   UNL A   1      46.282  34.829  31.849  1.00  0.00     0.000 A 
ENDBRANCH  71  84
ENDBRANCH  45  46
ENDBRANCH  37  40
ENDBRANCH  35  36
ENDBRANCH  34  35
ENDBRANCH  33  34
ENDBRANCH   1  33
TORSDOF 16
ENDMDL
