MODEL 1
REMARK VINA RESULT:     -11.3      0.000      0.000
REMARK SMILES C[C@H]1[C@H]([NH+]2CCC(CC(=O)NCCCCNC(=O)c3ccc(-c4c5nc(c(-c6ccccc6)c6ccc([nH]6)c(-c6ccccc6)c6nc(c(-c7ccccc7)c7ccc4[nH]7)C=C6)C=C5)cc3)CC2)CCC[C@@H]1C
REMARK SMILES IDX 13 1 12 2 11 3 9 4 10 5 8 7 7 8 4 9 5 10 68 11 6 13 67 14
REMARK SMILES IDX 3 15 1 16 2 17 72 18 69 19 71 20 73 21 70 22 14 23 15 24
REMARK SMILES IDX 16 25 17 26 18 28 19 29 20 30 66 31 21 32 65 33 22 34 23 35
REMARK SMILES IDX 24 36 59 37 25 38 64 39 58 40 60 41 26 42 63 43 57 44 56 45
REMARK SMILES IDX 27 47 49 48 34 49 48 50 35 51 38 52 47 53 61 54 36 55 37 56
REMARK SMILES IDX 46 58 62 59 39 60 28 61 29 62 33 63 30 64 32 65 31 66 50 67
REMARK SMILES IDX 51 68 55 69 52 70 54 71 53 72 40 73 41 74 45 75 42 76 44 77
REMARK SMILES IDX 43 78
REMARK H PARENT 11 6 4 12 16 27 60 46 38 57
REMARK Flexibility Score: inf
ROOT
ATOM      1  C   UNL A   1      36.636  20.231  24.809  1.00  0.00     0.023 C 
ENDROOT
BRANCH   1   2
ATOM      2  C   UNL A   1      35.397  20.864  25.452  1.00  0.00     0.116 C 
BRANCH   2   3
ATOM      3  N   UNL A   1      34.263  19.960  25.357  1.00  0.00    -0.356 N 
ATOM      4  C   UNL A   1      32.995  20.174  24.902  1.00  0.00     0.220 C 
ATOM      5  O   UNL A   1      32.153  19.294  25.086  1.00  0.00    -0.275 OA
ATOM      6  H   UNL A   1      34.440  19.044  25.671  1.00  0.00     0.163 HD
BRANCH   4   7
ATOM      7  C   UNL A   1      32.643  21.451  24.162  1.00  0.00     0.104 C 
BRANCH   7   8
ATOM      8  C   UNL A   1      31.631  22.374  24.875  1.00  0.00     0.009 C 
ATOM      9  N   UNL A   1      31.300  25.134  25.969  1.00  0.00    -0.332 N 
ATOM     10  C   UNL A   1      30.648  24.723  24.725  1.00  0.00     0.262 C 
ATOM     11  C   UNL A   1      31.405  24.002  26.876  1.00  0.00     0.262 C 
ATOM     12  H   UNL A   1      30.661  25.808  26.390  1.00  0.00     0.348 HD
ATOM     13  C   UNL A   1      31.374  23.603  23.987  1.00  0.00     0.066 C 
ATOM     14  C   UNL A   1      32.124  22.802  26.258  1.00  0.00     0.066 C 
BRANCH   9  15
ATOM     15  C   UNL A   1      32.353  26.188  25.978  1.00  0.00     0.187 C 
ATOM     16  C   UNL A   1      34.028  25.636  24.076  1.00  0.00     0.014 C 
ATOM     17  C   UNL A   1      33.004  26.652  24.621  1.00  0.00     0.047 C 
ATOM     18  C   UNL A   1      33.771  28.017  24.673  1.00  0.00    -0.006 C 
ATOM     19  C   UNL A   1      31.845  27.382  26.822  1.00  0.00     0.065 C 
ATOM     20  C   UNL A   1      33.103  29.076  25.539  1.00  0.00     0.004 C 
ATOM     21  C   UNL A   1      34.018  28.578  23.264  1.00  0.00     0.008 C 
ATOM     22  C   UNL A   1      32.844  28.520  26.926  1.00  0.00     0.006 C 
ENDBRANCH   9  15
ENDBRANCH   7   8
ENDBRANCH   4   7
ENDBRANCH   2   3
ENDBRANCH   1   2
BRANCH   1  23
ATOM     23  C   UNL A   1      37.893  21.081  24.835  1.00  0.00     0.023 C 
BRANCH  23  24
ATOM     24  C   UNL A   1      38.828  20.812  26.004  1.00  0.00     0.116 C 
BRANCH  24  25
ATOM     25  N   UNL A   1      39.803  19.750  25.782  1.00  0.00    -0.352 N 
ATOM     26  C   UNL A   1      41.162  19.756  26.023  1.00  0.00     0.251 C 
ATOM     27  H   UNL A   1      39.442  18.914  25.407  1.00  0.00     0.163 HD
ATOM     28  O   UNL A   1      41.848  18.781  25.751  1.00  0.00    -0.269 OA
BRANCH  26  29
ATOM     29  C   UNL A   1      41.789  20.986  26.556  1.00  0.00     0.039 A 
ATOM     30  C   UNL A   1      42.246  21.954  25.660  1.00  0.00     0.014 A 
ATOM     31  C   UNL A   1      41.820  21.226  27.930  1.00  0.00     0.014 A 
ATOM     32  C   UNL A   1      42.624  23.210  26.140  1.00  0.00     0.010 A 
ATOM     33  C   UNL A   1      42.080  22.510  28.392  1.00  0.00     0.010 A 
ATOM     34  C   UNL A   1      42.479  23.518  27.503  1.00  0.00    -0.014 A 
BRANCH  34  35
ATOM     35  C   UNL A   1      42.731  24.887  28.023  1.00  0.00     0.031 A 
ATOM     36  C   UNL A   1      44.117  25.289  28.447  1.00  0.00     0.074 A 
ATOM     37  C   UNL A   1      41.699  25.737  28.202  1.00  0.00     0.049 A 
ATOM     38  N   UNL A   1      44.522  26.404  28.999  1.00  0.00    -0.248 NA
ATOM     39  C   UNL A   1      45.184  24.290  28.267  1.00  0.00     0.031 C 
ATOM     40  C   UNL A   1      40.293  25.448  27.908  1.00  0.00     0.029 A 
ATOM     41  N   UNL A   1      41.675  27.022  28.685  1.00  0.00    -0.354 N 
ATOM     42  C   UNL A   1      45.874  26.224  29.262  1.00  0.00     0.074 A 
ATOM     43  C   UNL A   1      46.208  24.875  28.865  1.00  0.00     0.031 C 
ATOM     44  C   UNL A   1      39.553  26.537  28.174  1.00  0.00     0.029 A 
ATOM     45  C   UNL A   1      40.422  27.587  28.693  1.00  0.00     0.049 A 
ATOM     46  H   UNL A   1      42.481  27.496  28.995  1.00  0.00     0.167 HD
ATOM     47  C   UNL A   1      46.767  27.109  29.764  1.00  0.00     0.031 A 
ATOM     48  C   UNL A   1      40.020  28.815  29.069  1.00  0.00     0.031 A 
ATOM     49  C   UNL A   1      46.447  28.465  30.117  1.00  0.00     0.049 A 
ATOM     50  C   UNL A   1      41.040  29.799  29.572  1.00  0.00     0.074 A 
ATOM     51  C   UNL A   1      47.297  29.465  30.554  1.00  0.00     0.029 A 
ATOM     52  N   UNL A   1      45.176  29.012  30.061  1.00  0.00    -0.354 N 
ATOM     53  N   UNL A   1      42.330  29.637  29.738  1.00  0.00    -0.248 NA
ATOM     54  C   UNL A   1      40.548  31.139  29.922  1.00  0.00     0.031 C 
ATOM     55  C   UNL A   1      46.531  30.611  30.797  1.00  0.00     0.029 A 
ATOM     56  C   UNL A   1      45.214  30.333  30.469  1.00  0.00     0.049 A 
ATOM     57  H   UNL A   1      44.365  28.531  29.776  1.00  0.00     0.167 HD
ATOM     58  C   UNL A   1      42.808  30.861  30.187  1.00  0.00     0.074 A 
ATOM     59  C   UNL A   1      41.673  31.758  30.250  1.00  0.00     0.031 C 
ATOM     60  C   UNL A   1      44.074  31.210  30.521  1.00  0.00     0.031 A 
BRANCH  47  61
ATOM     61  C   UNL A   1      48.180  26.632  29.946  1.00  0.00    -0.014 A 
ATOM     62  C   UNL A   1      48.588  26.007  31.136  1.00  0.00     0.009 A 
ATOM     63  C   UNL A   1      49.113  26.796  28.911  1.00  0.00     0.009 A 
ATOM     64  C   UNL A   1      49.912  25.595  31.301  1.00  0.00     0.001 A 
ATOM     65  C   UNL A   1      50.428  26.356  29.067  1.00  0.00     0.001 A 
ATOM     66  C   UNL A   1      50.829  25.766  30.265  1.00  0.00     0.000 A 
ENDBRANCH  47  61
BRANCH  48  67
ATOM     67  C   UNL A   1      38.590  29.203  28.950  1.00  0.00    -0.014 A 
ATOM     68  C   UNL A   1      38.089  29.693  27.733  1.00  0.00     0.009 A 
ATOM     69  C   UNL A   1      37.723  29.096  30.046  1.00  0.00     0.009 A 
ATOM     70  C   UNL A   1      36.756  30.094  27.626  1.00  0.00     0.001 A 
ATOM     71  C   UNL A   1      36.383  29.474  29.929  1.00  0.00     0.001 A 
ATOM     72  C   UNL A   1      35.903  29.981  28.722  1.00  0.00     0.000 A 
ENDBRANCH  48  67
BRANCH  60  73
ATOM     73  C   UNL A   1      44.300  32.631  30.951  1.00  0.00    -0.014 A 
ATOM     74  C   UNL A   1      44.588  33.637  30.016  1.00  0.00     0.009 A 
ATOM     75  C   UNL A   1      44.186  32.971  32.308  1.00  0.00     0.009 A 
ATOM     76  C   UNL A   1      44.792  34.951  30.438  1.00  0.00     0.001 A 
ATOM     77  C   UNL A   1      44.365  34.290  32.723  1.00  0.00     0.001 A 
ATOM     78  C   UNL A   1      44.676  35.278  31.789  1.00  0.00     0.000 A 
ENDBRANCH  60  73
ENDBRANCH  34  35
ENDBRANCH  26  29
ENDBRANCH  24  25
ENDBRANCH  23  24
ENDBRANCH   1  23
TORSDOF 13
ENDMDL
MODEL 2
REMARK VINA RESULT:     -11.2      0.432      5.990
REMARK SMILES C[C@H]1[C@H]([NH+]2CCC(CC(=O)NCCCCNC(=O)c3ccc(-c4c5nc(c(-c6ccccc6)c6ccc([nH]6)c(-c6ccccc6)c6nc(c(-c7ccccc7)c7ccc4[nH]7)C=C6)C=C5)cc3)CC2)CCC[C@@H]1C
REMARK SMILES IDX 13 1 12 2 11 3 9 4 10 5 8 7 7 8 4 9 5 10 68 11 6 13 67 14
REMARK SMILES IDX 3 15 1 16 2 17 72 18 69 19 71 20 73 21 70 22 14 23 15 24
REMARK SMILES IDX 16 25 17 26 18 28 19 29 20 30 66 31 21 32 65 33 22 34 23 35
REMARK SMILES IDX 24 36 59 37 25 38 64 39 58 40 60 41 26 42 63 43 57 44 56 45
REMARK SMILES IDX 27 47 49 48 34 49 48 50 35 51 38 52 47 53 61 54 36 55 37 56
REMARK SMILES IDX 46 58 62 59 39 60 28 61 29 62 33 63 30 64 32 65 31 66 50 67
REMARK SMILES IDX 51 68 55 69 52 70 54 71 53 72 40 73 41 74 45 75 42 76 44 77
REMARK SMILES IDX 43 78
REMARK H PARENT 11 6 4 12 16 27 60 46 38 57
REMARK Flexibility Score: inf
ROOT
ATOM      1  C   UNL A   1      36.577  20.385  25.070  1.00  0.00     0.023 C 
ENDROOT
BRANCH   1   2
ATOM      2  C   UNL A   1      35.226  21.072  25.300  1.00  0.00     0.116 C 
BRANCH   2   3
ATOM      3  N   UNL A   1      34.148  20.101  25.225  1.00  0.00    -0.356 N 
ATOM      4  C   UNL A   1      32.858  20.239  24.802  1.00  0.00     0.220 C 
ATOM      5  O   UNL A   1      32.077  19.308  25.000  1.00  0.00    -0.275 OA
ATOM      6  H   UNL A   1      34.388  19.196  25.530  1.00  0.00     0.163 HD
BRANCH   4   7
ATOM      7  C   UNL A   1      32.411  21.496  24.079  1.00  0.00     0.104 C 
BRANCH   7   8
ATOM      8  C   UNL A   1      31.486  22.432  24.885  1.00  0.00     0.009 C 
ATOM      9  N   UNL A   1      31.328  25.174  26.059  1.00  0.00    -0.332 N 
ATOM     10  C   UNL A   1      30.572  24.814  24.860  1.00  0.00     0.262 C 
ATOM     11  C   UNL A   1      31.462  24.018  26.932  1.00  0.00     0.262 C 
ATOM     12  H   UNL A   1      30.744  25.858  26.542  1.00  0.00     0.348 HD
ATOM     13  C   UNL A   1      31.204  23.690  24.046  1.00  0.00     0.066 C 
ATOM     14  C   UNL A   1      32.094  22.811  26.235  1.00  0.00     0.066 C 
BRANCH   9  15
ATOM     15  C   UNL A   1      32.412  26.195  26.012  1.00  0.00     0.187 C 
ATOM     16  C   UNL A   1      33.997  25.561  24.059  1.00  0.00     0.014 C 
ATOM     17  C   UNL A   1      33.026  26.617  24.625  1.00  0.00     0.047 C 
ATOM     18  C   UNL A   1      33.837  27.957  24.626  1.00  0.00    -0.006 C 
ATOM     19  C   UNL A   1      31.974  27.416  26.855  1.00  0.00     0.065 C 
ATOM     20  C   UNL A   1      33.235  29.051  25.499  1.00  0.00     0.004 C 
ATOM     21  C   UNL A   1      34.048  28.490  23.201  1.00  0.00     0.008 C 
ATOM     22  C   UNL A   1      33.011  28.524  26.904  1.00  0.00     0.006 C 
ENDBRANCH   9  15
ENDBRANCH   7   8
ENDBRANCH   4   7
ENDBRANCH   2   3
ENDBRANCH   1   2
BRANCH   1  23
ATOM     23  C   UNL A   1      37.748  21.315  24.811  1.00  0.00     0.023 C 
BRANCH  23  24
ATOM     24  C   UNL A   1      38.865  21.245  25.841  1.00  0.00     0.116 C 
BRANCH  24  25
ATOM     25  N   UNL A   1      39.736  20.081  25.727  1.00  0.00    -0.352 N 
ATOM     26  C   UNL A   1      41.064  19.953  26.080  1.00  0.00     0.251 C 
ATOM     27  H   UNL A   1      39.319  19.275  25.345  1.00  0.00     0.163 HD
ATOM     28  O   UNL A   1      41.662  18.904  25.891  1.00  0.00    -0.269 OA
BRANCH  26  29
ATOM     29  C   UNL A   1      41.775  21.129  26.631  1.00  0.00     0.039 A 
ATOM     30  C   UNL A   1      42.273  22.091  25.750  1.00  0.00     0.014 A 
ATOM     31  C   UNL A   1      41.844  21.332  28.009  1.00  0.00     0.014 A 
ATOM     32  C   UNL A   1      42.735  23.309  26.254  1.00  0.00     0.010 A 
ATOM     33  C   UNL A   1      42.190  22.585  28.498  1.00  0.00     0.010 A 
ATOM     34  C   UNL A   1      42.635  23.590  27.626  1.00  0.00    -0.014 A 
BRANCH  34  35
ATOM     35  C   UNL A   1      42.978  24.928  28.175  1.00  0.00     0.031 A 
ATOM     36  C   UNL A   1      41.897  25.949  28.400  1.00  0.00     0.074 A 
ATOM     37  C   UNL A   1      44.269  25.257  28.382  1.00  0.00     0.049 A 
ATOM     38  N   UNL A   1      42.005  27.193  28.793  1.00  0.00    -0.248 NA
ATOM     39  C   UNL A   1      40.516  25.533  28.105  1.00  0.00     0.031 C 
ATOM     40  C   UNL A   1      45.424  24.390  28.129  1.00  0.00     0.029 A 
ATOM     41  N   UNL A   1      44.830  26.420  28.849  1.00  0.00    -0.354 N 
ATOM     42  C   UNL A   1      40.716  27.712  28.756  1.00  0.00     0.074 A 
ATOM     43  C   UNL A   1      39.854  26.669  28.248  1.00  0.00     0.031 C 
ATOM     44  C   UNL A   1      46.547  25.034  28.485  1.00  0.00     0.029 A 
ATOM     45  C   UNL A   1      46.199  26.371  28.954  1.00  0.00     0.049 A 
ATOM     46  H   UNL A   1      44.300  27.215  29.088  1.00  0.00     0.167 HD
ATOM     47  C   UNL A   1      40.282  28.935  29.136  1.00  0.00     0.031 A 
ATOM     48  C   UNL A   1      47.076  27.296  29.386  1.00  0.00     0.031 A 
ATOM     49  C   UNL A   1      41.130  29.958  29.685  1.00  0.00     0.049 A 
ATOM     50  C   UNL A   1      46.563  28.629  29.855  1.00  0.00     0.074 A 
ATOM     51  C   UNL A   1      40.775  31.200  30.178  1.00  0.00     0.029 A 
ATOM     52  N   UNL A   1      42.504  29.848  29.822  1.00  0.00    -0.354 N 
ATOM     53  N   UNL A   1      45.331  29.074  29.888  1.00  0.00    -0.248 NA
ATOM     54  C   UNL A   1      47.564  29.580  30.361  1.00  0.00     0.031 C 
ATOM     55  C   UNL A   1      41.941  31.858  30.583  1.00  0.00     0.029 A 
ATOM     56  C   UNL A   1      43.015  31.006  30.380  1.00  0.00     0.049 A 
ATOM     57  H   UNL A   1      43.038  29.063  29.559  1.00  0.00     0.167 HD
ATOM     58  C   UNL A   1      45.404  30.345  30.442  1.00  0.00     0.074 A 
ATOM     59  C   UNL A   1      46.798  30.592  30.745  1.00  0.00     0.031 C 
ATOM     60  C   UNL A   1      44.405  31.230  30.676  1.00  0.00     0.031 A 
BRANCH  47  61
ATOM     61  C   UNL A   1      38.815  29.225  28.980  1.00  0.00    -0.014 A 
ATOM     62  C   UNL A   1      37.925  29.063  30.054  1.00  0.00     0.009 A 
ATOM     63  C   UNL A   1      38.319  29.679  27.749  1.00  0.00     0.009 A 
ATOM     64  C   UNL A   1      36.561  29.309  29.885  1.00  0.00     0.001 A 
ATOM     65  C   UNL A   1      36.960  29.953  27.591  1.00  0.00     0.001 A 
ATOM     66  C   UNL A   1      36.080  29.757  28.656  1.00  0.00     0.000 A 
ENDBRANCH  47  61
BRANCH  48  67
ATOM     67  C   UNL A   1      48.529  26.984  29.436  1.00  0.00    -0.014 A 
ATOM     68  C   UNL A   1      49.358  27.300  28.348  1.00  0.00     0.009 A 
ATOM     69  C   UNL A   1      49.092  26.365  30.561  1.00  0.00     0.009 A 
ATOM     70  C   UNL A   1      50.716  26.977  28.375  1.00  0.00     0.001 A 
ATOM     71  C   UNL A   1      50.457  26.065  30.595  1.00  0.00     0.001 A 
ATOM     72  C   UNL A   1      51.265  26.363  29.499  1.00  0.00     0.000 A 
ENDBRANCH  48  67
BRANCH  60  73
ATOM     73  C   UNL A   1      44.784  32.533  31.320  1.00  0.00    -0.014 A 
ATOM     74  C   UNL A   1      44.820  32.672  32.716  1.00  0.00     0.009 A 
ATOM     75  C   UNL A   1      45.146  33.625  30.515  1.00  0.00     0.009 A 
ATOM     76  C   UNL A   1      45.177  33.891  33.293  1.00  0.00     0.001 A 
ATOM     77  C   UNL A   1      45.528  34.834  31.095  1.00  0.00     0.001 A 
ATOM     78  C   UNL A   1      45.535  34.969  32.484  1.00  0.00     0.000 A 
ENDBRANCH  60  73
ENDBRANCH  34  35
ENDBRANCH  26  29
ENDBRANCH  24  25
ENDBRANCH  23  24
ENDBRANCH   1  23
TORSDOF 13
ENDMDL
MODEL 3
REMARK VINA RESULT:     -11.1      3.566      8.626
REMARK SMILES C[C@H]1[C@H]([NH+]2CCC(CC(=O)NCCCCNC(=O)c3ccc(-c4c5nc(c(-c6ccccc6)c6ccc([nH]6)c(-c6ccccc6)c6nc(c(-c7ccccc7)c7ccc4[nH]7)C=C6)C=C5)cc3)CC2)CCC[C@@H]1C
REMARK SMILES IDX 13 1 12 2 11 3 9 4 10 5 8 7 7 8 4 9 5 10 68 11 6 13 67 14
REMARK SMILES IDX 3 15 1 16 2 17 72 18 69 19 71 20 73 21 70 22 14 23 15 24
REMARK SMILES IDX 16 25 17 26 18 28 19 29 20 30 66 31 21 32 65 33 22 34 23 35
REMARK SMILES IDX 24 36 59 37 25 38 64 39 58 40 60 41 26 42 63 43 57 44 56 45
REMARK SMILES IDX 27 47 49 48 34 49 48 50 35 51 38 52 47 53 61 54 36 55 37 56
REMARK SMILES IDX 46 58 62 59 39 60 28 61 29 62 33 63 30 64 32 65 31 66 50 67
REMARK SMILES IDX 51 68 55 69 52 70 54 71 53 72 40 73 41 74 45 75 42 76 44 77
REMARK SMILES IDX 43 78
REMARK H PARENT 11 6 4 12 16 27 60 46 38 57
REMARK Flexibility Score: inf
ROOT
ATOM      1  C   UNL A   1      32.518  29.707  25.715  1.00  0.00     0.023 C 
ENDROOT
BRANCH   1   2
ATOM      2  C   UNL A   1      31.545  28.561  25.417  1.00  0.00     0.116 C 
BRANCH   2   3
ATOM      3  N   UNL A   1      30.746  28.870  24.243  1.00  0.00    -0.356 N 
ATOM      4  C   UNL A   1      30.189  28.046  23.309  1.00  0.00     0.220 C 
ATOM      5  O   UNL A   1      29.701  28.557  22.300  1.00  0.00    -0.275 OA
ATOM      6  H   UNL A   1      30.581  29.829  24.099  1.00  0.00     0.163 HD
BRANCH   4   7
ATOM      7  C   UNL A   1      30.145  26.546  23.527  1.00  0.00     0.104 C 
BRANCH   7   8
ATOM      8  C   UNL A   1      31.106  25.719  22.646  1.00  0.00     0.009 C 
ATOM      9  N   UNL A   1      33.697  24.234  22.709  1.00  0.00    -0.332 N 
ATOM     10  C   UNL A   1      32.416  23.530  22.661  1.00  0.00     0.262 C 
ATOM     11  C   UNL A   1      33.601  25.497  21.992  1.00  0.00     0.262 C 
ATOM     12  H   UNL A   1      34.345  23.637  22.196  1.00  0.00     0.348 HD
ATOM     13  C   UNL A   1      31.255  24.317  23.259  1.00  0.00     0.066 C 
ATOM     14  C   UNL A   1      32.471  26.392  22.502  1.00  0.00     0.066 C 
BRANCH   9  15
ATOM     15  C   UNL A   1      34.597  24.122  23.892  1.00  0.00     0.187 C 
ATOM     16  C   UNL A   1      33.297  25.019  25.949  1.00  0.00     0.014 C 
ATOM     17  C   UNL A   1      33.988  23.799  25.307  1.00  0.00     0.047 C 
ATOM     18  C   UNL A   1      35.009  23.296  26.383  1.00  0.00    -0.006 C 
ATOM     19  C   UNL A   1      35.769  23.179  23.529  1.00  0.00     0.065 C 
ATOM     20  C   UNL A   1      36.078  22.358  25.838  1.00  0.00     0.004 C 
ATOM     21  C   UNL A   1      34.296  22.636  27.572  1.00  0.00     0.008 C 
ATOM     22  C   UNL A   1      36.773  23.000  24.654  1.00  0.00     0.006 C 
ENDBRANCH   9  15
ENDBRANCH   7   8
ENDBRANCH   4   7
ENDBRANCH   2   3
ENDBRANCH   1   2
BRANCH   1  23
ATOM     23  C   UNL A   1      31.924  30.896  26.448  1.00  0.00     0.023 C 
BRANCH  23  24
ATOM     24  C   UNL A   1      32.923  31.735  27.230  1.00  0.00     0.116 C 
BRANCH  24  25
ATOM     25  N   UNL A   1      32.465  33.074  27.577  1.00  0.00    -0.352 N 
ATOM     26  C   UNL A   1      33.102  34.041  28.329  1.00  0.00     0.251 C 
ATOM     27  H   UNL A   1      31.579  33.324  27.228  1.00  0.00     0.163 HD
ATOM     28  O   UNL A   1      32.561  35.115  28.553  1.00  0.00    -0.269 OA
BRANCH  26  29
ATOM     29  C   UNL A   1      34.424  33.734  28.919  1.00  0.00     0.039 A 
ATOM     30  C   UNL A   1      34.478  33.037  30.128  1.00  0.00     0.014 A 
ATOM     31  C   UNL A   1      35.596  34.032  28.224  1.00  0.00     0.014 A 
ATOM     32  C   UNL A   1      35.703  32.538  30.578  1.00  0.00     0.010 A 
ATOM     33  C   UNL A   1      36.788  33.435  28.609  1.00  0.00     0.010 A 
ATOM     34  C   UNL A   1      36.856  32.676  29.787  1.00  0.00    -0.014 A 
BRANCH  34  35
ATOM     35  C   UNL A   1      38.141  32.031  30.163  1.00  0.00     0.031 A 
ATOM     36  C   UNL A   1      39.097  32.738  31.085  1.00  0.00     0.074 A 
ATOM     37  C   UNL A   1      38.491  30.856  29.603  1.00  0.00     0.049 A 
ATOM     38  N   UNL A   1      40.296  32.379  31.465  1.00  0.00    -0.248 NA
ATOM     39  C   UNL A   1      38.666  34.042  31.618  1.00  0.00     0.031 C 
ATOM     40  C   UNL A   1      37.694  30.100  28.632  1.00  0.00     0.029 A 
ATOM     41  N   UNL A   1      39.618  30.089  29.768  1.00  0.00    -0.354 N 
ATOM     42  C   UNL A   1      40.772  33.425  32.246  1.00  0.00     0.074 A 
ATOM     43  C   UNL A   1      39.759  34.455  32.239  1.00  0.00     0.031 C 
ATOM     44  C   UNL A   1      38.336  28.962  28.323  1.00  0.00     0.029 A 
ATOM     45  C   UNL A   1      39.605  28.923  29.041  1.00  0.00     0.049 A 
ATOM     46  H   UNL A   1      40.366  30.351  30.353  1.00  0.00     0.167 HD
ATOM     47  C   UNL A   1      41.934  33.511  32.933  1.00  0.00     0.031 A 
ATOM     48  C   UNL A   1      40.510  27.929  28.967  1.00  0.00     0.031 A 
ATOM     49  C   UNL A   1      42.923  32.469  32.979  1.00  0.00     0.049 A 
ATOM     50  C   UNL A   1      41.770  28.024  29.783  1.00  0.00     0.074 A 
ATOM     51  C   UNL A   1      44.096  32.426  33.712  1.00  0.00     0.029 A 
ATOM     52  N   UNL A   1      42.847  31.282  32.269  1.00  0.00    -0.354 N 
ATOM     53  N   UNL A   1      42.167  28.985  30.580  1.00  0.00    -0.248 NA
ATOM     54  C   UNL A   1      42.698  26.886  29.698  1.00  0.00     0.031 C 
ATOM     55  C   UNL A   1      44.748  31.223  33.418  1.00  0.00     0.029 A 
ATOM     56  C   UNL A   1      43.958  30.503  32.536  1.00  0.00     0.049 A 
ATOM     57  H   UNL A   1      42.112  31.031  31.664  1.00  0.00     0.167 HD
ATOM     58  C   UNL A   1      43.376  28.558  31.112  1.00  0.00     0.074 A 
ATOM     59  C   UNL A   1      43.639  27.245  30.560  1.00  0.00     0.031 C 
ATOM     60  C   UNL A   1      44.198  29.198  31.979  1.00  0.00     0.031 A 
BRANCH  47  61
ATOM     61  C   UNL A   1      42.188  34.779  33.700  1.00  0.00    -0.014 A 
ATOM     62  C   UNL A   1      41.783  34.911  35.039  1.00  0.00     0.009 A 
ATOM     63  C   UNL A   1      42.854  35.849  33.083  1.00  0.00     0.009 A 
ATOM     64  C   UNL A   1      42.001  36.104  35.729  1.00  0.00     0.001 A 
ATOM     65  C   UNL A   1      43.097  37.030  33.785  1.00  0.00     0.001 A 
ATOM     66  C   UNL A   1      42.661  37.161  35.103  1.00  0.00     0.000 A 
ENDBRANCH  47  61
BRANCH  48  67
ATOM     67  C   UNL A   1      40.245  26.737  28.121  1.00  0.00    -0.014 A 
ATOM     68  C   UNL A   1      40.778  26.656  26.825  1.00  0.00     0.009 A 
ATOM     69  C   UNL A   1      39.455  25.681  28.596  1.00  0.00     0.009 A 
ATOM     70  C   UNL A   1      40.502  25.555  26.012  1.00  0.00     0.001 A 
ATOM     71  C   UNL A   1      39.201  24.568  27.789  1.00  0.00     0.001 A 
ATOM     72  C   UNL A   1      39.716  24.510  26.496  1.00  0.00     0.000 A 
ENDBRANCH  48  67
BRANCH  60  73
ATOM     73  C   UNL A   1      45.440  28.470  32.406  1.00  0.00    -0.014 A 
ATOM     74  C   UNL A   1      46.645  28.610  31.700  1.00  0.00     0.009 A 
ATOM     75  C   UNL A   1      45.411  27.662  33.554  1.00  0.00     0.009 A 
ATOM     76  C   UNL A   1      47.788  27.926  32.116  1.00  0.00     0.001 A 
ATOM     77  C   UNL A   1      46.562  27.002  33.982  1.00  0.00     0.001 A 
ATOM     78  C   UNL A   1      47.748  27.127  33.258  1.00  0.00     0.000 A 
ENDBRANCH  60  73
ENDBRANCH  34  35
ENDBRANCH  26  29
ENDBRANCH  24  25
ENDBRANCH  23  24
ENDBRANCH   1  23
TORSDOF 13
ENDMDL
