MODEL 1
REMARK VINA RESULT:     -12.5      0.000      0.000
REMARK SMILES COc1ccc2c(c1)c(CC(=O)NCCCCNC(=O)c1ccc(-c3c4nc(c(-c5ccccc5)c5ccc([nH]5)c(-c5ccccc5)c5nc(c(-c6ccccc6)c6ccc3[nH]6)C=C5)C=C4)cc1)c(C(F)(F)F)n2C(=O)c1ccc(Cl)cc1
REMARK SMILES IDX 15 1 14 2 13 3 11 4 12 5 10 7 9 8 3 9 4 10 8 11 5 12 7 13
REMARK SMILES IDX 6 14 74 15 69 16 2 17 1 18 75 19 76 20 77 21 78 22 83 23
REMARK SMILES IDX 79 24 82 25 80 26 81 27 70 28 71 29 72 30 73 31 16 32 17 33
REMARK SMILES IDX 18 34 19 35 20 37 21 38 22 39 68 40 23 41 67 42 24 43 25 44
REMARK SMILES IDX 26 45 61 46 27 47 66 48 60 49 62 50 28 51 65 52 59 53 58 54
REMARK SMILES IDX 29 56 51 57 36 58 50 59 37 60 40 61 49 62 63 63 38 64 39 65
REMARK SMILES IDX 48 67 64 68 41 69 30 70 31 71 35 72 32 73 34 74 33 75 52 76
REMARK SMILES IDX 53 77 57 78 54 79 56 80 55 81 42 82 43 83 47 84 44 85 46 86
REMARK SMILES IDX 45 87
REMARK H PARENT 13 6 18 36 62 55 40 66
REMARK Flexibility Score: inf
ROOT
ATOM      1  C   UNL A   1      40.804  21.351  26.493  1.00  0.00     0.023 C 
ENDROOT
BRANCH   1   2
ATOM      2  C   UNL A   1      39.353  21.821  26.574  1.00  0.00     0.116 C 
BRANCH   2   3
ATOM      3  N   UNL A   1      38.756  21.973  25.263  1.00  0.00    -0.356 N 
ATOM      4  C   UNL A   1      37.450  21.803  24.901  1.00  0.00     0.224 C 
ATOM      5  O   UNL A   1      37.133  22.019  23.730  1.00  0.00    -0.275 OA
ATOM      6  H   UNL A   1      39.372  22.232  24.539  1.00  0.00     0.163 HD
BRANCH   4   7
ATOM      7  C   UNL A   1      36.417  21.403  25.946  1.00  0.00     0.138 C 
BRANCH   7   8
ATOM      8  C   UNL A   1      35.004  21.433  25.430  1.00  0.00     0.000 A 
ATOM      9  C   UNL A   1      33.761  18.144  23.939  1.00  0.00     0.119 A 
ATOM     10  C   UNL A   1      32.534  18.628  23.513  1.00  0.00     0.048 A 
ATOM     11  C   UNL A   1      34.645  18.994  24.604  1.00  0.00     0.057 A 
ATOM     12  C   UNL A   1      32.165  19.957  23.754  1.00  0.00     0.031 A 
ATOM     13  C   UNL A   1      34.298  20.339  24.856  1.00  0.00     0.008 A 
ATOM     14  C   UNL A   1      33.036  20.801  24.470  1.00  0.00     0.057 A 
ATOM     15  N   UNL A   1      32.890  22.095  24.991  1.00  0.00    -0.271 N 
ATOM     16  C   UNL A   1      34.160  22.539  25.357  1.00  0.00     0.135 A 
BRANCH   9  17
ATOM     17  O   UNL A   1      34.200  16.857  23.785  1.00  0.00    -0.497 OA
ATOM     18  C   UNL A   1      34.671  16.221  24.967  1.00  0.00     0.278 C 
ENDBRANCH   9  17
BRANCH  15  19
ATOM     19  C   UNL A   1      31.673  22.806  25.176  1.00  0.00     0.262 C 
ATOM     20  O   UNL A   1      30.796  22.282  25.858  1.00  0.00    -0.268 OA
BRANCH  19  21
ATOM     21  C   UNL A   1      31.352  24.106  24.569  1.00  0.00     0.040 A 
ATOM     22  C   UNL A   1      30.831  25.144  25.352  1.00  0.00     0.015 A 
ATOM     23  C   UNL A   1      31.527  24.265  23.190  1.00  0.00     0.015 A 
ATOM     24  C   UNL A   1      30.409  26.321  24.730  1.00  0.00     0.021 A 
ATOM     25  C   UNL A   1      31.112  25.448  22.578  1.00  0.00     0.021 A 
ATOM     26  C   UNL A   1      30.537  26.462  23.347  1.00  0.00     0.041 A 
ATOM     27  Cl  UNL A   1      29.959  27.889  22.579  1.00  0.00    -0.084 Cl
ENDBRANCH  19  21
ENDBRANCH  15  19
BRANCH  16  28
ATOM     28  C   UNL A   1      34.460  23.969  25.661  1.00  0.00     0.432 C 
ATOM     29  F   UNL A   1      33.715  24.436  26.691  1.00  0.00    -0.165 F 
ATOM     30  F   UNL A   1      35.760  24.104  26.047  1.00  0.00    -0.165 F 
ATOM     31  F   UNL A   1      34.317  24.800  24.603  1.00  0.00    -0.165 F 
ENDBRANCH  16  28
ENDBRANCH   7   8
ENDBRANCH   4   7
ENDBRANCH   2   3
ENDBRANCH   1   2
BRANCH   1  32
ATOM     32  C   UNL A   1      40.989  19.955  25.882  1.00  0.00     0.023 C 
BRANCH  32  33
ATOM     33  C   UNL A   1      42.357  19.320  26.141  1.00  0.00     0.116 C 
BRANCH  33  34
ATOM     34  N   UNL A   1      43.327  19.599  25.101  1.00  0.00    -0.352 N 
ATOM     35  C   UNL A   1      44.136  20.653  24.790  1.00  0.00     0.251 C 
ATOM     36  H   UNL A   1      43.426  18.851  24.469  1.00  0.00     0.163 HD
ATOM     37  O   UNL A   1      44.947  20.463  23.880  1.00  0.00    -0.269 OA
BRANCH  35  38
ATOM     38  C   UNL A   1      44.073  22.000  25.415  1.00  0.00     0.039 A 
ATOM     39  C   UNL A   1      44.627  22.351  26.646  1.00  0.00     0.014 A 
ATOM     40  C   UNL A   1      43.317  22.964  24.718  1.00  0.00     0.014 A 
ATOM     41  C   UNL A   1      44.359  23.595  27.206  1.00  0.00     0.010 A 
ATOM     42  C   UNL A   1      43.055  24.211  25.268  1.00  0.00     0.010 A 
ATOM     43  C   UNL A   1      43.535  24.503  26.537  1.00  0.00    -0.014 A 
BRANCH  43  44
ATOM     44  C   UNL A   1      43.264  25.774  27.199  1.00  0.00     0.031 A 
ATOM     45  C   UNL A   1      44.237  26.857  26.901  1.00  0.00     0.074 A 
ATOM     46  C   UNL A   1      42.178  25.997  27.964  1.00  0.00     0.049 A 
ATOM     47  N   UNL A   1      45.016  27.475  27.726  1.00  0.00    -0.248 NA
ATOM     48  C   UNL A   1      44.434  27.228  25.491  1.00  0.00     0.031 C 
ATOM     49  C   UNL A   1      40.996  25.142  28.104  1.00  0.00     0.029 A 
ATOM     50  N   UNL A   1      41.854  27.100  28.703  1.00  0.00    -0.354 N 
ATOM     51  C   UNL A   1      45.687  28.435  26.969  1.00  0.00     0.074 A 
ATOM     52  C   UNL A   1      45.390  28.152  25.589  1.00  0.00     0.031 C 
ATOM     53  C   UNL A   1      39.995  25.855  28.670  1.00  0.00     0.029 A 
ATOM     54  C   UNL A   1      40.521  27.144  29.084  1.00  0.00     0.049 A 
ATOM     55  H   UNL A   1      42.506  27.798  28.943  1.00  0.00     0.167 HD
ATOM     56  C   UNL A   1      46.246  29.532  27.549  1.00  0.00     0.031 A 
ATOM     57  C   UNL A   1      39.877  28.187  29.655  1.00  0.00     0.031 A 
ATOM     58  C   UNL A   1      46.393  29.373  28.968  1.00  0.00     0.049 A 
ATOM     59  C   UNL A   1      40.879  29.054  30.308  1.00  0.00     0.074 A 
ATOM     60  C   UNL A   1      47.244  28.703  29.816  1.00  0.00     0.029 A 
ATOM     61  N   UNL A   1      45.290  29.738  29.694  1.00  0.00    -0.354 N 
ATOM     62  N   UNL A   1      41.597  28.679  31.328  1.00  0.00    -0.248 NA
ATOM     63  C   UNL A   1      41.319  30.277  29.650  1.00  0.00     0.031 C 
ATOM     64  C   UNL A   1      46.501  28.472  31.011  1.00  0.00     0.029 A 
ATOM     65  C   UNL A   1      45.233  29.035  30.869  1.00  0.00     0.049 A 
ATOM     66  H   UNL A   1      44.630  30.412  29.411  1.00  0.00     0.167 HD
ATOM     67  C   UNL A   1      42.792  29.353  31.171  1.00  0.00     0.074 A 
ATOM     68  C   UNL A   1      42.499  30.445  30.253  1.00  0.00     0.031 C 
ATOM     69  C   UNL A   1      43.974  28.785  31.542  1.00  0.00     0.031 A 
BRANCH  56  70
ATOM     70  C   UNL A   1      46.229  30.909  26.920  1.00  0.00    -0.014 A 
ATOM     71  C   UNL A   1      45.046  31.591  26.583  1.00  0.00     0.009 A 
ATOM     72  C   UNL A   1      47.412  31.674  26.933  1.00  0.00     0.009 A 
ATOM     73  C   UNL A   1      45.031  32.959  26.292  1.00  0.00     0.001 A 
ATOM     74  C   UNL A   1      47.397  33.053  26.678  1.00  0.00     0.001 A 
ATOM     75  C   UNL A   1      46.204  33.695  26.363  1.00  0.00     0.000 A 
ENDBRANCH  56  70
BRANCH  57  76
ATOM     76  C   UNL A   1      38.498  28.644  29.394  1.00  0.00    -0.014 A 
ATOM     77  C   UNL A   1      38.158  29.133  28.119  1.00  0.00     0.009 A 
ATOM     78  C   UNL A   1      37.610  28.888  30.452  1.00  0.00     0.009 A 
ATOM     79  C   UNL A   1      36.998  29.886  27.919  1.00  0.00     0.001 A 
ATOM     80  C   UNL A   1      36.446  29.643  30.250  1.00  0.00     0.001 A 
ATOM     81  C   UNL A   1      36.152  30.157  28.989  1.00  0.00     0.000 A 
ENDBRANCH  57  76
BRANCH  69  82
ATOM     82  C   UNL A   1      43.939  27.663  32.545  1.00  0.00    -0.014 A 
ATOM     83  C   UNL A   1      43.867  28.003  33.905  1.00  0.00     0.009 A 
ATOM     84  C   UNL A   1      44.092  26.309  32.203  1.00  0.00     0.009 A 
ATOM     85  C   UNL A   1      43.961  27.026  34.897  1.00  0.00     0.001 A 
ATOM     86  C   UNL A   1      44.157  25.326  33.196  1.00  0.00     0.001 A 
ATOM     87  C   UNL A   1      44.104  25.686  34.543  1.00  0.00     0.000 A 
ENDBRANCH  69  82
ENDBRANCH  43  44
ENDBRANCH  35  38
ENDBRANCH  33  34
ENDBRANCH  32  33
ENDBRANCH   1  32
TORSDOF 16
ENDMDL
MODEL 2
REMARK VINA RESULT:     -12.3      2.850      7.930
REMARK SMILES COc1ccc2c(c1)c(CC(=O)NCCCCNC(=O)c1ccc(-c3c4nc(c(-c5ccccc5)c5ccc([nH]5)c(-c5ccccc5)c5nc(c(-c6ccccc6)c6ccc3[nH]6)C=C5)C=C4)cc1)c(C(F)(F)F)n2C(=O)c1ccc(Cl)cc1
REMARK SMILES IDX 15 1 14 2 13 3 11 4 12 5 10 7 9 8 3 9 4 10 8 11 5 12 7 13
REMARK SMILES IDX 6 14 74 15 69 16 2 17 1 18 75 19 76 20 77 21 78 22 83 23
REMARK SMILES IDX 79 24 82 25 80 26 81 27 70 28 71 29 72 30 73 31 16 32 17 33
REMARK SMILES IDX 18 34 19 35 20 37 21 38 22 39 68 40 23 41 67 42 24 43 25 44
REMARK SMILES IDX 26 45 61 46 27 47 66 48 60 49 62 50 28 51 65 52 59 53 58 54
REMARK SMILES IDX 29 56 51 57 36 58 50 59 37 60 40 61 49 62 63 63 38 64 39 65
REMARK SMILES IDX 48 67 64 68 41 69 30 70 31 71 35 72 32 73 34 74 33 75 52 76
REMARK SMILES IDX 53 77 57 78 54 79 56 80 55 81 42 82 43 83 47 84 44 85 46 86
REMARK SMILES IDX 45 87
REMARK H PARENT 13 6 18 36 62 55 40 66
REMARK Flexibility Score: inf
ROOT
ATOM      1  C   UNL A   1      31.578  27.536  25.503  1.00  0.00     0.023 C 
ENDROOT
BRANCH   1   2
ATOM      2  C   UNL A   1      30.435  26.523  25.479  1.00  0.00     0.116 C 
BRANCH   2   3
ATOM      3  N   UNL A   1      30.613  25.480  26.468  1.00  0.00    -0.356 N 
ATOM      4  C   UNL A   1      31.116  24.222  26.292  1.00  0.00     0.224 C 
ATOM      5  O   UNL A   1      31.222  23.489  27.278  1.00  0.00    -0.275 OA
ATOM      6  H   UNL A   1      30.335  25.706  27.386  1.00  0.00     0.163 HD
BRANCH   4   7
ATOM      7  C   UNL A   1      31.574  23.772  24.912  1.00  0.00     0.138 C 
BRANCH   7   8
ATOM      8  C   UNL A   1      32.923  23.105  24.919  1.00  0.00     0.000 A 
ATOM      9  C   UNL A   1      32.837  19.291  24.739  1.00  0.00     0.119 A 
ATOM     10  C   UNL A   1      34.204  19.105  24.878  1.00  0.00     0.048 A 
ATOM     11  C   UNL A   1      32.315  20.585  24.721  1.00  0.00     0.057 A 
ATOM     12  C   UNL A   1      35.069  20.201  24.987  1.00  0.00     0.031 A 
ATOM     13  C   UNL A   1      33.166  21.706  24.833  1.00  0.00     0.008 A 
ATOM     14  C   UNL A   1      34.548  21.507  24.917  1.00  0.00     0.057 A 
ATOM     15  N   UNL A   1      35.155  22.769  24.839  1.00  0.00    -0.271 N 
ATOM     16  C   UNL A   1      34.163  23.720  25.076  1.00  0.00     0.135 A 
BRANCH   9  17
ATOM     17  O   UNL A   1      31.915  18.292  24.590  1.00  0.00    -0.497 OA
ATOM     18  C   UNL A   1      32.302  17.016  25.087  1.00  0.00     0.278 C 
ENDBRANCH   9  17
BRANCH  15  19
ATOM     19  C   UNL A   1      36.512  23.043  24.516  1.00  0.00     0.262 C 
ATOM     20  O   UNL A   1      36.773  23.391  23.367  1.00  0.00    -0.268 OA
BRANCH  19  21
ATOM     21  C   UNL A   1      37.649  22.890  25.437  1.00  0.00     0.040 A 
ATOM     22  C   UNL A   1      38.082  23.972  26.212  1.00  0.00     0.015 A 
ATOM     23  C   UNL A   1      38.316  21.661  25.481  1.00  0.00     0.015 A 
ATOM     24  C   UNL A   1      39.244  23.841  26.976  1.00  0.00     0.021 A 
ATOM     25  C   UNL A   1      39.470  21.535  26.255  1.00  0.00     0.021 A 
ATOM     26  C   UNL A   1      39.940  22.630  26.983  1.00  0.00     0.041 A 
ATOM     27  Cl  UNL A   1      41.403  22.494  27.877  1.00  0.00    -0.084 Cl
ENDBRANCH  19  21
ENDBRANCH  15  19
BRANCH  16  28
ATOM     28  C   UNL A   1      34.469  25.149  25.381  1.00  0.00     0.432 C 
ATOM     29  F   UNL A   1      33.765  25.601  26.446  1.00  0.00    -0.165 F 
ATOM     30  F   UNL A   1      35.783  25.288  25.713  1.00  0.00    -0.165 F 
ATOM     31  F   UNL A   1      34.276  25.989  24.338  1.00  0.00    -0.165 F 
ENDBRANCH  16  28
ENDBRANCH   7   8
ENDBRANCH   4   7
ENDBRANCH   2   3
ENDBRANCH   1   2
BRANCH   1  32
ATOM     32  C   UNL A   1      31.636  28.404  26.767  1.00  0.00     0.023 C 
BRANCH  32  33
ATOM     33  C   UNL A   1      33.049  28.751  27.241  1.00  0.00     0.116 C 
BRANCH  33  34
ATOM     34  N   UNL A   1      33.210  30.148  27.595  1.00  0.00    -0.352 N 
ATOM     35  C   UNL A   1      34.273  30.969  27.829  1.00  0.00     0.251 C 
ATOM     36  H   UNL A   1      32.348  30.613  27.687  1.00  0.00     0.163 HD
ATOM     37  O   UNL A   1      34.011  32.166  27.975  1.00  0.00    -0.269 OA
BRANCH  35  38
ATOM     38  C   UNL A   1      35.686  30.530  27.974  1.00  0.00     0.039 A 
ATOM     39  C   UNL A   1      36.197  29.292  27.583  1.00  0.00     0.014 A 
ATOM     40  C   UNL A   1      36.543  31.432  28.639  1.00  0.00     0.014 A 
ATOM     41  C   UNL A   1      37.495  28.930  27.924  1.00  0.00     0.010 A 
ATOM     42  C   UNL A   1      37.843  31.078  28.973  1.00  0.00     0.010 A 
ATOM     43  C   UNL A   1      38.298  29.805  28.659  1.00  0.00    -0.014 A 
BRANCH  43  44
ATOM     44  C   UNL A   1      39.636  29.347  29.016  1.00  0.00     0.031 A 
ATOM     45  C   UNL A   1      39.843  29.087  30.464  1.00  0.00     0.074 A 
ATOM     46  C   UNL A   1      40.603  29.098  28.112  1.00  0.00     0.049 A 
ATOM     47  N   UNL A   1      40.667  29.676  31.268  1.00  0.00    -0.248 NA
ATOM     48  C   UNL A   1      38.952  28.116  31.118  1.00  0.00     0.031 C 
ATOM     49  C   UNL A   1      40.461  29.018  26.655  1.00  0.00     0.029 A 
ATOM     50  N   UNL A   1      41.909  28.755  28.317  1.00  0.00    -0.354 N 
ATOM     51  C   UNL A   1      40.522  29.036  32.498  1.00  0.00     0.074 A 
ATOM     52  C   UNL A   1      39.369  28.181  32.382  1.00  0.00     0.031 C 
ATOM     53  C   UNL A   1      41.554  28.417  26.135  1.00  0.00     0.029 A 
ATOM     54  C   UNL A   1      42.532  28.234  27.194  1.00  0.00     0.049 A 
ATOM     55  H   UNL A   1      42.365  28.867  29.183  1.00  0.00     0.167 HD
ATOM     56  C   UNL A   1      41.500  29.082  33.443  1.00  0.00     0.031 A 
ATOM     57  C   UNL A   1      43.748  27.645  27.142  1.00  0.00     0.031 A 
ATOM     58  C   UNL A   1      42.448  30.128  33.182  1.00  0.00     0.049 A 
ATOM     59  C   UNL A   1      44.541  28.109  28.299  1.00  0.00     0.074 A 
ATOM     60  C   UNL A   1      42.490  31.496  33.318  1.00  0.00     0.029 A 
ATOM     61  N   UNL A   1      43.476  29.765  32.352  1.00  0.00    -0.354 N 
ATOM     62  N   UNL A   1      44.923  29.344  28.458  1.00  0.00    -0.248 NA
ATOM     63  C   UNL A   1      44.683  27.255  29.471  1.00  0.00     0.031 C 
ATOM     64  C   UNL A   1      43.428  31.957  32.349  1.00  0.00     0.029 A 
ATOM     65  C   UNL A   1      43.954  30.855  31.674  1.00  0.00     0.049 A 
ATOM     66  H   UNL A   1      43.822  28.848  32.256  1.00  0.00     0.167 HD
ATOM     67  C   UNL A   1      44.939  29.523  29.827  1.00  0.00     0.074 A 
ATOM     68  C   UNL A   1      44.972  28.180  30.390  1.00  0.00     0.031 C 
ATOM     69  C   UNL A   1      44.603  30.721  30.384  1.00  0.00     0.031 A 
BRANCH  56  70
ATOM     70  C   UNL A   1      41.863  27.908  34.327  1.00  0.00    -0.014 A 
ATOM     71  C   UNL A   1      42.602  26.799  33.876  1.00  0.00     0.009 A 
ATOM     72  C   UNL A   1      41.724  28.043  35.722  1.00  0.00     0.009 A 
ATOM     73  C   UNL A   1      43.184  25.883  34.758  1.00  0.00     0.001 A 
ATOM     74  C   UNL A   1      42.336  27.147  36.611  1.00  0.00     0.001 A 
ATOM     75  C   UNL A   1      43.071  26.071  36.127  1.00  0.00     0.000 A 
ENDBRANCH  56  70
BRANCH  57  76
ATOM     76  C   UNL A   1      44.145  26.469  26.342  1.00  0.00    -0.014 A 
ATOM     77  C   UNL A   1      43.502  25.235  26.555  1.00  0.00     0.009 A 
ATOM     78  C   UNL A   1      45.337  26.472  25.603  1.00  0.00     0.009 A 
ATOM     79  C   UNL A   1      44.059  24.040  26.093  1.00  0.00     0.001 A 
ATOM     80  C   UNL A   1      45.894  25.273  25.139  1.00  0.00     0.001 A 
ATOM     81  C   UNL A   1      45.266  24.058  25.401  1.00  0.00     0.000 A 
ENDBRANCH  57  76
BRANCH  69  82
ATOM     82  C   UNL A   1      44.691  31.954  29.524  1.00  0.00    -0.014 A 
ATOM     83  C   UNL A   1      45.894  32.677  29.539  1.00  0.00     0.009 A 
ATOM     84  C   UNL A   1      43.605  32.479  28.806  1.00  0.00     0.009 A 
ATOM     85  C   UNL A   1      46.008  33.896  28.872  1.00  0.00     0.001 A 
ATOM     86  C   UNL A   1      43.728  33.688  28.112  1.00  0.00     0.001 A 
ATOM     87  C   UNL A   1      44.925  34.402  28.155  1.00  0.00     0.000 A 
ENDBRANCH  69  82
ENDBRANCH  43  44
ENDBRANCH  35  38
ENDBRANCH  33  34
ENDBRANCH  32  33
ENDBRANCH   1  32
TORSDOF 16
ENDMDL
MODEL 3
REMARK VINA RESULT:     -12.1      2.976      7.273
REMARK SMILES COc1ccc2c(c1)c(CC(=O)NCCCCNC(=O)c1ccc(-c3c4nc(c(-c5ccccc5)c5ccc([nH]5)c(-c5ccccc5)c5nc(c(-c6ccccc6)c6ccc3[nH]6)C=C5)C=C4)cc1)c(C(F)(F)F)n2C(=O)c1ccc(Cl)cc1
REMARK SMILES IDX 15 1 14 2 13 3 11 4 12 5 10 7 9 8 3 9 4 10 8 11 5 12 7 13
REMARK SMILES IDX 6 14 74 15 69 16 2 17 1 18 75 19 76 20 77 21 78 22 83 23
REMARK SMILES IDX 79 24 82 25 80 26 81 27 70 28 71 29 72 30 73 31 16 32 17 33
REMARK SMILES IDX 18 34 19 35 20 37 21 38 22 39 68 40 23 41 67 42 24 43 25 44
REMARK SMILES IDX 26 45 61 46 27 47 66 48 60 49 62 50 28 51 65 52 59 53 58 54
REMARK SMILES IDX 29 56 51 57 36 58 50 59 37 60 40 61 49 62 63 63 38 64 39 65
REMARK SMILES IDX 48 67 64 68 41 69 30 70 31 71 35 72 32 73 34 74 33 75 52 76
REMARK SMILES IDX 53 77 57 78 54 79 56 80 55 81 42 82 43 83 47 84 44 85 46 86
REMARK SMILES IDX 45 87
REMARK H PARENT 13 6 18 36 62 55 40 66
REMARK Flexibility Score: inf
ROOT
ATOM      1  C   UNL A   1      33.430  22.112  23.633  1.00  0.00     0.023 C 
ENDROOT
BRANCH   1   2
ATOM      2  C   UNL A   1      32.570  22.451  22.416  1.00  0.00     0.116 C 
BRANCH   2   3
ATOM      3  N   UNL A   1      32.962  23.705  21.807  1.00  0.00    -0.356 N 
ATOM      4  C   UNL A   1      32.439  24.950  22.017  1.00  0.00     0.224 C 
ATOM      5  O   UNL A   1      32.942  25.905  21.422  1.00  0.00    -0.275 OA
ATOM      6  H   UNL A   1      33.700  23.654  21.156  1.00  0.00     0.163 HD
BRANCH   4   7
ATOM      7  C   UNL A   1      31.295  25.138  23.003  1.00  0.00     0.138 C 
BRANCH   7   8
ATOM      8  C   UNL A   1      31.401  26.407  23.806  1.00  0.00     0.000 A 
ATOM      9  C   UNL A   1      29.236  29.293  22.554  1.00  0.00     0.119 A 
ATOM     10  C   UNL A   1      29.704  30.233  23.459  1.00  0.00     0.048 A 
ATOM     11  C   UNL A   1      29.725  27.987  22.600  1.00  0.00     0.057 A 
ATOM     12  C   UNL A   1      30.651  29.884  24.430  1.00  0.00     0.031 A 
ATOM     13  C   UNL A   1      30.683  27.611  23.567  1.00  0.00     0.008 A 
ATOM     14  C   UNL A   1      31.106  28.554  24.510  1.00  0.00     0.057 A 
ATOM     15  N   UNL A   1      31.908  27.879  25.442  1.00  0.00    -0.271 N 
ATOM     16  C   UNL A   1      32.260  26.655  24.874  1.00  0.00     0.135 A 
BRANCH   9  17
ATOM     17  O   UNL A   1      28.289  29.523  21.595  1.00  0.00    -0.497 OA
ATOM     18  C   UNL A   1      28.115  30.882  21.213  1.00  0.00     0.278 C 
ENDBRANCH   9  17
BRANCH  15  19
ATOM     19  C   UNL A   1      32.250  28.320  26.749  1.00  0.00     0.262 C 
ATOM     20  O   UNL A   1      31.668  27.810  27.702  1.00  0.00    -0.268 OA
BRANCH  19  21
ATOM     21  C   UNL A   1      33.215  29.387  27.056  1.00  0.00     0.040 A 
ATOM     22  C   UNL A   1      34.568  29.083  27.253  1.00  0.00     0.015 A 
ATOM     23  C   UNL A   1      32.745  30.697  27.198  1.00  0.00     0.015 A 
ATOM     24  C   UNL A   1      35.438  30.090  27.675  1.00  0.00     0.021 A 
ATOM     25  C   UNL A   1      33.624  31.700  27.610  1.00  0.00     0.021 A 
ATOM     26  C   UNL A   1      34.961  31.388  27.866  1.00  0.00     0.041 A 
ATOM     27  Cl  UNL A   1      36.024  32.611  28.444  1.00  0.00    -0.084 Cl
ENDBRANCH  19  21
ENDBRANCH  15  19
BRANCH  16  28
ATOM     28  C   UNL A   1      33.349  25.793  25.421  1.00  0.00     0.432 C 
ATOM     29  F   UNL A   1      32.912  24.542  25.700  1.00  0.00    -0.165 F 
ATOM     30  F   UNL A   1      34.341  25.646  24.499  1.00  0.00    -0.165 F 
ATOM     31  F   UNL A   1      33.957  26.301  26.517  1.00  0.00    -0.165 F 
ENDBRANCH  16  28
ENDBRANCH   7   8
ENDBRANCH   4   7
ENDBRANCH   2   3
ENDBRANCH   1   2
BRANCH   1  32
ATOM     32  C   UNL A   1      34.797  22.809  23.661  1.00  0.00     0.023 C 
BRANCH  32  33
ATOM     33  C   UNL A   1      35.655  22.484  24.887  1.00  0.00     0.116 C 
BRANCH  33  34
ATOM     34  N   UNL A   1      36.489  21.312  24.711  1.00  0.00    -0.352 N 
ATOM     35  C   UNL A   1      37.728  20.934  25.137  1.00  0.00     0.251 C 
ATOM     36  H   UNL A   1      36.059  20.626  24.151  1.00  0.00     0.163 HD
ATOM     37  O   UNL A   1      38.056  19.771  24.886  1.00  0.00    -0.269 OA
BRANCH  35  38
ATOM     38  C   UNL A   1      38.712  21.818  25.816  1.00  0.00     0.039 A 
ATOM     39  C   UNL A   1      39.889  21.399  26.435  1.00  0.00     0.014 A 
ATOM     40  C   UNL A   1      38.360  23.182  25.891  1.00  0.00     0.014 A 
ATOM     41  C   UNL A   1      40.645  22.294  27.183  1.00  0.00     0.010 A 
ATOM     42  C   UNL A   1      39.117  24.081  26.630  1.00  0.00     0.010 A 
ATOM     43  C   UNL A   1      40.231  23.621  27.318  1.00  0.00    -0.014 A 
BRANCH  43  44
ATOM     44  C   UNL A   1      41.049  24.497  28.149  1.00  0.00     0.031 A 
ATOM     45  C   UNL A   1      40.530  25.881  28.300  1.00  0.00     0.074 A 
ATOM     46  C   UNL A   1      42.153  24.086  28.802  1.00  0.00     0.049 A 
ATOM     47  N   UNL A   1      41.091  26.986  27.931  1.00  0.00    -0.248 NA
ATOM     48  C   UNL A   1      39.173  26.046  28.844  1.00  0.00     0.031 C 
ATOM     49  C   UNL A   1      42.612  22.707  28.993  1.00  0.00     0.029 A 
ATOM     50  N   UNL A   1      43.047  24.816  29.532  1.00  0.00    -0.354 N 
ATOM     51  C   UNL A   1      40.236  28.005  28.346  1.00  0.00     0.074 A 
ATOM     52  C   UNL A   1      39.019  27.369  28.779  1.00  0.00     0.031 C 
ATOM     53  C   UNL A   1      43.541  22.680  29.976  1.00  0.00     0.029 A 
ATOM     54  C   UNL A   1      43.858  24.046  30.352  1.00  0.00     0.049 A 
ATOM     55  H   UNL A   1      43.109  25.798  29.481  1.00  0.00     0.167 HD
ATOM     56  C   UNL A   1      40.681  29.279  28.521  1.00  0.00     0.031 A 
ATOM     57  C   UNL A   1      44.699  24.496  31.311  1.00  0.00     0.031 A 
ATOM     58  C   UNL A   1      41.948  29.497  27.882  1.00  0.00     0.049 A 
ATOM     59  C   UNL A   1      45.044  25.900  31.009  1.00  0.00     0.074 A 
ATOM     60  C   UNL A   1      42.399  29.697  26.598  1.00  0.00     0.029 A 
ATOM     61  N   UNL A   1      43.032  29.172  28.654  1.00  0.00    -0.354 N 
ATOM     62  N   UNL A   1      45.726  26.262  29.960  1.00  0.00    -0.248 NA
ATOM     63  C   UNL A   1      44.380  26.981  31.726  1.00  0.00     0.031 C 
ATOM     64  C   UNL A   1      43.751  29.245  26.584  1.00  0.00     0.029 A 
ATOM     65  C   UNL A   1      44.094  28.814  27.865  1.00  0.00     0.049 A 
ATOM     66  H   UNL A   1      43.047  29.194  29.639  1.00  0.00     0.167 HD
ATOM     67  C   UNL A   1      45.230  27.512  29.644  1.00  0.00     0.074 A 
ATOM     68  C   UNL A   1      44.560  27.975  30.852  1.00  0.00     0.031 C 
ATOM     69  C   UNL A   1      45.130  27.923  28.349  1.00  0.00     0.031 A 
BRANCH  56  70
ATOM     70  C   UNL A   1      40.211  30.181  29.642  1.00  0.00    -0.014 A 
ATOM     71  C   UNL A   1      39.092  31.027  29.537  1.00  0.00     0.009 A 
ATOM     72  C   UNL A   1      40.716  29.968  30.939  1.00  0.00     0.009 A 
ATOM     73  C   UNL A   1      38.495  31.616  30.657  1.00  0.00     0.001 A 
ATOM     74  C   UNL A   1      40.100  30.527  32.068  1.00  0.00     0.001 A 
ATOM     75  C   UNL A   1      38.986  31.346  31.925  1.00  0.00     0.000 A 
ENDBRANCH  56  70
BRANCH  57  76
ATOM     76  C   UNL A   1      44.959  23.893  32.634  1.00  0.00    -0.014 A 
ATOM     77  C   UNL A   1      43.941  23.168  33.279  1.00  0.00     0.009 A 
ATOM     78  C   UNL A   1      46.077  24.277  33.390  1.00  0.00     0.009 A 
ATOM     79  C   UNL A   1      44.010  22.883  34.645  1.00  0.00     0.001 A 
ATOM     80  C   UNL A   1      46.145  23.990  34.760  1.00  0.00     0.001 A 
ATOM     81  C   UNL A   1      45.104  23.311  35.389  1.00  0.00     0.000 A 
ENDBRANCH  57  76
BRANCH  69  82
ATOM     82  C   UNL A   1      45.989  27.239  27.318  1.00  0.00    -0.014 A 
ATOM     83  C   UNL A   1      47.166  27.887  26.914  1.00  0.00     0.009 A 
ATOM     84  C   UNL A   1      45.618  26.055  26.660  1.00  0.00     0.009 A 
ATOM     85  C   UNL A   1      47.944  27.380  25.873  1.00  0.00     0.001 A 
ATOM     86  C   UNL A   1      46.414  25.530  25.636  1.00  0.00     0.001 A 
ATOM     87  C   UNL A   1      47.570  26.200  25.235  1.00  0.00     0.000 A 
ENDBRANCH  69  82
ENDBRANCH  43  44
ENDBRANCH  35  38
ENDBRANCH  33  34
ENDBRANCH  32  33
ENDBRANCH   1  32
TORSDOF 16
ENDMDL
