MODEL 1
REMARK VINA RESULT:     -11.3      0.000      0.000
REMARK SMILES CN(CC(N)=O)c1ccc(S(N)(=O)=O)cc1C(=O)NCCCCNC(=O)c1ccc(-c2c3nc(c(-c4ccccc4)c4ccc([nH]4)c(-c4ccccc4)c4nc(c(-c5ccccc5)c5ccc2[nH]5)C=C4)C=C3)cc1
REMARK SMILES IDX 21 1 20 2 19 3 17 4 18 5 16 7 7 8 8 9 9 10 15 11 10 12 2 13
REMARK SMILES IDX 1 14 3 15 4 16 5 17 6 18 11 21 13 22 14 23 12 24 22 27 23 28
REMARK SMILES IDX 24 29 25 30 26 32 27 33 28 34 74 35 29 36 73 37 30 38 31 39
REMARK SMILES IDX 32 40 67 41 33 42 72 43 66 44 68 45 34 46 71 47 65 48 64 49
REMARK SMILES IDX 35 51 57 52 42 53 56 54 43 55 46 56 55 57 69 58 44 59 45 60
REMARK SMILES IDX 54 62 70 63 47 64 36 65 37 66 41 67 38 68 40 69 39 70 58 71
REMARK SMILES IDX 59 72 63 73 60 74 62 75 61 76 48 77 49 78 53 79 50 80 52 81
REMARK SMILES IDX 51 82
REMARK H PARENT 19 6 5 19 5 20 12 25 12 26 24 31 68 50 46 61
REMARK Flexibility Score: inf
ROOT
ATOM      1  C   UNL A   1      36.601  21.826  24.353  1.00  0.00     0.023 C 
ENDROOT
BRANCH   1   2
ATOM      2  C   UNL A   1      36.305  22.890  25.399  1.00  0.00     0.116 C 
BRANCH   2   3
ATOM      3  N   UNL A   1      35.553  22.489  26.555  1.00  0.00    -0.352 N 
ATOM      4  C   UNL A   1      34.415  21.711  26.618  1.00  0.00     0.253 C 
ATOM      5  O   UNL A   1      34.010  21.439  27.753  1.00  0.00    -0.269 OA
ATOM      6  H   UNL A   1      35.894  22.815  27.419  1.00  0.00     0.163 HD
BRANCH   4   7
ATOM      7  C   UNL A   1      33.595  21.241  25.440  1.00  0.00     0.064 A 
ATOM      8  C   UNL A   1      32.773  22.007  24.571  1.00  0.00     0.050 A 
ATOM      9  C   UNL A   1      32.175  21.355  23.467  1.00  0.00     0.028 A 
ATOM     10  C   UNL A   1      32.349  19.998  23.213  1.00  0.00     0.024 A 
ATOM     11  C   UNL A   1      33.767  19.857  25.163  1.00  0.00     0.037 A 
ATOM     12  C   UNL A   1      33.145  19.251  24.066  1.00  0.00     0.083 A 
BRANCH   8  13
ATOM     13  N   UNL A   1      32.574  23.382  24.678  1.00  0.00    -0.365 N 
ATOM     14  C   UNL A   1      33.294  24.211  23.716  1.00  0.00     0.144 C 
BRANCH  13  15
ATOM     15  C   UNL A   1      31.302  23.891  25.231  1.00  0.00     0.215 C 
BRANCH  15  16
ATOM     16  C   UNL A   1      30.891  23.302  26.577  1.00  0.00     0.236 C 
ATOM     17  N   UNL A   1      29.831  22.437  26.537  1.00  0.00    -0.368 N 
ATOM     18  O   UNL A   1      31.450  23.561  27.639  1.00  0.00    -0.273 OA
ATOM     19  H   UNL A   1      29.390  22.238  25.680  1.00  0.00     0.159 HD
ATOM     20  H   UNL A   1      29.509  22.015  27.366  1.00  0.00     0.159 HD
ENDBRANCH  15  16
ENDBRANCH  13  15
ENDBRANCH   8  13
BRANCH  12  21
ATOM     21  S   UNL A   1      33.409  17.545  23.693  1.00  0.00     0.238 S 
ATOM     22  O   UNL A   1      32.978  17.294  22.338  1.00  0.00    -0.207 OA
ATOM     23  O   UNL A   1      34.696  17.125  24.196  1.00  0.00    -0.207 OA
BRANCH  21  24
ATOM     24  N   UNL A   1      32.278  16.789  24.683  1.00  0.00    -0.225 NA
ATOM     25  H   UNL A   1      31.636  16.242  24.109  1.00  0.00     0.137 HD
ATOM     26  H   UNL A   1      31.753  17.495  25.200  1.00  0.00     0.137 HD
ENDBRANCH  21  24
ENDBRANCH  12  21
ENDBRANCH   4   7
ENDBRANCH   2   3
ENDBRANCH   1   2
BRANCH   1  27
ATOM     27  C   UNL A   1      37.411  20.615  24.815  1.00  0.00     0.023 C 
BRANCH  27  28
ATOM     28  C   UNL A   1      38.657  20.884  25.657  1.00  0.00     0.116 C 
BRANCH  28  29
ATOM     29  N   UNL A   1      39.650  19.815  25.632  1.00  0.00    -0.352 N 
ATOM     30  C   UNL A   1      40.972  19.805  26.020  1.00  0.00     0.251 C 
ATOM     31  H   UNL A   1      39.321  18.959  25.278  1.00  0.00     0.163 HD
ATOM     32  O   UNL A   1      41.648  18.792  25.856  1.00  0.00    -0.269 OA
BRANCH  30  33
ATOM     33  C   UNL A   1      41.606  21.021  26.577  1.00  0.00     0.039 A 
ATOM     34  C   UNL A   1      42.166  21.952  25.698  1.00  0.00     0.014 A 
ATOM     35  C   UNL A   1      41.623  21.267  27.950  1.00  0.00     0.014 A 
ATOM     36  C   UNL A   1      42.619  23.183  26.183  1.00  0.00     0.010 A 
ATOM     37  C   UNL A   1      41.985  22.527  28.421  1.00  0.00     0.010 A 
ATOM     38  C   UNL A   1      42.465  23.508  27.540  1.00  0.00    -0.014 A 
BRANCH  38  39
ATOM     39  C   UNL A   1      42.754  24.876  28.050  1.00  0.00     0.031 A 
ATOM     40  C   UNL A   1      44.139  25.250  28.501  1.00  0.00     0.074 A 
ATOM     41  C   UNL A   1      41.742  25.757  28.200  1.00  0.00     0.049 A 
ATOM     42  N   UNL A   1      44.554  26.362  29.058  1.00  0.00    -0.248 NA
ATOM     43  C   UNL A   1      45.190  24.233  28.336  1.00  0.00     0.031 C 
ATOM     44  C   UNL A   1      40.339  25.509  27.861  1.00  0.00     0.029 A 
ATOM     45  N   UNL A   1      41.738  27.040  28.695  1.00  0.00    -0.354 N 
ATOM     46  C   UNL A   1      45.901  26.165  29.335  1.00  0.00     0.074 A 
ATOM     47  C   UNL A   1      46.225  24.815  28.925  1.00  0.00     0.031 C 
ATOM     48  C   UNL A   1      39.616  26.607  28.133  1.00  0.00     0.029 A 
ATOM     49  C   UNL A   1      40.493  27.624  28.705  1.00  0.00     0.049 A 
ATOM     50  H   UNL A   1      42.550  27.498  29.011  1.00  0.00     0.167 HD
ATOM     51  C   UNL A   1      46.795  27.033  29.865  1.00  0.00     0.031 A 
ATOM     52  C   UNL A   1      40.096  28.836  29.135  1.00  0.00     0.031 A 
ATOM     53  C   UNL A   1      46.486  28.384  30.251  1.00  0.00     0.049 A 
ATOM     54  C   UNL A   1      41.110  29.786  29.708  1.00  0.00     0.074 A 
ATOM     55  C   UNL A   1      47.345  29.363  30.720  1.00  0.00     0.029 A 
ATOM     56  N   UNL A   1      45.220  28.945  30.214  1.00  0.00    -0.354 N 
ATOM     57  N   UNL A   1      42.398  29.612  29.879  1.00  0.00    -0.248 NA
ATOM     58  C   UNL A   1      40.617  31.103  30.137  1.00  0.00     0.031 C 
ATOM     59  C   UNL A   1      46.589  30.502  31.015  1.00  0.00     0.029 A 
ATOM     60  C   UNL A   1      45.269  30.250  30.677  1.00  0.00     0.049 A 
ATOM     61  H   UNL A   1      44.406  28.486  29.904  1.00  0.00     0.167 HD
ATOM     62  C   UNL A   1      42.872  30.806  30.409  1.00  0.00     0.074 A 
ATOM     63  C   UNL A   1      41.739  31.700  30.515  1.00  0.00     0.031 C 
ATOM     64  C   UNL A   1      44.136  31.131  30.774  1.00  0.00     0.031 A 
BRANCH  51  65
ATOM     65  C   UNL A   1      48.202  26.543  30.067  1.00  0.00    -0.014 A 
ATOM     66  C   UNL A   1      48.585  25.891  31.249  1.00  0.00     0.009 A 
ATOM     67  C   UNL A   1      49.147  26.697  29.040  1.00  0.00     0.009 A 
ATOM     68  C   UNL A   1      49.894  25.436  31.415  1.00  0.00     0.001 A 
ATOM     69  C   UNL A   1      50.449  26.215  29.197  1.00  0.00     0.001 A 
ATOM     70  C   UNL A   1      50.823  25.594  30.388  1.00  0.00     0.000 A 
ENDBRANCH  51  65
BRANCH  52  71
ATOM     71  C   UNL A   1      38.665  29.234  29.035  1.00  0.00    -0.014 A 
ATOM     72  C   UNL A   1      38.152  29.745  27.833  1.00  0.00     0.009 A 
ATOM     73  C   UNL A   1      37.813  29.121  30.144  1.00  0.00     0.009 A 
ATOM     74  C   UNL A   1      36.821  30.166  27.753  1.00  0.00     0.001 A 
ATOM     75  C   UNL A   1      36.475  29.514  30.052  1.00  0.00     0.001 A 
ATOM     76  C   UNL A   1      35.984  30.046  28.862  1.00  0.00     0.000 A 
ENDBRANCH  52  71
BRANCH  64  77
ATOM     77  C   UNL A   1      44.368  32.523  31.289  1.00  0.00    -0.014 A 
ATOM     78  C   UNL A   1      44.294  32.816  32.659  1.00  0.00     0.009 A 
ATOM     79  C   UNL A   1      44.709  33.546  30.390  1.00  0.00     0.009 A 
ATOM     80  C   UNL A   1      44.527  34.115  33.115  1.00  0.00     0.001 A 
ATOM     81  C   UNL A   1      44.970  34.837  30.852  1.00  0.00     0.001 A 
ATOM     82  C   UNL A   1      44.871  35.121  32.213  1.00  0.00     0.000 A 
ENDBRANCH  64  77
ENDBRANCH  38  39
ENDBRANCH  30  33
ENDBRANCH  28  29
ENDBRANCH  27  28
ENDBRANCH   1  27
TORSDOF 16
ENDMDL
MODEL 2
REMARK VINA RESULT:     -11.2      4.439      9.251
REMARK SMILES CN(CC(N)=O)c1ccc(S(N)(=O)=O)cc1C(=O)NCCCCNC(=O)c1ccc(-c2c3nc(c(-c4ccccc4)c4ccc([nH]4)c(-c4ccccc4)c4nc(c(-c5ccccc5)c5ccc2[nH]5)C=C4)C=C3)cc1
REMARK SMILES IDX 21 1 20 2 19 3 17 4 18 5 16 7 7 8 8 9 9 10 15 11 10 12 2 13
REMARK SMILES IDX 1 14 3 15 4 16 5 17 6 18 11 21 13 22 14 23 12 24 22 27 23 28
REMARK SMILES IDX 24 29 25 30 26 32 27 33 28 34 74 35 29 36 73 37 30 38 31 39
REMARK SMILES IDX 32 40 67 41 33 42 72 43 66 44 68 45 34 46 71 47 65 48 64 49
REMARK SMILES IDX 35 51 57 52 42 53 56 54 43 55 46 56 55 57 69 58 44 59 45 60
REMARK SMILES IDX 54 62 70 63 47 64 36 65 37 66 41 67 38 68 40 69 39 70 58 71
REMARK SMILES IDX 59 72 63 73 60 74 62 75 61 76 48 77 49 78 53 79 50 80 52 81
REMARK SMILES IDX 51 82
REMARK H PARENT 19 6 5 19 5 20 12 25 12 26 24 31 68 50 46 61
REMARK Flexibility Score: inf
ROOT
ATOM      1  C   UNL A   1      31.831  29.708  26.819  1.00  0.00     0.023 C 
ENDROOT
BRANCH   1   2
ATOM      2  C   UNL A   1      33.139  29.030  26.440  1.00  0.00     0.116 C 
BRANCH   2   3
ATOM      3  N   UNL A   1      33.624  29.229  25.103  1.00  0.00    -0.352 N 
ATOM      4  C   UNL A   1      32.987  28.975  23.906  1.00  0.00     0.253 C 
ATOM      5  O   UNL A   1      33.594  29.318  22.887  1.00  0.00    -0.269 OA
ATOM      6  H   UNL A   1      34.535  29.595  25.031  1.00  0.00     0.163 HD
BRANCH   4   7
ATOM      7  C   UNL A   1      31.670  28.253  23.737  1.00  0.00     0.064 A 
ATOM      8  C   UNL A   1      31.356  26.901  24.040  1.00  0.00     0.050 A 
ATOM      9  C   UNL A   1      30.016  26.475  23.888  1.00  0.00     0.028 A 
ATOM     10  C   UNL A   1      29.005  27.321  23.441  1.00  0.00     0.024 A 
ATOM     11  C   UNL A   1      30.625  29.105  23.288  1.00  0.00     0.037 A 
ATOM     12  C   UNL A   1      29.315  28.637  23.139  1.00  0.00     0.083 A 
BRANCH   8  13
ATOM     13  N   UNL A   1      32.261  25.976  24.557  1.00  0.00    -0.365 N 
ATOM     14  C   UNL A   1      31.709  24.986  25.476  1.00  0.00     0.144 C 
BRANCH  13  15
ATOM     15  C   UNL A   1      33.460  25.615  23.772  1.00  0.00     0.215 C 
BRANCH  15  16
ATOM     16  C   UNL A   1      33.225  25.403  22.279  1.00  0.00     0.236 C 
ATOM     17  N   UNL A   1      32.504  24.285  21.955  1.00  0.00    -0.368 N 
ATOM     18  O   UNL A   1      33.636  26.160  21.405  1.00  0.00    -0.273 OA
ATOM     19  H   UNL A   1      32.179  23.686  22.665  1.00  0.00     0.159 HD
ATOM     20  H   UNL A   1      32.309  24.082  21.012  1.00  0.00     0.159 HD
ENDBRANCH  15  16
ENDBRANCH  13  15
ENDBRANCH   8  13
BRANCH  12  21
ATOM     21  S   UNL A   1      28.009  29.715  22.638  1.00  0.00     0.238 S 
ATOM     22  O   UNL A   1      27.912  30.799  23.586  1.00  0.00    -0.207 OA
ATOM     23  O   UNL A   1      28.066  29.925  21.210  1.00  0.00    -0.207 OA
BRANCH  21  24
ATOM     24  N   UNL A   1      26.648  28.759  22.891  1.00  0.00    -0.225 NA
ATOM     25  H   UNL A   1      26.665  28.389  23.843  1.00  0.00     0.137 HD
ATOM     26  H   UNL A   1      26.647  27.985  22.227  1.00  0.00     0.137 HD
ENDBRANCH  21  24
ENDBRANCH  12  21
ENDBRANCH   4   7
ENDBRANCH   2   3
ENDBRANCH   1   2
BRANCH   1  27
ATOM     27  C   UNL A   1      31.766  31.224  26.638  1.00  0.00     0.023 C 
BRANCH  27  28
ATOM     28  C   UNL A   1      32.926  32.048  27.194  1.00  0.00     0.116 C 
BRANCH  28  29
ATOM     29  N   UNL A   1      32.562  33.389  27.637  1.00  0.00    -0.352 N 
ATOM     30  C   UNL A   1      33.211  34.269  28.475  1.00  0.00     0.251 C 
ATOM     31  H   UNL A   1      31.708  33.721  27.277  1.00  0.00     0.163 HD
ATOM     32  O   UNL A   1      32.686  35.342  28.759  1.00  0.00    -0.269 OA
BRANCH  30  33
ATOM     33  C   UNL A   1      34.510  33.909  29.089  1.00  0.00     0.039 A 
ATOM     34  C   UNL A   1      34.512  33.220  30.305  1.00  0.00     0.014 A 
ATOM     35  C   UNL A   1      35.718  34.212  28.462  1.00  0.00     0.014 A 
ATOM     36  C   UNL A   1      35.713  32.722  30.821  1.00  0.00     0.010 A 
ATOM     37  C   UNL A   1      36.899  33.637  28.924  1.00  0.00     0.010 A 
ATOM     38  C   UNL A   1      36.907  32.865  30.096  1.00  0.00    -0.014 A 
BRANCH  38  39
ATOM     39  C   UNL A   1      38.159  32.180  30.517  1.00  0.00     0.031 A 
ATOM     40  C   UNL A   1      39.102  32.836  31.490  1.00  0.00     0.074 A 
ATOM     41  C   UNL A   1      38.499  31.005  29.947  1.00  0.00     0.049 A 
ATOM     42  N   UNL A   1      40.279  32.431  31.898  1.00  0.00    -0.248 NA
ATOM     43  C   UNL A   1      38.684  34.129  32.053  1.00  0.00     0.031 C 
ATOM     44  C   UNL A   1      37.710  30.285  28.944  1.00  0.00     0.029 A 
ATOM     45  N   UNL A   1      39.611  30.215  30.119  1.00  0.00    -0.354 N 
ATOM     46  C   UNL A   1      40.751  33.431  32.739  1.00  0.00     0.074 A 
ATOM     47  C   UNL A   1      39.755  34.480  32.749  1.00  0.00     0.031 C 
ATOM     48  C   UNL A   1      38.347  29.152  28.610  1.00  0.00     0.029 A 
ATOM     49  C   UNL A   1      39.609  29.083  29.338  1.00  0.00     0.049 A 
ATOM     50  H   UNL A   1      40.339  30.438  30.742  1.00  0.00     0.167 HD
ATOM     51  C   UNL A   1      41.902  33.468  33.453  1.00  0.00     0.031 A 
ATOM     52  C   UNL A   1      40.523  28.102  29.212  1.00  0.00     0.031 A 
ATOM     53  C   UNL A   1      42.884  32.417  33.467  1.00  0.00     0.049 A 
ATOM     54  C   UNL A   1      41.786  28.161  30.026  1.00  0.00     0.074 A 
ATOM     55  C   UNL A   1      44.040  32.329  34.223  1.00  0.00     0.029 A 
ATOM     56  N   UNL A   1      42.828  31.273  32.687  1.00  0.00    -0.354 N 
ATOM     57  N   UNL A   1      42.173  29.073  30.884  1.00  0.00    -0.248 NA
ATOM     58  C   UNL A   1      42.732  27.047  29.862  1.00  0.00     0.031 C 
ATOM     59  C   UNL A   1      44.709  31.155  33.864  1.00  0.00     0.029 A 
ATOM     60  C   UNL A   1      43.942  30.486  32.925  1.00  0.00     0.049 A 
ATOM     61  H   UNL A   1      42.102  31.052  32.058  1.00  0.00     0.167 HD
ATOM     62  C   UNL A   1      43.393  28.630  31.381  1.00  0.00     0.074 A 
ATOM     63  C   UNL A   1      43.672  27.361  30.742  1.00  0.00     0.031 C 
ATOM     64  C   UNL A   1      44.207  29.223  32.287  1.00  0.00     0.031 A 
BRANCH  51  65
ATOM     65  C   UNL A   1      42.165  34.695  34.281  1.00  0.00    -0.014 A 
ATOM     66  C   UNL A   1      41.823  34.743  35.641  1.00  0.00     0.009 A 
ATOM     67  C   UNL A   1      42.807  35.801  33.702  1.00  0.00     0.009 A 
ATOM     68  C   UNL A   1      42.084  35.889  36.396  1.00  0.00     0.001 A 
ATOM     69  C   UNL A   1      43.092  36.935  34.466  1.00  0.00     0.001 A 
ATOM     70  C   UNL A   1      42.721  36.981  35.810  1.00  0.00     0.000 A 
ENDBRANCH  51  65
BRANCH  52  71
ATOM     71  C   UNL A   1      40.280  26.967  28.283  1.00  0.00    -0.014 A 
ATOM     72  C   UNL A   1      40.800  26.990  26.979  1.00  0.00     0.009 A 
ATOM     73  C   UNL A   1      39.512  25.864  28.687  1.00  0.00     0.009 A 
ATOM     74  C   UNL A   1      40.530  25.946  26.090  1.00  0.00     0.001 A 
ATOM     75  C   UNL A   1      39.268  24.808  27.805  1.00  0.00     0.001 A 
ATOM     76  C   UNL A   1      39.767  24.856  26.505  1.00  0.00     0.000 A 
ENDBRANCH  52  71
BRANCH  64  77
ATOM     77  C   UNL A   1      45.461  28.490  32.669  1.00  0.00    -0.014 A 
ATOM     78  C   UNL A   1      46.632  28.597  31.902  1.00  0.00     0.009 A 
ATOM     79  C   UNL A   1      45.482  27.718  33.841  1.00  0.00     0.009 A 
ATOM     80  C   UNL A   1      47.790  27.917  32.285  1.00  0.00     0.001 A 
ATOM     81  C   UNL A   1      46.649  27.063  34.237  1.00  0.00     0.001 A 
ATOM     82  C   UNL A   1      47.799  27.157  33.454  1.00  0.00     0.000 A 
ENDBRANCH  64  77
ENDBRANCH  38  39
ENDBRANCH  30  33
ENDBRANCH  28  29
ENDBRANCH  27  28
ENDBRANCH   1  27
TORSDOF 16
ENDMDL
MODEL 3
REMARK VINA RESULT:     -11.1      4.509      9.249
REMARK SMILES CN(CC(N)=O)c1ccc(S(N)(=O)=O)cc1C(=O)NCCCCNC(=O)c1ccc(-c2c3nc(c(-c4ccccc4)c4ccc([nH]4)c(-c4ccccc4)c4nc(c(-c5ccccc5)c5ccc2[nH]5)C=C4)C=C3)cc1
REMARK SMILES IDX 21 1 20 2 19 3 17 4 18 5 16 7 7 8 8 9 9 10 15 11 10 12 2 13
REMARK SMILES IDX 1 14 3 15 4 16 5 17 6 18 11 21 13 22 14 23 12 24 22 27 23 28
REMARK SMILES IDX 24 29 25 30 26 32 27 33 28 34 74 35 29 36 73 37 30 38 31 39
REMARK SMILES IDX 32 40 67 41 33 42 72 43 66 44 68 45 34 46 71 47 65 48 64 49
REMARK SMILES IDX 35 51 57 52 42 53 56 54 43 55 46 56 55 57 69 58 44 59 45 60
REMARK SMILES IDX 54 62 70 63 47 64 36 65 37 66 41 67 38 68 40 69 39 70 58 71
REMARK SMILES IDX 59 72 63 73 60 74 62 75 61 76 48 77 49 78 53 79 50 80 52 81
REMARK SMILES IDX 51 82
REMARK H PARENT 19 6 5 19 5 20 12 25 12 26 24 31 68 50 46 61
REMARK Flexibility Score: inf
ROOT
ATOM      1  C   UNL A   1      32.073  29.329  26.696  1.00  0.00     0.023 C 
ENDROOT
BRANCH   1   2
ATOM      2  C   UNL A   1      33.430  28.802  26.254  1.00  0.00     0.116 C 
BRANCH   2   3
ATOM      3  N   UNL A   1      33.825  29.050  24.895  1.00  0.00    -0.352 N 
ATOM      4  C   UNL A   1      33.100  28.860  23.737  1.00  0.00     0.253 C 
ATOM      5  O   UNL A   1      33.642  29.236  22.693  1.00  0.00    -0.269 OA
ATOM      6  H   UNL A   1      34.736  29.402  24.774  1.00  0.00     0.163 HD
BRANCH   4   7
ATOM      7  C   UNL A   1      31.759  28.171  23.632  1.00  0.00     0.064 A 
ATOM      8  C   UNL A   1      31.420  26.837  23.981  1.00  0.00     0.050 A 
ATOM      9  C   UNL A   1      30.064  26.443  23.885  1.00  0.00     0.028 A 
ATOM     10  C   UNL A   1      29.062  27.305  23.450  1.00  0.00     0.024 A 
ATOM     11  C   UNL A   1      30.723  29.040  23.195  1.00  0.00     0.037 A 
ATOM     12  C   UNL A   1      29.397  28.604  23.103  1.00  0.00     0.083 A 
BRANCH   8  13
ATOM     13  N   UNL A   1      32.316  25.900  24.492  1.00  0.00    -0.365 N 
ATOM     14  C   UNL A   1      31.773  24.958  25.466  1.00  0.00     0.144 C 
BRANCH  13  15
ATOM     15  C   UNL A   1      33.470  25.476  23.671  1.00  0.00     0.215 C 
BRANCH  15  16
ATOM     16  C   UNL A   1      33.175  25.257  22.190  1.00  0.00     0.236 C 
ATOM     17  N   UNL A   1      32.473  24.118  21.897  1.00  0.00    -0.368 N 
ATOM     18  O   UNL A   1      33.523  26.026  21.299  1.00  0.00    -0.273 OA
ATOM     19  H   UNL A   1      32.200  23.509  22.619  1.00  0.00     0.159 HD
ATOM     20  H   UNL A   1      32.242  23.910  20.963  1.00  0.00     0.159 HD
ENDBRANCH  15  16
ENDBRANCH  13  15
ENDBRANCH   8  13
BRANCH  12  21
ATOM     21  S   UNL A   1      28.104  29.705  22.617  1.00  0.00     0.238 S 
ATOM     22  O   UNL A   1      28.025  30.781  23.576  1.00  0.00    -0.207 OA
ATOM     23  O   UNL A   1      28.158  29.928  21.191  1.00  0.00    -0.207 OA
BRANCH  21  24
ATOM     24  N   UNL A   1      26.731  28.765  22.866  1.00  0.00    -0.225 NA
ATOM     25  H   UNL A   1      26.727  28.416  23.825  1.00  0.00     0.137 HD
ATOM     26  H   UNL A   1      26.736  27.977  22.218  1.00  0.00     0.137 HD
ENDBRANCH  21  24
ENDBRANCH  12  21
ENDBRANCH   4   7
ENDBRANCH   2   3
ENDBRANCH   1   2
BRANCH   1  27
ATOM     27  C   UNL A   1      31.879  30.844  26.657  1.00  0.00     0.023 C 
BRANCH  27  28
ATOM     28  C   UNL A   1      32.984  31.709  27.262  1.00  0.00     0.116 C 
BRANCH  28  29
ATOM     29  N   UNL A   1      32.570  33.061  27.620  1.00  0.00    -0.352 N 
ATOM     30  C   UNL A   1      33.189  34.017  28.395  1.00  0.00     0.251 C 
ATOM     31  H   UNL A   1      31.702  33.336  27.247  1.00  0.00     0.163 HD
ATOM     32  O   UNL A   1      32.624  35.086  28.613  1.00  0.00    -0.269 OA
BRANCH  30  33
ATOM     33  C   UNL A   1      34.504  33.748  29.020  1.00  0.00     0.039 A 
ATOM     34  C   UNL A   1      34.549  32.997  30.199  1.00  0.00     0.014 A 
ATOM     35  C   UNL A   1      35.690  34.197  28.440  1.00  0.00     0.014 A 
ATOM     36  C   UNL A   1      35.781  32.587  30.716  1.00  0.00     0.010 A 
ATOM     37  C   UNL A   1      36.912  33.711  28.899  1.00  0.00     0.010 A 
ATOM     38  C   UNL A   1      36.970  32.881  30.029  1.00  0.00    -0.014 A 
BRANCH  38  39
ATOM     39  C   UNL A   1      38.274  32.294  30.444  1.00  0.00     0.031 A 
ATOM     40  C   UNL A   1      38.755  30.998  29.851  1.00  0.00     0.074 A 
ATOM     41  C   UNL A   1      38.983  32.881  31.431  1.00  0.00     0.049 A 
ATOM     42  N   UNL A   1      39.816  30.293  30.158  1.00  0.00    -0.248 NA
ATOM     43  C   UNL A   1      37.919  30.397  28.799  1.00  0.00     0.031 C 
ATOM     44  C   UNL A   1      38.606  34.108  32.138  1.00  0.00     0.029 A 
ATOM     45  N   UNL A   1      40.167  32.511  32.025  1.00  0.00    -0.354 N 
ATOM     46  C   UNL A   1      39.758  29.158  29.361  1.00  0.00     0.074 A 
ATOM     47  C   UNL A   1      38.538  29.245  28.588  1.00  0.00     0.031 C 
ATOM     48  C   UNL A   1      39.548  34.402  33.048  1.00  0.00     0.029 A 
ATOM     49  C   UNL A   1      40.574  33.365  33.022  1.00  0.00     0.049 A 
ATOM     50  H   UNL A   1      40.675  31.711  31.760  1.00  0.00     0.167 HD
ATOM     51  C   UNL A   1      40.648  28.141  29.265  1.00  0.00     0.031 A 
ATOM     52  C   UNL A   1      41.647  33.317  33.834  1.00  0.00     0.031 A 
ATOM     53  C   UNL A   1      41.875  28.061  30.011  1.00  0.00     0.049 A 
ATOM     54  C   UNL A   1      42.626  32.184  33.699  1.00  0.00     0.074 A 
ATOM     55  C   UNL A   1      42.877  27.111  29.921  1.00  0.00     0.029 A 
ATOM     56  N   UNL A   1      42.265  28.963  30.988  1.00  0.00    -0.354 N 
ATOM     57  N   UNL A   1      42.599  31.165  32.876  1.00  0.00    -0.248 NA
ATOM     58  C   UNL A   1      43.790  32.203  34.598  1.00  0.00     0.031 C 
ATOM     59  C   UNL A   1      43.852  27.411  30.878  1.00  0.00     0.029 A 
ATOM     60  C   UNL A   1      43.482  28.579  31.526  1.00  0.00     0.049 A 
ATOM     61  H   UNL A   1      41.754  29.761  31.259  1.00  0.00     0.167 HD
ATOM     62  C   UNL A   1      43.753  30.437  33.139  1.00  0.00     0.074 A 
ATOM     63  C   UNL A   1      44.466  31.140  34.184  1.00  0.00     0.031 C 
ATOM     64  C   UNL A   1      44.183  29.288  32.563  1.00  0.00     0.031 A 
BRANCH  51  65
ATOM     65  C   UNL A   1      40.322  27.021  28.316  1.00  0.00    -0.014 A 
ATOM     66  C   UNL A   1      40.862  26.982  27.021  1.00  0.00     0.009 A 
ATOM     67  C   UNL A   1      39.499  25.965  28.740  1.00  0.00     0.009 A 
ATOM     68  C   UNL A   1      40.555  25.930  26.157  1.00  0.00     0.001 A 
ATOM     69  C   UNL A   1      39.216  24.899  27.884  1.00  0.00     0.001 A 
ATOM     70  C   UNL A   1      39.736  24.888  26.590  1.00  0.00     0.000 A 
ENDBRANCH  51  65
BRANCH  52  71
ATOM     71  C   UNL A   1      41.865  34.382  34.850  1.00  0.00    -0.014 A 
ATOM     72  C   UNL A   1      41.372  34.231  36.156  1.00  0.00     0.009 A 
ATOM     73  C   UNL A   1      42.550  35.560  34.515  1.00  0.00     0.009 A 
ATOM     74  C   UNL A   1      41.534  35.253  37.096  1.00  0.00     0.001 A 
ATOM     75  C   UNL A   1      42.736  36.566  35.466  1.00  0.00     0.001 A 
ATOM     76  C   UNL A   1      42.218  36.417  36.751  1.00  0.00     0.000 A 
ENDBRANCH  52  71
BRANCH  64  77
ATOM     77  C   UNL A   1      45.502  28.737  33.025  1.00  0.00    -0.014 A 
ATOM     78  C   UNL A   1      45.577  27.806  34.072  1.00  0.00     0.009 A 
ATOM     79  C   UNL A   1      46.682  29.125  32.372  1.00  0.00     0.009 A 
ATOM     80  C   UNL A   1      46.814  27.297  34.475  1.00  0.00     0.001 A 
ATOM     81  C   UNL A   1      47.913  28.594  32.758  1.00  0.00     0.001 A 
ATOM     82  C   UNL A   1      47.978  27.686  33.815  1.00  0.00     0.000 A 
ENDBRANCH  64  77
ENDBRANCH  38  39
ENDBRANCH  30  33
ENDBRANCH  28  29
ENDBRANCH  27  28
ENDBRANCH   1  27
TORSDOF 16
ENDMDL
