MODEL 1
REMARK VINA RESULT:     -11.3      0.000      0.000
REMARK SMILES O=C(NCCCCNC(=O)c1cc(-c2ccc[nH]c2=O)ccc1Cl)c1ccc(-c2c3nc(c(-c4ccccc4)c4ccc([nH]4)c(-c4ccccc4)c4nc(c(-c5ccccc5)c5ccc2[nH]5)C=C4)C=C3)cc1
REMARK SMILES IDX 5 1 4 2 3 3 1 4 2 5 25 7 26 8 72 9 27 10 71 11 28 12 29 13
REMARK SMILES IDX 30 14 65 15 31 16 70 17 64 18 66 19 32 20 69 21 63 22 62 23
REMARK SMILES IDX 33 25 55 26 40 27 54 28 41 29 44 30 53 31 67 32 42 33 43 34
REMARK SMILES IDX 52 36 68 37 45 38 34 39 35 40 39 41 36 42 38 43 37 44 56 45
REMARK SMILES IDX 57 46 61 47 58 48 60 49 59 50 46 51 47 52 51 53 48 54 50 55
REMARK SMILES IDX 49 56 6 57 7 58 8 59 9 60 10 62 11 63 12 64 23 65 13 66
REMARK SMILES IDX 22 67 24 68 21 69 14 70 15 71 19 72 16 73 18 74 20 75 17 76
REMARK H PARENT 3 6 66 24 44 35 8 61 18 77
REMARK Flexibility Score: inf
ROOT
ATOM      1  C   UNL A   1      37.714  20.080  24.925  1.00  0.00     0.023 C 
ENDROOT
BRANCH   1   2
ATOM      2  C   UNL A   1      38.918  20.398  25.803  1.00  0.00     0.116 C 
BRANCH   2   3
ATOM      3  N   UNL A   1      39.951  19.373  25.761  1.00  0.00    -0.352 N 
ATOM      4  O   UNL A   1      42.030  18.503  25.850  1.00  0.00    -0.269 OA
ATOM      5  C   UNL A   1      41.291  19.460  26.059  1.00  0.00     0.251 C 
ATOM      6  H   UNL A   1      39.643  18.483  25.475  1.00  0.00     0.163 HD
BRANCH   5   7
ATOM      7  C   UNL A   1      41.852  20.723  26.589  1.00  0.00     0.039 A 
ATOM      8  C   UNL A   1      41.875  20.976  27.960  1.00  0.00     0.014 A 
ATOM      9  C   UNL A   1      42.342  21.677  25.693  1.00  0.00     0.014 A 
ATOM     10  C   UNL A   1      42.210  22.245  28.420  1.00  0.00     0.010 A 
ATOM     11  C   UNL A   1      42.764  22.923  26.165  1.00  0.00     0.010 A 
ATOM     12  C   UNL A   1      42.649  23.238  27.528  1.00  0.00    -0.014 A 
BRANCH  12  13
ATOM     13  C   UNL A   1      42.980  24.587  28.052  1.00  0.00     0.031 A 
ATOM     14  C   UNL A   1      44.411  25.034  28.206  1.00  0.00     0.074 A 
ATOM     15  C   UNL A   1      41.979  25.445  28.331  1.00  0.00     0.049 A 
ATOM     16  N   UNL A   1      44.873  26.207  28.566  1.00  0.00    -0.248 NA
ATOM     17  C   UNL A   1      45.459  24.039  27.929  1.00  0.00     0.031 C 
ATOM     18  C   UNL A   1      40.551  25.135  28.229  1.00  0.00     0.029 A 
ATOM     19  N   UNL A   1      42.008  26.759  28.718  1.00  0.00    -0.354 N 
ATOM     20  C   UNL A   1      46.256  26.082  28.587  1.00  0.00     0.074 A 
ATOM     21  C   UNL A   1      46.562  24.716  28.220  1.00  0.00     0.031 C 
ATOM     22  C   UNL A   1      39.843  26.246  28.477  1.00  0.00     0.029 A 
ATOM     23  C   UNL A   1      40.762  27.330  28.804  1.00  0.00     0.049 A 
ATOM     24  H   UNL A   1      42.840  27.246  28.915  1.00  0.00     0.167 HD
ATOM     25  C   UNL A   1      47.189  27.020  28.880  1.00  0.00     0.031 A 
ATOM     26  C   UNL A   1      40.394  28.589  29.106  1.00  0.00     0.031 A 
ATOM     27  C   UNL A   1      46.894  28.386  29.222  1.00  0.00     0.049 A 
ATOM     28  C   UNL A   1      41.448  29.609  29.417  1.00  0.00     0.074 A 
ATOM     29  C   UNL A   1      47.777  29.418  29.496  1.00  0.00     0.029 A 
ATOM     30  N   UNL A   1      45.617  28.913  29.334  1.00  0.00    -0.354 N 
ATOM     31  N   UNL A   1      42.752  29.479  29.402  1.00  0.00    -0.248 NA
ATOM     32  C   UNL A   1      40.977  30.952  29.784  1.00  0.00     0.031 C 
ATOM     33  C   UNL A   1      47.033  30.560  29.809  1.00  0.00     0.029 A 
ATOM     34  C   UNL A   1      45.688  30.249  29.691  1.00  0.00     0.049 A 
ATOM     35  H   UNL A   1      44.784  28.412  29.183  1.00  0.00     0.167 HD
ATOM     36  C   UNL A   1      43.258  30.725  29.746  1.00  0.00     0.074 A 
ATOM     37  C   UNL A   1      42.122  31.601  29.942  1.00  0.00     0.031 C 
ATOM     38  C   UNL A   1      44.550  31.106  29.888  1.00  0.00     0.031 A 
BRANCH  25  39
ATOM     39  C   UNL A   1      48.630  26.592  28.867  1.00  0.00    -0.014 A 
ATOM     40  C   UNL A   1      49.259  26.111  30.024  1.00  0.00     0.009 A 
ATOM     41  C   UNL A   1      49.354  26.630  27.665  1.00  0.00     0.009 A 
ATOM     42  C   UNL A   1      50.594  25.703  29.984  1.00  0.00     0.001 A 
ATOM     43  C   UNL A   1      50.682  26.202  27.623  1.00  0.00     0.001 A 
ATOM     44  C   UNL A   1      51.303  25.745  28.784  1.00  0.00     0.000 A 
ENDBRANCH  25  39
BRANCH  26  45
ATOM     45  C   UNL A   1      38.957  28.952  29.115  1.00  0.00    -0.014 A 
ATOM     46  C   UNL A   1      38.336  29.423  27.948  1.00  0.00     0.009 A 
ATOM     47  C   UNL A   1      38.194  28.816  30.284  1.00  0.00     0.009 A 
ATOM     48  C   UNL A   1      36.982  29.762  27.956  1.00  0.00     0.001 A 
ATOM     49  C   UNL A   1      36.835  29.133  30.283  1.00  0.00     0.001 A 
ATOM     50  C   UNL A   1      36.232  29.612  29.122  1.00  0.00     0.000 A 
ENDBRANCH  26  45
BRANCH  38  51
ATOM     51  C   UNL A   1      44.796  32.540  30.254  1.00  0.00    -0.014 A 
ATOM     52  C   UNL A   1      44.904  32.936  31.596  1.00  0.00     0.009 A 
ATOM     53  C   UNL A   1      44.936  33.503  29.243  1.00  0.00     0.009 A 
ATOM     54  C   UNL A   1      45.115  34.278  31.919  1.00  0.00     0.001 A 
ATOM     55  C   UNL A   1      45.168  34.840  29.569  1.00  0.00     0.001 A 
ATOM     56  C   UNL A   1      45.249  35.227  30.906  1.00  0.00     0.000 A 
ENDBRANCH  38  51
ENDBRANCH  12  13
ENDBRANCH   5   7
ENDBRANCH   2   3
ENDBRANCH   1   2
BRANCH   1  57
ATOM     57  C   UNL A   1      36.833  21.272  24.556  1.00  0.00     0.023 C 
BRANCH  57  58
ATOM     58  C   UNL A   1      36.505  22.224  25.702  1.00  0.00     0.116 C 
BRANCH  58  59
ATOM     59  N   UNL A   1      35.555  21.664  26.648  1.00  0.00    -0.352 N 
ATOM     60  C   UNL A   1      34.216  21.936  26.771  1.00  0.00     0.252 C 
ATOM     61  H   UNL A   1      35.919  21.004  27.282  1.00  0.00     0.163 HD
ATOM     62  O   UNL A   1      33.540  21.399  27.642  1.00  0.00    -0.269 OA
BRANCH  60  63
ATOM     63  C   UNL A   1      33.609  22.951  25.896  1.00  0.00     0.059 A 
ATOM     64  C   UNL A   1      33.518  24.254  26.408  1.00  0.00     0.024 A 
ATOM     65  C   UNL A   1      33.160  22.658  24.606  1.00  0.00     0.053 A 
ATOM     66  C   UNL A   1      33.029  25.296  25.609  1.00  0.00    -0.012 A 
ATOM     67  C   UNL A   1      32.689  23.694  23.800  1.00  0.00     0.022 A 
ATOM     68  Cl  UNL A   1      33.159  21.059  23.958  1.00  0.00    -0.083 Cl
ATOM     69  C   UNL A   1      32.635  25.001  24.294  1.00  0.00     0.010 A 
BRANCH  66  70
ATOM     70  C   UNL A   1      32.902  26.669  26.140  1.00  0.00     0.047 A 
ATOM     71  C   UNL A   1      33.923  27.546  26.060  1.00  0.00     0.016 A 
ATOM     72  C   UNL A   1      31.618  27.144  26.779  1.00  0.00     0.255 A 
ATOM     73  C   UNL A   1      33.813  28.892  26.578  1.00  0.00     0.019 A 
ATOM     74  N   UNL A   1      31.612  28.440  27.239  1.00  0.00    -0.329 N 
ATOM     75  O   UNL A   1      30.627  26.431  26.891  1.00  0.00    -0.269 OA
ATOM     76  C   UNL A   1      32.674  29.297  27.147  1.00  0.00     0.086 A 
ATOM     77  H   UNL A   1      30.787  28.774  27.662  1.00  0.00     0.169 HD
ENDBRANCH  66  70
ENDBRANCH  60  63
ENDBRANCH  58  59
ENDBRANCH  57  58
ENDBRANCH   1  57
TORSDOF 12
ENDMDL
MODEL 2
REMARK VINA RESULT:     -11.3      3.918      9.328
REMARK SMILES O=C(NCCCCNC(=O)c1cc(-c2ccc[nH]c2=O)ccc1Cl)c1ccc(-c2c3nc(c(-c4ccccc4)c4ccc([nH]4)c(-c4ccccc4)c4nc(c(-c5ccccc5)c5ccc2[nH]5)C=C4)C=C3)cc1
REMARK SMILES IDX 5 1 4 2 3 3 1 4 2 5 25 7 26 8 72 9 27 10 71 11 28 12 29 13
REMARK SMILES IDX 30 14 65 15 31 16 70 17 64 18 66 19 32 20 69 21 63 22 62 23
REMARK SMILES IDX 33 25 55 26 40 27 54 28 41 29 44 30 53 31 67 32 42 33 43 34
REMARK SMILES IDX 52 36 68 37 45 38 34 39 35 40 39 41 36 42 38 43 37 44 56 45
REMARK SMILES IDX 57 46 61 47 58 48 60 49 59 50 46 51 47 52 51 53 48 54 50 55
REMARK SMILES IDX 49 56 6 57 7 58 8 59 9 60 10 62 11 63 12 64 23 65 13 66
REMARK SMILES IDX 22 67 24 68 21 69 14 70 15 71 19 72 16 73 18 74 20 75 17 76
REMARK H PARENT 3 6 66 24 44 35 8 61 18 77
REMARK Flexibility Score: inf
ROOT
ATOM      1  C   UNL A   1      31.633  31.519  26.569  1.00  0.00     0.023 C 
ENDROOT
BRANCH   1   2
ATOM      2  C   UNL A   1      32.813  32.250  27.197  1.00  0.00     0.116 C 
BRANCH   2   3
ATOM      3  N   UNL A   1      32.491  33.603  27.626  1.00  0.00    -0.352 N 
ATOM      4  O   UNL A   1      32.652  35.501  28.835  1.00  0.00    -0.269 OA
ATOM      5  C   UNL A   1      33.147  34.425  28.514  1.00  0.00     0.251 C 
ATOM      6  H   UNL A   1      31.681  33.988  27.220  1.00  0.00     0.163 HD
BRANCH   5   7
ATOM      7  C   UNL A   1      34.428  33.993  29.117  1.00  0.00     0.039 A 
ATOM      8  C   UNL A   1      35.647  34.395  28.573  1.00  0.00     0.014 A 
ATOM      9  C   UNL A   1      34.403  33.152  30.233  1.00  0.00     0.014 A 
ATOM     10  C   UNL A   1      36.827  33.813  29.022  1.00  0.00     0.010 A 
ATOM     11  C   UNL A   1      35.598  32.637  30.743  1.00  0.00     0.010 A 
ATOM     12  C   UNL A   1      36.817  32.919  30.107  1.00  0.00    -0.014 A 
BRANCH  12  13
ATOM     13  C   UNL A   1      38.093  32.301  30.548  1.00  0.00     0.031 A 
ATOM     14  C   UNL A   1      38.852  32.843  31.732  1.00  0.00     0.074 A 
ATOM     15  C   UNL A   1      38.540  31.199  29.915  1.00  0.00     0.049 A 
ATOM     16  N   UNL A   1      39.934  32.371  32.302  1.00  0.00    -0.248 NA
ATOM     17  C   UNL A   1      38.338  34.073  32.353  1.00  0.00     0.031 C 
ATOM     18  C   UNL A   1      37.902  30.577  28.753  1.00  0.00     0.029 A 
ATOM     19  N   UNL A   1      39.611  30.386  30.182  1.00  0.00    -0.354 N 
ATOM     20  C   UNL A   1      40.245  33.258  33.324  1.00  0.00     0.074 A 
ATOM     21  C   UNL A   1      39.250  34.308  33.289  1.00  0.00     0.031 C 
ATOM     22  C   UNL A   1      38.551  29.444  28.451  1.00  0.00     0.029 A 
ATOM     23  C   UNL A   1      39.678  29.286  29.363  1.00  0.00     0.049 A 
ATOM     24  H   UNL A   1      40.267  30.572  30.892  1.00  0.00     0.167 HD
ATOM     25  C   UNL A   1      41.264  33.204  34.215  1.00  0.00     0.031 A 
ATOM     26  C   UNL A   1      40.546  28.258  29.347  1.00  0.00     0.031 A 
ATOM     27  C   UNL A   1      42.245  32.152  34.271  1.00  0.00     0.049 A 
ATOM     28  C   UNL A   1      41.658  28.217  30.351  1.00  0.00     0.074 A 
ATOM     29  C   UNL A   1      43.291  31.993  35.166  1.00  0.00     0.029 A 
ATOM     30  N   UNL A   1      42.298  31.076  33.399  1.00  0.00    -0.354 N 
ATOM     31  N   UNL A   1      41.918  29.051  31.328  1.00  0.00    -0.248 NA
ATOM     32  C   UNL A   1      42.597  27.091  30.249  1.00  0.00     0.031 C 
ATOM     33  C   UNL A   1      43.999  30.840  34.812  1.00  0.00     0.029 A 
ATOM     34  C   UNL A   1      43.369  30.260  33.722  1.00  0.00     0.049 A 
ATOM     35  H   UNL A   1      41.668  30.916  32.660  1.00  0.00     0.167 HD
ATOM     36  C   UNL A   1      43.042  28.544  31.966  1.00  0.00     0.074 A 
ATOM     37  C   UNL A   1      43.401  27.322  31.278  1.00  0.00     0.031 C 
ATOM     38  C   UNL A   1      43.717  29.050  33.025  1.00  0.00     0.031 A 
BRANCH  25  39
ATOM     39  C   UNL A   1      41.389  34.336  35.195  1.00  0.00    -0.014 A 
ATOM     40  C   UNL A   1      42.129  35.488  34.892  1.00  0.00     0.009 A 
ATOM     41  C   UNL A   1      40.716  34.265  36.426  1.00  0.00     0.009 A 
ATOM     42  C   UNL A   1      42.216  36.534  35.813  1.00  0.00     0.001 A 
ATOM     43  C   UNL A   1      40.787  35.321  37.335  1.00  0.00     0.001 A 
ATOM     44  C   UNL A   1      41.543  36.451  37.032  1.00  0.00     0.000 A 
ENDBRANCH  25  39
BRANCH  26  45
ATOM     45  C   UNL A   1      40.382  27.173  28.349  1.00  0.00    -0.014 A 
ATOM     46  C   UNL A   1      39.636  26.027  28.662  1.00  0.00     0.009 A 
ATOM     47  C   UNL A   1      40.955  27.286  27.073  1.00  0.00     0.009 A 
ATOM     48  C   UNL A   1      39.480  25.008  27.720  1.00  0.00     0.001 A 
ATOM     49  C   UNL A   1      40.777  26.277  26.126  1.00  0.00     0.001 A 
ATOM     50  C   UNL A   1      40.046  25.136  26.452  1.00  0.00     0.000 A 
ENDBRANCH  26  45
BRANCH  38  51
ATOM     51  C   UNL A   1      44.898  28.265  33.513  1.00  0.00    -0.014 A 
ATOM     52  C   UNL A   1      46.188  28.517  33.020  1.00  0.00     0.009 A 
ATOM     53  C   UNL A   1      44.721  27.273  34.488  1.00  0.00     0.009 A 
ATOM     54  C   UNL A   1      47.273  27.764  33.472  1.00  0.00     0.001 A 
ATOM     55  C   UNL A   1      45.811  26.536  34.953  1.00  0.00     0.001 A 
ATOM     56  C   UNL A   1      47.085  26.777  34.439  1.00  0.00     0.000 A 
ENDBRANCH  38  51
ENDBRANCH  12  13
ENDBRANCH   5   7
ENDBRANCH   2   3
ENDBRANCH   1   2
BRANCH   1  57
ATOM     57  C   UNL A   1      31.779  30.001  26.460  1.00  0.00     0.023 C 
BRANCH  57  58
ATOM     58  C   UNL A   1      33.132  29.509  25.959  1.00  0.00     0.116 C 
BRANCH  58  59
ATOM     59  N   UNL A   1      33.284  29.641  24.519  1.00  0.00    -0.352 N 
ATOM     60  C   UNL A   1      33.165  28.669  23.558  1.00  0.00     0.252 C 
ATOM     61  H   UNL A   1      33.501  30.544  24.192  1.00  0.00     0.163 HD
ATOM     62  O   UNL A   1      33.348  28.928  22.374  1.00  0.00    -0.269 OA
BRANCH  60  63
ATOM     63  C   UNL A   1      32.897  27.283  23.971  1.00  0.00     0.059 A 
ATOM     64  C   UNL A   1      34.005  26.427  24.068  1.00  0.00     0.024 A 
ATOM     65  C   UNL A   1      31.614  26.827  24.280  1.00  0.00     0.053 A 
ATOM     66  C   UNL A   1      33.846  25.115  24.534  1.00  0.00    -0.012 A 
ATOM     67  C   UNL A   1      31.453  25.529  24.761  1.00  0.00     0.022 A 
ATOM     68  Cl  UNL A   1      30.204  27.805  24.090  1.00  0.00    -0.083 Cl
ATOM     69  C   UNL A   1      32.560  24.685  24.896  1.00  0.00     0.010 A 
BRANCH  66  70
ATOM     70  C   UNL A   1      34.997  24.192  24.617  1.00  0.00     0.047 A 
ATOM     71  C   UNL A   1      35.729  24.088  25.744  1.00  0.00     0.016 A 
ATOM     72  C   UNL A   1      35.386  23.320  23.446  1.00  0.00     0.255 A 
ATOM     73  C   UNL A   1      36.859  23.191  25.839  1.00  0.00     0.019 A 
ATOM     74  N   UNL A   1      36.473  22.499  23.635  1.00  0.00    -0.329 N 
ATOM     75  O   UNL A   1      34.779  23.328  22.380  1.00  0.00    -0.269 OA
ATOM     76  C   UNL A   1      37.196  22.430  24.793  1.00  0.00     0.086 A 
ATOM     77  H   UNL A   1      36.749  21.921  22.885  1.00  0.00     0.169 HD
ENDBRANCH  66  70
ENDBRANCH  60  63
ENDBRANCH  58  59
ENDBRANCH  57  58
ENDBRANCH   1  57
TORSDOF 12
ENDMDL
MODEL 3
REMARK VINA RESULT:     -11.2      2.696      4.636
REMARK SMILES O=C(NCCCCNC(=O)c1cc(-c2ccc[nH]c2=O)ccc1Cl)c1ccc(-c2c3nc(c(-c4ccccc4)c4ccc([nH]4)c(-c4ccccc4)c4nc(c(-c5ccccc5)c5ccc2[nH]5)C=C4)C=C3)cc1
REMARK SMILES IDX 5 1 4 2 3 3 1 4 2 5 25 7 26 8 72 9 27 10 71 11 28 12 29 13
REMARK SMILES IDX 30 14 65 15 31 16 70 17 64 18 66 19 32 20 69 21 63 22 62 23
REMARK SMILES IDX 33 25 55 26 40 27 54 28 41 29 44 30 53 31 67 32 42 33 43 34
REMARK SMILES IDX 52 36 68 37 45 38 34 39 35 40 39 41 36 42 38 43 37 44 56 45
REMARK SMILES IDX 57 46 61 47 58 48 60 49 59 50 46 51 47 52 51 53 48 54 50 55
REMARK SMILES IDX 49 56 6 57 7 58 8 59 9 60 10 62 11 63 12 64 23 65 13 66
REMARK SMILES IDX 22 67 24 68 21 69 14 70 15 71 19 72 16 73 18 74 20 75 17 76
REMARK H PARENT 3 6 66 24 44 35 8 61 18 77
REMARK Flexibility Score: inf
ROOT
ATOM      1  C   UNL A   1      35.149  21.780  26.560  1.00  0.00     0.023 C 
ENDROOT
BRANCH   1   2
ATOM      2  C   UNL A   1      36.300  22.145  25.631  1.00  0.00     0.116 C 
BRANCH   2   3
ATOM      3  N   UNL A   1      37.331  21.120  25.559  1.00  0.00    -0.352 N 
ATOM      4  O   UNL A   1      39.408  20.243  25.632  1.00  0.00    -0.269 OA
ATOM      5  C   UNL A   1      38.669  21.193  25.870  1.00  0.00     0.251 C 
ATOM      6  H   UNL A   1      37.024  20.241  25.239  1.00  0.00     0.163 HD
BRANCH   5   7
ATOM      7  C   UNL A   1      39.229  22.434  26.450  1.00  0.00     0.039 A 
ATOM      8  C   UNL A   1      38.712  23.683  26.106  1.00  0.00     0.014 A 
ATOM      9  C   UNL A   1      40.305  22.344  27.338  1.00  0.00     0.014 A 
ATOM     10  C   UNL A   1      39.383  24.837  26.496  1.00  0.00     0.010 A 
ATOM     11  C   UNL A   1      40.924  23.507  27.803  1.00  0.00     0.010 A 
ATOM     12  C   UNL A   1      40.503  24.764  27.342  1.00  0.00    -0.014 A 
BRANCH  12  13
ATOM     13  C   UNL A   1      41.206  26.016  27.722  1.00  0.00     0.031 A 
ATOM     14  C   UNL A   1      42.539  26.374  27.121  1.00  0.00     0.074 A 
ATOM     15  C   UNL A   1      40.603  26.872  28.571  1.00  0.00     0.049 A 
ATOM     16  N   UNL A   1      43.246  27.467  27.277  1.00  0.00    -0.248 NA
ATOM     17  C   UNL A   1      43.166  25.379  26.236  1.00  0.00     0.031 C 
ATOM     18  C   UNL A   1      39.313  26.642  29.227  1.00  0.00     0.029 A 
ATOM     19  N   UNL A   1      40.975  28.121  28.995  1.00  0.00    -0.354 N 
ATOM     20  C   UNL A   1      44.407  27.280  26.539  1.00  0.00     0.074 A 
ATOM     21  C   UNL A   1      44.323  25.962  25.947  1.00  0.00     0.031 C 
ATOM     22  C   UNL A   1      38.970  27.740  29.913  1.00  0.00     0.029 A 
ATOM     23  C   UNL A   1      40.034  28.729  29.789  1.00  0.00     0.049 A 
ATOM     24  H   UNL A   1      41.833  28.540  28.756  1.00  0.00     0.167 HD
ATOM     25  C   UNL A   1      45.450  28.128  26.365  1.00  0.00     0.031 A 
ATOM     26  C   UNL A   1      40.021  29.952  30.351  1.00  0.00     0.031 A 
ATOM     27  C   UNL A   1      45.531  29.449  26.932  1.00  0.00     0.049 A 
ATOM     28  C   UNL A   1      41.183  30.874  30.134  1.00  0.00     0.074 A 
ATOM     29  C   UNL A   1      46.531  30.394  26.777  1.00  0.00     0.029 A 
ATOM     30  N   UNL A   1      44.572  30.012  27.759  1.00  0.00    -0.354 N 
ATOM     31  N   UNL A   1      42.259  30.690  29.409  1.00  0.00    -0.248 NA
ATOM     32  C   UNL A   1      41.127  32.176  30.815  1.00  0.00     0.031 C 
ATOM     33  C   UNL A   1      46.194  31.517  27.541  1.00  0.00     0.029 A 
ATOM     34  C   UNL A   1      44.966  31.284  28.138  1.00  0.00     0.049 A 
ATOM     35  H   UNL A   1      43.737  29.572  28.037  1.00  0.00     0.167 HD
ATOM     36  C   UNL A   1      43.002  31.855  29.535  1.00  0.00     0.074 A 
ATOM     37  C   UNL A   1      42.244  32.747  30.388  1.00  0.00     0.031 C 
ATOM     38  C   UNL A   1      44.205  32.157  28.992  1.00  0.00     0.031 A 
BRANCH  25  39
ATOM     39  C   UNL A   1      46.609  27.642  25.542  1.00  0.00    -0.014 A 
ATOM     40  C   UNL A   1      47.609  26.830  26.095  1.00  0.00     0.009 A 
ATOM     41  C   UNL A   1      46.675  27.968  24.177  1.00  0.00     0.009 A 
ATOM     42  C   UNL A   1      48.668  26.377  25.306  1.00  0.00     0.001 A 
ATOM     43  C   UNL A   1      47.723  27.495  23.386  1.00  0.00     0.001 A 
ATOM     44  C   UNL A   1      48.722  26.707  23.952  1.00  0.00     0.000 A 
ENDBRANCH  25  39
BRANCH  26  45
ATOM     45  C   UNL A   1      38.855  30.375  31.164  1.00  0.00    -0.014 A 
ATOM     46  C   UNL A   1      38.848  30.174  32.553  1.00  0.00     0.009 A 
ATOM     47  C   UNL A   1      37.752  30.995  30.559  1.00  0.00     0.009 A 
ATOM     48  C   UNL A   1      37.750  30.575  33.317  1.00  0.00     0.001 A 
ATOM     49  C   UNL A   1      36.667  31.415  31.329  1.00  0.00     0.001 A 
ATOM     50  C   UNL A   1      36.664  31.199  32.706  1.00  0.00     0.000 A 
ENDBRANCH  26  45
BRANCH  38  51
ATOM     51  C   UNL A   1      44.762  33.517  29.293  1.00  0.00    -0.014 A 
ATOM     52  C   UNL A   1      44.460  34.619  28.478  1.00  0.00     0.009 A 
ATOM     53  C   UNL A   1      45.585  33.700  30.415  1.00  0.00     0.009 A 
ATOM     54  C   UNL A   1      45.002  35.874  28.763  1.00  0.00     0.001 A 
ATOM     55  C   UNL A   1      46.107  34.961  30.709  1.00  0.00     0.001 A 
ATOM     56  C   UNL A   1      45.822  36.044  29.878  1.00  0.00     0.000 A 
ENDBRANCH  38  51
ENDBRANCH  12  13
ENDBRANCH   5   7
ENDBRANCH   2   3
ENDBRANCH   1   2
BRANCH   1  57
ATOM     57  C   UNL A   1      34.473  22.954  27.266  1.00  0.00     0.023 C 
BRANCH  57  58
ATOM     58  C   UNL A   1      33.545  23.795  26.395  1.00  0.00     0.116 C 
BRANCH  58  59
ATOM     59  N   UNL A   1      32.140  23.593  26.706  1.00  0.00    -0.352 N 
ATOM     60  C   UNL A   1      31.258  22.713  26.130  1.00  0.00     0.252 C 
ATOM     61  H   UNL A   1      31.773  24.160  27.423  1.00  0.00     0.163 HD
ATOM     62  O   UNL A   1      30.085  22.672  26.484  1.00  0.00    -0.269 OA
BRANCH  60  63
ATOM     63  C   UNL A   1      31.716  21.869  25.016  1.00  0.00     0.059 A 
ATOM     64  C   UNL A   1      32.194  20.591  25.345  1.00  0.00     0.024 A 
ATOM     65  C   UNL A   1      31.663  22.289  23.685  1.00  0.00     0.053 A 
ATOM     66  C   UNL A   1      32.572  19.695  24.336  1.00  0.00    -0.012 A 
ATOM     67  C   UNL A   1      32.021  21.396  22.676  1.00  0.00     0.022 A 
ATOM     68  Cl  UNL A   1      31.174  23.880  23.227  1.00  0.00    -0.083 Cl
ATOM     69  C   UNL A   1      32.460  20.108  23.000  1.00  0.00     0.010 A 
BRANCH  66  70
ATOM     70  C   UNL A   1      33.103  18.356  24.666  1.00  0.00     0.047 A 
ATOM     71  C   UNL A   1      32.277  17.320  24.919  1.00  0.00     0.016 A 
ATOM     72  C   UNL A   1      34.589  18.095  24.718  1.00  0.00     0.255 A 
ATOM     73  C   UNL A   1      32.782  16.006  25.245  1.00  0.00     0.019 A 
ATOM     74  N   UNL A   1      34.971  16.812  25.034  1.00  0.00    -0.329 N 
ATOM     75  O   UNL A   1      35.426  18.964  24.492  1.00  0.00    -0.269 OA
ATOM     76  C   UNL A   1      34.101  15.791  25.294  1.00  0.00     0.086 A 
ATOM     77  H   UNL A   1      35.936  16.617  25.077  1.00  0.00     0.169 HD
ENDBRANCH  66  70
ENDBRANCH  60  63
ENDBRANCH  58  59
ENDBRANCH  57  58
ENDBRANCH   1  57
TORSDOF 12
ENDMDL
