MODEL 1
REMARK VINA RESULT:     -13.1      0.000      0.000
REMARK SMILES Cc1ccc(-c2nn(-c3ccccc3)cc2[C@@H]2[NH2+][C@H](C(=O)NCCCCNC(=O)c3ccc(-c4c5nc(c(-c6ccccc6)c6ccc([nH]6)c(-c6ccccc6)c6nc(c(-c7ccccc7)c7ccc4[nH]7)C=C6)C=C5)cc3)CS2)cc1
REMARK SMILES IDX 24 1 23 2 22 3 20 4 21 5 19 7 17 8 18 9 79 10 78 13 16 14
REMARK SMILES IDX 6 15 7 16 8 17 15 18 5 19 1 20 2 21 3 22 81 23 4 24 80 25
REMARK SMILES IDX 9 26 10 27 14 28 11 29 13 30 12 31 25 32 26 33 27 34 28 35
REMARK SMILES IDX 29 37 30 38 31 39 77 40 32 41 76 42 33 43 34 44 35 45 70 46
REMARK SMILES IDX 36 47 75 48 69 49 71 50 37 51 74 52 68 53 67 54 38 56 60 57
REMARK SMILES IDX 45 58 59 59 46 60 49 61 58 62 72 63 47 64 48 65 57 67 73 68
REMARK SMILES IDX 50 69 39 70 40 71 44 72 41 73 43 74 42 75 61 76 62 77 66 78
REMARK SMILES IDX 63 79 65 80 64 81 51 82 52 83 56 84 53 85 55 86 54 87
REMARK H PARENT 22 6 18 11 18 12 27 36 71 55 49 66
REMARK Flexibility Score: inf
ROOT
ATOM      1  C   UNL A   1      36.066  23.432  24.916  1.00  0.00     0.023 C 
ENDROOT
BRANCH   1   2
ATOM      2  C   UNL A   1      35.009  24.507  25.213  1.00  0.00     0.116 C 
BRANCH   2   3
ATOM      3  N   UNL A   1      34.293  25.101  24.093  1.00  0.00    -0.351 N 
ATOM      4  C   UNL A   1      34.096  26.434  23.817  1.00  0.00     0.279 C 
ATOM      5  O   UNL A   1      34.119  26.728  22.611  1.00  0.00    -0.268 OA
ATOM      6  H   UNL A   1      33.899  24.467  23.452  1.00  0.00     0.163 HD
BRANCH   4   7
ATOM      7  C   UNL A   1      33.689  27.556  24.821  1.00  0.00     0.283 C 
ATOM      8  C   UNL A   1      31.475  28.340  25.478  1.00  0.00     0.278 C 
ATOM      9  N   UNL A   1      32.544  28.435  24.465  1.00  0.00    -0.320 N 
ATOM     10  S   UNL A   1      32.343  28.102  27.040  1.00  0.00    -0.087 SA
ATOM     11  H   UNL A   1      32.868  29.401  24.411  1.00  0.00     0.348 HD
ATOM     12  H   UNL A   1      32.170  28.135  23.565  1.00  0.00     0.348 HD
ATOM     13  C   UNL A   1      33.579  27.031  26.260  1.00  0.00     0.151 C 
BRANCH   8  14
ATOM     14  C   UNL A   1      30.598  27.200  25.079  1.00  0.00     0.067 A 
ATOM     15  C   UNL A   1      29.735  27.112  23.939  1.00  0.00     0.103 A 
ATOM     16  N   UNL A   1      29.523  25.802  23.653  1.00  0.00    -0.167 NA
ATOM     17  N   UNL A   1      30.211  25.104  24.618  1.00  0.00    -0.240 N 
ATOM     18  C   UNL A   1      30.496  25.950  25.665  1.00  0.00     0.126 A 
BRANCH  15  19
ATOM     19  C   UNL A   1      29.262  28.247  23.089  1.00  0.00     0.003 A 
ATOM     20  C   UNL A   1      28.037  31.870  20.983  1.00  0.00     0.044 C 
ATOM     21  C   UNL A   1      28.430  30.609  21.697  1.00  0.00    -0.051 A 
ATOM     22  C   UNL A   1      29.727  30.132  21.564  1.00  0.00     0.004 A 
ATOM     23  C   UNL A   1      27.537  29.881  22.491  1.00  0.00     0.004 A 
ATOM     24  C   UNL A   1      30.130  28.986  22.262  1.00  0.00     0.011 A 
ATOM     25  C   UNL A   1      27.945  28.709  23.167  1.00  0.00     0.011 A 
ENDBRANCH  15  19
BRANCH  17  26
ATOM     26  C   UNL A   1      30.818  23.798  24.485  1.00  0.00     0.065 A 
ATOM     27  C   UNL A   1      31.329  23.319  23.280  1.00  0.00     0.028 A 
ATOM     28  C   UNL A   1      31.054  23.011  25.617  1.00  0.00     0.028 A 
ATOM     29  C   UNL A   1      32.060  22.124  23.191  1.00  0.00     0.002 A 
ATOM     30  C   UNL A   1      31.714  21.773  25.524  1.00  0.00     0.002 A 
ATOM     31  C   UNL A   1      32.219  21.327  24.311  1.00  0.00     0.000 A 
ENDBRANCH  17  26
ENDBRANCH   8  14
ENDBRANCH   4   7
ENDBRANCH   2   3
ENDBRANCH   1   2
BRANCH   1  32
ATOM     32  C   UNL A   1      37.567  23.562  25.380  1.00  0.00     0.023 C 
BRANCH  32  33
ATOM     33  C   UNL A   1      38.325  22.417  26.079  1.00  0.00     0.116 C 
BRANCH  33  34
ATOM     34  N   UNL A   1      39.787  22.505  26.133  1.00  0.00    -0.352 N 
ATOM     35  C   UNL A   1      40.628  23.484  26.672  1.00  0.00     0.251 C 
ATOM     36  H   UNL A   1      40.257  21.745  25.720  1.00  0.00     0.163 HD
ATOM     37  O   UNL A   1      41.799  23.193  26.869  1.00  0.00    -0.269 OA
BRANCH  35  38
ATOM     38  C   UNL A   1      40.166  24.855  27.076  1.00  0.00     0.039 A 
ATOM     39  C   UNL A   1      40.475  25.965  26.259  1.00  0.00     0.014 A 
ATOM     40  C   UNL A   1      39.427  25.093  28.224  1.00  0.00     0.014 A 
ATOM     41  C   UNL A   1      40.265  27.282  26.711  1.00  0.00     0.010 A 
ATOM     42  C   UNL A   1      39.257  26.392  28.693  1.00  0.00     0.010 A 
ATOM     43  C   UNL A   1      39.758  27.488  27.992  1.00  0.00    -0.014 A 
BRANCH  43  44
ATOM     44  C   UNL A   1      39.933  28.716  28.780  1.00  0.00     0.031 A 
ATOM     45  C   UNL A   1      38.865  29.716  29.011  1.00  0.00     0.074 A 
ATOM     46  C   UNL A   1      41.029  28.788  29.571  1.00  0.00     0.049 A 
ATOM     47  N   UNL A   1      39.074  30.937  29.393  1.00  0.00    -0.248 NA
ATOM     48  C   UNL A   1      37.452  29.403  28.855  1.00  0.00     0.031 C 
ATOM     49  C   UNL A   1      41.245  29.672  30.717  1.00  0.00     0.029 A 
ATOM     50  N   UNL A   1      42.250  28.132  29.433  1.00  0.00    -0.354 N 
ATOM     51  C   UNL A   1      37.877  31.431  29.868  1.00  0.00     0.074 A 
ATOM     52  C   UNL A   1      36.885  30.487  29.399  1.00  0.00     0.031 C 
ATOM     53  C   UNL A   1      42.555  29.698  31.008  1.00  0.00     0.029 A 
ATOM     54  C   UNL A   1      43.236  28.982  29.946  1.00  0.00     0.049 A 
ATOM     55  H   UNL A   1      42.392  27.239  29.046  1.00  0.00     0.167 HD
ATOM     56  C   UNL A   1      37.863  32.483  30.743  1.00  0.00     0.031 A 
ATOM     57  C   UNL A   1      44.251  29.486  29.187  1.00  0.00     0.031 A 
ATOM     58  C   UNL A   1      39.216  32.966  31.059  1.00  0.00     0.049 A 
ATOM     59  C   UNL A   1      44.198  30.995  29.125  1.00  0.00     0.074 A 
ATOM     60  C   UNL A   1      40.002  32.874  32.197  1.00  0.00     0.029 A 
ATOM     61  N   UNL A   1      40.052  33.436  30.048  1.00  0.00    -0.354 N 
ATOM     62  N   UNL A   1      43.159  31.687  29.506  1.00  0.00    -0.248 NA
ATOM     63  C   UNL A   1      45.265  31.845  28.610  1.00  0.00     0.031 C 
ATOM     64  C   UNL A   1      41.336  33.206  31.842  1.00  0.00     0.029 A 
ATOM     65  C   UNL A   1      41.358  33.530  30.496  1.00  0.00     0.049 A 
ATOM     66  H   UNL A   1      39.754  33.670  29.139  1.00  0.00     0.167 HD
ATOM     67  C   UNL A   1      43.380  33.013  29.304  1.00  0.00     0.074 A 
ATOM     68  C   UNL A   1      44.717  33.068  28.738  1.00  0.00     0.031 C 
ATOM     69  C   UNL A   1      42.436  33.948  29.604  1.00  0.00     0.031 A 
BRANCH  56  70
ATOM     70  C   UNL A   1      36.640  32.918  31.545  1.00  0.00    -0.014 A 
ATOM     71  C   UNL A   1      35.681  33.778  30.970  1.00  0.00     0.009 A 
ATOM     72  C   UNL A   1      36.375  32.536  32.872  1.00  0.00     0.009 A 
ATOM     73  C   UNL A   1      34.592  34.290  31.695  1.00  0.00     0.001 A 
ATOM     74  C   UNL A   1      35.308  33.067  33.616  1.00  0.00     0.001 A 
ATOM     75  C   UNL A   1      34.419  33.953  33.030  1.00  0.00     0.000 A 
ENDBRANCH  56  70
BRANCH  57  76
ATOM     76  C   UNL A   1      44.651  28.579  28.078  1.00  0.00    -0.014 A 
ATOM     77  C   UNL A   1      45.218  27.342  28.444  1.00  0.00     0.009 A 
ATOM     78  C   UNL A   1      44.063  28.701  26.810  1.00  0.00     0.009 A 
ATOM     79  C   UNL A   1      45.065  26.220  27.628  1.00  0.00     0.001 A 
ATOM     80  C   UNL A   1      43.925  27.572  25.990  1.00  0.00     0.001 A 
ATOM     81  C   UNL A   1      44.384  26.327  26.419  1.00  0.00     0.000 A 
ENDBRANCH  57  76
BRANCH  69  82
ATOM     82  C   UNL A   1      42.504  35.373  29.143  1.00  0.00    -0.014 A 
ATOM     83  C   UNL A   1      43.309  36.336  29.766  1.00  0.00     0.009 A 
ATOM     84  C   UNL A   1      41.849  35.748  27.954  1.00  0.00     0.009 A 
ATOM     85  C   UNL A   1      43.405  37.638  29.263  1.00  0.00     0.001 A 
ATOM     86  C   UNL A   1      41.975  37.033  27.425  1.00  0.00     0.001 A 
ATOM     87  C   UNL A   1      42.741  37.984  28.089  1.00  0.00     0.000 A 
ENDBRANCH  69  82
ENDBRANCH  43  44
ENDBRANCH  35  38
ENDBRANCH  33  34
ENDBRANCH  32  33
ENDBRANCH   1  32
TORSDOF 14
ENDMDL
MODEL 2
REMARK VINA RESULT:     -12.9      3.528      9.000
REMARK SMILES Cc1ccc(-c2nn(-c3ccccc3)cc2[C@@H]2[NH2+][C@H](C(=O)NCCCCNC(=O)c3ccc(-c4c5nc(c(-c6ccccc6)c6ccc([nH]6)c(-c6ccccc6)c6nc(c(-c7ccccc7)c7ccc4[nH]7)C=C6)C=C5)cc3)CS2)cc1
REMARK SMILES IDX 24 1 23 2 22 3 20 4 21 5 19 7 17 8 18 9 79 10 78 13 16 14
REMARK SMILES IDX 6 15 7 16 8 17 15 18 5 19 1 20 2 21 3 22 81 23 4 24 80 25
REMARK SMILES IDX 9 26 10 27 14 28 11 29 13 30 12 31 25 32 26 33 27 34 28 35
REMARK SMILES IDX 29 37 30 38 31 39 77 40 32 41 76 42 33 43 34 44 35 45 70 46
REMARK SMILES IDX 36 47 75 48 69 49 71 50 37 51 74 52 68 53 67 54 38 56 60 57
REMARK SMILES IDX 45 58 59 59 46 60 49 61 58 62 72 63 47 64 48 65 57 67 73 68
REMARK SMILES IDX 50 69 39 70 40 71 44 72 41 73 43 74 42 75 61 76 62 77 66 78
REMARK SMILES IDX 63 79 65 80 64 81 51 82 52 83 56 84 53 85 55 86 54 87
REMARK H PARENT 22 6 18 11 18 12 27 36 71 55 49 66
REMARK Flexibility Score: inf
ROOT
ATOM      1  C   UNL A   1      32.970  27.737  26.519  1.00  0.00     0.023 C 
ENDROOT
BRANCH   1   2
ATOM      2  C   UNL A   1      33.573  26.388  26.098  1.00  0.00     0.116 C 
BRANCH   2   3
ATOM      3  N   UNL A   1      32.752  25.193  26.228  1.00  0.00    -0.351 N 
ATOM      4  C   UNL A   1      33.065  24.005  26.847  1.00  0.00     0.279 C 
ATOM      5  O   UNL A   1      32.120  23.457  27.437  1.00  0.00    -0.268 OA
ATOM      6  H   UNL A   1      31.858  25.240  25.819  1.00  0.00     0.163 HD
BRANCH   4   7
ATOM      7  C   UNL A   1      34.405  23.213  26.748  1.00  0.00     0.283 C 
ATOM      8  C   UNL A   1      35.066  21.446  25.202  1.00  0.00     0.278 C 
ATOM      9  N   UNL A   1      34.340  21.758  26.449  1.00  0.00    -0.320 N 
ATOM     10  S   UNL A   1      36.453  22.597  25.178  1.00  0.00    -0.087 SA
ATOM     11  H   UNL A   1      34.760  21.239  27.220  1.00  0.00     0.348 HD
ATOM     12  H   UNL A   1      33.362  21.492  26.333  1.00  0.00     0.348 HD
ATOM     13  C   UNL A   1      35.436  23.932  25.863  1.00  0.00     0.151 C 
BRANCH   8  14
ATOM     14  C   UNL A   1      34.098  21.620  24.080  1.00  0.00     0.067 A 
ATOM     15  C   UNL A   1      33.046  20.734  23.680  1.00  0.00     0.103 A 
ATOM     16  N   UNL A   1      32.112  21.446  22.999  1.00  0.00    -0.167 NA
ATOM     17  N   UNL A   1      32.599  22.731  22.950  1.00  0.00    -0.240 N 
ATOM     18  C   UNL A   1      33.943  22.712  23.243  1.00  0.00     0.126 A 
BRANCH  15  19
ATOM     19  C   UNL A   1      32.892  19.299  24.069  1.00  0.00     0.003 A 
ATOM     20  C   UNL A   1      32.937  15.124  25.347  1.00  0.00     0.044 C 
ATOM     21  C   UNL A   1      32.903  16.551  24.881  1.00  0.00    -0.051 A 
ATOM     22  C   UNL A   1      32.616  17.556  25.795  1.00  0.00     0.004 A 
ATOM     23  C   UNL A   1      33.143  16.917  23.551  1.00  0.00     0.004 A 
ATOM     24  C   UNL A   1      32.630  18.898  25.393  1.00  0.00     0.011 A 
ATOM     25  C   UNL A   1      33.125  18.272  23.149  1.00  0.00     0.011 A 
ENDBRANCH  15  19
BRANCH  17  26
ATOM     26  C   UNL A   1      31.829  23.955  22.906  1.00  0.00     0.065 A 
ATOM     27  C   UNL A   1      30.636  24.126  23.606  1.00  0.00     0.028 A 
ATOM     28  C   UNL A   1      32.341  25.087  22.263  1.00  0.00     0.028 A 
ATOM     29  C   UNL A   1      29.980  25.365  23.690  1.00  0.00     0.002 A 
ATOM     30  C   UNL A   1      31.650  26.311  22.273  1.00  0.00     0.002 A 
ATOM     31  C   UNL A   1      30.467  26.453  22.986  1.00  0.00     0.000 A 
ENDBRANCH  17  26
ENDBRANCH   8  14
ENDBRANCH   4   7
ENDBRANCH   2   3
ENDBRANCH   1   2
BRANCH   1  32
ATOM     32  C   UNL A   1      33.757  28.786  27.393  1.00  0.00     0.023 C 
BRANCH  32  33
ATOM     33  C   UNL A   1      33.756  30.296  27.083  1.00  0.00     0.116 C 
BRANCH  33  34
ATOM     34  N   UNL A   1      34.250  31.202  28.124  1.00  0.00    -0.352 N 
ATOM     35  C   UNL A   1      35.492  31.277  28.762  1.00  0.00     0.251 C 
ATOM     36  H   UNL A   1      33.595  31.873  28.426  1.00  0.00     0.163 HD
ATOM     37  O   UNL A   1      35.767  32.301  29.371  1.00  0.00    -0.269 OA
BRANCH  35  38
ATOM     38  C   UNL A   1      36.533  30.195  28.698  1.00  0.00     0.039 A 
ATOM     39  C   UNL A   1      36.668  29.291  29.774  1.00  0.00     0.014 A 
ATOM     40  C   UNL A   1      37.377  30.026  27.612  1.00  0.00     0.014 A 
ATOM     41  C   UNL A   1      37.770  28.418  29.857  1.00  0.00     0.010 A 
ATOM     42  C   UNL A   1      38.490  29.197  27.710  1.00  0.00     0.010 A 
ATOM     43  C   UNL A   1      38.747  28.462  28.866  1.00  0.00    -0.014 A 
BRANCH  43  44
ATOM     44  C   UNL A   1      40.137  28.012  29.033  1.00  0.00     0.031 A 
ATOM     45  C   UNL A   1      40.711  26.819  28.370  1.00  0.00     0.074 A 
ATOM     46  C   UNL A   1      41.006  28.893  29.582  1.00  0.00     0.049 A 
ATOM     47  N   UNL A   1      41.791  26.215  28.754  1.00  0.00    -0.248 NA
ATOM     48  C   UNL A   1      40.116  26.220  27.184  1.00  0.00     0.031 C 
ATOM     49  C   UNL A   1      42.467  28.870  29.503  1.00  0.00     0.029 A 
ATOM     50  N   UNL A   1      40.745  29.960  30.437  1.00  0.00    -0.354 N 
ATOM     51  C   UNL A   1      42.217  25.425  27.707  1.00  0.00     0.074 A 
ATOM     52  C   UNL A   1      41.082  25.371  26.810  1.00  0.00     0.031 C 
ATOM     53  C   UNL A   1      42.969  29.680  30.448  1.00  0.00     0.029 A 
ATOM     54  C   UNL A   1      41.854  30.098  31.278  1.00  0.00     0.049 A 
ATOM     55  H   UNL A   1      39.931  30.512  30.449  1.00  0.00     0.167 HD
ATOM     56  C   UNL A   1      43.527  25.039  27.621  1.00  0.00     0.031 A 
ATOM     57  C   UNL A   1      41.786  29.945  32.632  1.00  0.00     0.031 A 
ATOM     58  C   UNL A   1      44.336  25.553  28.737  1.00  0.00     0.049 A 
ATOM     59  C   UNL A   1      42.650  28.799  33.103  1.00  0.00     0.074 A 
ATOM     60  C   UNL A   1      45.309  26.537  28.815  1.00  0.00     0.029 A 
ATOM     61  N   UNL A   1      44.017  25.218  30.052  1.00  0.00    -0.354 N 
ATOM     62  N   UNL A   1      43.156  27.909  32.294  1.00  0.00    -0.248 NA
ATOM     63  C   UNL A   1      42.990  28.530  34.496  1.00  0.00     0.031 C 
ATOM     64  C   UNL A   1      45.507  26.856  30.184  1.00  0.00     0.029 A 
ATOM     65  C   UNL A   1      44.679  26.045  30.942  1.00  0.00     0.049 A 
ATOM     66  H   UNL A   1      43.405  24.492  30.312  1.00  0.00     0.167 HD
ATOM     67  C   UNL A   1      43.857  26.981  32.997  1.00  0.00     0.074 A 
ATOM     68  C   UNL A   1      43.726  27.409  34.380  1.00  0.00     0.031 C 
ATOM     69  C   UNL A   1      44.469  25.930  32.382  1.00  0.00     0.031 A 
BRANCH  56  70
ATOM     70  C   UNL A   1      44.162  24.421  26.379  1.00  0.00    -0.014 A 
ATOM     71  C   UNL A   1      43.384  23.645  25.493  1.00  0.00     0.009 A 
ATOM     72  C   UNL A   1      45.517  24.545  26.025  1.00  0.00     0.009 A 
ATOM     73  C   UNL A   1      43.937  22.971  24.392  1.00  0.00     0.001 A 
ATOM     74  C   UNL A   1      46.087  23.849  24.945  1.00  0.00     0.001 A 
ATOM     75  C   UNL A   1      45.297  23.053  24.132  1.00  0.00     0.000 A 
ENDBRANCH  56  70
BRANCH  57  76
ATOM     76  C   UNL A   1      40.462  30.330  33.192  1.00  0.00    -0.014 A 
ATOM     77  C   UNL A   1      40.109  31.691  33.103  1.00  0.00     0.009 A 
ATOM     78  C   UNL A   1      39.442  29.377  33.330  1.00  0.00     0.009 A 
ATOM     79  C   UNL A   1      38.770  32.073  33.001  1.00  0.00     0.001 A 
ATOM     80  C   UNL A   1      38.100  29.770  33.240  1.00  0.00     0.001 A 
ATOM     81  C   UNL A   1      37.767  31.108  33.031  1.00  0.00     0.000 A 
ENDBRANCH  57  76
BRANCH  69  82
ATOM     82  C   UNL A   1      45.001  24.736  33.115  1.00  0.00    -0.014 A 
ATOM     83  C   UNL A   1      46.252  24.726  33.746  1.00  0.00     0.009 A 
ATOM     84  C   UNL A   1      44.169  23.616  33.309  1.00  0.00     0.009 A 
ATOM     85  C   UNL A   1      46.684  23.618  34.484  1.00  0.00     0.001 A 
ATOM     86  C   UNL A   1      44.579  22.526  34.078  1.00  0.00     0.001 A 
ATOM     87  C   UNL A   1      45.844  22.521  34.653  1.00  0.00     0.000 A 
ENDBRANCH  69  82
ENDBRANCH  43  44
ENDBRANCH  35  38
ENDBRANCH  33  34
ENDBRANCH  32  33
ENDBRANCH   1  32
TORSDOF 14
ENDMDL
MODEL 3
REMARK VINA RESULT:     -12.8      3.115      5.372
REMARK SMILES Cc1ccc(-c2nn(-c3ccccc3)cc2[C@@H]2[NH2+][C@H](C(=O)NCCCCNC(=O)c3ccc(-c4c5nc(c(-c6ccccc6)c6ccc([nH]6)c(-c6ccccc6)c6nc(c(-c7ccccc7)c7ccc4[nH]7)C=C6)C=C5)cc3)CS2)cc1
REMARK SMILES IDX 24 1 23 2 22 3 20 4 21 5 19 7 17 8 18 9 79 10 78 13 16 14
REMARK SMILES IDX 6 15 7 16 8 17 15 18 5 19 1 20 2 21 3 22 81 23 4 24 80 25
REMARK SMILES IDX 9 26 10 27 14 28 11 29 13 30 12 31 25 32 26 33 27 34 28 35
REMARK SMILES IDX 29 37 30 38 31 39 77 40 32 41 76 42 33 43 34 44 35 45 70 46
REMARK SMILES IDX 36 47 75 48 69 49 71 50 37 51 74 52 68 53 67 54 38 56 60 57
REMARK SMILES IDX 45 58 59 59 46 60 49 61 58 62 72 63 47 64 48 65 57 67 73 68
REMARK SMILES IDX 50 69 39 70 40 71 44 72 41 73 43 74 42 75 61 76 62 77 66 78
REMARK SMILES IDX 63 79 65 80 64 81 51 82 52 83 56 84 53 85 55 86 54 87
REMARK H PARENT 22 6 18 11 18 12 27 36 71 55 49 66
REMARK Flexibility Score: inf
ROOT
ATOM      1  C   UNL A   1      40.739  21.858  26.182  1.00  0.00     0.023 C 
ENDROOT
BRANCH   1   2
ATOM      2  C   UNL A   1      39.348  22.454  26.448  1.00  0.00     0.116 C 
BRANCH   2   3
ATOM      3  N   UNL A   1      38.185  21.590  26.303  1.00  0.00    -0.351 N 
ATOM      4  C   UNL A   1      37.331  21.480  25.231  1.00  0.00     0.279 C 
ATOM      5  O   UNL A   1      36.916  20.332  25.008  1.00  0.00    -0.268 OA
ATOM      6  H   UNL A   1      37.984  21.009  27.073  1.00  0.00     0.163 HD
BRANCH   4   7
ATOM      7  C   UNL A   1      36.714  22.642  24.393  1.00  0.00     0.283 C 
ATOM      8  C   UNL A   1      34.434  22.945  23.581  1.00  0.00     0.278 C 
ATOM      9  N   UNL A   1      35.736  22.296  23.328  1.00  0.00    -0.320 N 
ATOM     10  S   UNL A   1      34.850  24.528  24.336  1.00  0.00    -0.087 SA
ATOM     11  H   UNL A   1      36.096  22.610  22.428  1.00  0.00     0.348 HD
ATOM     12  H   UNL A   1      35.601  21.285  23.324  1.00  0.00     0.348 HD
ATOM     13  C   UNL A   1      36.210  23.790  25.280  1.00  0.00     0.151 C 
BRANCH   8  14
ATOM     14  C   UNL A   1      33.654  22.027  24.461  1.00  0.00     0.067 A 
ATOM     15  C   UNL A   1      32.260  22.093  24.786  1.00  0.00     0.103 A 
ATOM     16  N   UNL A   1      31.843  20.857  25.163  1.00  0.00    -0.167 NA
ATOM     17  N   UNL A   1      32.963  20.062  25.107  1.00  0.00    -0.240 N 
ATOM     18  C   UNL A   1      34.081  20.863  25.079  1.00  0.00     0.126 A 
BRANCH  15  19
ATOM     19  C   UNL A   1      31.355  23.266  24.596  1.00  0.00     0.003 A 
ATOM     20  C   UNL A   1      29.134  26.968  23.941  1.00  0.00     0.044 C 
ATOM     21  C   UNL A   1      29.878  25.688  24.193  1.00  0.00    -0.051 A 
ATOM     22  C   UNL A   1      30.167  24.851  23.123  1.00  0.00     0.004 A 
ATOM     23  C   UNL A   1      30.290  25.293  25.470  1.00  0.00     0.004 A 
ATOM     24  C   UNL A   1      30.904  23.678  23.327  1.00  0.00     0.011 A 
ATOM     25  C   UNL A   1      31.009  24.093  25.670  1.00  0.00     0.011 A 
ENDBRANCH  15  19
BRANCH  17  26
ATOM     26  C   UNL A   1      33.014  18.645  24.820  1.00  0.00     0.065 A 
ATOM     27  C   UNL A   1      33.656  18.120  23.700  1.00  0.00     0.028 A 
ATOM     28  C   UNL A   1      32.537  17.719  25.754  1.00  0.00     0.028 A 
ATOM     29  C   UNL A   1      33.842  16.741  23.512  1.00  0.00     0.002 A 
ATOM     30  C   UNL A   1      32.646  16.335  25.535  1.00  0.00     0.002 A 
ATOM     31  C   UNL A   1      33.299  15.843  24.413  1.00  0.00     0.000 A 
ENDBRANCH  17  26
ENDBRANCH   8  14
ENDBRANCH   4   7
ENDBRANCH   2   3
ENDBRANCH   1   2
BRANCH   1  32
ATOM     32  C   UNL A   1      41.544  21.057  27.274  1.00  0.00     0.023 C 
BRANCH  32  33
ATOM     33  C   UNL A   1      42.326  19.768  26.954  1.00  0.00     0.116 C 
BRANCH  33  34
ATOM     34  N   UNL A   1      42.883  19.630  25.605  1.00  0.00    -0.352 N 
ATOM     35  C   UNL A   1      43.792  20.427  24.901  1.00  0.00     0.251 C 
ATOM     36  H   UNL A   1      42.562  18.841  25.109  1.00  0.00     0.163 HD
ATOM     37  O   UNL A   1      44.335  19.948  23.915  1.00  0.00    -0.269 OA
BRANCH  35  38
ATOM     38  C   UNL A   1      44.181  21.818  25.314  1.00  0.00     0.039 A 
ATOM     39  C   UNL A   1      44.986  22.007  26.459  1.00  0.00     0.014 A 
ATOM     40  C   UNL A   1      43.796  22.948  24.611  1.00  0.00     0.014 A 
ATOM     41  C   UNL A   1      45.179  23.289  27.009  1.00  0.00     0.010 A 
ATOM     42  C   UNL A   1      43.947  24.211  25.173  1.00  0.00     0.010 A 
ATOM     43  C   UNL A   1      44.552  24.383  26.418  1.00  0.00    -0.014 A 
BRANCH  43  44
ATOM     44  C   UNL A   1      44.244  25.648  27.101  1.00  0.00     0.031 A 
ATOM     45  C   UNL A   1      42.888  26.233  27.197  1.00  0.00     0.074 A 
ATOM     46  C   UNL A   1      45.193  26.146  27.928  1.00  0.00     0.049 A 
ATOM     47  N   UNL A   1      42.644  27.476  27.477  1.00  0.00    -0.248 NA
ATOM     48  C   UNL A   1      41.679  25.445  27.009  1.00  0.00     0.031 C 
ATOM     49  C   UNL A   1      45.016  27.127  28.999  1.00  0.00     0.029 A 
ATOM     50  N   UNL A   1      46.570  25.941  27.901  1.00  0.00    -0.354 N 
ATOM     51  C   UNL A   1      41.320  27.560  27.856  1.00  0.00     0.074 A 
ATOM     52  C   UNL A   1      40.742  26.303  27.431  1.00  0.00     0.031 C 
ATOM     53  C   UNL A   1      46.217  27.621  29.342  1.00  0.00     0.029 A 
ATOM     54  C   UNL A   1      47.172  27.110  28.377  1.00  0.00     0.049 A 
ATOM     55  H   UNL A   1      47.033  25.126  27.601  1.00  0.00     0.167 HD
ATOM     56  C   UNL A   1      40.889  28.601  28.632  1.00  0.00     0.031 A 
ATOM     57  C   UNL A   1      48.007  27.879  27.620  1.00  0.00     0.031 A 
ATOM     58  C   UNL A   1      41.973  29.540  28.961  1.00  0.00     0.049 A 
ATOM     59  C   UNL A   1      47.450  29.270  27.422  1.00  0.00     0.074 A 
ATOM     60  C   UNL A   1      42.662  29.802  30.135  1.00  0.00     0.029 A 
ATOM     61  N   UNL A   1      42.669  30.197  27.948  1.00  0.00    -0.354 N 
ATOM     62  N   UNL A   1      46.215  29.588  27.696  1.00  0.00    -0.248 NA
ATOM     63  C   UNL A   1      48.200  30.397  26.879  1.00  0.00     0.031 C 
ATOM     64  C   UNL A   1      43.826  30.546  29.808  1.00  0.00     0.029 A 
ATOM     65  C   UNL A   1      43.831  30.764  28.441  1.00  0.00     0.049 A 
ATOM     66  H   UNL A   1      42.374  30.252  27.011  1.00  0.00     0.167 HD
ATOM     67  C   UNL A   1      45.987  30.892  27.387  1.00  0.00     0.074 A 
ATOM     68  C   UNL A   1      47.263  31.363  26.875  1.00  0.00     0.031 C 
ATOM     69  C   UNL A   1      44.763  31.464  27.562  1.00  0.00     0.031 A 
BRANCH  56  70
ATOM     70  C   UNL A   1      39.538  28.645  29.340  1.00  0.00    -0.014 A 
ATOM     71  C   UNL A   1      38.409  29.182  28.687  1.00  0.00     0.009 A 
ATOM     72  C   UNL A   1      39.306  28.192  30.651  1.00  0.00     0.009 A 
ATOM     73  C   UNL A   1      37.168  29.339  29.326  1.00  0.00     0.001 A 
ATOM     74  C   UNL A   1      38.078  28.373  31.310  1.00  0.00     0.001 A 
ATOM     75  C   UNL A   1      37.009  28.956  30.650  1.00  0.00     0.000 A 
ENDBRANCH  56  70
BRANCH  57  76
ATOM     76  C   UNL A   1      48.767  27.090  26.614  1.00  0.00    -0.014 A 
ATOM     77  C   UNL A   1      48.459  27.326  25.260  1.00  0.00     0.009 A 
ATOM     78  C   UNL A   1      50.020  26.544  26.934  1.00  0.00     0.009 A 
ATOM     79  C   UNL A   1      49.430  27.164  24.270  1.00  0.00     0.001 A 
ATOM     80  C   UNL A   1      50.985  26.371  25.933  1.00  0.00     0.001 A 
ATOM     81  C   UNL A   1      50.705  26.724  24.612  1.00  0.00     0.000 A 
ENDBRANCH  57  76
BRANCH  69  82
ATOM     82  C   UNL A   1      44.377  32.791  26.980  1.00  0.00    -0.014 A 
ATOM     83  C   UNL A   1      44.169  32.987  25.607  1.00  0.00     0.009 A 
ATOM     84  C   UNL A   1      44.071  33.862  27.841  1.00  0.00     0.009 A 
ATOM     85  C   UNL A   1      43.737  34.221  25.109  1.00  0.00     0.001 A 
ATOM     86  C   UNL A   1      43.601  35.081  27.351  1.00  0.00     0.001 A 
ATOM     87  C   UNL A   1      43.449  35.266  25.982  1.00  0.00     0.000 A 
ENDBRANCH  69  82
ENDBRANCH  43  44
ENDBRANCH  35  38
ENDBRANCH  33  34
ENDBRANCH  32  33
ENDBRANCH   1  32
TORSDOF 14
ENDMDL
