MODEL 1
REMARK VINA RESULT:     -10.4      0.000      0.000
REMARK SMILES N#CCSc1nnnn1-c1ccc(C(=O)NCCCCNC(=O)c2ccc(-c3c4nc(c(-c5ccccc5)c5ccc([nH]5)c(-c5ccccc5)c5nc(c(-c6ccccc6)c6ccc3[nH]6)C=C5)C=C4)cc2)cc1
REMARK SMILES IDX 17 1 16 2 14 3 15 4 13 6 10 7 11 8 73 9 12 10 72 11 9 12
REMARK SMILES IDX 5 13 6 14 7 15 8 16 4 17 3 18 2 19 1 20 18 21 19 22 20 23
REMARK SMILES IDX 21 24 22 25 23 27 24 28 25 29 71 30 26 31 70 32 27 33 28 34
REMARK SMILES IDX 29 35 64 36 30 37 69 38 63 39 65 40 31 41 68 42 62 43 61 44
REMARK SMILES IDX 32 46 54 47 39 48 53 49 40 50 43 51 52 52 66 53 41 54 42 55
REMARK SMILES IDX 51 57 67 58 44 59 33 60 34 61 38 62 35 63 37 64 36 65 55 66
REMARK SMILES IDX 56 67 60 68 57 69 59 70 58 71 45 72 46 73 50 74 47 75 49 76
REMARK SMILES IDX 48 77
REMARK H PARENT 16 5 21 26 65 45 43 56
REMARK Flexibility Score: inf
ROOT
ATOM      1  C   UNL A   1      33.611  31.977  28.028  1.00  0.00     0.116 C 
ENDROOT
BRANCH   1   2
ATOM      2  N   UNL A   1      34.680  30.993  28.049  1.00  0.00    -0.352 N 
ATOM      3  C   UNL A   1      34.795  29.713  27.565  1.00  0.00     0.251 C 
ATOM      4  O   UNL A   1      35.882  29.153  27.715  1.00  0.00    -0.269 OA
ATOM      5  H   UNL A   1      35.491  31.311  28.506  1.00  0.00     0.163 HD
BRANCH   3   6
ATOM      6  C   UNL A   1      33.714  29.000  26.823  1.00  0.00     0.039 A 
ATOM      7  C   UNL A   1      31.697  27.903  25.225  1.00  0.00     0.069 A 
ATOM      8  C   UNL A   1      32.976  28.043  24.692  1.00  0.00     0.029 A 
ATOM      9  C   UNL A   1      31.446  28.188  26.568  1.00  0.00     0.029 A 
ATOM     10  C   UNL A   1      33.970  28.626  25.488  1.00  0.00     0.016 A 
ATOM     11  C   UNL A   1      32.470  28.684  27.369  1.00  0.00     0.016 A 
BRANCH   7  12
ATOM     12  N   UNL A   1      30.624  27.497  24.416  1.00  0.00    -0.187 N 
ATOM     13  C   UNL A   1      29.645  28.272  23.829  1.00  0.00     0.215 A 
ATOM     14  N   UNL A   1      28.676  27.487  23.426  1.00  0.00    -0.101 NA
ATOM     15  N   UNL A   1      29.097  26.204  23.698  1.00  0.00    -0.022 NA
ATOM     16  N   UNL A   1      30.313  26.199  24.232  1.00  0.00    -0.039 NA
BRANCH  13  17
ATOM     17  S   UNL A   1      29.891  29.940  23.395  1.00  0.00    -0.069 SA
BRANCH  17  18
ATOM     18  C   UNL A   1      28.216  30.563  23.122  1.00  0.00     0.198 C 
BRANCH  18  19
ATOM     19  C   UNL A   1      28.165  32.000  22.630  1.00  0.00     0.074 C 
ATOM     20  N   UNL A   1      28.123  33.193  22.222  1.00  0.00    -0.197 NA
ENDBRANCH  18  19
ENDBRANCH  17  18
ENDBRANCH  13  17
ENDBRANCH   7  12
ENDBRANCH   3   6
ENDBRANCH   1   2
BRANCH   1  21
ATOM     21  C   UNL A   1      34.151  33.404  28.177  1.00  0.00     0.023 C 
BRANCH  21  22
ATOM     22  C   UNL A   1      33.095  34.470  28.505  1.00  0.00     0.023 C 
BRANCH  22  23
ATOM     23  C   UNL A   1      33.604  35.647  29.330  1.00  0.00     0.116 C 
BRANCH  23  24
ATOM     24  N   UNL A   1      32.896  35.801  30.601  1.00  0.00    -0.352 N 
ATOM     25  C   UNL A   1      33.046  35.062  31.761  1.00  0.00     0.251 C 
ATOM     26  H   UNL A   1      32.227  36.523  30.635  1.00  0.00     0.163 HD
ATOM     27  O   UNL A   1      32.164  35.014  32.602  1.00  0.00    -0.269 OA
BRANCH  25  28
ATOM     28  C   UNL A   1      34.316  34.347  31.974  1.00  0.00     0.039 A 
ATOM     29  C   UNL A   1      34.429  32.971  31.757  1.00  0.00     0.014 A 
ATOM     30  C   UNL A   1      35.417  35.105  32.360  1.00  0.00     0.014 A 
ATOM     31  C   UNL A   1      35.688  32.383  31.848  1.00  0.00     0.010 A 
ATOM     32  C   UNL A   1      36.673  34.558  32.300  1.00  0.00     0.010 A 
ATOM     33  C   UNL A   1      36.811  33.189  32.097  1.00  0.00    -0.014 A 
BRANCH  33  34
ATOM     34  C   UNL A   1      38.160  32.638  32.018  1.00  0.00     0.031 A 
ATOM     35  C   UNL A   1      38.886  32.622  33.315  1.00  0.00     0.074 A 
ATOM     36  C   UNL A   1      38.623  31.978  30.933  1.00  0.00     0.049 A 
ATOM     37  N   UNL A   1      39.891  33.353  33.663  1.00  0.00    -0.248 NA
ATOM     38  C   UNL A   1      38.341  31.801  34.410  1.00  0.00     0.031 C 
ATOM     39  C   UNL A   1      37.873  31.616  29.720  1.00  0.00     0.029 A 
ATOM     40  N   UNL A   1      39.826  31.371  30.730  1.00  0.00    -0.354 N 
ATOM     41  C   UNL A   1      40.255  32.915  34.934  1.00  0.00     0.074 A 
ATOM     42  C   UNL A   1      39.154  32.126  35.418  1.00  0.00     0.031 C 
ATOM     43  C   UNL A   1      38.540  30.656  29.044  1.00  0.00     0.029 A 
ATOM     44  C   UNL A   1      39.841  30.482  29.661  1.00  0.00     0.049 A 
ATOM     45  H   UNL A   1      40.615  31.547  31.291  1.00  0.00     0.167 HD
ATOM     46  C   UNL A   1      41.555  32.966  35.339  1.00  0.00     0.031 A 
ATOM     47  C   UNL A   1      40.848  29.650  29.305  1.00  0.00     0.031 A 
ATOM     48  C   UNL A   1      42.347  33.748  34.425  1.00  0.00     0.049 A 
ATOM     49  C   UNL A   1      42.090  30.183  29.899  1.00  0.00     0.074 A 
ATOM     50  C   UNL A   1      42.477  35.075  34.083  1.00  0.00     0.029 A 
ATOM     51  N   UNL A   1      42.895  33.005  33.410  1.00  0.00    -0.354 N 
ATOM     52  N   UNL A   1      42.615  31.323  29.551  1.00  0.00    -0.248 NA
ATOM     53  C   UNL A   1      42.580  29.625  31.152  1.00  0.00     0.031 C 
ATOM     54  C   UNL A   1      42.895  35.082  32.718  1.00  0.00     0.029 A 
ATOM     55  C   UNL A   1      43.063  33.765  32.288  1.00  0.00     0.049 A 
ATOM     56  H   UNL A   1      43.136  32.053  33.482  1.00  0.00     0.167 HD
ATOM     57  C   UNL A   1      43.143  31.829  30.723  1.00  0.00     0.074 A 
ATOM     58  C   UNL A   1      43.257  30.680  31.615  1.00  0.00     0.031 C 
ATOM     59  C   UNL A   1      43.135  33.171  30.969  1.00  0.00     0.031 A 
BRANCH  46  60
ATOM     60  C   UNL A   1      42.224  31.897  36.187  1.00  0.00    -0.014 A 
ATOM     61  C   UNL A   1      43.166  32.310  37.151  1.00  0.00     0.009 A 
ATOM     62  C   UNL A   1      42.214  30.527  35.871  1.00  0.00     0.009 A 
ATOM     63  C   UNL A   1      44.098  31.417  37.697  1.00  0.00     0.001 A 
ATOM     64  C   UNL A   1      43.121  29.625  36.440  1.00  0.00     0.001 A 
ATOM     65  C   UNL A   1      44.082  30.077  37.332  1.00  0.00     0.000 A 
ENDBRANCH  46  60
BRANCH  47  66
ATOM     66  C   UNL A   1      40.787  28.317  28.674  1.00  0.00    -0.014 A 
ATOM     67  C   UNL A   1      40.020  27.287  29.241  1.00  0.00     0.009 A 
ATOM     68  C   UNL A   1      41.247  28.144  27.355  1.00  0.00     0.009 A 
ATOM     69  C   UNL A   1      39.680  26.149  28.496  1.00  0.00     0.001 A 
ATOM     70  C   UNL A   1      40.907  27.008  26.612  1.00  0.00     0.001 A 
ATOM     71  C   UNL A   1      40.108  26.020  27.177  1.00  0.00     0.000 A 
ENDBRANCH  47  66
BRANCH  59  72
ATOM     72  C   UNL A   1      43.006  34.096  29.792  1.00  0.00    -0.014 A 
ATOM     73  C   UNL A   1      41.802  34.695  29.392  1.00  0.00     0.009 A 
ATOM     74  C   UNL A   1      44.188  34.456  29.129  1.00  0.00     0.009 A 
ATOM     75  C   UNL A   1      41.784  35.618  28.339  1.00  0.00     0.001 A 
ATOM     76  C   UNL A   1      44.174  35.391  28.095  1.00  0.00     0.001 A 
ATOM     77  C   UNL A   1      42.971  35.969  27.698  1.00  0.00     0.000 A 
ENDBRANCH  59  72
ENDBRANCH  33  34
ENDBRANCH  25  28
ENDBRANCH  23  24
ENDBRANCH  22  23
ENDBRANCH  21  22
ENDBRANCH   1  21
TORSDOF 15
ENDMDL
MODEL 2
REMARK VINA RESULT:     -10.3      4.839      9.479
REMARK SMILES N#CCSc1nnnn1-c1ccc(C(=O)NCCCCNC(=O)c2ccc(-c3c4nc(c(-c5ccccc5)c5ccc([nH]5)c(-c5ccccc5)c5nc(c(-c6ccccc6)c6ccc3[nH]6)C=C5)C=C4)cc2)cc1
REMARK SMILES IDX 17 1 16 2 14 3 15 4 13 6 10 7 11 8 73 9 12 10 72 11 9 12
REMARK SMILES IDX 5 13 6 14 7 15 8 16 4 17 3 18 2 19 1 20 18 21 19 22 20 23
REMARK SMILES IDX 21 24 22 25 23 27 24 28 25 29 71 30 26 31 70 32 27 33 28 34
REMARK SMILES IDX 29 35 64 36 30 37 69 38 63 39 65 40 31 41 68 42 62 43 61 44
REMARK SMILES IDX 32 46 54 47 39 48 53 49 40 50 43 51 52 52 66 53 41 54 42 55
REMARK SMILES IDX 51 57 67 58 44 59 33 60 34 61 38 62 35 63 37 64 36 65 55 66
REMARK SMILES IDX 56 67 60 68 57 69 59 70 58 71 45 72 46 73 50 74 47 75 49 76
REMARK SMILES IDX 48 77
REMARK H PARENT 16 5 21 26 65 45 43 56
REMARK Flexibility Score: inf
ROOT
ATOM      1  C   UNL A   1      37.703  22.857  26.058  1.00  0.00     0.116 C 
ENDROOT
BRANCH   1   2
ATOM      2  N   UNL A   1      36.672  21.837  25.980  1.00  0.00    -0.352 N 
ATOM      3  C   UNL A   1      35.305  21.883  25.864  1.00  0.00     0.251 C 
ATOM      4  O   UNL A   1      34.713  20.806  25.777  1.00  0.00    -0.269 OA
ATOM      5  H   UNL A   1      37.029  20.920  26.021  1.00  0.00     0.163 HD
BRANCH   3   6
ATOM      6  C   UNL A   1      34.516  23.147  25.771  1.00  0.00     0.039 A 
ATOM      7  C   UNL A   1      33.293  25.662  25.718  1.00  0.00     0.069 A 
ATOM      8  C   UNL A   1      34.409  25.439  24.914  1.00  0.00     0.029 A 
ATOM      9  C   UNL A   1      32.716  24.620  26.445  1.00  0.00     0.029 A 
ATOM     10  C   UNL A   1      35.035  24.188  24.975  1.00  0.00     0.016 A 
ATOM     11  C   UNL A   1      33.302  23.359  26.424  1.00  0.00     0.016 A 
BRANCH   7  12
ATOM     12  N   UNL A   1      32.739  26.946  25.834  1.00  0.00    -0.187 N 
ATOM     13  C   UNL A   1      31.772  27.542  25.050  1.00  0.00     0.215 A 
ATOM     14  N   UNL A   1      31.766  28.829  25.300  1.00  0.00    -0.101 NA
ATOM     15  N   UNL A   1      32.688  29.019  26.305  1.00  0.00    -0.022 NA
ATOM     16  N   UNL A   1      33.228  27.867  26.687  1.00  0.00    -0.039 NA
BRANCH  13  17
ATOM     17  S   UNL A   1      30.558  26.636  24.190  1.00  0.00    -0.069 SA
BRANCH  17  18
ATOM     18  C   UNL A   1      30.958  26.928  22.451  1.00  0.00     0.198 C 
BRANCH  18  19
ATOM     19  C   UNL A   1      32.448  27.041  22.172  1.00  0.00     0.074 C 
ATOM     20  N   UNL A   1      33.684  27.134  21.940  1.00  0.00    -0.197 NA
ENDBRANCH  18  19
ENDBRANCH  17  18
ENDBRANCH  13  17
ENDBRANCH   7  12
ENDBRANCH   3   6
ENDBRANCH   1   2
BRANCH   1  21
ATOM     21  C   UNL A   1      39.106  22.241  26.128  1.00  0.00     0.023 C 
BRANCH  21  22
ATOM     22  C   UNL A   1      39.255  20.879  25.436  1.00  0.00     0.023 C 
BRANCH  22  23
ATOM     23  C   UNL A   1      39.707  19.741  26.344  1.00  0.00     0.116 C 
BRANCH  23  24
ATOM     24  N   UNL A   1      40.944  19.105  25.890  1.00  0.00    -0.352 N 
ATOM     25  C   UNL A   1      42.180  19.690  25.676  1.00  0.00     0.251 C 
ATOM     26  H   UNL A   1      40.890  18.138  25.712  1.00  0.00     0.163 HD
ATOM     27  O   UNL A   1      43.009  19.174  24.946  1.00  0.00    -0.269 OA
BRANCH  25  28
ATOM     28  C   UNL A   1      42.486  20.949  26.376  1.00  0.00     0.039 A 
ATOM     29  C   UNL A   1      42.889  22.094  25.684  1.00  0.00     0.014 A 
ATOM     30  C   UNL A   1      42.317  20.968  27.757  1.00  0.00     0.014 A 
ATOM     31  C   UNL A   1      43.034  23.285  26.392  1.00  0.00     0.010 A 
ATOM     32  C   UNL A   1      42.311  22.165  28.424  1.00  0.00     0.010 A 
ATOM     33  C   UNL A   1      42.719  23.318  27.760  1.00  0.00    -0.014 A 
BRANCH  33  34
ATOM     34  C   UNL A   1      42.683  24.581  28.490  1.00  0.00     0.031 A 
ATOM     35  C   UNL A   1      41.546  25.464  28.121  1.00  0.00     0.074 A 
ATOM     36  C   UNL A   1      43.455  24.828  29.571  1.00  0.00     0.049 A 
ATOM     37  N   UNL A   1      41.593  26.576  27.467  1.00  0.00    -0.248 NA
ATOM     38  C   UNL A   1      40.177  24.983  28.377  1.00  0.00     0.031 C 
ATOM     39  C   UNL A   1      44.366  23.894  30.252  1.00  0.00     0.029 A 
ATOM     40  N   UNL A   1      43.500  25.925  30.378  1.00  0.00    -0.354 N 
ATOM     41  C   UNL A   1      40.285  27.054  27.440  1.00  0.00     0.074 A 
ATOM     42  C   UNL A   1      39.445  25.950  27.818  1.00  0.00     0.031 C 
ATOM     43  C   UNL A   1      44.662  24.364  31.483  1.00  0.00     0.029 A 
ATOM     44  C   UNL A   1      44.132  25.708  31.598  1.00  0.00     0.049 A 
ATOM     45  H   UNL A   1      43.117  26.795  30.121  1.00  0.00     0.167 HD
ATOM     46  C   UNL A   1      40.037  28.395  27.430  1.00  0.00     0.031 A 
ATOM     47  C   UNL A   1      44.212  26.569  32.640  1.00  0.00     0.031 A 
ATOM     48  C   UNL A   1      41.245  29.138  27.177  1.00  0.00     0.049 A 
ATOM     49  C   UNL A   1      43.975  27.926  32.109  1.00  0.00     0.074 A 
ATOM     50  C   UNL A   1      42.089  29.359  26.112  1.00  0.00     0.029 A 
ATOM     51  N   UNL A   1      41.927  29.469  28.320  1.00  0.00    -0.354 N 
ATOM     52  N   UNL A   1      44.784  28.517  31.276  1.00  0.00    -0.248 NA
ATOM     53  C   UNL A   1      42.647  28.514  32.217  1.00  0.00     0.031 C 
ATOM     54  C   UNL A   1      43.376  29.595  26.683  1.00  0.00     0.029 A 
ATOM     55  C   UNL A   1      43.267  29.568  28.074  1.00  0.00     0.049 A 
ATOM     56  H   UNL A   1      41.508  29.617  29.198  1.00  0.00     0.167 HD
ATOM     57  C   UNL A   1      43.949  29.242  30.447  1.00  0.00     0.074 A 
ATOM     58  C   UNL A   1      42.691  29.352  31.177  1.00  0.00     0.031 C 
ATOM     59  C   UNL A   1      44.249  29.406  29.126  1.00  0.00     0.031 A 
BRANCH  46  60
ATOM     60  C   UNL A   1      38.895  29.053  28.184  1.00  0.00    -0.014 A 
ATOM     61  C   UNL A   1      38.749  28.758  29.555  1.00  0.00     0.009 A 
ATOM     62  C   UNL A   1      37.797  29.671  27.559  1.00  0.00     0.009 A 
ATOM     63  C   UNL A   1      37.544  28.990  30.233  1.00  0.00     0.001 A 
ATOM     64  C   UNL A   1      36.604  29.936  28.242  1.00  0.00     0.001 A 
ATOM     65  C   UNL A   1      36.468  29.569  29.572  1.00  0.00     0.000 A 
ENDBRANCH  46  60
BRANCH  47  66
ATOM     66  C   UNL A   1      44.263  26.288  34.088  1.00  0.00    -0.014 A 
ATOM     67  C   UNL A   1      43.155  25.743  34.755  1.00  0.00     0.009 A 
ATOM     68  C   UNL A   1      45.501  26.283  34.758  1.00  0.00     0.009 A 
ATOM     69  C   UNL A   1      43.292  25.164  36.024  1.00  0.00     0.001 A 
ATOM     70  C   UNL A   1      45.638  25.705  36.025  1.00  0.00     0.001 A 
ATOM     71  C   UNL A   1      44.537  25.128  36.649  1.00  0.00     0.000 A 
ENDBRANCH  47  66
BRANCH  59  72
ATOM     72  C   UNL A   1      45.680  29.221  28.707  1.00  0.00    -0.014 A 
ATOM     73  C   UNL A   1      46.217  28.005  28.258  1.00  0.00     0.009 A 
ATOM     74  C   UNL A   1      46.487  30.368  28.665  1.00  0.00     0.009 A 
ATOM     75  C   UNL A   1      47.538  27.939  27.798  1.00  0.00     0.001 A 
ATOM     76  C   UNL A   1      47.795  30.307  28.187  1.00  0.00     0.001 A 
ATOM     77  C   UNL A   1      48.321  29.091  27.758  1.00  0.00     0.000 A 
ENDBRANCH  59  72
ENDBRANCH  33  34
ENDBRANCH  25  28
ENDBRANCH  23  24
ENDBRANCH  22  23
ENDBRANCH  21  22
ENDBRANCH   1  21
TORSDOF 15
ENDMDL
MODEL 3
REMARK VINA RESULT:     -10.2      4.042      6.513
REMARK SMILES N#CCSc1nnnn1-c1ccc(C(=O)NCCCCNC(=O)c2ccc(-c3c4nc(c(-c5ccccc5)c5ccc([nH]5)c(-c5ccccc5)c5nc(c(-c6ccccc6)c6ccc3[nH]6)C=C5)C=C4)cc2)cc1
REMARK SMILES IDX 17 1 16 2 14 3 15 4 13 6 10 7 11 8 73 9 12 10 72 11 9 12
REMARK SMILES IDX 5 13 6 14 7 15 8 16 4 17 3 18 2 19 1 20 18 21 19 22 20 23
REMARK SMILES IDX 21 24 22 25 23 27 24 28 25 29 71 30 26 31 70 32 27 33 28 34
REMARK SMILES IDX 29 35 64 36 30 37 69 38 63 39 65 40 31 41 68 42 62 43 61 44
REMARK SMILES IDX 32 46 54 47 39 48 53 49 40 50 43 51 52 52 66 53 41 54 42 55
REMARK SMILES IDX 51 57 67 58 44 59 33 60 34 61 38 62 35 63 37 64 36 65 55 66
REMARK SMILES IDX 56 67 60 68 57 69 59 70 58 71 45 72 46 73 50 74 47 75 49 76
REMARK SMILES IDX 48 77
REMARK H PARENT 16 5 21 26 65 45 43 56
REMARK Flexibility Score: inf
ROOT
ATOM      1  C   UNL A   1      35.889  29.682  28.546  1.00  0.00     0.116 C 
ENDROOT
BRANCH   1   2
ATOM      2  N   UNL A   1      34.822  30.570  28.117  1.00  0.00    -0.352 N 
ATOM      3  C   UNL A   1      33.638  30.371  27.450  1.00  0.00     0.251 C 
ATOM      4  O   UNL A   1      32.920  31.356  27.276  1.00  0.00    -0.269 OA
ATOM      5  H   UNL A   1      34.982  31.512  28.353  1.00  0.00     0.163 HD
BRANCH   3   6
ATOM      6  C   UNL A   1      33.153  29.036  26.990  1.00  0.00     0.039 A 
ATOM      7  C   UNL A   1      32.184  26.472  26.432  1.00  0.00     0.069 A 
ATOM      8  C   UNL A   1      31.314  27.418  26.969  1.00  0.00     0.029 A 
ATOM      9  C   UNL A   1      33.483  26.823  26.062  1.00  0.00     0.029 A 
ATOM     10  C   UNL A   1      31.818  28.688  27.278  1.00  0.00     0.016 A 
ATOM     11  C   UNL A   1      33.939  28.117  26.296  1.00  0.00     0.016 A 
BRANCH   7  12
ATOM     12  N   UNL A   1      31.782  25.137  26.275  1.00  0.00    -0.187 N 
ATOM     13  C   UNL A   1      31.255  24.521  25.158  1.00  0.00     0.215 A 
ATOM     14  N   UNL A   1      30.735  23.373  25.520  1.00  0.00    -0.101 NA
ATOM     15  N   UNL A   1      31.011  23.244  26.863  1.00  0.00    -0.022 NA
ATOM     16  N   UNL A   1      31.714  24.279  27.312  1.00  0.00    -0.039 NA
BRANCH  13  17
ATOM     17  S   UNL A   1      31.595  25.052  23.535  1.00  0.00    -0.069 SA
BRANCH  17  18
ATOM     18  C   UNL A   1      33.195  24.296  23.164  1.00  0.00     0.198 C 
BRANCH  18  19
ATOM     19  C   UNL A   1      33.760  23.459  24.300  1.00  0.00     0.074 C 
ATOM     20  N   UNL A   1      34.228  22.765  25.243  1.00  0.00    -0.197 NA
ENDBRANCH  18  19
ENDBRANCH  17  18
ENDBRANCH  13  17
ENDBRANCH   7  12
ENDBRANCH   3   6
ENDBRANCH   1   2
BRANCH   1  21
ATOM     21  C   UNL A   1      37.235  30.412  28.628  1.00  0.00     0.023 C 
BRANCH  21  22
ATOM     22  C   UNL A   1      37.143  31.943  28.703  1.00  0.00     0.023 C 
BRANCH  22  23
ATOM     23  C   UNL A   1      36.991  32.510  30.111  1.00  0.00     0.116 C 
BRANCH  23  24
ATOM     24  N   UNL A   1      37.938  33.587  30.397  1.00  0.00    -0.352 N 
ATOM     25  C   UNL A   1      39.157  33.507  31.046  1.00  0.00     0.251 C 
ATOM     26  H   UNL A   1      37.672  34.485  30.091  1.00  0.00     0.163 HD
ATOM     27  O   UNL A   1      39.666  34.485  31.566  1.00  0.00    -0.269 OA
BRANCH  25  28
ATOM     28  C   UNL A   1      39.848  32.206  31.074  1.00  0.00     0.039 A 
ATOM     29  C   UNL A   1      39.335  31.118  31.783  1.00  0.00     0.014 A 
ATOM     30  C   UNL A   1      41.016  32.089  30.327  1.00  0.00     0.014 A 
ATOM     31  C   UNL A   1      39.966  29.882  31.658  1.00  0.00     0.010 A 
ATOM     32  C   UNL A   1      41.545  30.848  30.084  1.00  0.00     0.010 A 
ATOM     33  C   UNL A   1      41.059  29.750  30.787  1.00  0.00    -0.014 A 
BRANCH  33  34
ATOM     34  C   UNL A   1      41.628  28.439  30.493  1.00  0.00     0.031 A 
ATOM     35  C   UNL A   1      42.420  27.856  31.608  1.00  0.00     0.074 A 
ATOM     36  C   UNL A   1      41.273  27.708  29.413  1.00  0.00     0.049 A 
ATOM     37  N   UNL A   1      43.699  27.693  31.663  1.00  0.00    -0.248 NA
ATOM     38  C   UNL A   1      41.727  27.555  32.872  1.00  0.00     0.031 C 
ATOM     39  C   UNL A   1      40.229  28.023  28.425  1.00  0.00     0.029 A 
ATOM     40  N   UNL A   1      41.673  26.462  29.034  1.00  0.00    -0.354 N 
ATOM     41  C   UNL A   1      43.945  27.047  32.872  1.00  0.00     0.074 A 
ATOM     42  C   UNL A   1      42.744  27.182  33.653  1.00  0.00     0.031 C 
ATOM     43  C   UNL A   1      39.908  26.908  27.733  1.00  0.00     0.029 A 
ATOM     44  C   UNL A   1      40.849  25.864  28.086  1.00  0.00     0.049 A 
ATOM     45  H   UNL A   1      42.474  26.023  29.400  1.00  0.00     0.167 HD
ATOM     46  C   UNL A   1      44.990  26.181  32.995  1.00  0.00     0.031 A 
ATOM     47  C   UNL A   1      40.926  24.595  27.623  1.00  0.00     0.031 A 
ATOM     48  C   UNL A   1      45.872  26.277  31.860  1.00  0.00     0.049 A 
ATOM     49  C   UNL A   1      42.295  24.110  27.890  1.00  0.00     0.074 A 
ATOM     50  C   UNL A   1      46.777  27.185  31.359  1.00  0.00     0.029 A 
ATOM     51  N   UNL A   1      45.537  25.423  30.840  1.00  0.00    -0.354 N 
ATOM     52  N   UNL A   1      43.353  24.614  27.321  1.00  0.00    -0.248 NA
ATOM     53  C   UNL A   1      42.546  23.292  29.068  1.00  0.00     0.031 C 
ATOM     54  C   UNL A   1      46.775  26.991  29.945  1.00  0.00     0.029 A 
ATOM     55  C   UNL A   1      45.916  25.937  29.632  1.00  0.00     0.049 A 
ATOM     56  H   UNL A   1      45.085  24.557  30.962  1.00  0.00     0.167 HD
ATOM     57  C   UNL A   1      44.326  24.557  28.300  1.00  0.00     0.074 A 
ATOM     58  C   UNL A   1      43.836  23.581  29.267  1.00  0.00     0.031 C 
ATOM     59  C   UNL A   1      45.275  25.533  28.398  1.00  0.00     0.031 A 
BRANCH  46  60
ATOM     60  C   UNL A   1      44.936  24.892  33.798  1.00  0.00    -0.014 A 
ATOM     61  C   UNL A   1      46.104  24.483  34.472  1.00  0.00     0.009 A 
ATOM     62  C   UNL A   1      43.924  23.925  33.659  1.00  0.00     0.009 A 
ATOM     63  C   UNL A   1      46.279  23.161  34.904  1.00  0.00     0.001 A 
ATOM     64  C   UNL A   1      44.081  22.613  34.119  1.00  0.00     0.001 A 
ATOM     65  C   UNL A   1      45.271  22.223  34.716  1.00  0.00     0.000 A 
ENDBRANCH  46  60
BRANCH  47  66
ATOM     66  C   UNL A   1      39.849  23.695  27.163  1.00  0.00    -0.014 A 
ATOM     67  C   UNL A   1      38.622  24.211  26.718  1.00  0.00     0.009 A 
ATOM     68  C   UNL A   1      40.134  22.345  26.885  1.00  0.00     0.009 A 
ATOM     69  C   UNL A   1      37.736  23.419  25.975  1.00  0.00     0.001 A 
ATOM     70  C   UNL A   1      39.249  21.556  26.142  1.00  0.00     0.001 A 
ATOM     71  C   UNL A   1      38.059  22.099  25.672  1.00  0.00     0.000 A 
ENDBRANCH  47  66
BRANCH  59  72
ATOM     72  C   UNL A   1      45.542  26.372  27.181  1.00  0.00    -0.014 A 
ATOM     73  C   UNL A   1      44.967  27.632  26.953  1.00  0.00     0.009 A 
ATOM     74  C   UNL A   1      46.508  25.902  26.278  1.00  0.00     0.009 A 
ATOM     75  C   UNL A   1      45.339  28.390  25.836  1.00  0.00     0.001 A 
ATOM     76  C   UNL A   1      46.894  26.666  25.179  1.00  0.00     0.001 A 
ATOM     77  C   UNL A   1      46.306  27.909  24.956  1.00  0.00     0.000 A 
ENDBRANCH  59  72
ENDBRANCH  33  34
ENDBRANCH  25  28
ENDBRANCH  23  24
ENDBRANCH  22  23
ENDBRANCH  21  22
ENDBRANCH   1  21
TORSDOF 15
ENDMDL
