MODEL 1
REMARK VINA RESULT:     -11.5      0.000      0.000
REMARK SMILES O=C(NCCCCNC(=O)c1ccccc1Nc1cccc(C(F)(F)F)c1)c1ccc(-c2c3nc(c(-c4ccccc4)c4ccc([nH]4)c(-c4ccccc4)c4nc(c(-c5ccccc5)c5ccc2[nH]5)C=C4)C=C3)cc1
REMARK SMILES IDX 6 1 5 2 4 3 3 4 1 5 2 6 28 8 29 9 75 10 30 11 74 12 31 13
REMARK SMILES IDX 32 14 33 15 68 16 34 17 73 18 67 19 69 20 35 21 72 22 66 23
REMARK SMILES IDX 65 24 36 26 58 27 43 28 57 29 44 30 47 31 56 32 70 33 45 34
REMARK SMILES IDX 46 35 55 37 71 38 48 39 37 40 38 41 42 42 39 43 41 44 40 45
REMARK SMILES IDX 59 46 60 47 64 48 61 49 63 50 62 51 49 52 50 53 54 54 51 55
REMARK SMILES IDX 53 56 52 57 7 58 8 59 9 60 10 62 11 63 12 64 16 65 13 66
REMARK SMILES IDX 15 67 14 68 17 69 18 71 19 72 27 73 20 74 22 75 21 76 23 77
REMARK SMILES IDX 24 78 25 79 26 80
REMARK H PARENT 3 7 69 25 47 36 8 61 17 70
REMARK Flexibility Score: inf
ROOT
ATOM      1  C   UNL A   1      38.845  22.773  26.281  1.00  0.00     0.023 C 
ENDROOT
BRANCH   1   2
ATOM      2  C   UNL A   1      38.917  21.415  25.585  1.00  0.00     0.023 C 
BRANCH   2   3
ATOM      3  C   UNL A   1      39.358  20.249  26.462  1.00  0.00     0.116 C 
BRANCH   3   4
ATOM      4  N   UNL A   1      40.496  19.519  25.921  1.00  0.00    -0.352 N 
ATOM      5  O   UNL A   1      42.618  19.173  25.236  1.00  0.00    -0.269 OA
ATOM      6  C   UNL A   1      41.822  19.879  25.846  1.00  0.00     0.251 C 
ATOM      7  H   UNL A   1      40.284  18.632  25.552  1.00  0.00     0.163 HD
BRANCH   6   8
ATOM      8  C   UNL A   1      42.284  21.140  26.466  1.00  0.00     0.039 A 
ATOM      9  C   UNL A   1      42.359  21.273  27.852  1.00  0.00     0.014 A 
ATOM     10  C   UNL A   1      42.632  22.216  25.643  1.00  0.00     0.014 A 
ATOM     11  C   UNL A   1      42.587  22.525  28.414  1.00  0.00     0.010 A 
ATOM     12  C   UNL A   1      42.956  23.453  26.211  1.00  0.00     0.010 A 
ATOM     13  C   UNL A   1      42.879  23.633  27.601  1.00  0.00    -0.014 A 
BRANCH  13  14
ATOM     14  C   UNL A   1      43.098  24.961  28.233  1.00  0.00     0.031 A 
ATOM     15  C   UNL A   1      44.482  25.430  28.599  1.00  0.00     0.074 A 
ATOM     16  C   UNL A   1      42.043  25.778  28.422  1.00  0.00     0.049 A 
ATOM     17  N   UNL A   1      44.856  26.588  29.087  1.00  0.00    -0.248 NA
ATOM     18  C   UNL A   1      45.588  24.481  28.402  1.00  0.00     0.031 C 
ATOM     19  C   UNL A   1      40.651  25.444  28.111  1.00  0.00     0.029 A 
ATOM     20  N   UNL A   1      41.981  27.067  28.887  1.00  0.00    -0.354 N 
ATOM     21  C   UNL A   1      46.229  26.494  29.282  1.00  0.00     0.074 A 
ATOM     22  C   UNL A   1      46.621  25.161  28.879  1.00  0.00     0.031 C 
ATOM     23  C   UNL A   1      39.883  26.521  28.331  1.00  0.00     0.029 A 
ATOM     24  C   UNL A   1      40.715  27.600  28.851  1.00  0.00     0.049 A 
ATOM     25  H   UNL A   1      42.766  27.561  29.214  1.00  0.00     0.167 HD
ATOM     26  C   UNL A   1      47.088  27.433  29.749  1.00  0.00     0.031 A 
ATOM     27  C   UNL A   1      40.270  28.821  29.196  1.00  0.00     0.031 A 
ATOM     28  C   UNL A   1      46.706  28.767  30.133  1.00  0.00     0.049 A 
ATOM     29  C   UNL A   1      41.242  29.841  29.712  1.00  0.00     0.074 A 
ATOM     30  C   UNL A   1      47.514  29.799  30.580  1.00  0.00     0.029 A 
ATOM     31  N   UNL A   1      45.410  29.254  30.116  1.00  0.00    -0.354 N 
ATOM     32  N   UNL A   1      42.541  29.744  29.856  1.00  0.00    -0.248 NA
ATOM     33  C   UNL A   1      40.684  31.140  30.109  1.00  0.00     0.031 C 
ATOM     34  C   UNL A   1      46.699  30.898  30.874  1.00  0.00     0.029 A 
ATOM     35  C   UNL A   1      45.391  30.565  30.563  1.00  0.00     0.049 A 
ATOM     36  H   UNL A   1      44.619  28.744  29.828  1.00  0.00     0.167 HD
ATOM     37  C   UNL A   1      42.958  30.976  30.340  1.00  0.00     0.074 A 
ATOM     38  C   UNL A   1      41.777  31.808  30.447  1.00  0.00     0.031 C 
ATOM     39  C   UNL A   1      44.210  31.381  30.665  1.00  0.00     0.031 A 
BRANCH  26  40
ATOM     40  C   UNL A   1      48.532  27.041  29.898  1.00  0.00    -0.014 A 
ATOM     41  C   UNL A   1      49.459  27.254  28.866  1.00  0.00     0.009 A 
ATOM     42  C   UNL A   1      48.979  26.486  31.108  1.00  0.00     0.009 A 
ATOM     43  C   UNL A   1      50.797  26.891  29.032  1.00  0.00     0.001 A 
ATOM     44  C   UNL A   1      50.321  26.147  31.280  1.00  0.00     0.001 A 
ATOM     45  C   UNL A   1      51.229  26.341  30.239  1.00  0.00     0.000 A 
ENDBRANCH  26  40
BRANCH  27  46
ATOM     46  C   UNL A   1      38.829  29.149  29.050  1.00  0.00    -0.014 A 
ATOM     47  C   UNL A   1      38.321  29.591  27.820  1.00  0.00     0.009 A 
ATOM     48  C   UNL A   1      37.954  29.011  30.139  1.00  0.00     0.009 A 
ATOM     49  C   UNL A   1      36.967  29.908  27.688  1.00  0.00     0.001 A 
ATOM     50  C   UNL A   1      36.596  29.301  29.996  1.00  0.00     0.001 A 
ATOM     51  C   UNL A   1      36.106  29.757  28.774  1.00  0.00     0.000 A 
ENDBRANCH  27  46
BRANCH  39  52
ATOM     52  C   UNL A   1      44.366  32.800  31.132  1.00  0.00    -0.014 A 
ATOM     53  C   UNL A   1      44.568  33.849  30.222  1.00  0.00     0.009 A 
ATOM     54  C   UNL A   1      44.293  33.090  32.502  1.00  0.00     0.009 A 
ATOM     55  C   UNL A   1      44.733  35.157  30.681  1.00  0.00     0.001 A 
ATOM     56  C   UNL A   1      44.433  34.401  32.956  1.00  0.00     0.001 A 
ATOM     57  C   UNL A   1      44.662  35.433  32.046  1.00  0.00     0.000 A 
ENDBRANCH  39  52
ENDBRANCH  13  14
ENDBRANCH   6   8
ENDBRANCH   3   4
ENDBRANCH   2   3
ENDBRANCH   1   2
BRANCH   1  58
ATOM     58  C   UNL A   1      37.751  23.711  25.780  1.00  0.00     0.116 C 
BRANCH  58  59
ATOM     59  N   UNL A   1      37.283  23.384  24.444  1.00  0.00    -0.352 N 
ATOM     60  C   UNL A   1      35.995  23.416  23.968  1.00  0.00     0.253 C 
ATOM     61  H   UNL A   1      37.974  23.106  23.801  1.00  0.00     0.163 HD
ATOM     62  O   UNL A   1      35.752  23.121  22.802  1.00  0.00    -0.269 OA
BRANCH  60  63
ATOM     63  C   UNL A   1      34.892  23.772  24.881  1.00  0.00     0.063 A 
ATOM     64  C   UNL A   1      34.628  25.141  25.037  1.00  0.00     0.016 A 
ATOM     65  C   UNL A   1      34.122  22.795  25.544  1.00  0.00     0.051 A 
ATOM     66  C   UNL A   1      33.551  25.555  25.815  1.00  0.00     0.001 A 
ATOM     67  C   UNL A   1      33.026  23.241  26.297  1.00  0.00     0.027 A 
ATOM     68  C   UNL A   1      32.743  24.604  26.433  1.00  0.00     0.002 A 
BRANCH  65  69
ATOM     69  N   UNL A   1      34.411  21.421  25.420  1.00  0.00    -0.355 N 
ATOM     70  H   UNL A   1      35.176  21.116  25.960  1.00  0.00     0.167 HD
BRANCH  69  71
ATOM     71  C   UNL A   1      33.797  20.411  24.662  1.00  0.00     0.039 A 
ATOM     72  C   UNL A   1      32.733  20.746  23.814  1.00  0.00     0.026 A 
ATOM     73  C   UNL A   1      34.238  19.082  24.683  1.00  0.00     0.039 A 
ATOM     74  C   UNL A   1      32.122  19.780  23.013  1.00  0.00     0.003 A 
ATOM     75  C   UNL A   1      33.618  18.093  23.900  1.00  0.00     0.058 A 
ATOM     76  C   UNL A   1      32.562  18.458  23.055  1.00  0.00     0.013 A 
BRANCH  75  77
ATOM     77  C   UNL A   1      34.090  16.660  23.947  1.00  0.00     0.416 C 
ATOM     78  F   UNL A   1      33.131  15.807  24.400  1.00  0.00    -0.166 F 
ATOM     79  F   UNL A   1      34.457  16.196  22.721  1.00  0.00    -0.166 F 
ATOM     80  F   UNL A   1      35.169  16.470  24.757  1.00  0.00    -0.166 F 
ENDBRANCH  75  77
ENDBRANCH  69  71
ENDBRANCH  65  69
ENDBRANCH  60  63
ENDBRANCH  58  59
ENDBRANCH   1  58
TORSDOF 14
ENDMDL
MODEL 2
REMARK VINA RESULT:     -11.4      5.864     10.100
REMARK SMILES O=C(NCCCCNC(=O)c1ccccc1Nc1cccc(C(F)(F)F)c1)c1ccc(-c2c3nc(c(-c4ccccc4)c4ccc([nH]4)c(-c4ccccc4)c4nc(c(-c5ccccc5)c5ccc2[nH]5)C=C4)C=C3)cc1
REMARK SMILES IDX 6 1 5 2 4 3 3 4 1 5 2 6 28 8 29 9 75 10 30 11 74 12 31 13
REMARK SMILES IDX 32 14 33 15 68 16 34 17 73 18 67 19 69 20 35 21 72 22 66 23
REMARK SMILES IDX 65 24 36 26 58 27 43 28 57 29 44 30 47 31 56 32 70 33 45 34
REMARK SMILES IDX 46 35 55 37 71 38 48 39 37 40 38 41 42 42 39 43 41 44 40 45
REMARK SMILES IDX 59 46 60 47 64 48 61 49 63 50 62 51 49 52 50 53 54 54 51 55
REMARK SMILES IDX 53 56 52 57 7 58 8 59 9 60 10 62 11 63 12 64 16 65 13 66
REMARK SMILES IDX 15 67 14 68 17 69 18 71 19 72 27 73 20 74 22 75 21 76 23 77
REMARK SMILES IDX 24 78 25 79 26 80
REMARK H PARENT 3 7 69 25 47 36 8 61 17 70
REMARK Flexibility Score: inf
ROOT
ATOM      1  C   UNL A   1      31.677  30.301  26.371  1.00  0.00     0.023 C 
ENDROOT
BRANCH   1   2
ATOM      2  C   UNL A   1      31.549  31.816  26.520  1.00  0.00     0.023 C 
BRANCH   2   3
ATOM      3  C   UNL A   1      32.698  32.505  27.249  1.00  0.00     0.116 C 
BRANCH   3   4
ATOM      4  N   UNL A   1      32.400  33.881  27.623  1.00  0.00    -0.352 N 
ATOM      5  O   UNL A   1      32.565  35.811  28.780  1.00  0.00    -0.269 OA
ATOM      6  C   UNL A   1      33.046  34.716  28.505  1.00  0.00     0.251 C 
ATOM      7  H   UNL A   1      31.617  34.273  27.174  1.00  0.00     0.163 HD
BRANCH   6   8
ATOM      8  C   UNL A   1      34.300  34.280  29.157  1.00  0.00     0.039 A 
ATOM      9  C   UNL A   1      35.541  34.555  28.583  1.00  0.00     0.014 A 
ATOM     10  C   UNL A   1      34.230  33.565  30.358  1.00  0.00     0.014 A 
ATOM     11  C   UNL A   1      36.686  33.955  29.095  1.00  0.00     0.010 A 
ATOM     12  C   UNL A   1      35.396  33.042  30.926  1.00  0.00     0.010 A 
ATOM     13  C   UNL A   1      36.628  33.182  30.267  1.00  0.00    -0.014 A 
BRANCH  13  14
ATOM     14  C   UNL A   1      37.867  32.538  30.776  1.00  0.00     0.031 A 
ATOM     15  C   UNL A   1      38.522  33.007  32.050  1.00  0.00     0.074 A 
ATOM     16  C   UNL A   1      38.374  31.480  30.115  1.00  0.00     0.049 A 
ATOM     17  N   UNL A   1      39.562  32.508  32.672  1.00  0.00    -0.248 NA
ATOM     18  C   UNL A   1      37.943  34.188  32.708  1.00  0.00     0.031 C 
ATOM     19  C   UNL A   1      37.837  30.927  28.868  1.00  0.00     0.029 A 
ATOM     20  N   UNL A   1      39.431  30.659  30.414  1.00  0.00    -0.354 N 
ATOM     21  C   UNL A   1      39.779  33.330  33.772  1.00  0.00     0.074 A 
ATOM     22  C   UNL A   1      38.775  34.371  33.724  1.00  0.00     0.031 C 
ATOM     23  C   UNL A   1      38.525  29.822  28.547  1.00  0.00     0.029 A 
ATOM     24  C   UNL A   1      39.585  29.620  29.529  1.00  0.00     0.049 A 
ATOM     25  H   UNL A   1      40.022  30.800  31.188  1.00  0.00     0.167 HD
ATOM     26  C   UNL A   1      40.722  33.226  34.739  1.00  0.00     0.031 A 
ATOM     27  C   UNL A   1      40.477  28.614  29.506  1.00  0.00     0.031 A 
ATOM     28  C   UNL A   1      41.711  32.180  34.804  1.00  0.00     0.049 A 
ATOM     29  C   UNL A   1      41.513  28.524  30.588  1.00  0.00     0.074 A 
ATOM     30  C   UNL A   1      42.683  31.972  35.768  1.00  0.00     0.029 A 
ATOM     31  N   UNL A   1      41.854  31.170  33.867  1.00  0.00    -0.354 N 
ATOM     32  N   UNL A   1      41.679  29.290  31.637  1.00  0.00    -0.248 NA
ATOM     33  C   UNL A   1      42.481  27.425  30.480  1.00  0.00     0.031 C 
ATOM     34  C   UNL A   1      43.442  30.858  35.391  1.00  0.00     0.029 A 
ATOM     35  C   UNL A   1      42.910  30.345  34.219  1.00  0.00     0.049 A 
ATOM     36  H   UNL A   1      41.289  31.055  33.070  1.00  0.00     0.167 HD
ATOM     37  C   UNL A   1      42.757  28.754  32.327  1.00  0.00     0.074 A 
ATOM     38  C   UNL A   1      43.193  27.588  31.586  1.00  0.00     0.031 C 
ATOM     39  C   UNL A   1      43.333  29.189  33.473  1.00  0.00     0.031 A 
BRANCH  26  40
ATOM     40  C   UNL A   1      40.751  34.291  35.800  1.00  0.00    -0.014 A 
ATOM     41  C   UNL A   1      41.535  35.447  35.656  1.00  0.00     0.009 A 
ATOM     42  C   UNL A   1      39.948  34.154  36.943  1.00  0.00     0.009 A 
ATOM     43  C   UNL A   1      41.537  36.428  36.651  1.00  0.00     0.001 A 
ATOM     44  C   UNL A   1      39.932  35.147  37.923  1.00  0.00     0.001 A 
ATOM     45  C   UNL A   1      40.733  36.279  37.782  1.00  0.00     0.000 A 
ENDBRANCH  26  40
BRANCH  27  46
ATOM     46  C   UNL A   1      40.419  27.600  28.422  1.00  0.00    -0.014 A 
ATOM     47  C   UNL A   1      41.123  27.798  27.225  1.00  0.00     0.009 A 
ATOM     48  C   UNL A   1      39.667  26.427  28.585  1.00  0.00     0.009 A 
ATOM     49  C   UNL A   1      41.058  26.847  26.203  1.00  0.00     0.001 A 
ATOM     50  C   UNL A   1      39.628  25.466  27.573  1.00  0.00     0.001 A 
ATOM     51  C   UNL A   1      40.317  25.681  26.381  1.00  0.00     0.000 A 
ENDBRANCH  27  46
BRANCH  39  52
ATOM     52  C   UNL A   1      44.475  28.376  34.013  1.00  0.00    -0.014 A 
ATOM     53  C   UNL A   1      45.803  28.661  33.662  1.00  0.00     0.009 A 
ATOM     54  C   UNL A   1      44.214  27.319  34.898  1.00  0.00     0.009 A 
ATOM     55  C   UNL A   1      46.846  27.877  34.159  1.00  0.00     0.001 A 
ATOM     56  C   UNL A   1      45.261  26.553  35.413  1.00  0.00     0.001 A 
ATOM     57  C   UNL A   1      46.575  26.827  35.035  1.00  0.00     0.000 A 
ENDBRANCH  39  52
ENDBRANCH  13  14
ENDBRANCH   6   8
ENDBRANCH   3   4
ENDBRANCH   2   3
ENDBRANCH   1   2
BRANCH   1  58
ATOM     58  C   UNL A   1      33.104  29.765  26.310  1.00  0.00     0.116 C 
BRANCH  58  59
ATOM     59  N   UNL A   1      33.628  29.681  24.958  1.00  0.00    -0.352 N 
ATOM     60  C   UNL A   1      33.600  28.605  24.105  1.00  0.00     0.253 C 
ATOM     61  H   UNL A   1      34.056  30.497  24.609  1.00  0.00     0.163 HD
ATOM     62  O   UNL A   1      34.077  28.689  22.978  1.00  0.00    -0.269 OA
BRANCH  60  63
ATOM     63  C   UNL A   1      33.023  27.328  24.566  1.00  0.00     0.063 A 
ATOM     64  C   UNL A   1      33.750  26.631  25.542  1.00  0.00     0.016 A 
ATOM     65  C   UNL A   1      31.793  26.842  24.078  1.00  0.00     0.051 A 
ATOM     66  C   UNL A   1      33.231  25.461  26.089  1.00  0.00     0.001 A 
ATOM     67  C   UNL A   1      31.282  25.677  24.668  1.00  0.00     0.027 A 
ATOM     68  C   UNL A   1      31.991  24.992  25.661  1.00  0.00     0.002 A 
BRANCH  65  69
ATOM     69  N   UNL A   1      31.081  27.521  23.068  1.00  0.00    -0.355 N 
ATOM     70  H   UNL A   1      31.482  27.452  22.171  1.00  0.00     0.167 HD
BRANCH  69  71
ATOM     71  C   UNL A   1      29.899  28.276  23.119  1.00  0.00     0.039 A 
ATOM     72  C   UNL A   1      28.669  27.613  23.214  1.00  0.00     0.026 A 
ATOM     73  C   UNL A   1      29.903  29.677  23.128  1.00  0.00     0.039 A 
ATOM     74  C   UNL A   1      27.473  28.328  23.308  1.00  0.00     0.003 A 
ATOM     75  C   UNL A   1      28.706  30.411  23.198  1.00  0.00     0.058 A 
ATOM     76  C   UNL A   1      27.491  29.722  23.300  1.00  0.00     0.013 A 
BRANCH  75  77
ATOM     77  C   UNL A   1      28.722  31.920  23.186  1.00  0.00     0.416 C 
ATOM     78  F   UNL A   1      29.553  32.443  24.130  1.00  0.00    -0.166 F 
ATOM     79  F   UNL A   1      29.145  32.423  21.994  1.00  0.00    -0.166 F 
ATOM     80  F   UNL A   1      27.501  32.478  23.416  1.00  0.00    -0.166 F 
ENDBRANCH  75  77
ENDBRANCH  69  71
ENDBRANCH  65  69
ENDBRANCH  60  63
ENDBRANCH  58  59
ENDBRANCH   1  58
TORSDOF 14
ENDMDL
MODEL 3
REMARK VINA RESULT:     -10.9      1.155      6.068
REMARK SMILES O=C(NCCCCNC(=O)c1ccccc1Nc1cccc(C(F)(F)F)c1)c1ccc(-c2c3nc(c(-c4ccccc4)c4ccc([nH]4)c(-c4ccccc4)c4nc(c(-c5ccccc5)c5ccc2[nH]5)C=C4)C=C3)cc1
REMARK SMILES IDX 6 1 5 2 4 3 3 4 1 5 2 6 28 8 29 9 75 10 30 11 74 12 31 13
REMARK SMILES IDX 32 14 33 15 68 16 34 17 73 18 67 19 69 20 35 21 72 22 66 23
REMARK SMILES IDX 65 24 36 26 58 27 43 28 57 29 44 30 47 31 56 32 70 33 45 34
REMARK SMILES IDX 46 35 55 37 71 38 48 39 37 40 38 41 42 42 39 43 41 44 40 45
REMARK SMILES IDX 59 46 60 47 64 48 61 49 63 50 62 51 49 52 50 53 54 54 51 55
REMARK SMILES IDX 53 56 52 57 7 58 8 59 9 60 10 62 11 63 12 64 16 65 13 66
REMARK SMILES IDX 15 67 14 68 17 69 18 71 19 72 27 73 20 74 22 75 21 76 23 77
REMARK SMILES IDX 24 78 25 79 26 80
REMARK H PARENT 3 7 69 25 47 36 8 61 17 70
REMARK Flexibility Score: inf
ROOT
ATOM      1  C   UNL A   1      36.149  21.172  25.007  1.00  0.00     0.023 C 
ENDROOT
BRANCH   1   2
ATOM      2  C   UNL A   1      37.513  20.586  24.647  1.00  0.00     0.023 C 
BRANCH   2   3
ATOM      3  C   UNL A   1      38.615  20.801  25.679  1.00  0.00     0.116 C 
BRANCH   3   4
ATOM      4  N   UNL A   1      39.614  19.741  25.685  1.00  0.00    -0.352 N 
ATOM      5  O   UNL A   1      41.660  18.802  25.840  1.00  0.00    -0.269 OA
ATOM      6  C   UNL A   1      40.947  19.785  26.020  1.00  0.00     0.251 C 
ATOM      7  H   UNL A   1      39.283  18.857  25.406  1.00  0.00     0.163 HD
BRANCH   6   8
ATOM      8  C   UNL A   1      41.536  21.030  26.560  1.00  0.00     0.039 A 
ATOM      9  C   UNL A   1      41.566  21.273  27.933  1.00  0.00     0.014 A 
ATOM     10  C   UNL A   1      42.051  21.981  25.672  1.00  0.00     0.014 A 
ATOM     11  C   UNL A   1      41.924  22.532  28.402  1.00  0.00     0.010 A 
ATOM     12  C   UNL A   1      42.501  23.213  26.155  1.00  0.00     0.010 A 
ATOM     13  C   UNL A   1      42.386  23.522  27.519  1.00  0.00    -0.014 A 
BRANCH  13  14
ATOM     14  C   UNL A   1      42.741  24.864  28.052  1.00  0.00     0.031 A 
ATOM     15  C   UNL A   1      41.683  25.906  28.305  1.00  0.00     0.074 A 
ATOM     16  C   UNL A   1      44.024  25.124  28.370  1.00  0.00     0.049 A 
ATOM     17  N   UNL A   1      41.811  27.097  28.836  1.00  0.00    -0.248 NA
ATOM     18  C   UNL A   1      40.306  25.576  27.905  1.00  0.00     0.031 C 
ATOM     19  C   UNL A   1      45.146  24.202  28.174  1.00  0.00     0.029 A 
ATOM     20  N   UNL A   1      44.596  26.225  28.955  1.00  0.00    -0.354 N 
ATOM     21  C   UNL A   1      40.544  27.667  28.806  1.00  0.00     0.074 A 
ATOM     22  C   UNL A   1      39.663  26.701  28.187  1.00  0.00     0.031 C 
ATOM     23  C   UNL A   1      46.257  24.748  28.690  1.00  0.00     0.029 A 
ATOM     24  C   UNL A   1      45.940  26.077  29.201  1.00  0.00     0.049 A 
ATOM     25  H   UNL A   1      44.094  27.041  29.178  1.00  0.00     0.167 HD
ATOM     26  C   UNL A   1      40.146  28.882  29.257  1.00  0.00     0.031 A 
ATOM     27  C   UNL A   1      46.822  26.914  29.774  1.00  0.00     0.031 A 
ATOM     28  C   UNL A   1      41.014  29.840  29.891  1.00  0.00     0.049 A 
ATOM     29  C   UNL A   1      46.356  28.254  30.263  1.00  0.00     0.074 A 
ATOM     30  C   UNL A   1      40.692  31.080  30.416  1.00  0.00     0.029 A 
ATOM     31  N   UNL A   1      42.374  29.665  30.087  1.00  0.00    -0.354 N 
ATOM     32  N   UNL A   1      45.147  28.759  30.256  1.00  0.00    -0.248 NA
ATOM     33  C   UNL A   1      47.379  29.135  30.841  1.00  0.00     0.031 C 
ATOM     34  C   UNL A   1      41.867  31.674  30.891  1.00  0.00     0.029 A 
ATOM     35  C   UNL A   1      42.911  30.782  30.707  1.00  0.00     0.049 A 
ATOM     36  H   UNL A   1      42.884  28.864  29.825  1.00  0.00     0.167 HD
ATOM     37  C   UNL A   1      45.260  30.010  30.849  1.00  0.00     0.074 A 
ATOM     38  C   UNL A   1      46.651  30.177  31.218  1.00  0.00     0.031 C 
ATOM     39  C   UNL A   1      44.295  30.935  31.068  1.00  0.00     0.031 A 
BRANCH  26  40
ATOM     40  C   UNL A   1      38.705  29.260  29.055  1.00  0.00    -0.014 A 
ATOM     41  C   UNL A   1      38.236  29.726  27.817  1.00  0.00     0.009 A 
ATOM     42  C   UNL A   1      37.793  29.108  30.112  1.00  0.00     0.009 A 
ATOM     43  C   UNL A   1      36.890  30.062  27.651  1.00  0.00     0.001 A 
ATOM     44  C   UNL A   1      36.444  29.420  29.936  1.00  0.00     0.001 A 
ATOM     45  C   UNL A   1      35.995  29.905  28.710  1.00  0.00     0.000 A 
ENDBRANCH  26  40
BRANCH  27  46
ATOM     46  C   UNL A   1      48.240  26.499  29.928  1.00  0.00    -0.014 A 
ATOM     47  C   UNL A   1      48.662  25.824  31.083  1.00  0.00     0.009 A 
ATOM     48  C   UNL A   1      49.174  26.768  28.916  1.00  0.00     0.009 A 
ATOM     49  C   UNL A   1      49.998  25.444  31.229  1.00  0.00     0.001 A 
ATOM     50  C   UNL A   1      50.502  26.360  29.053  1.00  0.00     0.001 A 
ATOM     51  C   UNL A   1      50.914  25.707  30.212  1.00  0.00     0.000 A 
ENDBRANCH  27  46
BRANCH  39  52
ATOM     52  C   UNL A   1      44.709  32.195  31.772  1.00  0.00    -0.014 A 
ATOM     53  C   UNL A   1      45.121  33.330  31.056  1.00  0.00     0.009 A 
ATOM     54  C   UNL A   1      44.670  32.251  33.174  1.00  0.00     0.009 A 
ATOM     55  C   UNL A   1      45.522  34.483  31.732  1.00  0.00     0.001 A 
ATOM     56  C   UNL A   1      45.048  33.413  33.846  1.00  0.00     0.001 A 
ATOM     57  C   UNL A   1      45.483  34.525  33.126  1.00  0.00     0.000 A 
ENDBRANCH  39  52
ENDBRANCH  13  14
ENDBRANCH   6   8
ENDBRANCH   3   4
ENDBRANCH   2   3
ENDBRANCH   1   2
BRANCH   1  58
ATOM     58  C   UNL A   1      36.003  22.675  24.792  1.00  0.00     0.116 C 
BRANCH  58  59
ATOM     59  N   UNL A   1      35.461  23.018  23.489  1.00  0.00    -0.352 N 
ATOM     60  C   UNL A   1      34.405  23.849  23.204  1.00  0.00     0.253 C 
ATOM     61  H   UNL A   1      35.906  22.604  22.714  1.00  0.00     0.163 HD
ATOM     62  O   UNL A   1      34.067  24.053  22.042  1.00  0.00    -0.269 OA
BRANCH  60  63
ATOM     63  C   UNL A   1      33.651  24.470  24.309  1.00  0.00     0.063 A 
ATOM     64  C   UNL A   1      34.214  25.620  24.881  1.00  0.00     0.016 A 
ATOM     65  C   UNL A   1      32.416  23.956  24.754  1.00  0.00     0.051 A 
ATOM     66  C   UNL A   1      33.522  26.311  25.871  1.00  0.00     0.001 A 
ATOM     67  C   UNL A   1      31.729  24.690  25.733  1.00  0.00     0.027 A 
ATOM     68  C   UNL A   1      32.274  25.853  26.287  1.00  0.00     0.002 A 
BRANCH  65  69
ATOM     69  N   UNL A   1      31.868  22.778  24.208  1.00  0.00    -0.355 N 
ATOM     70  H   UNL A   1      31.090  22.924  23.623  1.00  0.00     0.167 HD
BRANCH  69  71
ATOM     71  C   UNL A   1      32.240  21.432  24.353  1.00  0.00     0.039 A 
ATOM     72  C   UNL A   1      32.615  20.959  25.617  1.00  0.00     0.026 A 
ATOM     73  C   UNL A   1      32.207  20.525  23.287  1.00  0.00     0.039 A 
ATOM     74  C   UNL A   1      32.952  19.619  25.812  1.00  0.00     0.003 A 
ATOM     75  C   UNL A   1      32.566  19.177  23.460  1.00  0.00     0.058 A 
ATOM     76  C   UNL A   1      32.929  18.730  24.738  1.00  0.00     0.013 A 
BRANCH  75  77
ATOM     77  C   UNL A   1      32.545  18.214  22.299  1.00  0.00     0.416 C 
ATOM     78  F   UNL A   1      32.481  18.846  21.095  1.00  0.00    -0.166 F 
ATOM     79  F   UNL A   1      33.660  17.433  22.254  1.00  0.00    -0.166 F 
ATOM     80  F   UNL A   1      31.488  17.355  22.325  1.00  0.00    -0.166 F 
ENDBRANCH  75  77
ENDBRANCH  69  71
ENDBRANCH  65  69
ENDBRANCH  60  63
ENDBRANCH  58  59
ENDBRANCH   1  58
TORSDOF 14
ENDMDL
