MODEL 1
REMARK VINA RESULT:     -10.9      0.000      0.000
REMARK SMILES O=C(CNC(=O)NCc1ccc(Cl)cc1)NCCCCNC(=O)c1ccc(-c2c3nc(c(-c4ccccc4)c4ccc([nH]4)c(-c4ccccc4)c4nc(c(-c5ccccc5)c5ccc2[nH]5)C=C4)C=C3)cc1
REMARK SMILES IDX 18 1 17 2 16 3 1 4 2 5 3 7 4 8 5 9 6 11 7 12 8 14 9 15 10 16
REMARK SMILES IDX 15 17 11 18 14 19 12 20 13 21 19 22 20 23 21 24 22 25 23 27
REMARK SMILES IDX 24 28 25 29 71 30 26 31 70 32 27 33 28 34 29 35 64 36 30 37
REMARK SMILES IDX 69 38 63 39 65 40 31 41 68 42 62 43 61 44 32 46 54 47 39 48
REMARK SMILES IDX 53 49 40 50 43 51 52 52 66 53 41 54 42 55 51 57 67 58 44 59
REMARK SMILES IDX 33 60 34 61 38 62 35 63 37 64 36 65 55 66 56 67 60 68 57 69
REMARK SMILES IDX 59 70 58 71 45 72 46 73 50 74 47 75 49 76 48 77
REMARK H PARENT 16 6 4 10 7 13 21 26 65 45 43 56
REMARK Flexibility Score: inf
ROOT
ATOM      1  C   UNL A   1      36.196  21.173  25.024  1.00  0.00     0.023 C 
ENDROOT
BRANCH   1   2
ATOM      2  C   UNL A   1      34.867  20.422  24.948  1.00  0.00     0.116 C 
BRANCH   2   3
ATOM      3  N   UNL A   1      33.726  21.290  24.735  1.00  0.00    -0.355 N 
ATOM      4  O   UNL A   1      32.140  19.742  25.324  1.00  0.00    -0.273 OA
ATOM      5  C   UNL A   1      32.434  20.895  25.018  1.00  0.00     0.239 C 
ATOM      6  H   UNL A   1      33.877  22.194  24.375  1.00  0.00     0.163 HD
BRANCH   5   7
ATOM      7  C   UNL A   1      31.364  21.987  24.883  1.00  0.00     0.217 C 
BRANCH   7   8
ATOM      8  N   UNL A   1      30.579  22.188  26.093  1.00  0.00    -0.329 N 
ATOM      9  C   UNL A   1      30.280  23.244  26.850  1.00  0.00     0.315 C 
ATOM     10  H   UNL A   1      30.178  21.354  26.428  1.00  0.00     0.165 HD
ATOM     11  O   UNL A   1      29.465  23.080  27.759  1.00  0.00    -0.249 OA
ATOM     12  N   UNL A   1      30.816  24.455  26.703  1.00  0.00    -0.334 N 
ATOM     13  H   UNL A   1      30.394  25.128  27.284  1.00  0.00     0.165 HD
BRANCH  12  14
ATOM     14  C   UNL A   1      31.873  25.010  25.887  1.00  0.00     0.153 C 
BRANCH  14  15
ATOM     15  C   UNL A   1      32.294  26.411  26.271  1.00  0.00    -0.029 A 
ATOM     16  C   UNL A   1      33.596  26.830  25.946  1.00  0.00     0.007 A 
ATOM     17  C   UNL A   1      31.474  27.290  26.997  1.00  0.00     0.007 A 
ATOM     18  C   UNL A   1      34.066  28.088  26.336  1.00  0.00     0.021 A 
ATOM     19  C   UNL A   1      31.943  28.550  27.388  1.00  0.00     0.021 A 
ATOM     20  C   UNL A   1      33.238  28.941  27.059  1.00  0.00     0.041 A 
ATOM     21  Cl  UNL A   1      33.821  30.482  27.556  1.00  0.00    -0.084 Cl
ENDBRANCH  14  15
ENDBRANCH  12  14
ENDBRANCH   7   8
ENDBRANCH   5   7
ENDBRANCH   2   3
ENDBRANCH   1   2
BRANCH   1  22
ATOM     22  C   UNL A   1      36.094  22.695  24.901  1.00  0.00     0.023 C 
BRANCH  22  23
ATOM     23  C   UNL A   1      37.397  23.470  25.078  1.00  0.00     0.116 C 
BRANCH  23  24
ATOM     24  N   UNL A   1      38.533  22.630  25.423  1.00  0.00    -0.352 N 
ATOM     25  C   UNL A   1      39.656  22.925  26.165  1.00  0.00     0.251 C 
ATOM     26  H   UNL A   1      38.493  21.711  25.074  1.00  0.00     0.163 HD
ATOM     27  O   UNL A   1      40.554  22.102  26.264  1.00  0.00    -0.269 OA
BRANCH  25  28
ATOM     28  C   UNL A   1      39.802  24.251  26.812  1.00  0.00     0.039 A 
ATOM     29  C   UNL A   1      39.273  24.432  28.094  1.00  0.00     0.014 A 
ATOM     30  C   UNL A   1      40.444  25.314  26.171  1.00  0.00     0.014 A 
ATOM     31  C   UNL A   1      39.459  25.645  28.764  1.00  0.00     0.010 A 
ATOM     32  C   UNL A   1      40.690  26.498  26.865  1.00  0.00     0.010 A 
ATOM     33  C   UNL A   1      40.207  26.675  28.170  1.00  0.00    -0.014 A 
BRANCH  33  34
ATOM     34  C   UNL A   1      40.515  27.929  28.907  1.00  0.00     0.031 A 
ATOM     35  C   UNL A   1      41.823  28.087  29.635  1.00  0.00     0.074 A 
ATOM     36  C   UNL A   1      39.586  28.903  28.984  1.00  0.00     0.049 A 
ATOM     37  N   UNL A   1      42.234  29.079  30.386  1.00  0.00    -0.248 NA
ATOM     38  C   UNL A   1      42.783  26.978  29.523  1.00  0.00     0.031 C 
ATOM     39  C   UNL A   1      38.264  28.867  28.357  1.00  0.00     0.029 A 
ATOM     40  N   UNL A   1      39.611  30.114  29.633  1.00  0.00    -0.354 N 
ATOM     41  C   UNL A   1      43.489  28.705  30.851  1.00  0.00     0.074 A 
ATOM     42  C   UNL A   1      43.753  27.379  30.332  1.00  0.00     0.031 C 
ATOM     43  C   UNL A   1      37.615  30.011  28.628  1.00  0.00     0.029 A 
ATOM     44  C   UNL A   1      38.456  30.843  29.482  1.00  0.00     0.049 A 
ATOM     45  H   UNL A   1      40.383  30.429  30.156  1.00  0.00     0.167 HD
ATOM     46  C   UNL A   1      44.352  29.405  31.625  1.00  0.00     0.031 A 
ATOM     47  C   UNL A   1      38.107  32.044  29.982  1.00  0.00     0.031 A 
ATOM     48  C   UNL A   1      44.101  30.728  32.132  1.00  0.00     0.049 A 
ATOM     49  C   UNL A   1      39.075  32.793  30.854  1.00  0.00     0.074 A 
ATOM     50  C   UNL A   1      44.942  31.541  32.873  1.00  0.00     0.029 A 
ATOM     51  N   UNL A   1      42.921  31.432  31.954  1.00  0.00    -0.354 N 
ATOM     52  N   UNL A   1      40.285  32.453  31.227  1.00  0.00    -0.248 NA
ATOM     53  C   UNL A   1      38.631  34.097  31.366  1.00  0.00     0.031 C 
ATOM     54  C   UNL A   1      44.251  32.715  33.187  1.00  0.00     0.029 A 
ATOM     55  C   UNL A   1      43.001  32.657  32.594  1.00  0.00     0.049 A 
ATOM     56  H   UNL A   1      42.141  31.107  31.449  1.00  0.00     0.167 HD
ATOM     57  C   UNL A   1      40.757  33.511  31.991  1.00  0.00     0.074 A 
ATOM     58  C   UNL A   1      39.709  34.511  32.018  1.00  0.00     0.031 C 
ATOM     59  C   UNL A   1      41.953  33.644  32.614  1.00  0.00     0.031 A 
BRANCH  46  60
ATOM     60  C   UNL A   1      45.655  28.744  31.983  1.00  0.00    -0.014 A 
ATOM     61  C   UNL A   1      45.777  27.949  33.134  1.00  0.00     0.009 A 
ATOM     62  C   UNL A   1      46.765  28.886  31.136  1.00  0.00     0.009 A 
ATOM     63  C   UNL A   1      46.994  27.340  33.448  1.00  0.00     0.001 A 
ATOM     64  C   UNL A   1      47.972  28.254  31.437  1.00  0.00     0.001 A 
ATOM     65  C   UNL A   1      48.089  27.490  32.597  1.00  0.00     0.000 A 
ENDBRANCH  46  60
BRANCH  47  66
ATOM     66  C   UNL A   1      36.778  32.628  29.660  1.00  0.00    -0.014 A 
ATOM     67  C   UNL A   1      36.594  33.363  28.479  1.00  0.00     0.009 A 
ATOM     68  C   UNL A   1      35.693  32.465  30.534  1.00  0.00     0.009 A 
ATOM     69  C   UNL A   1      35.357  33.947  28.193  1.00  0.00     0.001 A 
ATOM     70  C   UNL A   1      34.450  33.027  30.233  1.00  0.00     0.001 A 
ATOM     71  C   UNL A   1      34.286  33.774  29.069  1.00  0.00     0.000 A 
ENDBRANCH  47  66
BRANCH  59  72
ATOM     72  C   UNL A   1      42.210  34.932  33.345  1.00  0.00    -0.014 A 
ATOM     73  C   UNL A   1      42.969  35.960  32.767  1.00  0.00     0.009 A 
ATOM     74  C   UNL A   1      41.650  35.130  34.617  1.00  0.00     0.009 A 
ATOM     75  C   UNL A   1      43.189  37.150  33.463  1.00  0.00     0.001 A 
ATOM     76  C   UNL A   1      41.847  36.332  35.298  1.00  0.00     0.001 A 
ATOM     77  C   UNL A   1      42.624  37.338  34.725  1.00  0.00     0.000 A 
ENDBRANCH  59  72
ENDBRANCH  33  34
ENDBRANCH  25  28
ENDBRANCH  23  24
ENDBRANCH  22  23
ENDBRANCH   1  22
TORSDOF 14
ENDMDL
MODEL 2
REMARK VINA RESULT:     -10.8      3.069      4.831
REMARK SMILES O=C(CNC(=O)NCc1ccc(Cl)cc1)NCCCCNC(=O)c1ccc(-c2c3nc(c(-c4ccccc4)c4ccc([nH]4)c(-c4ccccc4)c4nc(c(-c5ccccc5)c5ccc2[nH]5)C=C4)C=C3)cc1
REMARK SMILES IDX 18 1 17 2 16 3 1 4 2 5 3 7 4 8 5 9 6 11 7 12 8 14 9 15 10 16
REMARK SMILES IDX 15 17 11 18 14 19 12 20 13 21 19 22 20 23 21 24 22 25 23 27
REMARK SMILES IDX 24 28 25 29 71 30 26 31 70 32 27 33 28 34 29 35 64 36 30 37
REMARK SMILES IDX 69 38 63 39 65 40 31 41 68 42 62 43 61 44 32 46 54 47 39 48
REMARK SMILES IDX 53 49 40 50 43 51 52 52 66 53 41 54 42 55 51 57 67 58 44 59
REMARK SMILES IDX 33 60 34 61 38 62 35 63 37 64 36 65 55 66 56 67 60 68 57 69
REMARK SMILES IDX 59 70 58 71 45 72 46 73 50 74 47 75 49 76 48 77
REMARK H PARENT 16 6 4 10 7 13 21 26 65 45 43 56
REMARK Flexibility Score: inf
ROOT
ATOM      1  C   UNL A   1      36.297  20.712  24.996  1.00  0.00     0.023 C 
ENDROOT
BRANCH   1   2
ATOM      2  C   UNL A   1      36.446  22.054  25.711  1.00  0.00     0.116 C 
BRANCH   2   3
ATOM      3  N   UNL A   1      35.299  22.925  25.549  1.00  0.00    -0.355 N 
ATOM      4  O   UNL A   1      34.407  22.530  27.624  1.00  0.00    -0.273 OA
ATOM      5  C   UNL A   1      34.396  23.155  26.567  1.00  0.00     0.239 C 
ATOM      6  H   UNL A   1      35.159  23.369  24.682  1.00  0.00     0.163 HD
BRANCH   5   7
ATOM      7  C   UNL A   1      33.332  24.223  26.277  1.00  0.00     0.217 C 
BRANCH   7   8
ATOM      8  N   UNL A   1      32.055  23.965  26.928  1.00  0.00    -0.329 N 
ATOM      9  C   UNL A   1      31.087  23.064  26.764  1.00  0.00     0.315 C 
ATOM     10  H   UNL A   1      31.864  24.600  27.655  1.00  0.00     0.165 HD
ATOM     11  O   UNL A   1      30.174  23.051  27.592  1.00  0.00    -0.249 OA
ATOM     12  N   UNL A   1      31.029  22.191  25.758  1.00  0.00    -0.334 N 
ATOM     13  H   UNL A   1      30.299  21.539  25.866  1.00  0.00     0.165 HD
BRANCH  12  14
ATOM     14  C   UNL A   1      31.789  21.980  24.547  1.00  0.00     0.153 C 
BRANCH  14  15
ATOM     15  C   UNL A   1      32.316  20.573  24.372  1.00  0.00    -0.029 A 
ATOM     16  C   UNL A   1      32.181  19.961  23.113  1.00  0.00     0.007 A 
ATOM     17  C   UNL A   1      32.868  19.821  25.422  1.00  0.00     0.007 A 
ATOM     18  C   UNL A   1      32.584  18.638  22.909  1.00  0.00     0.021 A 
ATOM     19  C   UNL A   1      33.272  18.496  25.218  1.00  0.00     0.021 A 
ATOM     20  C   UNL A   1      33.125  17.910  23.964  1.00  0.00     0.041 A 
ATOM     21  Cl  UNL A   1      33.605  16.276  23.719  1.00  0.00    -0.084 Cl
ENDBRANCH  14  15
ENDBRANCH  12  14
ENDBRANCH   7   8
ENDBRANCH   5   7
ENDBRANCH   2   3
ENDBRANCH   1   2
BRANCH   1  22
ATOM     22  C   UNL A   1      37.594  19.920  24.815  1.00  0.00     0.023 C 
BRANCH  22  23
ATOM     23  C   UNL A   1      38.763  20.339  25.703  1.00  0.00     0.116 C 
BRANCH  23  24
ATOM     24  N   UNL A   1      39.857  19.380  25.717  1.00  0.00    -0.352 N 
ATOM     25  C   UNL A   1      41.174  19.550  26.085  1.00  0.00     0.251 C 
ATOM     26  H   UNL A   1      39.620  18.473  25.419  1.00  0.00     0.163 HD
ATOM     27  O   UNL A   1      41.972  18.636  25.934  1.00  0.00    -0.269 OA
BRANCH  25  28
ATOM     28  C   UNL A   1      41.643  20.849  26.625  1.00  0.00     0.039 A 
ATOM     29  C   UNL A   1      42.174  21.790  25.737  1.00  0.00     0.014 A 
ATOM     30  C   UNL A   1      41.573  21.145  27.989  1.00  0.00     0.014 A 
ATOM     31  C   UNL A   1      42.554  23.053  26.201  1.00  0.00     0.010 A 
ATOM     32  C   UNL A   1      41.887  22.427  28.439  1.00  0.00     0.010 A 
ATOM     33  C   UNL A   1      42.374  23.397  27.550  1.00  0.00    -0.014 A 
BRANCH  33  34
ATOM     34  C   UNL A   1      42.665  24.769  28.043  1.00  0.00     0.031 A 
ATOM     35  C   UNL A   1      44.060  25.153  28.457  1.00  0.00     0.074 A 
ATOM     36  C   UNL A   1      41.659  25.655  28.188  1.00  0.00     0.049 A 
ATOM     37  N   UNL A   1      44.488  26.278  28.974  1.00  0.00    -0.248 NA
ATOM     38  C   UNL A   1      45.107  24.133  28.288  1.00  0.00     0.031 C 
ATOM     39  C   UNL A   1      40.254  25.404  27.860  1.00  0.00     0.029 A 
ATOM     40  N   UNL A   1      41.664  26.944  28.660  1.00  0.00    -0.354 N 
ATOM     41  C   UNL A   1      45.844  26.094  29.211  1.00  0.00     0.074 A 
ATOM     42  C   UNL A   1      46.160  24.736  28.820  1.00  0.00     0.031 C 
ATOM     43  C   UNL A   1      39.538  26.511  28.114  1.00  0.00     0.029 A 
ATOM     44  C   UNL A   1      40.422  27.534  28.663  1.00  0.00     0.049 A 
ATOM     45  H   UNL A   1      42.479  27.403  28.967  1.00  0.00     0.167 HD
ATOM     46  C   UNL A   1      46.751  26.976  29.694  1.00  0.00     0.031 A 
ATOM     47  C   UNL A   1      40.034  28.758  29.069  1.00  0.00     0.031 A 
ATOM     48  C   UNL A   1      46.446  28.331  30.071  1.00  0.00     0.049 A 
ATOM     49  C   UNL A   1      41.057  29.714  29.619  1.00  0.00     0.074 A 
ATOM     50  C   UNL A   1      47.311  29.319  30.513  1.00  0.00     0.029 A 
ATOM     51  N   UNL A   1      45.178  28.889  30.056  1.00  0.00    -0.354 N 
ATOM     52  N   UNL A   1      42.347  29.545  29.772  1.00  0.00    -0.248 NA
ATOM     53  C   UNL A   1      40.567  31.033  30.044  1.00  0.00     0.031 C 
ATOM     54  C   UNL A   1      46.558  30.458  30.814  1.00  0.00     0.029 A 
ATOM     55  C   UNL A   1      45.232  30.198  30.506  1.00  0.00     0.049 A 
ATOM     56  H   UNL A   1      44.359  28.424  29.770  1.00  0.00     0.167 HD
ATOM     57  C   UNL A   1      42.828  30.744  30.281  1.00  0.00     0.074 A 
ATOM     58  C   UNL A   1      41.693  31.636  30.399  1.00  0.00     0.031 C 
ATOM     59  C   UNL A   1      44.097  31.076  30.620  1.00  0.00     0.031 A 
BRANCH  46  60
ATOM     60  C   UNL A   1      48.168  26.499  29.853  1.00  0.00    -0.014 A 
ATOM     61  C   UNL A   1      48.610  25.914  31.050  1.00  0.00     0.009 A 
ATOM     62  C   UNL A   1      49.063  26.599  28.776  1.00  0.00     0.009 A 
ATOM     63  C   UNL A   1      49.928  25.472  31.178  1.00  0.00     0.001 A 
ATOM     64  C   UNL A   1      50.372  26.131  28.897  1.00  0.00     0.001 A 
ATOM     65  C   UNL A   1      50.807  25.577  30.099  1.00  0.00     0.000 A 
ENDBRANCH  46  60
BRANCH  47  66
ATOM     66  C   UNL A   1      38.609  29.164  28.960  1.00  0.00    -0.014 A 
ATOM     67  C   UNL A   1      38.108  29.680  27.755  1.00  0.00     0.009 A 
ATOM     68  C   UNL A   1      37.745  29.050  30.060  1.00  0.00     0.009 A 
ATOM     69  C   UNL A   1      36.779  30.099  27.662  1.00  0.00     0.001 A 
ATOM     70  C   UNL A   1      36.409  29.444  29.956  1.00  0.00     0.001 A 
ATOM     71  C   UNL A   1      35.930  29.976  28.761  1.00  0.00     0.000 A 
ENDBRANCH  47  66
BRANCH  59  72
ATOM     72  C   UNL A   1      44.334  32.476  31.113  1.00  0.00    -0.014 A 
ATOM     73  C   UNL A   1      44.293  32.784  32.481  1.00  0.00     0.009 A 
ATOM     74  C   UNL A   1      44.641  33.492  30.195  1.00  0.00     0.009 A 
ATOM     75  C   UNL A   1      44.522  34.091  32.916  1.00  0.00     0.001 A 
ATOM     76  C   UNL A   1      44.898  34.791  30.635  1.00  0.00     0.001 A 
ATOM     77  C   UNL A   1      44.830  35.092  31.994  1.00  0.00     0.000 A 
ENDBRANCH  59  72
ENDBRANCH  33  34
ENDBRANCH  25  28
ENDBRANCH  23  24
ENDBRANCH  22  23
ENDBRANCH   1  22
TORSDOF 14
ENDMDL
MODEL 3
REMARK VINA RESULT:     -10.7      2.796      7.886
REMARK SMILES O=C(CNC(=O)NCc1ccc(Cl)cc1)NCCCCNC(=O)c1ccc(-c2c3nc(c(-c4ccccc4)c4ccc([nH]4)c(-c4ccccc4)c4nc(c(-c5ccccc5)c5ccc2[nH]5)C=C4)C=C3)cc1
REMARK SMILES IDX 18 1 17 2 16 3 1 4 2 5 3 7 4 8 5 9 6 11 7 12 8 14 9 15 10 16
REMARK SMILES IDX 15 17 11 18 14 19 12 20 13 21 19 22 20 23 21 24 22 25 23 27
REMARK SMILES IDX 24 28 25 29 71 30 26 31 70 32 27 33 28 34 29 35 64 36 30 37
REMARK SMILES IDX 69 38 63 39 65 40 31 41 68 42 62 43 61 44 32 46 54 47 39 48
REMARK SMILES IDX 53 49 40 50 43 51 52 52 66 53 41 54 42 55 51 57 67 58 44 59
REMARK SMILES IDX 33 60 34 61 38 62 35 63 37 64 36 65 55 66 56 67 60 68 57 69
REMARK SMILES IDX 59 70 58 71 45 72 46 73 50 74 47 75 49 76 48 77
REMARK H PARENT 16 6 4 10 7 13 21 26 65 45 43 56
REMARK Flexibility Score: inf
ROOT
ATOM      1  C   UNL A   1      32.773  29.320  24.787  1.00  0.00     0.023 C 
ENDROOT
BRANCH   1   2
ATOM      2  C   UNL A   1      31.500  28.548  24.442  1.00  0.00     0.116 C 
BRANCH   2   3
ATOM      3  N   UNL A   1      31.594  27.128  24.714  1.00  0.00    -0.355 N 
ATOM      4  O   UNL A   1      29.414  26.643  24.195  1.00  0.00    -0.273 OA
ATOM      5  C   UNL A   1      30.543  26.262  24.492  1.00  0.00     0.239 C 
ATOM      6  H   UNL A   1      32.438  26.767  25.070  1.00  0.00     0.163 HD
BRANCH   5   7
ATOM      7  C   UNL A   1      30.862  24.772  24.684  1.00  0.00     0.217 C 
BRANCH   7   8
ATOM      8  N   UNL A   1      30.257  24.196  25.877  1.00  0.00    -0.329 N 
ATOM      9  C   UNL A   1      30.489  23.108  26.611  1.00  0.00     0.315 C 
ATOM     10  H   UNL A   1      29.507  24.733  26.220  1.00  0.00     0.165 HD
ATOM     11  O   UNL A   1      29.852  22.981  27.658  1.00  0.00    -0.249 OA
ATOM     12  N   UNL A   1      31.344  22.141  26.280  1.00  0.00    -0.334 N 
ATOM     13  H   UNL A   1      31.457  21.475  26.995  1.00  0.00     0.165 HD
BRANCH  12  14
ATOM     14  C   UNL A   1      32.146  21.845  25.114  1.00  0.00     0.153 C 
BRANCH  14  15
ATOM     15  C   UNL A   1      33.626  22.113  25.283  1.00  0.00    -0.029 A 
ATOM     16  C   UNL A   1      34.536  21.143  24.828  1.00  0.00     0.007 A 
ATOM     17  C   UNL A   1      34.134  23.248  25.935  1.00  0.00     0.007 A 
ATOM     18  C   UNL A   1      35.912  21.301  25.019  1.00  0.00     0.021 A 
ATOM     19  C   UNL A   1      35.511  23.408  26.127  1.00  0.00     0.021 A 
ATOM     20  C   UNL A   1      36.393  22.432  25.672  1.00  0.00     0.041 A 
ATOM     21  Cl  UNL A   1      38.085  22.620  25.925  1.00  0.00    -0.084 Cl
ENDBRANCH  14  15
ENDBRANCH  12  14
ENDBRANCH   7   8
ENDBRANCH   5   7
ENDBRANCH   2   3
ENDBRANCH   1   2
BRANCH   1  22
ATOM     22  C   UNL A   1      33.718  28.616  25.764  1.00  0.00     0.023 C 
BRANCH  22  23
ATOM     23  C   UNL A   1      33.410  28.805  27.247  1.00  0.00     0.116 C 
BRANCH  23  24
ATOM     24  N   UNL A   1      33.466  30.192  27.682  1.00  0.00    -0.352 N 
ATOM     25  C   UNL A   1      34.498  30.892  28.268  1.00  0.00     0.251 C 
ATOM     26  H   UNL A   1      32.641  30.708  27.534  1.00  0.00     0.163 HD
ATOM     27  O   UNL A   1      34.315  32.039  28.653  1.00  0.00    -0.269 OA
BRANCH  25  28
ATOM     28  C   UNL A   1      35.819  30.252  28.476  1.00  0.00     0.039 A 
ATOM     29  C   UNL A   1      36.729  30.236  27.413  1.00  0.00     0.014 A 
ATOM     30  C   UNL A   1      36.166  29.664  29.694  1.00  0.00     0.014 A 
ATOM     31  C   UNL A   1      38.010  29.708  27.597  1.00  0.00     0.010 A 
ATOM     32  C   UNL A   1      37.466  29.201  29.898  1.00  0.00     0.010 A 
ATOM     33  C   UNL A   1      38.404  29.225  28.855  1.00  0.00    -0.014 A 
BRANCH  33  34
ATOM     34  C   UNL A   1      39.796  28.764  29.103  1.00  0.00     0.031 A 
ATOM     35  C   UNL A   1      40.812  29.694  29.710  1.00  0.00     0.074 A 
ATOM     36  C   UNL A   1      40.170  27.528  28.717  1.00  0.00     0.049 A 
ATOM     37  N   UNL A   1      42.086  29.490  29.935  1.00  0.00    -0.248 NA
ATOM     38  C   UNL A   1      40.340  31.034  30.093  1.00  0.00     0.031 C 
ATOM     39  C   UNL A   1      39.297  26.537  28.085  1.00  0.00     0.029 A 
ATOM     40  N   UNL A   1      41.388  26.898  28.792  1.00  0.00    -0.354 N 
ATOM     41  C   UNL A   1      42.571  30.680  30.465  1.00  0.00     0.074 A 
ATOM     42  C   UNL A   1      41.465  31.614  30.489  1.00  0.00     0.031 C 
ATOM     43  C   UNL A   1      39.999  25.415  27.854  1.00  0.00     0.029 A 
ATOM     44  C   UNL A   1      41.379  25.621  28.281  1.00  0.00     0.049 A 
ATOM     45  H   UNL A   1      42.190  27.319  29.175  1.00  0.00     0.167 HD
ATOM     46  C   UNL A   1      43.819  30.968  30.907  1.00  0.00     0.031 A 
ATOM     47  C   UNL A   1      42.372  24.720  28.161  1.00  0.00     0.031 A 
ATOM     48  C   UNL A   1      44.919  30.040  30.900  1.00  0.00     0.049 A 
ATOM     49  C   UNL A   1      43.752  25.069  28.643  1.00  0.00     0.074 A 
ATOM     50  C   UNL A   1      46.203  30.222  31.384  1.00  0.00     0.029 A 
ATOM     51  N   UNL A   1      44.868  28.758  30.377  1.00  0.00    -0.354 N 
ATOM     52  N   UNL A   1      44.176  26.176  29.204  1.00  0.00    -0.248 NA
ATOM     53  C   UNL A   1      44.789  24.040  28.482  1.00  0.00     0.031 C 
ATOM     54  C   UNL A   1      46.943  29.067  31.108  1.00  0.00     0.029 A 
ATOM     55  C   UNL A   1      46.104  28.147  30.502  1.00  0.00     0.049 A 
ATOM     56  H   UNL A   1      44.070  28.343  29.974  1.00  0.00     0.167 HD
ATOM     57  C   UNL A   1      45.518  25.965  29.490  1.00  0.00     0.074 A 
ATOM     58  C   UNL A   1      45.835  24.620  29.053  1.00  0.00     0.031 C 
ATOM     59  C   UNL A   1      46.408  26.810  30.065  1.00  0.00     0.031 A 
BRANCH  46  60
ATOM     60  C   UNL A   1      44.066  32.355  31.433  1.00  0.00    -0.014 A 
ATOM     61  C   UNL A   1      44.478  33.393  30.583  1.00  0.00     0.009 A 
ATOM     62  C   UNL A   1      43.844  32.637  32.790  1.00  0.00     0.009 A 
ATOM     63  C   UNL A   1      44.698  34.676  31.088  1.00  0.00     0.001 A 
ATOM     64  C   UNL A   1      44.038  33.926  33.287  1.00  0.00     0.001 A 
ATOM     65  C   UNL A   1      44.474  34.943  32.439  1.00  0.00     0.000 A 
ENDBRANCH  46  60
BRANCH  47  66
ATOM     66  C   UNL A   1      42.098  23.384  27.569  1.00  0.00    -0.014 A 
ATOM     67  C   UNL A   1      42.393  23.132  26.220  1.00  0.00     0.009 A 
ATOM     68  C   UNL A   1      41.532  22.360  28.342  1.00  0.00     0.009 A 
ATOM     69  C   UNL A   1      42.100  21.890  25.651  1.00  0.00     0.001 A 
ATOM     70  C   UNL A   1      41.265  21.110  27.778  1.00  0.00     0.001 A 
ATOM     71  C   UNL A   1      41.540  20.880  26.432  1.00  0.00     0.000 A 
ENDBRANCH  47  66
BRANCH  59  72
ATOM     72  C   UNL A   1      47.801  26.292  30.291  1.00  0.00    -0.014 A 
ATOM     73  C   UNL A   1      48.774  26.351  29.282  1.00  0.00     0.009 A 
ATOM     74  C   UNL A   1      48.152  25.773  31.547  1.00  0.00     0.009 A 
ATOM     75  C   UNL A   1      50.064  25.869  29.518  1.00  0.00     0.001 A 
ATOM     76  C   UNL A   1      49.450  25.320  31.789  1.00  0.00     0.001 A 
ATOM     77  C   UNL A   1      50.402  25.359  30.772  1.00  0.00     0.000 A 
ENDBRANCH  59  72
ENDBRANCH  33  34
ENDBRANCH  25  28
ENDBRANCH  23  24
ENDBRANCH  22  23
ENDBRANCH   1  22
TORSDOF 14
ENDMDL
