MODEL 1
REMARK VINA RESULT:     -11.0      0.000      0.000
REMARK SMILES C[C@@H](C(=O)NCCCCNC(=O)c1ccc(-c2c3nc(c(-c4ccccc4)c4ccc([nH]4)c(-c4ccccc4)c4nc(c(-c5ccccc5)c5ccc2[nH]5)C=C4)C=C3)cc1)c1ccc(Cc2ccoc2)cc1F
REMARK SMILES IDX 7 1 6 2 5 3 3 4 4 5 2 7 1 8 61 9 62 10 72 11 63 12 71 13
REMARK SMILES IDX 73 14 64 15 65 16 66 17 67 18 70 19 68 20 69 21 8 22 9 23
REMARK SMILES IDX 10 24 11 25 12 27 13 28 14 29 60 30 15 31 59 32 16 33 17 34
REMARK SMILES IDX 18 35 53 36 19 37 58 38 52 39 54 40 20 41 57 42 51 43 50 44
REMARK SMILES IDX 21 46 43 47 28 48 42 49 29 50 32 51 41 52 55 53 30 54 31 55
REMARK SMILES IDX 40 57 56 58 33 59 22 60 23 61 27 62 24 63 26 64 25 65 44 66
REMARK SMILES IDX 45 67 49 68 46 69 48 70 47 71 34 72 35 73 39 74 36 75 38 76
REMARK SMILES IDX 37 77
REMARK H PARENT 5 6 10 26 54 45 32 56
REMARK Flexibility Score: inf
ROOT
ATOM      1  C   UNL A   1      31.567  30.622  25.969  1.00  0.00     0.023 C 
ENDROOT
BRANCH   1   2
ATOM      2  C   UNL A   1      32.760  29.786  26.449  1.00  0.00     0.116 C 
BRANCH   2   3
ATOM      3  N   UNL A   1      33.649  29.487  25.342  1.00  0.00    -0.356 N 
ATOM      4  C   UNL A   1      33.700  28.374  24.545  1.00  0.00     0.227 C 
ATOM      5  O   UNL A   1      34.753  28.175  23.938  1.00  0.00    -0.274 OA
ATOM      6  H   UNL A   1      34.312  30.185  25.134  1.00  0.00     0.163 HD
BRANCH   4   7
ATOM      7  C   UNL A   1      32.479  27.436  24.463  1.00  0.00     0.108 C 
ATOM      8  C   UNL A   1      32.948  26.101  23.862  1.00  0.00     0.023 C 
BRANCH   7   9
ATOM      9  C   UNL A   1      31.288  28.026  23.701  1.00  0.00    -0.000 A 
ATOM     10  C   UNL A   1      31.464  28.972  22.679  1.00  0.00     0.008 A 
ATOM     11  C   UNL A   1      29.973  27.611  23.951  1.00  0.00     0.127 A 
ATOM     12  C   UNL A   1      30.376  29.542  22.015  1.00  0.00     0.004 A 
ATOM     13  C   UNL A   1      28.875  28.214  23.326  1.00  0.00     0.043 A 
ATOM     14  F   UNL A   1      29.734  26.593  24.791  1.00  0.00    -0.207 F 
ATOM     15  C   UNL A   1      29.062  29.217  22.367  1.00  0.00    -0.041 A 
BRANCH  15  16
ATOM     16  C   UNL A   1      27.892  29.886  21.686  1.00  0.00     0.074 C 
BRANCH  16  17
ATOM     17  C   UNL A   1      27.991  31.360  21.934  1.00  0.00    -0.005 A 
ATOM     18  C   UNL A   1      28.412  32.041  23.119  1.00  0.00     0.046 A 
ATOM     19  C   UNL A   1      27.762  32.368  21.016  1.00  0.00     0.198 A 
ATOM     20  C   UNL A   1      28.377  33.385  22.842  1.00  0.00     0.195 A 
ATOM     21  O   UNL A   1      27.991  33.590  21.560  1.00  0.00    -0.472 OA
ENDBRANCH  16  17
ENDBRANCH  15  16
ENDBRANCH   7   9
ENDBRANCH   4   7
ENDBRANCH   2   3
ENDBRANCH   1   2
BRANCH   1  22
ATOM     22  C   UNL A   1      31.357  31.938  26.721  1.00  0.00     0.023 C 
BRANCH  22  23
ATOM     23  C   UNL A   1      32.633  32.671  27.110  1.00  0.00     0.116 C 
BRANCH  23  24
ATOM     24  N   UNL A   1      32.381  34.004  27.631  1.00  0.00    -0.352 N 
ATOM     25  C   UNL A   1      33.074  34.718  28.572  1.00  0.00     0.251 C 
ATOM     26  H   UNL A   1      31.595  34.461  27.252  1.00  0.00     0.163 HD
ATOM     27  O   UNL A   1      32.621  35.791  28.976  1.00  0.00    -0.269 OA
BRANCH  25  28
ATOM     28  C   UNL A   1      34.339  34.199  29.132  1.00  0.00     0.039 A 
ATOM     29  C   UNL A   1      34.281  33.425  30.294  1.00  0.00     0.014 A 
ATOM     30  C   UNL A   1      35.573  34.475  28.536  1.00  0.00     0.014 A 
ATOM     31  C   UNL A   1      35.452  32.883  30.825  1.00  0.00     0.010 A 
ATOM     32  C   UNL A   1      36.733  33.876  29.025  1.00  0.00     0.010 A 
ATOM     33  C   UNL A   1      36.684  33.076  30.176  1.00  0.00    -0.014 A 
BRANCH  33  34
ATOM     34  C   UNL A   1      37.914  32.428  30.693  1.00  0.00     0.031 A 
ATOM     35  C   UNL A   1      38.583  32.931  31.942  1.00  0.00     0.074 A 
ATOM     36  C   UNL A   1      38.442  31.390  30.017  1.00  0.00     0.049 A 
ATOM     37  N   UNL A   1      39.641  32.462  32.554  1.00  0.00    -0.248 NA
ATOM     38  C   UNL A   1      38.003  34.126  32.575  1.00  0.00     0.031 C 
ATOM     39  C   UNL A   1      37.923  30.843  28.761  1.00  0.00     0.029 A 
ATOM     40  N   UNL A   1      39.532  30.603  30.295  1.00  0.00    -0.354 N 
ATOM     41  C   UNL A   1      39.851  33.300  33.641  1.00  0.00     0.074 A 
ATOM     42  C   UNL A   1      38.848  34.340  33.574  1.00  0.00     0.031 C 
ATOM     43  C   UNL A   1      38.672  29.790  28.397  1.00  0.00     0.029 A 
ATOM     44  C   UNL A   1      39.737  29.604  29.375  1.00  0.00     0.049 A 
ATOM     45  H   UNL A   1      40.111  30.742  31.079  1.00  0.00     0.167 HD
ATOM     46  C   UNL A   1      40.780  33.201  34.622  1.00  0.00     0.031 A 
ATOM     47  C   UNL A   1      40.675  28.640  29.328  1.00  0.00     0.031 A 
ATOM     48  C   UNL A   1      41.781  32.170  34.692  1.00  0.00     0.049 A 
ATOM     49  C   UNL A   1      41.687  28.547  30.434  1.00  0.00     0.074 A 
ATOM     50  C   UNL A   1      42.742  31.964  35.667  1.00  0.00     0.029 A 
ATOM     51  N   UNL A   1      41.949  31.170  33.747  1.00  0.00    -0.354 N 
ATOM     52  N   UNL A   1      41.826  29.307  31.494  1.00  0.00    -0.248 NA
ATOM     53  C   UNL A   1      42.661  27.450  30.345  1.00  0.00     0.031 C 
ATOM     54  C   UNL A   1      43.518  30.862  35.290  1.00  0.00     0.029 A 
ATOM     55  C   UNL A   1      43.008  30.353  34.107  1.00  0.00     0.049 A 
ATOM     56  H   UNL A   1      41.398  31.057  32.939  1.00  0.00     0.167 HD
ATOM     57  C   UNL A   1      42.890  28.769  32.206  1.00  0.00     0.074 A 
ATOM     58  C   UNL A   1      43.339  27.603  31.473  1.00  0.00     0.031 C 
ATOM     59  C   UNL A   1      43.450  29.205  33.361  1.00  0.00     0.031 A 
BRANCH  46  60
ATOM     60  C   UNL A   1      40.748  34.237  35.711  1.00  0.00    -0.014 A 
ATOM     61  C   UNL A   1      41.494  35.422  35.600  1.00  0.00     0.009 A 
ATOM     62  C   UNL A   1      39.934  34.052  36.837  1.00  0.00     0.009 A 
ATOM     63  C   UNL A   1      41.448  36.385  36.609  1.00  0.00     0.001 A 
ATOM     64  C   UNL A   1      39.867  35.029  37.833  1.00  0.00     0.001 A 
ATOM     65  C   UNL A   1      40.630  36.191  37.722  1.00  0.00     0.000 A 
ENDBRANCH  46  60
BRANCH  47  66
ATOM     66  C   UNL A   1      40.690  27.669  28.204  1.00  0.00    -0.014 A 
ATOM     67  C   UNL A   1      39.961  26.471  28.283  1.00  0.00     0.009 A 
ATOM     68  C   UNL A   1      41.446  27.928  27.051  1.00  0.00     0.009 A 
ATOM     69  C   UNL A   1      40.018  25.539  27.245  1.00  0.00     0.001 A 
ATOM     70  C   UNL A   1      41.477  27.008  26.002  1.00  0.00     0.001 A 
ATOM     71  C   UNL A   1      40.772  25.809  26.104  1.00  0.00     0.000 A 
ENDBRANCH  47  66
BRANCH  59  72
ATOM     72  C   UNL A   1      44.598  28.400  33.903  1.00  0.00    -0.014 A 
ATOM     73  C   UNL A   1      44.385  27.337  34.793  1.00  0.00     0.009 A 
ATOM     74  C   UNL A   1      45.910  28.707  33.510  1.00  0.00     0.009 A 
ATOM     75  C   UNL A   1      45.466  26.626  35.316  1.00  0.00     0.001 A 
ATOM     76  C   UNL A   1      46.988  27.976  34.011  1.00  0.00     0.001 A 
ATOM     77  C   UNL A   1      46.765  26.944  34.923  1.00  0.00     0.000 A 
ENDBRANCH  59  72
ENDBRANCH  33  34
ENDBRANCH  25  28
ENDBRANCH  23  24
ENDBRANCH  22  23
ENDBRANCH   1  22
TORSDOF 14
ENDMDL
MODEL 2
REMARK VINA RESULT:     -11.0      5.942     10.809
REMARK SMILES C[C@@H](C(=O)NCCCCNC(=O)c1ccc(-c2c3nc(c(-c4ccccc4)c4ccc([nH]4)c(-c4ccccc4)c4nc(c(-c5ccccc5)c5ccc2[nH]5)C=C4)C=C3)cc1)c1ccc(Cc2ccoc2)cc1F
REMARK SMILES IDX 7 1 6 2 5 3 3 4 4 5 2 7 1 8 61 9 62 10 72 11 63 12 71 13
REMARK SMILES IDX 73 14 64 15 65 16 66 17 67 18 70 19 68 20 69 21 8 22 9 23
REMARK SMILES IDX 10 24 11 25 12 27 13 28 14 29 60 30 15 31 59 32 16 33 17 34
REMARK SMILES IDX 18 35 53 36 19 37 58 38 52 39 54 40 20 41 57 42 51 43 50 44
REMARK SMILES IDX 21 46 43 47 28 48 42 49 29 50 32 51 41 52 55 53 30 54 31 55
REMARK SMILES IDX 40 57 56 58 33 59 22 60 23 61 27 62 24 63 26 64 25 65 44 66
REMARK SMILES IDX 45 67 49 68 46 69 48 70 47 71 34 72 35 73 39 74 36 75 38 76
REMARK SMILES IDX 37 77
REMARK H PARENT 5 6 10 26 54 45 32 56
REMARK Flexibility Score: inf
ROOT
ATOM      1  C   UNL A   1      36.779  20.829  24.604  1.00  0.00     0.023 C 
ENDROOT
BRANCH   1   2
ATOM      2  C   UNL A   1      36.501  21.868  25.698  1.00  0.00     0.116 C 
BRANCH   2   3
ATOM      3  N   UNL A   1      36.130  23.141  25.109  1.00  0.00    -0.356 N 
ATOM      4  C   UNL A   1      34.884  23.648  24.851  1.00  0.00     0.227 C 
ATOM      5  O   UNL A   1      34.816  24.553  24.018  1.00  0.00    -0.274 OA
ATOM      6  H   UNL A   1      36.883  23.724  24.859  1.00  0.00     0.163 HD
BRANCH   4   7
ATOM      7  C   UNL A   1      33.656  23.066  25.579  1.00  0.00     0.108 C 
ATOM      8  C   UNL A   1      33.949  23.086  27.089  1.00  0.00     0.023 C 
BRANCH   7   9
ATOM      9  C   UNL A   1      33.241  21.674  25.091  1.00  0.00    -0.000 A 
ATOM     10  C   UNL A   1      33.208  20.570  25.957  1.00  0.00     0.008 A 
ATOM     11  C   UNL A   1      32.825  21.449  23.771  1.00  0.00     0.127 A 
ATOM     12  C   UNL A   1      32.872  19.293  25.501  1.00  0.00     0.004 A 
ATOM     13  C   UNL A   1      32.537  20.164  23.295  1.00  0.00     0.043 A 
ATOM     14  F   UNL A   1      32.668  22.479  22.927  1.00  0.00    -0.207 F 
ATOM     15  C   UNL A   1      32.589  19.057  24.152  1.00  0.00    -0.041 A 
BRANCH  15  16
ATOM     16  C   UNL A   1      32.289  17.661  23.659  1.00  0.00     0.074 C 
BRANCH  16  17
ATOM     17  C   UNL A   1      33.271  16.725  24.292  1.00  0.00    -0.005 A 
ATOM     18  C   UNL A   1      34.689  16.861  24.409  1.00  0.00     0.046 A 
ATOM     19  C   UNL A   1      32.976  15.556  24.970  1.00  0.00     0.198 A 
ATOM     20  C   UNL A   1      35.140  15.769  25.109  1.00  0.00     0.195 A 
ATOM     21  O   UNL A   1      34.101  14.976  25.462  1.00  0.00    -0.472 OA
ENDBRANCH  16  17
ENDBRANCH  15  16
ENDBRANCH   7   9
ENDBRANCH   4   7
ENDBRANCH   2   3
ENDBRANCH   1   2
BRANCH   1  22
ATOM     22  C   UNL A   1      37.778  19.737  24.990  1.00  0.00     0.023 C 
BRANCH  22  23
ATOM     23  C   UNL A   1      38.969  20.211  25.812  1.00  0.00     0.116 C 
BRANCH  23  24
ATOM     24  N   UNL A   1      40.075  19.268  25.797  1.00  0.00    -0.352 N 
ATOM     25  C   UNL A   1      41.400  19.473  26.075  1.00  0.00     0.251 C 
ATOM     26  H   UNL A   1      39.837  18.345  25.549  1.00  0.00     0.163 HD
ATOM     27  O   UNL A   1      42.211  18.566  25.878  1.00  0.00    -0.269 OA
BRANCH  25  28
ATOM     28  C   UNL A   1      41.872  20.782  26.575  1.00  0.00     0.039 A 
ATOM     29  C   UNL A   1      42.262  21.746  25.643  1.00  0.00     0.014 A 
ATOM     30  C   UNL A   1      41.944  21.062  27.943  1.00  0.00     0.014 A 
ATOM     31  C   UNL A   1      42.671  23.007  26.079  1.00  0.00     0.010 A 
ATOM     32  C   UNL A   1      42.284  22.342  28.375  1.00  0.00     0.010 A 
ATOM     33  C   UNL A   1      42.654  23.326  27.447  1.00  0.00    -0.014 A 
BRANCH  33  34
ATOM     34  C   UNL A   1      43.006  24.693  27.903  1.00  0.00     0.031 A 
ATOM     35  C   UNL A   1      44.443  25.119  28.022  1.00  0.00     0.074 A 
ATOM     36  C   UNL A   1      42.019  25.550  28.231  1.00  0.00     0.049 A 
ATOM     37  N   UNL A   1      44.929  26.285  28.369  1.00  0.00    -0.248 NA
ATOM     38  C   UNL A   1      45.467  24.102  27.737  1.00  0.00     0.031 C 
ATOM     39  C   UNL A   1      40.588  25.241  28.215  1.00  0.00     0.029 A 
ATOM     40  N   UNL A   1      42.071  26.860  28.637  1.00  0.00    -0.354 N 
ATOM     41  C   UNL A   1      46.310  26.141  28.341  1.00  0.00     0.074 A 
ATOM     42  C   UNL A   1      46.585  24.762  28.001  1.00  0.00     0.031 C 
ATOM     43  C   UNL A   1      39.896  26.340  28.559  1.00  0.00     0.029 A 
ATOM     44  C   UNL A   1      40.834  27.420  28.846  1.00  0.00     0.049 A 
ATOM     45  H   UNL A   1      42.915  27.351  28.766  1.00  0.00     0.167 HD
ATOM     46  C   UNL A   1      47.265  27.078  28.554  1.00  0.00     0.031 A 
ATOM     47  C   UNL A   1      40.492  28.667  29.220  1.00  0.00     0.031 A 
ATOM     48  C   UNL A   1      46.996  28.450  28.894  1.00  0.00     0.049 A 
ATOM     49  C   UNL A   1      41.570  29.688  29.442  1.00  0.00     0.074 A 
ATOM     50  C   UNL A   1      47.896  29.483  29.094  1.00  0.00     0.029 A 
ATOM     51  N   UNL A   1      45.729  28.980  29.086  1.00  0.00    -0.354 N 
ATOM     52  N   UNL A   1      42.871  29.552  29.339  1.00  0.00    -0.248 NA
ATOM     53  C   UNL A   1      41.131  31.040  29.811  1.00  0.00     0.031 C 
ATOM     54  C   UNL A   1      47.175  30.629  29.447  1.00  0.00     0.029 A 
ATOM     55  C   UNL A   1      45.825  30.322  29.417  1.00  0.00     0.049 A 
ATOM     56  H   UNL A   1      44.888  28.478  29.000  1.00  0.00     0.167 HD
ATOM     57  C   UNL A   1      43.402  30.805  29.614  1.00  0.00     0.074 A 
ATOM     58  C   UNL A   1      42.283  31.692  29.857  1.00  0.00     0.031 C 
ATOM     59  C   UNL A   1      44.702  31.187  29.668  1.00  0.00     0.031 A 
BRANCH  46  60
ATOM     60  C   UNL A   1      48.698  26.647  28.415  1.00  0.00    -0.014 A 
ATOM     61  C   UNL A   1      49.419  26.171  29.522  1.00  0.00     0.009 A 
ATOM     62  C   UNL A   1      49.324  26.674  27.159  1.00  0.00     0.009 A 
ATOM     63  C   UNL A   1      50.746  25.760  29.380  1.00  0.00     0.001 A 
ATOM     64  C   UNL A   1      50.642  26.236  27.014  1.00  0.00     0.001 A 
ATOM     65  C   UNL A   1      51.355  25.787  28.125  1.00  0.00     0.000 A 
ENDBRANCH  46  60
BRANCH  47  66
ATOM     66  C   UNL A   1      39.061  29.027  29.390  1.00  0.00    -0.014 A 
ATOM     67  C   UNL A   1      38.430  28.884  30.636  1.00  0.00     0.009 A 
ATOM     68  C   UNL A   1      38.314  29.504  28.302  1.00  0.00     0.009 A 
ATOM     69  C   UNL A   1      37.072  29.177  30.778  1.00  0.00     0.001 A 
ATOM     70  C   UNL A   1      36.964  29.824  28.455  1.00  0.00     0.001 A 
ATOM     71  C   UNL A   1      36.341  29.650  29.690  1.00  0.00     0.000 A 
ENDBRANCH  47  66
BRANCH  59  72
ATOM     72  C   UNL A   1      44.972  32.631  29.985  1.00  0.00    -0.014 A 
ATOM     73  C   UNL A   1      45.110  33.586  28.967  1.00  0.00     0.009 A 
ATOM     74  C   UNL A   1      45.081  33.041  31.323  1.00  0.00     0.009 A 
ATOM     75  C   UNL A   1      45.398  34.915  29.279  1.00  0.00     0.001 A 
ATOM     76  C   UNL A   1      45.341  34.376  31.634  1.00  0.00     0.001 A 
ATOM     77  C   UNL A   1      45.511  35.310  30.612  1.00  0.00     0.000 A 
ENDBRANCH  59  72
ENDBRANCH  33  34
ENDBRANCH  25  28
ENDBRANCH  23  24
ENDBRANCH  22  23
ENDBRANCH   1  22
TORSDOF 14
ENDMDL
MODEL 3
REMARK VINA RESULT:     -10.9      3.596      6.187
REMARK SMILES C[C@@H](C(=O)NCCCCNC(=O)c1ccc(-c2c3nc(c(-c4ccccc4)c4ccc([nH]4)c(-c4ccccc4)c4nc(c(-c5ccccc5)c5ccc2[nH]5)C=C4)C=C3)cc1)c1ccc(Cc2ccoc2)cc1F
REMARK SMILES IDX 7 1 6 2 5 3 3 4 4 5 2 7 1 8 61 9 62 10 72 11 63 12 71 13
REMARK SMILES IDX 73 14 64 15 65 16 66 17 67 18 70 19 68 20 69 21 8 22 9 23
REMARK SMILES IDX 10 24 11 25 12 27 13 28 14 29 60 30 15 31 59 32 16 33 17 34
REMARK SMILES IDX 18 35 53 36 19 37 58 38 52 39 54 40 20 41 57 42 51 43 50 44
REMARK SMILES IDX 21 46 43 47 28 48 42 49 29 50 32 51 41 52 55 53 30 54 31 55
REMARK SMILES IDX 40 57 56 58 33 59 22 60 23 61 27 62 24 63 26 64 25 65 44 66
REMARK SMILES IDX 45 67 49 68 46 69 48 70 47 71 34 72 35 73 39 74 36 75 38 76
REMARK SMILES IDX 37 77
REMARK H PARENT 5 6 10 26 54 45 32 56
REMARK Flexibility Score: inf
ROOT
ATOM      1  C   UNL A   1      31.396  27.811  25.992  1.00  0.00     0.023 C 
ENDROOT
BRANCH   1   2
ATOM      2  C   UNL A   1      30.917  26.387  25.682  1.00  0.00     0.116 C 
BRANCH   2   3
ATOM      3  N   UNL A   1      30.712  26.218  24.255  1.00  0.00    -0.356 N 
ATOM      4  C   UNL A   1      31.588  26.423  23.222  1.00  0.00     0.227 C 
ATOM      5  O   UNL A   1      31.097  26.585  22.104  1.00  0.00    -0.274 OA
ATOM      6  H   UNL A   1      29.814  25.913  23.993  1.00  0.00     0.163 HD
BRANCH   4   7
ATOM      7  C   UNL A   1      33.104  26.459  23.501  1.00  0.00     0.108 C 
ATOM      8  C   UNL A   1      33.789  27.132  22.300  1.00  0.00     0.023 C 
BRANCH   7   9
ATOM      9  C   UNL A   1      33.714  25.090  23.820  1.00  0.00    -0.000 A 
ATOM     10  C   UNL A   1      33.694  24.040  22.888  1.00  0.00     0.008 A 
ATOM     11  C   UNL A   1      34.365  24.837  25.036  1.00  0.00     0.127 A 
ATOM     12  C   UNL A   1      34.211  22.780  23.197  1.00  0.00     0.004 A 
ATOM     13  C   UNL A   1      34.839  23.563  25.371  1.00  0.00     0.043 A 
ATOM     14  F   UNL A   1      34.573  25.833  25.909  1.00  0.00    -0.207 F 
ATOM     15  C   UNL A   1      34.737  22.503  24.462  1.00  0.00    -0.041 A 
BRANCH  15  16
ATOM     16  C   UNL A   1      35.236  21.118  24.805  1.00  0.00     0.074 C 
BRANCH  16  17
ATOM     17  C   UNL A   1      34.059  20.193  24.821  1.00  0.00    -0.005 A 
ATOM     18  C   UNL A   1      33.952  18.872  24.285  1.00  0.00     0.046 A 
ATOM     19  C   UNL A   1      32.844  20.416  25.443  1.00  0.00     0.198 A 
ATOM     20  C   UNL A   1      32.692  18.417  24.590  1.00  0.00     0.195 A 
ATOM     21  O   UNL A   1      32.017  19.349  25.303  1.00  0.00    -0.472 OA
ENDBRANCH  16  17
ENDBRANCH  15  16
ENDBRANCH   7   9
ENDBRANCH   4   7
ENDBRANCH   2   3
ENDBRANCH   1   2
BRANCH   1  22
ATOM     22  C   UNL A   1      32.081  27.979  27.351  1.00  0.00     0.023 C 
BRANCH  22  23
ATOM     23  C   UNL A   1      33.460  28.624  27.305  1.00  0.00     0.116 C 
BRANCH  23  24
ATOM     24  N   UNL A   1      33.438  30.027  27.682  1.00  0.00    -0.352 N 
ATOM     25  C   UNL A   1      34.416  30.789  28.264  1.00  0.00     0.251 C 
ATOM     26  H   UNL A   1      32.596  30.500  27.491  1.00  0.00     0.163 HD
ATOM     27  O   UNL A   1      34.157  31.938  28.628  1.00  0.00    -0.269 OA
BRANCH  25  28
ATOM     28  C   UNL A   1      35.768  30.235  28.493  1.00  0.00     0.039 A 
ATOM     29  C   UNL A   1      36.690  30.284  27.445  1.00  0.00     0.014 A 
ATOM     30  C   UNL A   1      36.128  29.662  29.716  1.00  0.00     0.014 A 
ATOM     31  C   UNL A   1      37.988  29.810  27.641  1.00  0.00     0.010 A 
ATOM     32  C   UNL A   1      37.443  29.254  29.934  1.00  0.00     0.010 A 
ATOM     33  C   UNL A   1      38.384  29.321  28.897  1.00  0.00    -0.014 A 
BRANCH  33  34
ATOM     34  C   UNL A   1      39.787  28.898  29.129  1.00  0.00     0.031 A 
ATOM     35  C   UNL A   1      40.768  29.818  29.802  1.00  0.00     0.074 A 
ATOM     36  C   UNL A   1      40.183  27.681  28.708  1.00  0.00     0.049 A 
ATOM     37  N   UNL A   1      42.020  29.597  30.116  1.00  0.00    -0.248 NA
ATOM     38  C   UNL A   1      40.290  31.165  30.150  1.00  0.00     0.031 C 
ATOM     39  C   UNL A   1      39.346  26.718  27.990  1.00  0.00     0.029 A 
ATOM     40  N   UNL A   1      41.393  27.043  28.830  1.00  0.00    -0.354 N 
ATOM     41  C   UNL A   1      42.476  30.773  30.698  1.00  0.00     0.074 A 
ATOM     42  C   UNL A   1      41.387  31.723  30.642  1.00  0.00     0.031 C 
ATOM     43  C   UNL A   1      40.055  25.599  27.767  1.00  0.00     0.029 A 
ATOM     44  C   UNL A   1      41.401  25.776  28.300  1.00  0.00     0.049 A 
ATOM     45  H   UNL A   1      42.179  27.455  29.257  1.00  0.00     0.167 HD
ATOM     46  C   UNL A   1      43.685  31.032  31.252  1.00  0.00     0.031 A 
ATOM     47  C   UNL A   1      42.381  24.855  28.255  1.00  0.00     0.031 A 
ATOM     48  C   UNL A   1      44.771  30.091  31.309  1.00  0.00     0.049 A 
ATOM     49  C   UNL A   1      43.709  25.166  28.885  1.00  0.00     0.074 A 
ATOM     50  C   UNL A   1      46.022  30.249  31.882  1.00  0.00     0.029 A 
ATOM     51  N   UNL A   1      44.736  28.814  30.771  1.00  0.00    -0.354 N 
ATOM     52  N   UNL A   1      44.099  26.259  29.496  1.00  0.00    -0.248 NA
ATOM     53  C   UNL A   1      44.725  24.105  28.835  1.00  0.00     0.031 C 
ATOM     54  C   UNL A   1      46.757  29.080  31.655  1.00  0.00     0.029 A 
ATOM     55  C   UNL A   1      45.948  28.178  30.985  1.00  0.00     0.049 A 
ATOM     56  H   UNL A   1      43.965  28.418  30.304  1.00  0.00     0.167 HD
ATOM     57  C   UNL A   1      45.398  26.010  29.918  1.00  0.00     0.074 A 
ATOM     58  C   UNL A   1      45.717  24.655  29.521  1.00  0.00     0.031 C 
ATOM     59  C   UNL A   1      46.254  26.834  30.572  1.00  0.00     0.031 A 
BRANCH  46  60
ATOM     60  C   UNL A   1      43.891  32.394  31.854  1.00  0.00    -0.014 A 
ATOM     61  C   UNL A   1      43.599  32.637  33.206  1.00  0.00     0.009 A 
ATOM     62  C   UNL A   1      44.421  33.435  31.077  1.00  0.00     0.009 A 
ATOM     63  C   UNL A   1      43.807  33.902  33.759  1.00  0.00     0.001 A 
ATOM     64  C   UNL A   1      44.654  34.692  31.639  1.00  0.00     0.001 A 
ATOM     65  C   UNL A   1      44.340  34.927  32.978  1.00  0.00     0.000 A 
ENDBRANCH  46  60
BRANCH  47  66
ATOM     66  C   UNL A   1      42.140  23.541  27.606  1.00  0.00    -0.014 A 
ATOM     67  C   UNL A   1      41.576  22.478  28.330  1.00  0.00     0.009 A 
ATOM     68  C   UNL A   1      42.485  23.338  26.261  1.00  0.00     0.009 A 
ATOM     69  C   UNL A   1      41.397  21.230  27.729  1.00  0.00     0.001 A 
ATOM     70  C   UNL A   1      42.277  22.098  25.655  1.00  0.00     0.001 A 
ATOM     71  C   UNL A   1      41.743  21.041  26.392  1.00  0.00     0.000 A 
ENDBRANCH  47  66
BRANCH  59  72
ATOM     72  C   UNL A   1      47.608  26.275  30.908  1.00  0.00    -0.014 A 
ATOM     73  C   UNL A   1      48.640  26.250  29.958  1.00  0.00     0.009 A 
ATOM     74  C   UNL A   1      47.854  25.774  32.195  1.00  0.00     0.009 A 
ATOM     75  C   UNL A   1      49.879  25.691  30.276  1.00  0.00     0.001 A 
ATOM     76  C   UNL A   1      49.103  25.243  32.520  1.00  0.00     0.001 A 
ATOM     77  C   UNL A   1      50.110  25.190  31.557  1.00  0.00     0.000 A 
ENDBRANCH  59  72
ENDBRANCH  33  34
ENDBRANCH  25  28
ENDBRANCH  23  24
ENDBRANCH  22  23
ENDBRANCH   1  22
TORSDOF 14
ENDMDL
