MODEL 1
REMARK VINA RESULT:     -11.4      0.000      0.000
REMARK SMILES CC(C)c1cc2c(cc1Cl)C=C(C(=O)NCCCCNC(=O)c1ccc(-c3c4nc(c(-c5ccccc5)c5ccc([nH]5)c(-c5ccccc5)c5nc(c(-c6ccccc6)c6ccc3[nH]6)C=C5)C=C4)cc1)[C@@H](C(F)(F)F)O2
REMARK SMILES IDX 18 1 17 2 16 3 15 4 13 5 14 6 12 8 4 9 5 10 9 11 6 12 8 13
REMARK SMILES IDX 10 14 7 15 76 16 11 17 71 18 2 19 1 20 3 21 72 22 73 23
REMARK SMILES IDX 74 24 75 25 19 26 20 27 21 28 22 30 23 31 24 32 70 33 25 34
REMARK SMILES IDX 69 35 26 36 27 37 28 38 63 39 29 40 68 41 62 42 64 43 30 44
REMARK SMILES IDX 67 45 61 46 60 47 31 49 53 50 38 51 52 52 39 53 42 54 51 55
REMARK SMILES IDX 65 56 40 57 41 58 50 60 66 61 43 62 32 63 33 64 37 65 34 66
REMARK SMILES IDX 36 67 35 68 54 69 55 70 59 71 56 72 58 73 57 74 44 75 45 76
REMARK SMILES IDX 49 77 46 78 48 79 47 80
REMARK H PARENT 15 7 20 29 64 48 42 59
REMARK Flexibility Score: inf
ROOT
ATOM      1  C   UNL A   1      32.167  29.015  26.917  1.00  0.00     0.023 C 
ENDROOT
BRANCH   1   2
ATOM      2  C   UNL A   1      31.604  29.918  25.820  1.00  0.00     0.023 C 
BRANCH   2   3
ATOM      3  C   UNL A   1      31.724  29.344  24.411  1.00  0.00     0.116 C 
BRANCH   3   4
ATOM      4  N   UNL A   1      30.684  28.373  24.125  1.00  0.00    -0.352 N 
ATOM      5  C   UNL A   1      30.528  27.031  24.244  1.00  0.00     0.251 C 
ATOM      6  O   UNL A   1      29.433  26.597  23.873  1.00  0.00    -0.270 OA
ATOM      7  H   UNL A   1      29.882  28.799  23.745  1.00  0.00     0.163 HD
BRANCH   5   8
ATOM      8  C   UNL A   1      31.558  26.087  24.766  1.00  0.00     0.067 C 
ATOM      9  C   UNL A   1      35.681  23.204  25.371  1.00  0.00    -0.023 A 
ATOM     10  C   UNL A   1      34.729  23.777  26.233  1.00  0.00     0.052 A 
ATOM     11  C   UNL A   1      35.563  23.490  23.995  1.00  0.00     0.045 A 
ATOM     12  C   UNL A   1      33.699  24.576  25.738  1.00  0.00     0.128 A 
ATOM     13  C   UNL A   1      34.547  24.328  23.508  1.00  0.00     0.032 A 
ATOM     14  Cl  UNL A   1      36.654  22.834  22.822  1.00  0.00    -0.084 Cl
ATOM     15  C   UNL A   1      33.610  24.875  24.382  1.00  0.00     0.019 A 
ATOM     16  O   UNL A   1      32.816  25.072  26.656  1.00  0.00    -0.475 OA
ATOM     17  C   UNL A   1      32.569  25.790  23.926  1.00  0.00     0.025 C 
ATOM     18  C   UNL A   1      31.513  25.445  26.125  1.00  0.00     0.314 C 
BRANCH   9  19
ATOM     19  C   UNL A   1      36.810  22.337  25.925  1.00  0.00     0.014 C 
ATOM     20  C   UNL A   1      36.813  20.964  25.243  1.00  0.00     0.012 C 
ATOM     21  C   UNL A   1      38.213  22.955  25.815  1.00  0.00     0.012 C 
ENDBRANCH   9  19
BRANCH  18  22
ATOM     22  C   UNL A   1      30.562  24.233  26.168  1.00  0.00     0.429 C 
ATOM     23  F   UNL A   1      30.995  23.323  27.076  1.00  0.00    -0.167 F 
ATOM     24  F   UNL A   1      29.306  24.578  26.540  1.00  0.00    -0.167 F 
ATOM     25  F   UNL A   1      30.457  23.601  24.978  1.00  0.00    -0.167 F 
ENDBRANCH  18  22
ENDBRANCH   5   8
ENDBRANCH   3   4
ENDBRANCH   2   3
ENDBRANCH   1   2
BRANCH   1  26
ATOM     26  C   UNL A   1      33.582  29.352  27.382  1.00  0.00     0.116 C 
BRANCH  26  27
ATOM     27  N   UNL A   1      33.711  30.649  28.035  1.00  0.00    -0.352 N 
ATOM     28  C   UNL A   1      34.819  31.154  28.679  1.00  0.00     0.251 C 
ATOM     29  H   UNL A   1      32.915  31.228  28.015  1.00  0.00     0.163 HD
ATOM     30  O   UNL A   1      34.785  32.240  29.246  1.00  0.00    -0.269 OA
BRANCH  28  31
ATOM     31  C   UNL A   1      36.035  30.322  28.721  1.00  0.00     0.039 A 
ATOM     32  C   UNL A   1      36.412  29.704  29.914  1.00  0.00     0.014 A 
ATOM     33  C   UNL A   1      36.867  30.283  27.600  1.00  0.00     0.014 A 
ATOM     34  C   UNL A   1      37.701  29.207  30.042  1.00  0.00     0.010 A 
ATOM     35  C   UNL A   1      38.136  29.711  27.709  1.00  0.00     0.010 A 
ATOM     36  C   UNL A   1      38.585  29.228  28.949  1.00  0.00    -0.014 A 
BRANCH  36  37
ATOM     37  C   UNL A   1      39.983  28.771  29.139  1.00  0.00     0.031 A 
ATOM     38  C   UNL A   1      40.413  27.399  28.693  1.00  0.00     0.074 A 
ATOM     39  C   UNL A   1      40.888  29.629  29.647  1.00  0.00     0.049 A 
ATOM     40  N   UNL A   1      41.603  26.854  28.744  1.00  0.00    -0.248 NA
ATOM     41  C   UNL A   1      39.379  26.524  28.116  1.00  0.00     0.031 C 
ATOM     42  C   UNL A   1      40.597  30.995  30.085  1.00  0.00     0.029 A 
ATOM     43  N   UNL A   1      42.238  29.494  29.844  1.00  0.00    -0.354 N 
ATOM     44  C   UNL A   1      41.457  25.572  28.231  1.00  0.00     0.074 A 
ATOM     45  C   UNL A   1      40.061  25.409  27.890  1.00  0.00     0.031 C 
ATOM     46  C   UNL A   1      41.743  31.595  30.436  1.00  0.00     0.029 A 
ATOM     47  C   UNL A   1      42.838  30.638  30.309  1.00  0.00     0.049 A 
ATOM     48  H   UNL A   1      42.729  28.660  29.668  1.00  0.00     0.167 HD
ATOM     49  C   UNL A   1      42.404  24.619  28.053  1.00  0.00     0.031 A 
ATOM     50  C   UNL A   1      44.125  30.893  30.609  1.00  0.00     0.031 A 
ATOM     51  C   UNL A   1      43.795  24.788  28.376  1.00  0.00     0.049 A 
ATOM     52  C   UNL A   1      45.146  29.807  30.442  1.00  0.00     0.074 A 
ATOM     53  C   UNL A   1      44.831  23.884  28.212  1.00  0.00     0.029 A 
ATOM     54  N   UNL A   1      44.347  25.936  28.920  1.00  0.00    -0.354 N 
ATOM     55  N   UNL A   1      44.987  28.596  29.967  1.00  0.00    -0.248 NA
ATOM     56  C   UNL A   1      46.520  30.118  30.863  1.00  0.00     0.031 C 
ATOM     57  C   UNL A   1      46.001  24.468  28.704  1.00  0.00     0.029 A 
ATOM     58  C   UNL A   1      45.704  25.754  29.124  1.00  0.00     0.049 A 
ATOM     59  H   UNL A   1      43.848  26.759  29.133  1.00  0.00     0.167 HD
ATOM     60  C   UNL A   1      46.239  27.999  30.030  1.00  0.00     0.074 A 
ATOM     61  C   UNL A   1      47.151  28.989  30.568  1.00  0.00     0.031 C 
ATOM     62  C   UNL A   1      46.596  26.741  29.676  1.00  0.00     0.031 A 
BRANCH  49  63
ATOM     63  C   UNL A   1      41.969  23.290  27.503  1.00  0.00    -0.014 A 
ATOM     64  C   UNL A   1      41.476  22.305  28.374  1.00  0.00     0.009 A 
ATOM     65  C   UNL A   1      42.123  22.980  26.142  1.00  0.00     0.009 A 
ATOM     66  C   UNL A   1      41.150  21.035  27.896  1.00  0.00     0.001 A 
ATOM     67  C   UNL A   1      41.774  21.715  25.664  1.00  0.00     0.001 A 
ATOM     68  C   UNL A   1      41.295  20.742  26.541  1.00  0.00     0.000 A 
ENDBRANCH  49  63
BRANCH  50  69
ATOM     69  C   UNL A   1      44.499  32.244  31.095  1.00  0.00    -0.014 A 
ATOM     70  C   UNL A   1      44.451  32.545  32.466  1.00  0.00     0.009 A 
ATOM     71  C   UNL A   1      44.833  33.257  30.186  1.00  0.00     0.009 A 
ATOM     72  C   UNL A   1      44.699  33.843  32.915  1.00  0.00     0.001 A 
ATOM     73  C   UNL A   1      45.108  34.549  30.642  1.00  0.00     0.001 A 
ATOM     74  C   UNL A   1      45.029  34.843  32.002  1.00  0.00     0.000 A 
ENDBRANCH  50  69
BRANCH  62  75
ATOM     75  C   UNL A   1      48.032  26.350  29.860  1.00  0.00    -0.014 A 
ATOM     76  C   UNL A   1      48.928  26.450  28.783  1.00  0.00     0.009 A 
ATOM     77  C   UNL A   1      48.478  25.802  31.072  1.00  0.00     0.009 A 
ATOM     78  C   UNL A   1      50.241  25.998  28.913  1.00  0.00     0.001 A 
ATOM     79  C   UNL A   1      49.799  25.370  31.205  1.00  0.00     0.001 A 
ATOM     80  C   UNL A   1      50.676  25.462  30.125  1.00  0.00     0.000 A 
ENDBRANCH  62  75
ENDBRANCH  36  37
ENDBRANCH  28  31
ENDBRANCH  26  27
ENDBRANCH   1  26
TORSDOF 13
ENDMDL
MODEL 2
REMARK VINA RESULT:     -11.3      3.053      7.994
REMARK SMILES CC(C)c1cc2c(cc1Cl)C=C(C(=O)NCCCCNC(=O)c1ccc(-c3c4nc(c(-c5ccccc5)c5ccc([nH]5)c(-c5ccccc5)c5nc(c(-c6ccccc6)c6ccc3[nH]6)C=C5)C=C4)cc1)[C@@H](C(F)(F)F)O2
REMARK SMILES IDX 18 1 17 2 16 3 15 4 13 5 14 6 12 8 4 9 5 10 9 11 6 12 8 13
REMARK SMILES IDX 10 14 7 15 76 16 11 17 71 18 2 19 1 20 3 21 72 22 73 23
REMARK SMILES IDX 74 24 75 25 19 26 20 27 21 28 22 30 23 31 24 32 70 33 25 34
REMARK SMILES IDX 69 35 26 36 27 37 28 38 63 39 29 40 68 41 62 42 64 43 30 44
REMARK SMILES IDX 67 45 61 46 60 47 31 49 53 50 38 51 52 52 39 53 42 54 51 55
REMARK SMILES IDX 65 56 40 57 41 58 50 60 66 61 43 62 32 63 33 64 37 65 34 66
REMARK SMILES IDX 36 67 35 68 54 69 55 70 59 71 56 72 58 73 57 74 44 75 45 76
REMARK SMILES IDX 49 77 46 78 48 79 47 80
REMARK H PARENT 15 7 20 29 64 48 42 59
REMARK Flexibility Score: inf
ROOT
ATOM      1  C   UNL A   1      36.675  22.394  24.395  1.00  0.00     0.023 C 
ENDROOT
BRANCH   1   2
ATOM      2  C   UNL A   1      36.197  21.007  24.823  1.00  0.00     0.023 C 
BRANCH   2   3
ATOM      3  C   UNL A   1      34.845  21.000  25.533  1.00  0.00     0.116 C 
BRANCH   3   4
ATOM      4  N   UNL A   1      33.735  21.019  24.597  1.00  0.00    -0.352 N 
ATOM      5  C   UNL A   1      32.989  21.961  23.971  1.00  0.00     0.251 C 
ATOM      6  O   UNL A   1      32.113  21.522  23.220  1.00  0.00    -0.270 OA
ATOM      7  H   UNL A   1      33.450  20.109  24.352  1.00  0.00     0.163 HD
BRANCH   5   8
ATOM      8  C   UNL A   1      33.148  23.436  24.136  1.00  0.00     0.067 C 
ATOM      9  C   UNL A   1      33.138  28.181  25.912  1.00  0.00    -0.023 A 
ATOM     10  C   UNL A   1      33.868  27.485  24.933  1.00  0.00     0.052 A 
ATOM     11  C   UNL A   1      32.196  27.446  26.663  1.00  0.00     0.045 A 
ATOM     12  C   UNL A   1      33.648  26.127  24.702  1.00  0.00     0.128 A 
ATOM     13  C   UNL A   1      32.007  26.072  26.452  1.00  0.00     0.032 A 
ATOM     14  Cl  UNL A   1      31.216  28.184  27.884  1.00  0.00    -0.084 Cl
ATOM     15  C   UNL A   1      32.736  25.407  25.468  1.00  0.00     0.019 A 
ATOM     16  O   UNL A   1      34.396  25.545  23.717  1.00  0.00    -0.475 OA
ATOM     17  C   UNL A   1      32.608  23.969  25.249  1.00  0.00     0.025 C 
ATOM     18  C   UNL A   1      33.832  24.334  23.143  1.00  0.00     0.314 C 
BRANCH   9  19
ATOM     19  C   UNL A   1      33.394  29.666  26.164  1.00  0.00     0.014 C 
ATOM     20  C   UNL A   1      32.081  30.454  26.092  1.00  0.00     0.012 C 
ATOM     21  C   UNL A   1      34.098  29.985  27.492  1.00  0.00     0.012 C 
ENDBRANCH   9  19
BRANCH  18  22
ATOM     22  C   UNL A   1      32.919  24.692  21.953  1.00  0.00     0.429 C 
ATOM     23  F   UNL A   1      33.280  25.887  21.423  1.00  0.00    -0.167 F 
ATOM     24  F   UNL A   1      33.002  23.786  20.950  1.00  0.00    -0.167 F 
ATOM     25  F   UNL A   1      31.614  24.778  22.296  1.00  0.00    -0.167 F 
ENDBRANCH  18  22
ENDBRANCH   5   8
ENDBRANCH   3   4
ENDBRANCH   2   3
ENDBRANCH   1   2
BRANCH   1  26
ATOM     26  C   UNL A   1      37.603  23.100  25.380  1.00  0.00     0.116 C 
BRANCH  26  27
ATOM     27  N   UNL A   1      38.883  22.436  25.589  1.00  0.00    -0.352 N 
ATOM     28  C   UNL A   1      39.990  22.937  26.237  1.00  0.00     0.251 C 
ATOM     29  H   UNL A   1      38.966  21.525  25.223  1.00  0.00     0.163 HD
ATOM     30  O   UNL A   1      41.036  22.302  26.295  1.00  0.00    -0.269 OA
BRANCH  28  31
ATOM     31  C   UNL A   1      39.903  24.294  26.809  1.00  0.00     0.039 A 
ATOM     32  C   UNL A   1      40.519  25.362  26.157  1.00  0.00     0.014 A 
ATOM     33  C   UNL A   1      39.323  24.461  28.069  1.00  0.00     0.014 A 
ATOM     34  C   UNL A   1      40.721  26.551  26.846  1.00  0.00     0.010 A 
ATOM     35  C   UNL A   1      39.459  25.684  28.728  1.00  0.00     0.010 A 
ATOM     36  C   UNL A   1      40.214  26.715  28.147  1.00  0.00    -0.014 A 
BRANCH  36  37
ATOM     37  C   UNL A   1      40.520  27.962  28.891  1.00  0.00     0.031 A 
ATOM     38  C   UNL A   1      39.495  29.056  29.013  1.00  0.00     0.074 A 
ATOM     39  C   UNL A   1      41.703  28.072  29.524  1.00  0.00     0.049 A 
ATOM     40  N   UNL A   1      39.579  30.192  29.661  1.00  0.00    -0.248 NA
ATOM     41  C   UNL A   1      38.209  28.856  28.323  1.00  0.00     0.031 C 
ATOM     42  C   UNL A   1      42.764  27.064  29.504  1.00  0.00     0.029 A 
ATOM     43  N   UNL A   1      42.195  29.060  30.336  1.00  0.00    -0.354 N 
ATOM     44  C   UNL A   1      38.375  30.847  29.439  1.00  0.00     0.074 A 
ATOM     45  C   UNL A   1      37.581  29.995  28.581  1.00  0.00     0.031 C 
ATOM     46  C   UNL A   1      43.752  27.453  30.321  1.00  0.00     0.029 A 
ATOM     47  C   UNL A   1      43.424  28.765  30.870  1.00  0.00     0.049 A 
ATOM     48  H   UNL A   1      41.713  29.899  30.519  1.00  0.00     0.167 HD
ATOM     49  C   UNL A   1      37.965  32.049  29.912  1.00  0.00     0.031 A 
ATOM     50  C   UNL A   1      44.210  29.471  31.704  1.00  0.00     0.031 A 
ATOM     51  C   UNL A   1      38.748  32.888  30.780  1.00  0.00     0.049 A 
ATOM     52  C   UNL A   1      43.751  30.817  32.181  1.00  0.00     0.074 A 
ATOM     53  C   UNL A   1      38.408  34.113  31.326  1.00  0.00     0.029 A 
ATOM     54  N   UNL A   1      40.022  32.587  31.233  1.00  0.00    -0.354 N 
ATOM     55  N   UNL A   1      42.615  31.427  31.950  1.00  0.00    -0.248 NA
ATOM     56  C   UNL A   1      44.686  31.576  33.024  1.00  0.00     0.031 C 
ATOM     57  C   UNL A   1      39.496  34.577  32.070  1.00  0.00     0.029 A 
ATOM     58  C   UNL A   1      40.493  33.616  32.030  1.00  0.00     0.049 A 
ATOM     59  H   UNL A   1      40.520  31.764  31.018  1.00  0.00     0.167 HD
ATOM     60  C   UNL A   1      42.695  32.641  32.618  1.00  0.00     0.074 A 
ATOM     61  C   UNL A   1      43.983  32.672  33.282  1.00  0.00     0.031 C 
ATOM     62  C   UNL A   1      41.782  33.641  32.670  1.00  0.00     0.031 A 
BRANCH  49  63
ATOM     63  C   UNL A   1      36.613  32.549  29.487  1.00  0.00    -0.014 A 
ATOM     64  C   UNL A   1      36.477  33.231  28.268  1.00  0.00     0.009 A 
ATOM     65  C   UNL A   1      35.494  32.422  30.324  1.00  0.00     0.009 A 
ATOM     66  C   UNL A   1      35.249  33.780  27.895  1.00  0.00     0.001 A 
ATOM     67  C   UNL A   1      34.261  32.953  29.939  1.00  0.00     0.001 A 
ATOM     68  C   UNL A   1      34.141  33.637  28.729  1.00  0.00     0.000 A 
ENDBRANCH  49  63
BRANCH  50  69
ATOM     69  C   UNL A   1      45.510  28.897  32.132  1.00  0.00    -0.014 A 
ATOM     70  C   UNL A   1      45.603  28.156  33.322  1.00  0.00     0.009 A 
ATOM     71  C   UNL A   1      46.674  29.151  31.394  1.00  0.00     0.009 A 
ATOM     72  C   UNL A   1      46.842  27.707  33.780  1.00  0.00     0.001 A 
ATOM     73  C   UNL A   1      47.909  28.677  31.842  1.00  0.00     0.001 A 
ATOM     74  C   UNL A   1      47.994  27.966  33.039  1.00  0.00     0.000 A 
ENDBRANCH  50  69
BRANCH  62  75
ATOM     75  C   UNL A   1      42.136  34.861  33.468  1.00  0.00    -0.014 A 
ATOM     76  C   UNL A   1      41.650  35.007  34.776  1.00  0.00     0.009 A 
ATOM     77  C   UNL A   1      42.876  35.905  32.892  1.00  0.00     0.009 A 
ATOM     78  C   UNL A   1      41.889  36.180  35.492  1.00  0.00     0.001 A 
ATOM     79  C   UNL A   1      43.133  37.069  33.619  1.00  0.00     0.001 A 
ATOM     80  C   UNL A   1      42.634  37.209  34.914  1.00  0.00     0.000 A 
ENDBRANCH  62  75
ENDBRANCH  36  37
ENDBRANCH  28  31
ENDBRANCH  26  27
ENDBRANCH   1  26
TORSDOF 13
ENDMDL
MODEL 3
REMARK VINA RESULT:     -11.3      2.289      7.521
REMARK SMILES CC(C)c1cc2c(cc1Cl)C=C(C(=O)NCCCCNC(=O)c1ccc(-c3c4nc(c(-c5ccccc5)c5ccc([nH]5)c(-c5ccccc5)c5nc(c(-c6ccccc6)c6ccc3[nH]6)C=C5)C=C4)cc1)[C@@H](C(F)(F)F)O2
REMARK SMILES IDX 18 1 17 2 16 3 15 4 13 5 14 6 12 8 4 9 5 10 9 11 6 12 8 13
REMARK SMILES IDX 10 14 7 15 76 16 11 17 71 18 2 19 1 20 3 21 72 22 73 23
REMARK SMILES IDX 74 24 75 25 19 26 20 27 21 28 22 30 23 31 24 32 70 33 25 34
REMARK SMILES IDX 69 35 26 36 27 37 28 38 63 39 29 40 68 41 62 42 64 43 30 44
REMARK SMILES IDX 67 45 61 46 60 47 31 49 53 50 38 51 52 52 39 53 42 54 51 55
REMARK SMILES IDX 65 56 40 57 41 58 50 60 66 61 43 62 32 63 33 64 37 65 34 66
REMARK SMILES IDX 36 67 35 68 54 69 55 70 59 71 56 72 58 73 57 74 44 75 45 76
REMARK SMILES IDX 49 77 46 78 48 79 47 80
REMARK H PARENT 15 7 20 29 64 48 42 59
REMARK Flexibility Score: inf
ROOT
ATOM      1  C   UNL A   1      37.610  21.377  24.626  1.00  0.00     0.023 C 
ENDROOT
BRANCH   1   2
ATOM      2  C   UNL A   1      36.306  22.046  25.060  1.00  0.00     0.023 C 
BRANCH   2   3
ATOM      3  C   UNL A   1      35.311  21.102  25.733  1.00  0.00     0.116 C 
BRANCH   3   4
ATOM      4  N   UNL A   1      34.297  20.628  24.809  1.00  0.00    -0.352 N 
ATOM      5  C   UNL A   1      33.225  21.152  24.166  1.00  0.00     0.251 C 
ATOM      6  O   UNL A   1      32.615  20.365  23.436  1.00  0.00    -0.270 OA
ATOM      7  H   UNL A   1      34.419  19.675  24.592  1.00  0.00     0.163 HD
BRANCH   5   8
ATOM      8  C   UNL A   1      32.752  22.562  24.289  1.00  0.00     0.067 C 
ATOM      9  C   UNL A   1      31.898  27.507  23.581  1.00  0.00    -0.023 A 
ATOM     10  C   UNL A   1      31.227  26.464  24.243  1.00  0.00     0.052 A 
ATOM     11  C   UNL A   1      33.075  27.175  22.877  1.00  0.00     0.045 A 
ATOM     12  C   UNL A   1      31.723  25.160  24.220  1.00  0.00     0.128 A 
ATOM     13  C   UNL A   1      33.547  25.854  22.825  1.00  0.00     0.032 A 
ATOM     14  Cl  UNL A   1      34.009  28.365  22.035  1.00  0.00    -0.084 Cl
ATOM     15  C   UNL A   1      32.869  24.840  23.498  1.00  0.00     0.019 A 
ATOM     16  O   UNL A   1      31.006  24.221  24.909  1.00  0.00    -0.475 OA
ATOM     17  C   UNL A   1      33.296  23.446  23.430  1.00  0.00     0.025 C 
ATOM     18  C   UNL A   1      31.755  23.040  25.308  1.00  0.00     0.314 C 
BRANCH   9  19
ATOM     19  C   UNL A   1      31.342  28.928  23.605  1.00  0.00     0.014 C 
ATOM     20  C   UNL A   1      29.897  28.946  23.093  1.00  0.00     0.012 C 
ATOM     21  C   UNL A   1      31.395  29.620  24.977  1.00  0.00     0.012 C 
ENDBRANCH   9  19
BRANCH  18  22
ATOM     22  C   UNL A   1      32.397  23.267  26.692  1.00  0.00     0.429 C 
ATOM     23  F   UNL A   1      31.625  24.093  27.441  1.00  0.00    -0.167 F 
ATOM     24  F   UNL A   1      32.523  22.117  27.396  1.00  0.00    -0.167 F 
ATOM     25  F   UNL A   1      33.629  23.818  26.618  1.00  0.00    -0.167 F 
ENDBRANCH  18  22
ENDBRANCH   5   8
ENDBRANCH   3   4
ENDBRANCH   2   3
ENDBRANCH   1   2
BRANCH   1  26
ATOM     26  C   UNL A   1      38.660  21.213  25.722  1.00  0.00     0.116 C 
BRANCH  26  27
ATOM     27  N   UNL A   1      39.466  20.004  25.612  1.00  0.00    -0.352 N 
ATOM     28  C   UNL A   1      40.784  19.842  25.978  1.00  0.00     0.251 C 
ATOM     29  H   UNL A   1      39.018  19.214  25.232  1.00  0.00     0.163 HD
ATOM     30  O   UNL A   1      41.375  18.787  25.779  1.00  0.00    -0.269 OA
BRANCH  28  31
ATOM     31  C   UNL A   1      41.488  20.998  26.563  1.00  0.00     0.039 A 
ATOM     32  C   UNL A   1      41.549  21.145  27.949  1.00  0.00     0.014 A 
ATOM     33  C   UNL A   1      41.960  22.003  25.715  1.00  0.00     0.014 A 
ATOM     34  C   UNL A   1      41.909  22.373  28.485  1.00  0.00     0.010 A 
ATOM     35  C   UNL A   1      42.397  23.211  26.261  1.00  0.00     0.010 A 
ATOM     36  C   UNL A   1      42.314  23.426  27.646  1.00  0.00    -0.014 A 
BRANCH  36  37
ATOM     37  C   UNL A   1      42.608  24.753  28.240  1.00  0.00     0.031 A 
ATOM     38  C   UNL A   1      44.022  25.154  28.567  1.00  0.00     0.074 A 
ATOM     39  C   UNL A   1      41.602  25.630  28.413  1.00  0.00     0.049 A 
ATOM     40  N   UNL A   1      44.463  26.289  29.050  1.00  0.00    -0.248 NA
ATOM     41  C   UNL A   1      45.078  24.157  28.322  1.00  0.00     0.031 C 
ATOM     42  C   UNL A   1      40.196  25.368  28.103  1.00  0.00     0.029 A 
ATOM     43  N   UNL A   1      41.611  26.929  28.853  1.00  0.00    -0.354 N 
ATOM     44  C   UNL A   1      45.837  26.135  29.188  1.00  0.00     0.074 A 
ATOM     45  C   UNL A   1      46.158  24.792  28.757  1.00  0.00     0.031 C 
ATOM     46  C   UNL A   1      39.488  26.490  28.298  1.00  0.00     0.029 A 
ATOM     47  C   UNL A   1      40.378  27.529  28.807  1.00  0.00     0.049 A 
ATOM     48  H   UNL A   1      42.423  27.386  29.169  1.00  0.00     0.167 HD
ATOM     49  C   UNL A   1      46.748  27.035  29.629  1.00  0.00     0.031 A 
ATOM     50  C   UNL A   1      39.996  28.775  29.143  1.00  0.00     0.031 A 
ATOM     51  C   UNL A   1      46.430  28.376  30.041  1.00  0.00     0.049 A 
ATOM     52  C   UNL A   1      41.019  29.739  29.667  1.00  0.00     0.074 A 
ATOM     53  C   UNL A   1      47.291  29.366  30.484  1.00  0.00     0.029 A 
ATOM     54  N   UNL A   1      45.155  28.918  30.055  1.00  0.00    -0.354 N 
ATOM     55  N   UNL A   1      42.311  29.573  29.803  1.00  0.00    -0.248 NA
ATOM     56  C   UNL A   1      40.529  31.058  30.094  1.00  0.00     0.031 C 
ATOM     57  C   UNL A   1      46.530  30.491  30.813  1.00  0.00     0.029 A 
ATOM     58  C   UNL A   1      45.203  30.220  30.524  1.00  0.00     0.049 A 
ATOM     59  H   UNL A   1      44.337  28.447  29.774  1.00  0.00     0.167 HD
ATOM     60  C   UNL A   1      42.792  30.763  30.330  1.00  0.00     0.074 A 
ATOM     61  C   UNL A   1      41.655  31.652  30.469  1.00  0.00     0.031 C 
ATOM     62  C   UNL A   1      44.063  31.086  30.672  1.00  0.00     0.031 A 
BRANCH  49  63
ATOM     63  C   UNL A   1      48.184  26.599  29.714  1.00  0.00    -0.014 A 
ATOM     64  C   UNL A   1      49.034  26.793  28.614  1.00  0.00     0.009 A 
ATOM     65  C   UNL A   1      48.675  25.925  30.843  1.00  0.00     0.009 A 
ATOM     66  C   UNL A   1      50.346  26.317  28.638  1.00  0.00     0.001 A 
ATOM     67  C   UNL A   1      49.996  25.470  30.873  1.00  0.00     0.001 A 
ATOM     68  C   UNL A   1      50.827  25.659  29.770  1.00  0.00     0.000 A 
ENDBRANCH  49  63
BRANCH  50  69
ATOM     69  C   UNL A   1      38.573  29.163  28.983  1.00  0.00    -0.014 A 
ATOM     70  C   UNL A   1      38.108  29.677  27.761  1.00  0.00     0.009 A 
ATOM     71  C   UNL A   1      37.693  29.092  30.072  1.00  0.00     0.009 A 
ATOM     72  C   UNL A   1      36.798  30.141  27.641  1.00  0.00     0.001 A 
ATOM     73  C   UNL A   1      36.374  29.533  29.940  1.00  0.00     0.001 A 
ATOM     74  C   UNL A   1      35.931  30.067  28.730  1.00  0.00     0.000 A 
ENDBRANCH  50  69
BRANCH  62  75
ATOM     75  C   UNL A   1      44.302  32.456  31.235  1.00  0.00    -0.014 A 
ATOM     76  C   UNL A   1      44.193  32.672  32.618  1.00  0.00     0.009 A 
ATOM     77  C   UNL A   1      44.549  33.547  30.389  1.00  0.00     0.009 A 
ATOM     78  C   UNL A   1      44.316  33.959  33.143  1.00  0.00     0.001 A 
ATOM     79  C   UNL A   1      44.693  34.830  30.920  1.00  0.00     0.001 A 
ATOM     80  C   UNL A   1      44.570  35.036  32.294  1.00  0.00     0.000 A 
ENDBRANCH  62  75
ENDBRANCH  36  37
ENDBRANCH  28  31
ENDBRANCH  26  27
ENDBRANCH   1  26
TORSDOF 13
ENDMDL
