MODEL 1
REMARK VINA RESULT:     -12.7      0.000      0.000
REMARK SMILES O=C(NCCCCNC(=O)c1nnn(-c2cccc(C(F)(F)F)c2)c1[C@@H]1COc2ccccc2O1)c1ccc(-c2c3nc(c(-c4ccccc4)c4ccc([nH]4)c(-c4ccccc4)c4nc(c(-c5ccccc5)c5ccc2[nH]5)C=C4)C=C3)cc1
REMARK SMILES IDX 5 1 4 2 3 3 1 4 2 5 36 7 37 8 83 9 38 10 82 11 39 12 40 13
REMARK SMILES IDX 41 14 76 15 42 16 81 17 75 18 77 19 43 20 80 21 74 22 73 23
REMARK SMILES IDX 44 25 66 26 51 27 65 28 52 29 55 30 64 31 78 32 53 33 54 34
REMARK SMILES IDX 63 36 79 37 56 38 45 39 46 40 50 41 47 42 49 43 48 44 67 45
REMARK SMILES IDX 68 46 72 47 69 48 71 49 70 50 57 51 58 52 62 53 59 54 61 55
REMARK SMILES IDX 60 56 6 57 7 58 8 59 9 60 10 62 11 63 12 64 25 65 13 66
REMARK SMILES IDX 14 67 26 68 27 69 35 70 28 71 34 72 29 73 33 74 30 75 32 76
REMARK SMILES IDX 31 77 15 78 16 79 24 80 17 81 19 82 18 83 20 84 21 85 22 86
REMARK SMILES IDX 23 87
REMARK H PARENT 3 6 77 24 55 35 8 61
REMARK Flexibility Score: inf
ROOT
ATOM      1  C   UNL A   1      37.634  21.473  25.505  1.00  0.00     0.023 C 
ENDROOT
BRANCH   1   2
ATOM      2  C   UNL A   1      38.545  22.629  25.930  1.00  0.00     0.116 C 
BRANCH   2   3
ATOM      3  N   UNL A   1      39.965  22.327  25.957  1.00  0.00    -0.352 N 
ATOM      4  O   UNL A   1      42.085  22.219  26.565  1.00  0.00    -0.269 OA
ATOM      5  C   UNL A   1      41.064  22.911  26.530  1.00  0.00     0.251 C 
ATOM      6  H   UNL A   1      40.190  21.516  25.446  1.00  0.00     0.163 HD
BRANCH   5   7
ATOM      7  C   UNL A   1      41.137  24.306  27.049  1.00  0.00     0.039 A 
ATOM      8  C   UNL A   1      41.689  24.686  28.271  1.00  0.00     0.014 A 
ATOM      9  C   UNL A   1      40.530  25.300  26.254  1.00  0.00     0.014 A 
ATOM     10  C   UNL A   1      41.569  25.996  28.726  1.00  0.00     0.010 A 
ATOM     11  C   UNL A   1      40.422  26.617  26.696  1.00  0.00     0.010 A 
ATOM     12  C   UNL A   1      40.912  26.957  27.952  1.00  0.00    -0.014 A 
BRANCH  12  13
ATOM     13  C   UNL A   1      40.865  28.323  28.467  1.00  0.00     0.031 A 
ATOM     14  C   UNL A   1      42.038  29.181  28.129  1.00  0.00     0.074 A 
ATOM     15  C   UNL A   1      39.804  28.856  29.102  1.00  0.00     0.049 A 
ATOM     16  N   UNL A   1      42.853  29.784  28.934  1.00  0.00    -0.248 NA
ATOM     17  C   UNL A   1      42.377  29.334  26.706  1.00  0.00     0.031 C 
ATOM     18  C   UNL A   1      38.461  28.289  29.257  1.00  0.00     0.029 A 
ATOM     19  N   UNL A   1      39.683  30.096  29.659  1.00  0.00    -0.354 N 
ATOM     20  C   UNL A   1      43.727  30.514  28.127  1.00  0.00     0.074 A 
ATOM     21  C   UNL A   1      43.449  30.124  26.768  1.00  0.00     0.031 C 
ATOM     22  C   UNL A   1      37.612  29.264  29.655  1.00  0.00     0.029 A 
ATOM     23  C   UNL A   1      38.375  30.475  29.916  1.00  0.00     0.049 A 
ATOM     24  H   UNL A   1      40.457  30.671  29.861  1.00  0.00     0.167 HD
ATOM     25  C   UNL A   1      44.508  31.518  28.612  1.00  0.00     0.031 A 
ATOM     26  C   UNL A   1      37.940  31.712  30.254  1.00  0.00     0.031 A 
ATOM     27  C   UNL A   1      44.642  31.470  30.040  1.00  0.00     0.049 A 
ATOM     28  C   UNL A   1      39.095  32.483  30.763  1.00  0.00     0.074 A 
ATOM     29  C   UNL A   1      45.165  30.571  30.947  1.00  0.00     0.029 A 
ATOM     30  N   UNL A   1      43.896  32.354  30.779  1.00  0.00    -0.354 N 
ATOM     31  N   UNL A   1      39.695  32.231  31.890  1.00  0.00    -0.248 NA
ATOM     32  C   UNL A   1      39.840  33.312  29.830  1.00  0.00     0.031 C 
ATOM     33  C   UNL A   1      44.319  30.668  32.089  1.00  0.00     0.029 A 
ATOM     34  C   UNL A   1      43.358  31.645  31.820  1.00  0.00     0.049 A 
ATOM     35  H   UNL A   1      43.773  33.314  30.596  1.00  0.00     0.167 HD
ATOM     36  C   UNL A   1      41.033  32.501  31.646  1.00  0.00     0.074 A 
ATOM     37  C   UNL A   1      41.045  33.270  30.406  1.00  0.00     0.031 C 
ATOM     38  C   UNL A   1      42.020  31.842  32.323  1.00  0.00     0.031 A 
BRANCH  25  39
ATOM     39  C   UNL A   1      44.863  32.757  27.828  1.00  0.00    -0.014 A 
ATOM     40  C   UNL A   1      43.847  33.683  27.518  1.00  0.00     0.009 A 
ATOM     41  C   UNL A   1      46.081  32.902  27.138  1.00  0.00     0.009 A 
ATOM     42  C   UNL A   1      44.017  34.647  26.517  1.00  0.00     0.001 A 
ATOM     43  C   UNL A   1      46.268  33.891  26.168  1.00  0.00     0.001 A 
ATOM     44  C   UNL A   1      45.226  34.744  25.836  1.00  0.00     0.000 A 
ENDBRANCH  25  39
BRANCH  26  45
ATOM     45  C   UNL A   1      36.656  32.357  29.910  1.00  0.00    -0.014 A 
ATOM     46  C   UNL A   1      35.748  32.742  30.908  1.00  0.00     0.009 A 
ATOM     47  C   UNL A   1      36.440  32.837  28.605  1.00  0.00     0.009 A 
ATOM     48  C   UNL A   1      34.682  33.603  30.615  1.00  0.00     0.001 A 
ATOM     49  C   UNL A   1      35.374  33.693  28.311  1.00  0.00     0.001 A 
ATOM     50  C   UNL A   1      34.502  34.086  29.320  1.00  0.00     0.000 A 
ENDBRANCH  26  45
BRANCH  38  51
ATOM     51  C   UNL A   1      41.626  31.002  33.512  1.00  0.00    -0.014 A 
ATOM     52  C   UNL A   1      41.229  29.660  33.391  1.00  0.00     0.009 A 
ATOM     53  C   UNL A   1      41.833  31.525  34.797  1.00  0.00     0.009 A 
ATOM     54  C   UNL A   1      41.020  28.871  34.526  1.00  0.00     0.001 A 
ATOM     55  C   UNL A   1      41.646  30.731  35.930  1.00  0.00     0.001 A 
ATOM     56  C   UNL A   1      41.236  29.405  35.795  1.00  0.00     0.000 A 
ENDBRANCH  38  51
ENDBRANCH  12  13
ENDBRANCH   5   7
ENDBRANCH   2   3
ENDBRANCH   1   2
BRANCH   1  57
ATOM     57  C   UNL A   1      36.173  21.819  25.244  1.00  0.00     0.023 C 
BRANCH  57  58
ATOM     58  C   UNL A   1      35.164  21.472  26.330  1.00  0.00     0.116 C 
BRANCH  58  59
ATOM     59  N   UNL A   1      33.974  20.773  25.932  1.00  0.00    -0.351 N 
ATOM     60  C   UNL A   1      32.881  21.115  25.157  1.00  0.00     0.273 C 
ATOM     61  H   UNL A   1      33.926  19.855  26.285  1.00  0.00     0.163 HD
ATOM     62  O   UNL A   1      32.053  20.200  25.066  1.00  0.00    -0.267 OA
BRANCH  60  63
ATOM     63  C   UNL A   1      32.617  22.408  24.471  1.00  0.00     0.178 A 
ATOM     64  N   UNL A   1      31.929  22.326  23.266  1.00  0.00    -0.124 NA
ATOM     65  C   UNL A   1      32.830  23.770  24.723  1.00  0.00     0.122 A 
ATOM     66  N   UNL A   1      31.694  23.538  22.800  1.00  0.00    -0.061 NA
ATOM     67  N   UNL A   1      32.330  24.410  23.593  1.00  0.00    -0.213 N 
BRANCH  65  68
ATOM     68  C   UNL A   1      33.223  24.511  25.960  1.00  0.00     0.262 C 
ATOM     69  C   UNL A   1      32.012  24.602  26.915  1.00  0.00     0.281 C 
ATOM     70  O   UNL A   1      33.884  25.757  25.709  1.00  0.00    -0.477 OA
ATOM     71  O   UNL A   1      31.180  25.720  26.617  1.00  0.00    -0.485 OA
ATOM     72  C   UNL A   1      33.307  26.825  26.347  1.00  0.00     0.162 A 
ATOM     73  C   UNL A   1      31.961  26.836  26.725  1.00  0.00     0.161 A 
ATOM     74  C   UNL A   1      34.089  27.954  26.553  1.00  0.00     0.050 A 
ATOM     75  C   UNL A   1      31.368  27.987  27.225  1.00  0.00     0.050 A 
ATOM     76  C   UNL A   1      33.514  29.096  27.113  1.00  0.00     0.004 A 
ATOM     77  C   UNL A   1      32.151  29.121  27.427  1.00  0.00     0.004 A 
ENDBRANCH  65  68
BRANCH  67  78
ATOM     78  C   UNL A   1      32.426  25.765  23.225  1.00  0.00     0.067 A 
ATOM     79  C   UNL A   1      33.593  26.234  22.617  1.00  0.00     0.028 A 
ATOM     80  C   UNL A   1      31.292  26.578  23.342  1.00  0.00     0.041 A 
ATOM     81  C   UNL A   1      33.582  27.498  22.025  1.00  0.00     0.003 A 
ATOM     82  C   UNL A   1      31.289  27.857  22.769  1.00  0.00     0.058 A 
ATOM     83  C   UNL A   1      32.435  28.297  22.086  1.00  0.00     0.013 A 
BRANCH  82  84
ATOM     84  C   UNL A   1      30.049  28.715  22.813  1.00  0.00     0.416 C 
ATOM     85  F   UNL A   1      28.901  27.983  22.787  1.00  0.00    -0.166 F 
ATOM     86  F   UNL A   1      29.981  29.480  23.938  1.00  0.00    -0.166 F 
ATOM     87  F   UNL A   1      29.958  29.586  21.768  1.00  0.00    -0.166 F 
ENDBRANCH  82  84
ENDBRANCH  67  78
ENDBRANCH  60  63
ENDBRANCH  58  59
ENDBRANCH  57  58
ENDBRANCH   1  57
TORSDOF 14
ENDMDL
MODEL 2
REMARK VINA RESULT:     -12.6      3.202      8.153
REMARK SMILES O=C(NCCCCNC(=O)c1nnn(-c2cccc(C(F)(F)F)c2)c1[C@@H]1COc2ccccc2O1)c1ccc(-c2c3nc(c(-c4ccccc4)c4ccc([nH]4)c(-c4ccccc4)c4nc(c(-c5ccccc5)c5ccc2[nH]5)C=C4)C=C3)cc1
REMARK SMILES IDX 5 1 4 2 3 3 1 4 2 5 36 7 37 8 83 9 38 10 82 11 39 12 40 13
REMARK SMILES IDX 41 14 76 15 42 16 81 17 75 18 77 19 43 20 80 21 74 22 73 23
REMARK SMILES IDX 44 25 66 26 51 27 65 28 52 29 55 30 64 31 78 32 53 33 54 34
REMARK SMILES IDX 63 36 79 37 56 38 45 39 46 40 50 41 47 42 49 43 48 44 67 45
REMARK SMILES IDX 68 46 72 47 69 48 71 49 70 50 57 51 58 52 62 53 59 54 61 55
REMARK SMILES IDX 60 56 6 57 7 58 8 59 9 60 10 62 11 63 12 64 25 65 13 66
REMARK SMILES IDX 14 67 26 68 27 69 35 70 28 71 34 72 29 73 33 74 30 75 32 76
REMARK SMILES IDX 31 77 15 78 16 79 24 80 17 81 19 82 18 83 20 84 21 85 22 86
REMARK SMILES IDX 23 87
REMARK H PARENT 3 6 77 24 55 35 8 61
REMARK Flexibility Score: inf
ROOT
ATOM      1  C   UNL A   1      32.275  30.434  27.248  1.00  0.00     0.023 C 
ENDROOT
BRANCH   1   2
ATOM      2  C   UNL A   1      33.777  30.738  27.272  1.00  0.00     0.116 C 
BRANCH   2   3
ATOM      3  N   UNL A   1      34.208  31.672  28.296  1.00  0.00    -0.352 N 
ATOM      4  O   UNL A   1      35.463  32.947  29.592  1.00  0.00    -0.269 OA
ATOM      5  C   UNL A   1      35.376  31.876  28.984  1.00  0.00     0.251 C 
ATOM      6  H   UNL A   1      33.500  32.304  28.556  1.00  0.00     0.163 HD
BRANCH   5   7
ATOM      7  C   UNL A   1      36.498  30.903  29.101  1.00  0.00     0.039 A 
ATOM      8  C   UNL A   1      36.377  29.576  29.511  1.00  0.00     0.014 A 
ATOM      9  C   UNL A   1      37.790  31.404  28.836  1.00  0.00     0.014 A 
ATOM     10  C   UNL A   1      37.510  28.797  29.730  1.00  0.00     0.010 A 
ATOM     11  C   UNL A   1      38.926  30.624  29.037  1.00  0.00     0.010 A 
ATOM     12  C   UNL A   1      38.786  29.328  29.520  1.00  0.00    -0.014 A 
BRANCH  12  13
ATOM     13  C   UNL A   1      39.929  28.441  29.722  1.00  0.00     0.031 A 
ATOM     14  C   UNL A   1      40.438  28.352  31.122  1.00  0.00     0.074 A 
ATOM     15  C   UNL A   1      40.446  27.642  28.768  1.00  0.00     0.049 A 
ATOM     16  N   UNL A   1      41.622  28.627  31.568  1.00  0.00    -0.248 NA
ATOM     17  C   UNL A   1      39.479  27.963  32.167  1.00  0.00     0.031 C 
ATOM     18  C   UNL A   1      39.905  27.355  27.437  1.00  0.00     0.029 A 
ATOM     19  N   UNL A   1      41.534  26.823  28.846  1.00  0.00    -0.354 N 
ATOM     20  C   UNL A   1      41.609  28.311  32.926  1.00  0.00     0.074 A 
ATOM     21  C   UNL A   1      40.242  28.000  33.260  1.00  0.00     0.031 C 
ATOM     22  C   UNL A   1      40.531  26.267  26.931  1.00  0.00     0.029 A 
ATOM     23  C   UNL A   1      41.601  25.876  27.835  1.00  0.00     0.049 A 
ATOM     24  H   UNL A   1      42.212  26.898  29.556  1.00  0.00     0.167 HD
ATOM     25  C   UNL A   1      42.749  28.160  33.655  1.00  0.00     0.031 A 
ATOM     26  C   UNL A   1      42.431  24.808  27.779  1.00  0.00     0.031 A 
ATOM     27  C   UNL A   1      43.893  28.741  33.014  1.00  0.00     0.049 A 
ATOM     28  C   UNL A   1      43.561  25.052  28.701  1.00  0.00     0.074 A 
ATOM     29  C   UNL A   1      44.261  30.014  32.629  1.00  0.00     0.029 A 
ATOM     30  N   UNL A   1      44.768  27.892  32.382  1.00  0.00    -0.354 N 
ATOM     31  N   UNL A   1      44.477  25.954  28.502  1.00  0.00    -0.248 NA
ATOM     32  C   UNL A   1      43.468  24.546  30.061  1.00  0.00     0.031 C 
ATOM     33  C   UNL A   1      45.000  29.833  31.425  1.00  0.00     0.029 A 
ATOM     34  C   UNL A   1      45.066  28.461  31.173  1.00  0.00     0.049 A 
ATOM     35  H   UNL A   1      45.114  27.039  32.731  1.00  0.00     0.167 HD
ATOM     36  C   UNL A   1      44.783  26.433  29.765  1.00  0.00     0.074 A 
ATOM     37  C   UNL A   1      44.220  25.454  30.689  1.00  0.00     0.031 C 
ATOM     38  C   UNL A   1      45.222  27.714  29.947  1.00  0.00     0.031 A 
BRANCH  25  39
ATOM     39  C   UNL A   1      42.896  27.171  34.786  1.00  0.00    -0.014 A 
ATOM     40  C   UNL A   1      42.923  25.794  34.490  1.00  0.00     0.009 A 
ATOM     41  C   UNL A   1      42.712  27.522  36.137  1.00  0.00     0.009 A 
ATOM     42  C   UNL A   1      42.699  24.829  35.479  1.00  0.00     0.001 A 
ATOM     43  C   UNL A   1      42.532  26.559  37.134  1.00  0.00     0.001 A 
ATOM     44  C   UNL A   1      42.496  25.213  36.800  1.00  0.00     0.000 A 
ENDBRANCH  25  39
BRANCH  26  45
ATOM     45  C   UNL A   1      42.170  23.477  27.192  1.00  0.00    -0.014 A 
ATOM     46  C   UNL A   1      43.113  22.856  26.359  1.00  0.00     0.009 A 
ATOM     47  C   UNL A   1      41.101  22.696  27.669  1.00  0.00     0.009 A 
ATOM     48  C   UNL A   1      43.005  21.495  26.041  1.00  0.00     0.001 A 
ATOM     49  C   UNL A   1      40.991  21.339  27.349  1.00  0.00     0.001 A 
ATOM     50  C   UNL A   1      41.951  20.736  26.546  1.00  0.00     0.000 A 
ENDBRANCH  26  45
BRANCH  38  51
ATOM     51  C   UNL A   1      45.605  28.513  28.727  1.00  0.00    -0.014 A 
ATOM     52  C   UNL A   1      46.938  28.662  28.308  1.00  0.00     0.009 A 
ATOM     53  C   UNL A   1      44.584  28.976  27.884  1.00  0.00     0.009 A 
ATOM     54  C   UNL A   1      47.240  29.279  27.090  1.00  0.00     0.001 A 
ATOM     55  C   UNL A   1      44.884  29.572  26.658  1.00  0.00     0.001 A 
ATOM     56  C   UNL A   1      46.212  29.727  26.263  1.00  0.00     0.000 A 
ENDBRANCH  38  51
ENDBRANCH  12  13
ENDBRANCH   5   7
ENDBRANCH   2   3
ENDBRANCH   1   2
BRANCH   1  57
ATOM     57  C   UNL A   1      31.617  30.363  25.876  1.00  0.00     0.023 C 
BRANCH  57  58
ATOM     58  C   UNL A   1      32.373  29.637  24.771  1.00  0.00     0.116 C 
BRANCH  58  59
ATOM     59  N   UNL A   1      31.637  29.274  23.591  1.00  0.00    -0.351 N 
ATOM     60  C   UNL A   1      31.145  28.077  23.105  1.00  0.00     0.273 C 
ATOM     61  H   UNL A   1      31.442  30.041  23.004  1.00  0.00     0.163 HD
ATOM     62  O   UNL A   1      30.561  28.204  22.022  1.00  0.00    -0.267 OA
BRANCH  60  63
ATOM     63  C   UNL A   1      31.256  26.728  23.720  1.00  0.00     0.178 A 
ATOM     64  N   UNL A   1      30.068  26.015  23.836  1.00  0.00    -0.124 NA
ATOM     65  C   UNL A   1      32.275  25.895  24.202  1.00  0.00     0.122 A 
ATOM     66  N   UNL A   1      30.312  24.812  24.324  1.00  0.00    -0.061 NA
ATOM     67  N   UNL A   1      31.607  24.765  24.663  1.00  0.00    -0.213 N 
BRANCH  65  68
ATOM     68  C   UNL A   1      33.763  25.950  24.066  1.00  0.00     0.262 C 
ATOM     69  C   UNL A   1      34.176  25.409  22.679  1.00  0.00     0.281 C 
ATOM     70  O   UNL A   1      34.471  25.376  25.170  1.00  0.00    -0.477 OA
ATOM     71  O   UNL A   1      34.318  23.991  22.680  1.00  0.00    -0.485 OA
ATOM     72  C   UNL A   1      35.384  24.420  24.801  1.00  0.00     0.162 A 
ATOM     73  C   UNL A   1      35.267  23.689  23.616  1.00  0.00     0.161 A 
ATOM     74  C   UNL A   1      36.416  24.137  25.687  1.00  0.00     0.050 A 
ATOM     75  C   UNL A   1      36.115  22.623  23.346  1.00  0.00     0.050 A 
ATOM     76  C   UNL A   1      37.310  23.106  25.392  1.00  0.00     0.004 A 
ATOM     77  C   UNL A   1      37.146  22.335  24.237  1.00  0.00     0.004 A 
ENDBRANCH  65  68
BRANCH  67  78
ATOM     78  C   UNL A   1      32.109  23.675  25.397  1.00  0.00     0.067 A 
ATOM     79  C   UNL A   1      32.185  23.755  26.789  1.00  0.00     0.028 A 
ATOM     80  C   UNL A   1      32.381  22.477  24.724  1.00  0.00     0.041 A 
ATOM     81  C   UNL A   1      32.433  22.592  27.519  1.00  0.00     0.003 A 
ATOM     82  C   UNL A   1      32.655  21.313  25.456  1.00  0.00     0.058 A 
ATOM     83  C   UNL A   1      32.650  21.378  26.859  1.00  0.00     0.013 A 
BRANCH  82  84
ATOM     84  C   UNL A   1      32.869  19.997  24.752  1.00  0.00     0.416 C 
ATOM     85  F   UNL A   1      34.184  19.726  24.527  1.00  0.00    -0.166 F 
ATOM     86  F   UNL A   1      32.385  18.939  25.463  1.00  0.00    -0.166 F 
ATOM     87  F   UNL A   1      32.262  19.931  23.533  1.00  0.00    -0.166 F 
ENDBRANCH  82  84
ENDBRANCH  67  78
ENDBRANCH  60  63
ENDBRANCH  58  59
ENDBRANCH  57  58
ENDBRANCH   1  57
TORSDOF 14
ENDMDL
MODEL 3
REMARK VINA RESULT:     -12.2      3.398      8.098
REMARK SMILES O=C(NCCCCNC(=O)c1nnn(-c2cccc(C(F)(F)F)c2)c1[C@@H]1COc2ccccc2O1)c1ccc(-c2c3nc(c(-c4ccccc4)c4ccc([nH]4)c(-c4ccccc4)c4nc(c(-c5ccccc5)c5ccc2[nH]5)C=C4)C=C3)cc1
REMARK SMILES IDX 5 1 4 2 3 3 1 4 2 5 36 7 37 8 83 9 38 10 82 11 39 12 40 13
REMARK SMILES IDX 41 14 76 15 42 16 81 17 75 18 77 19 43 20 80 21 74 22 73 23
REMARK SMILES IDX 44 25 66 26 51 27 65 28 52 29 55 30 64 31 78 32 53 33 54 34
REMARK SMILES IDX 63 36 79 37 56 38 45 39 46 40 50 41 47 42 49 43 48 44 67 45
REMARK SMILES IDX 68 46 72 47 69 48 71 49 70 50 57 51 58 52 62 53 59 54 61 55
REMARK SMILES IDX 60 56 6 57 7 58 8 59 9 60 10 62 11 63 12 64 25 65 13 66
REMARK SMILES IDX 14 67 26 68 27 69 35 70 28 71 34 72 29 73 33 74 30 75 32 76
REMARK SMILES IDX 31 77 15 78 16 79 24 80 17 81 19 82 18 83 20 84 21 85 22 86
REMARK SMILES IDX 23 87
REMARK H PARENT 3 6 77 24 55 35 8 61
REMARK Flexibility Score: inf
ROOT
ATOM      1  C   UNL A   1      34.170  31.818  28.102  1.00  0.00     0.023 C 
ENDROOT
BRANCH   1   2
ATOM      2  C   UNL A   1      34.784  32.906  28.990  1.00  0.00     0.116 C 
BRANCH   2   3
ATOM      3  N   UNL A   1      34.690  32.672  30.419  1.00  0.00    -0.352 N 
ATOM      4  O   UNL A   1      35.212  32.299  32.533  1.00  0.00    -0.269 OA
ATOM      5  C   UNL A   1      35.494  32.073  31.353  1.00  0.00     0.251 C 
ATOM      6  H   UNL A   1      33.856  33.023  30.807  1.00  0.00     0.163 HD
BRANCH   5   7
ATOM      7  C   UNL A   1      36.622  31.144  31.061  1.00  0.00     0.039 A 
ATOM      8  C   UNL A   1      36.513  29.762  30.914  1.00  0.00     0.014 A 
ATOM      9  C   UNL A   1      37.908  31.721  31.000  1.00  0.00     0.014 A 
ATOM     10  C   UNL A   1      37.652  28.970  30.793  1.00  0.00     0.010 A 
ATOM     11  C   UNL A   1      39.050  30.936  30.862  1.00  0.00     0.010 A 
ATOM     12  C   UNL A   1      38.923  29.553  30.794  1.00  0.00    -0.014 A 
BRANCH  12  13
ATOM     13  C   UNL A   1      40.072  28.669  30.615  1.00  0.00     0.031 A 
ATOM     14  C   UNL A   1      40.887  28.414  31.839  1.00  0.00     0.074 A 
ATOM     15  C   UNL A   1      40.347  28.007  29.475  1.00  0.00     0.049 A 
ATOM     16  N   UNL A   1      42.145  28.653  32.032  1.00  0.00    -0.248 NA
ATOM     17  C   UNL A   1      40.190  27.879  33.017  1.00  0.00     0.031 C 
ATOM     18  C   UNL A   1      39.513  27.880  28.277  1.00  0.00     0.029 A 
ATOM     19  N   UNL A   1      41.415  27.206  29.196  1.00  0.00    -0.354 N 
ATOM     20  C   UNL A   1      42.441  28.168  33.306  1.00  0.00     0.074 A 
ATOM     21  C   UNL A   1      41.184  27.792  33.902  1.00  0.00     0.031 C 
ATOM     22  C   UNL A   1      39.994  26.877  27.508  1.00  0.00     0.029 A 
ATOM     23  C   UNL A   1      41.238  26.395  28.086  1.00  0.00     0.049 A 
ATOM     24  H   UNL A   1      42.239  27.203  29.736  1.00  0.00     0.167 HD
ATOM     25  C   UNL A   1      43.716  27.948  33.730  1.00  0.00     0.031 A 
ATOM     26  C   UNL A   1      42.022  25.358  27.705  1.00  0.00     0.031 A 
ATOM     27  C   UNL A   1      44.689  28.627  32.923  1.00  0.00     0.049 A 
ATOM     28  C   UNL A   1      43.336  25.506  28.367  1.00  0.00     0.074 A 
ATOM     29  C   UNL A   1      44.972  29.945  32.629  1.00  0.00     0.029 A 
ATOM     30  N   UNL A   1      45.386  27.881  32.004  1.00  0.00    -0.354 N 
ATOM     31  N   UNL A   1      44.192  26.443  28.080  1.00  0.00    -0.248 NA
ATOM     32  C   UNL A   1      43.552  24.831  29.637  1.00  0.00     0.031 C 
ATOM     33  C   UNL A   1      45.413  29.931  31.274  1.00  0.00     0.029 A 
ATOM     34  C   UNL A   1      45.405  28.603  30.841  1.00  0.00     0.049 A 
ATOM     35  H   UNL A   1      45.793  26.998  32.154  1.00  0.00     0.167 HD
ATOM     36  C   UNL A   1      44.785  26.765  29.290  1.00  0.00     0.074 A 
ATOM     37  C   UNL A   1      44.438  25.666  30.186  1.00  0.00     0.031 C 
ATOM     38  C   UNL A   1      45.267  28.021  29.528  1.00  0.00     0.031 A 
BRANCH  25  39
ATOM     39  C   UNL A   1      44.108  26.827  34.662  1.00  0.00    -0.014 A 
ATOM     40  C   UNL A   1      44.041  25.499  34.198  1.00  0.00     0.009 A 
ATOM     41  C   UNL A   1      44.254  27.004  36.050  1.00  0.00     0.009 A 
ATOM     42  C   UNL A   1      44.040  24.414  35.084  1.00  0.00     0.001 A 
ATOM     43  C   UNL A   1      44.297  25.922  36.934  1.00  0.00     0.001 A 
ATOM     44  C   UNL A   1      44.160  24.628  36.453  1.00  0.00     0.000 A 
ENDBRANCH  25  39
BRANCH  26  45
ATOM     45  C   UNL A   1      41.620  24.107  27.029  1.00  0.00    -0.014 A 
ATOM     46  C   UNL A   1      42.480  23.462  26.128  1.00  0.00     0.009 A 
ATOM     47  C   UNL A   1      40.487  23.401  27.475  1.00  0.00     0.009 A 
ATOM     48  C   UNL A   1      42.231  22.146  25.715  1.00  0.00     0.001 A 
ATOM     49  C   UNL A   1      40.236  22.090  27.060  1.00  0.00     0.001 A 
ATOM     50  C   UNL A   1      41.117  21.458  26.190  1.00  0.00     0.000 A 
ENDBRANCH  26  45
BRANCH  38  51
ATOM     51  C   UNL A   1      45.368  28.974  28.364  1.00  0.00    -0.014 A 
ATOM     52  C   UNL A   1      44.293  29.780  27.951  1.00  0.00     0.009 A 
ATOM     53  C   UNL A   1      46.627  29.191  27.786  1.00  0.00     0.009 A 
ATOM     54  C   UNL A   1      44.470  30.760  26.969  1.00  0.00     0.001 A 
ATOM     55  C   UNL A   1      46.809  30.184  26.822  1.00  0.00     0.001 A 
ATOM     56  C   UNL A   1      45.730  30.966  26.410  1.00  0.00     0.000 A 
ENDBRANCH  38  51
ENDBRANCH  12  13
ENDBRANCH   5   7
ENDBRANCH   2   3
ENDBRANCH   1   2
BRANCH   1  57
ATOM     57  C   UNL A   1      35.107  30.711  27.636  1.00  0.00     0.023 C 
BRANCH  57  58
ATOM     58  C   UNL A   1      34.495  29.553  26.859  1.00  0.00     0.116 C 
BRANCH  58  59
ATOM     59  N   UNL A   1      33.173  29.737  26.326  1.00  0.00    -0.351 N 
ATOM     60  C   UNL A   1      32.259  28.888  25.731  1.00  0.00     0.273 C 
ATOM     61  H   UNL A   1      32.851  30.664  26.400  1.00  0.00     0.163 HD
ATOM     62  O   UNL A   1      31.214  29.464  25.402  1.00  0.00    -0.267 OA
BRANCH  60  63
ATOM     63  C   UNL A   1      32.407  27.434  25.456  1.00  0.00     0.178 A 
ATOM     64  N   UNL A   1      33.140  26.711  26.390  1.00  0.00    -0.124 NA
ATOM     65  C   UNL A   1      31.958  26.516  24.497  1.00  0.00     0.122 A 
ATOM     66  N   UNL A   1      33.134  25.430  26.072  1.00  0.00    -0.061 NA
ATOM     67  N   UNL A   1      32.537  25.310  24.879  1.00  0.00    -0.213 N 
BRANCH  65  68
ATOM     68  C   UNL A   1      30.902  26.603  23.443  1.00  0.00     0.262 C 
ATOM     69  C   UNL A   1      31.469  27.326  22.200  1.00  0.00     0.281 C 
ATOM     70  O   UNL A   1      29.649  27.114  23.913  1.00  0.00    -0.477 OA
ATOM     71  O   UNL A   1      31.355  28.742  22.308  1.00  0.00    -0.485 OA
ATOM     72  C   UNL A   1      29.180  28.179  23.187  1.00  0.00     0.162 A 
ATOM     73  C   UNL A   1      30.026  29.022  22.461  1.00  0.00     0.161 A 
ATOM     74  C   UNL A   1      27.819  28.452  23.246  1.00  0.00     0.050 A 
ATOM     75  C   UNL A   1      29.543  30.180  21.866  1.00  0.00     0.050 A 
ATOM     76  C   UNL A   1      27.317  29.582  22.598  1.00  0.00     0.004 A 
ATOM     77  C   UNL A   1      28.179  30.456  21.930  1.00  0.00     0.004 A 
ENDBRANCH  65  68
BRANCH  67  78
ATOM     78  C   UNL A   1      32.564  24.082  24.192  1.00  0.00     0.067 A 
ATOM     79  C   UNL A   1      32.716  24.071  22.804  1.00  0.00     0.028 A 
ATOM     80  C   UNL A   1      32.589  22.895  24.933  1.00  0.00     0.041 A 
ATOM     81  C   UNL A   1      33.002  22.863  22.167  1.00  0.00     0.003 A 
ATOM     82  C   UNL A   1      32.852  21.677  24.291  1.00  0.00     0.058 A 
ATOM     83  C   UNL A   1      33.086  21.678  22.906  1.00  0.00     0.013 A 
BRANCH  82  84
ATOM     84  C   UNL A   1      32.965  20.399  25.084  1.00  0.00     0.416 C 
ATOM     85  F   UNL A   1      32.523  20.533  26.365  1.00  0.00    -0.166 F 
ATOM     86  F   UNL A   1      32.240  19.381  24.542  1.00  0.00    -0.166 F 
ATOM     87  F   UNL A   1      34.243  19.933  25.179  1.00  0.00    -0.166 F 
ENDBRANCH  82  84
ENDBRANCH  67  78
ENDBRANCH  60  63
ENDBRANCH  58  59
ENDBRANCH  57  58
ENDBRANCH   1  57
TORSDOF 14
ENDMDL
