MODEL 1
REMARK VINA RESULT:     -10.6      0.000      0.000
REMARK SMILES COc1ccc(N2C(=O)/C(=C/c3c(C(=O)NCCCCNC(=O)c4ccc(-c5c6nc(c(-c7ccccc7)c7ccc([nH]7)c(-c7ccccc7)c7nc(c(-c8ccccc8)c8ccc5[nH]8)C=C7)C=C6)cc4)[nH]c4cc(OC)ccc34)SC2=S)cc1
REMARK SMILES IDX 18 1 17 2 16 3 14 4 15 5 13 7 12 8 80 9 72 10 73 11 79 12
REMARK SMILES IDX 74 14 78 15 75 16 11 17 7 18 8 19 82 20 9 21 10 22 81 23
REMARK SMILES IDX 83 24 6 25 3 26 4 27 85 28 5 29 84 30 2 31 1 32 76 33 77 34
REMARK SMILES IDX 19 35 20 36 21 37 22 38 23 40 24 41 25 42 71 43 26 44 70 45
REMARK SMILES IDX 27 46 28 47 29 48 64 49 30 50 69 51 63 52 65 53 31 54 68 55
REMARK SMILES IDX 62 56 61 57 32 59 54 60 39 61 53 62 40 63 43 64 52 65 66 66
REMARK SMILES IDX 41 67 42 68 51 70 67 71 44 72 33 73 34 74 38 75 35 76 37 77
REMARK SMILES IDX 36 78 55 79 56 80 60 81 57 82 59 83 58 84 45 85 46 86 50 87
REMARK SMILES IDX 47 88 49 89 48 90
REMARK H PARENT 16 6 72 13 21 39 65 58 43 69
REMARK Flexibility Score: inf
ROOT
ATOM      1  C   UNL A   1      43.510  38.013  34.267  1.00  0.00     0.023 C 
ENDROOT
BRANCH   1   2
ATOM      2  C   UNL A   1      42.739  36.693  34.391  1.00  0.00     0.116 C 
BRANCH   2   3
ATOM      3  N   UNL A   1      41.516  36.742  35.182  1.00  0.00    -0.351 N 
ATOM      4  C   UNL A   1      40.549  35.769  35.366  1.00  0.00     0.268 C 
ATOM      5  O   UNL A   1      39.510  36.106  35.934  1.00  0.00    -0.268 OA
ATOM      6  H   UNL A   1      41.353  37.590  35.654  1.00  0.00     0.163 HD
BRANCH   4   7
ATOM      7  C   UNL A   1      40.724  34.421  34.865  1.00  0.00     0.112 A 
ATOM      8  C   UNL A   1      40.393  33.758  33.678  1.00  0.00     0.014 A 
ATOM      9  C   UNL A   1      40.415  32.344  34.011  1.00  0.00     0.008 A 
ATOM     10  N   UNL A   1      41.519  33.529  35.539  1.00  0.00    -0.350 N 
ATOM     11  C   UNL A   1      41.146  32.259  35.200  1.00  0.00     0.050 A 
ATOM     12  C   UNL A   1      39.920  31.110  33.507  1.00  0.00     0.015 A 
ATOM     13  H   UNL A   1      42.239  33.766  36.167  1.00  0.00     0.167 HD
ATOM     14  C   UNL A   1      41.402  31.077  35.895  1.00  0.00     0.073 A 
ATOM     15  C   UNL A   1      40.109  29.900  34.249  1.00  0.00     0.047 A 
ATOM     16  C   UNL A   1      40.840  29.892  35.436  1.00  0.00     0.120 A 
BRANCH   8  17
ATOM     17  C   UNL A   1      39.955  34.530  32.532  1.00  0.00     0.032 C 
ATOM     18  N   UNL A   1      36.913  33.807  30.849  1.00  0.00    -0.261 N 
ATOM     19  C   UNL A   1      38.126  34.522  30.817  1.00  0.00     0.270 C 
ATOM     20  C   UNL A   1      36.300  33.695  32.081  1.00  0.00     0.152 C 
ATOM     21  O   UNL A   1      38.751  34.904  29.837  1.00  0.00    -0.268 OA
ATOM     22  C   UNL A   1      38.637  34.679  32.224  1.00  0.00     0.081 C 
ATOM     23  S   UNL A   1      37.291  34.495  33.298  1.00  0.00    -0.054 SA
ATOM     24  S   UNL A   1      34.853  32.951  32.460  1.00  0.00    -0.051 S 
BRANCH  18  25
ATOM     25  C   UNL A   1      36.290  33.368  29.646  1.00  0.00     0.051 A 
ATOM     26  C   UNL A   1      34.743  31.973  27.751  1.00  0.00     0.119 A 
ATOM     27  C   UNL A   1      34.304  33.207  28.229  1.00  0.00     0.048 A 
ATOM     28  C   UNL A   1      36.111  31.685  27.949  1.00  0.00     0.048 A 
ATOM     29  C   UNL A   1      35.097  33.919  29.160  1.00  0.00     0.030 A 
ATOM     30  C   UNL A   1      36.852  32.320  28.945  1.00  0.00     0.030 A 
BRANCH  26  31
ATOM     31  O   UNL A   1      33.689  31.052  27.312  1.00  0.00    -0.497 OA
ATOM     32  C   UNL A   1      32.943  29.230  26.918  1.00  0.00     0.278 C 
ENDBRANCH  26  31
ENDBRANCH  18  25
ENDBRANCH   8  17
BRANCH  16  33
ATOM     33  O   UNL A   1      41.043  28.857  36.303  1.00  0.00    -0.497 OA
ATOM     34  C   UNL A   1      42.281  28.172  36.289  1.00  0.00     0.278 C 
ENDBRANCH  16  33
ENDBRANCH   4   7
ENDBRANCH   2   3
ENDBRANCH   1   2
BRANCH   1  35
ATOM     35  C   UNL A   1      43.669  38.676  32.873  1.00  0.00     0.023 C 
BRANCH  35  36
ATOM     36  C   UNL A   1      44.048  37.761  31.689  1.00  0.00     0.116 C 
BRANCH  36  37
ATOM     37  N   UNL A   1      45.411  37.225  31.732  1.00  0.00    -0.352 N 
ATOM     38  C   UNL A   1      46.087  36.811  30.591  1.00  0.00     0.251 C 
ATOM     39  H   UNL A   1      45.865  37.154  32.602  1.00  0.00     0.163 HD
ATOM     40  O   UNL A   1      47.107  37.371  30.206  1.00  0.00    -0.269 OA
BRANCH  38  41
ATOM     41  C   UNL A   1      45.720  35.521  29.982  1.00  0.00     0.039 A 
ATOM     42  C   UNL A   1      46.320  34.056  30.821  1.00  0.00     0.014 A 
ATOM     43  C   UNL A   1      44.847  35.362  28.413  1.00  0.00     0.014 A 
ATOM     44  C   UNL A   1      45.993  32.434  30.159  1.00  0.00     0.010 A 
ATOM     45  C   UNL A   1      44.469  33.682  27.754  1.00  0.00     0.010 A 
ATOM     46  C   UNL A   1      44.993  32.203  28.665  1.00  0.00    -0.014 A 
BRANCH  46  47
ATOM     47  C   UNL A   1      44.513  30.803  28.361  1.00  0.00     0.031 A 
ATOM     48  C   UNL A   1      45.336  29.815  27.571  1.00  0.00     0.074 A 
ATOM     49  C   UNL A   1      43.276  30.409  28.757  1.00  0.00     0.049 A 
ATOM     50  N   UNL A   1      45.019  28.606  27.166  1.00  0.00    -0.248 NA
ATOM     51  C   UNL A   1      46.660  30.254  27.119  1.00  0.00     0.031 C 
ATOM     52  C   UNL A   1      42.269  31.248  29.411  1.00  0.00     0.029 A 
ATOM     53  N   UNL A   1      42.641  29.182  28.688  1.00  0.00    -0.354 N 
ATOM     54  C   UNL A   1      46.072  28.183  26.362  1.00  0.00     0.074 A 
ATOM     55  C   UNL A   1      46.991  29.295  26.269  1.00  0.00     0.031 C 
ATOM     56  C   UNL A   1      41.238  30.502  29.823  1.00  0.00     0.029 A 
ATOM     57  C   UNL A   1      41.419  29.148  29.329  1.00  0.00     0.049 A 
ATOM     58  H   UNL A   1      43.026  28.405  28.224  1.00  0.00     0.167 HD
ATOM     59  C   UNL A   1      46.296  26.972  25.791  1.00  0.00     0.031 A 
ATOM     60  C   UNL A   1      40.513  28.163  29.487  1.00  0.00     0.031 A 
ATOM     61  C   UNL A   1      45.419  25.839  25.920  1.00  0.00     0.049 A 
ATOM     62  C   UNL A   1      40.772  26.830  28.850  1.00  0.00     0.074 A 
ATOM     63  C   UNL A   1      45.593  24.552  25.441  1.00  0.00     0.029 A 
ATOM     64  N   UNL A   1      44.202  25.858  26.584  1.00  0.00    -0.354 N 
ATOM     65  N   UNL A   1      41.819  26.433  28.172  1.00  0.00    -0.248 NA
ATOM     66  C   UNL A   1      39.719  25.814  28.987  1.00  0.00     0.031 C 
ATOM     67  C   UNL A   1      44.456  23.806  25.771  1.00  0.00     0.029 A 
ATOM     68  C   UNL A   1      43.599  24.613  26.501  1.00  0.00     0.049 A 
ATOM     69  H   UNL A   1      43.821  26.640  27.045  1.00  0.00     0.167 HD
ATOM     70  C   UNL A   1      41.558  25.120  27.811  1.00  0.00     0.074 A 
ATOM     71  C   UNL A   1      40.268  24.775  28.372  1.00  0.00     0.031 C 
ATOM     72  C   UNL A   1      42.318  24.279  27.070  1.00  0.00     0.031 A 
BRANCH  59  73
ATOM     73  C   UNL A   1      47.556  26.828  24.975  1.00  0.00    -0.014 A 
ATOM     74  C   UNL A   1      48.724  26.278  25.531  1.00  0.00     0.009 A 
ATOM     75  C   UNL A   1      47.594  27.287  23.649  1.00  0.00     0.009 A 
ATOM     76  C   UNL A   1      49.922  26.278  24.814  1.00  0.00     0.001 A 
ATOM     77  C   UNL A   1      48.783  27.245  22.918  1.00  0.00     0.001 A 
ATOM     78  C   UNL A   1      49.951  26.764  23.508  1.00  0.00     0.000 A 
ENDBRANCH  59  73
BRANCH  60  79
ATOM     79  C   UNL A   1      39.267  28.393  30.277  1.00  0.00    -0.014 A 
ATOM     80  C   UNL A   1      38.179  29.068  29.700  1.00  0.00     0.009 A 
ATOM     81  C   UNL A   1      39.155  27.956  31.607  1.00  0.00     0.009 A 
ATOM     82  C   UNL A   1      37.022  29.324  30.441  1.00  0.00     0.001 A 
ATOM     83  C   UNL A   1      37.983  28.181  32.336  1.00  0.00     0.001 A 
ATOM     84  C   UNL A   1      36.922  28.875  31.757  1.00  0.00     0.000 A 
ENDBRANCH  60  79
BRANCH  72  85
ATOM     85  C   UNL A   1      41.788  22.893  26.837  1.00  0.00    -0.014 A 
ATOM     86  C   UNL A   1      42.443  21.770  27.364  1.00  0.00     0.009 A 
ATOM     87  C   UNL A   1      40.580  22.717  26.145  1.00  0.00     0.009 A 
ATOM     88  C   UNL A   1      41.904  20.494  27.192  1.00  0.00     0.001 A 
ATOM     89  C   UNL A   1      40.027  21.444  26.001  1.00  0.00     0.001 A 
ATOM     90  C   UNL A   1      40.691  20.334  26.521  1.00  0.00     0.000 A 
ENDBRANCH  72  85
ENDBRANCH  46  47
ENDBRANCH  38  41
ENDBRANCH  36  37
ENDBRANCH  35  36
ENDBRANCH   1  35
TORSDOF 15
ENDMDL
MODEL 2
REMARK VINA RESULT:     -10.1      1.031      5.566
REMARK SMILES COc1ccc(N2C(=O)/C(=C/c3c(C(=O)NCCCCNC(=O)c4ccc(-c5c6nc(c(-c7ccccc7)c7ccc([nH]7)c(-c7ccccc7)c7nc(c(-c8ccccc8)c8ccc5[nH]8)C=C7)C=C6)cc4)[nH]c4cc(OC)ccc34)SC2=S)cc1
REMARK SMILES IDX 18 1 17 2 16 3 14 4 15 5 13 7 12 8 80 9 72 10 73 11 79 12
REMARK SMILES IDX 74 14 78 15 75 16 11 17 7 18 8 19 82 20 9 21 10 22 81 23
REMARK SMILES IDX 83 24 6 25 3 26 4 27 85 28 5 29 84 30 2 31 1 32 76 33 77 34
REMARK SMILES IDX 19 35 20 36 21 37 22 38 23 40 24 41 25 42 71 43 26 44 70 45
REMARK SMILES IDX 27 46 28 47 29 48 64 49 30 50 69 51 63 52 65 53 31 54 68 55
REMARK SMILES IDX 62 56 61 57 32 59 54 60 39 61 53 62 40 63 43 64 52 65 66 66
REMARK SMILES IDX 41 67 42 68 51 70 67 71 44 72 33 73 34 74 38 75 35 76 37 77
REMARK SMILES IDX 36 78 55 79 56 80 60 81 57 82 59 83 58 84 45 85 46 86 50 87
REMARK SMILES IDX 47 88 49 89 48 90
REMARK H PARENT 16 6 72 13 21 39 65 58 43 69
REMARK Flexibility Score: inf
ROOT
ATOM      1  C   UNL A   1      43.351  37.957  34.305  1.00  0.00     0.023 C 
ENDROOT
BRANCH   1   2
ATOM      2  C   UNL A   1      42.596  36.627  34.422  1.00  0.00     0.116 C 
BRANCH   2   3
ATOM      3  N   UNL A   1      41.528  36.586  35.412  1.00  0.00    -0.351 N 
ATOM      4  C   UNL A   1      40.656  35.556  35.722  1.00  0.00     0.268 C 
ATOM      5  O   UNL A   1      39.715  35.818  36.471  1.00  0.00    -0.268 OA
ATOM      6  H   UNL A   1      41.407  37.410  35.936  1.00  0.00     0.163 HD
BRANCH   4   7
ATOM      7  C   UNL A   1      40.808  34.235  35.147  1.00  0.00     0.112 A 
ATOM      8  C   UNL A   1      40.467  33.643  33.925  1.00  0.00     0.014 A 
ATOM      9  C   UNL A   1      40.464  32.214  34.181  1.00  0.00     0.008 A 
ATOM     10  N   UNL A   1      41.587  33.293  35.771  1.00  0.00    -0.350 N 
ATOM     11  C   UNL A   1      41.192  32.050  35.363  1.00  0.00     0.050 A 
ATOM     12  C   UNL A   1      39.947  31.018  33.609  1.00  0.00     0.015 A 
ATOM     13  H   UNL A   1      42.311  33.483  36.411  1.00  0.00     0.167 HD
ATOM     14  C   UNL A   1      41.427  30.828  35.992  1.00  0.00     0.073 A 
ATOM     15  C   UNL A   1      40.115  29.766  34.284  1.00  0.00     0.047 A 
ATOM     16  C   UNL A   1      40.844  29.680  35.468  1.00  0.00     0.120 A 
BRANCH   8  17
ATOM     17  C   UNL A   1      40.043  34.485  32.824  1.00  0.00     0.032 C 
ATOM     18  N   UNL A   1      37.048  33.840  31.029  1.00  0.00    -0.261 N 
ATOM     19  C   UNL A   1      38.251  34.570  31.071  1.00  0.00     0.270 C 
ATOM     20  C   UNL A   1      36.410  33.638  32.237  1.00  0.00     0.152 C 
ATOM     21  O   UNL A   1      38.892  35.023  30.133  1.00  0.00    -0.268 OA
ATOM     22  C   UNL A   1      38.730  34.639  32.497  1.00  0.00     0.081 C 
ATOM     23  S   UNL A   1      37.363  34.368  33.526  1.00  0.00    -0.054 SA
ATOM     24  S   UNL A   1      34.965  32.854  32.533  1.00  0.00    -0.051 S 
BRANCH  18  25
ATOM     25  C   UNL A   1      36.457  33.475  29.786  1.00  0.00     0.051 A 
ATOM     26  C   UNL A   1      34.975  32.187  27.768  1.00  0.00     0.119 A 
ATOM     27  C   UNL A   1      34.501  33.377  28.321  1.00  0.00     0.048 A 
ATOM     28  C   UNL A   1      36.344  31.912  27.973  1.00  0.00     0.048 A 
ATOM     29  C   UNL A   1      35.263  34.036  29.315  1.00  0.00     0.030 A 
ATOM     30  C   UNL A   1      37.052  32.489  29.026  1.00  0.00     0.030 A 
BRANCH  26  31
ATOM     31  O   UNL A   1      33.948  31.280  27.244  1.00  0.00    -0.497 OA
ATOM     32  C   UNL A   1      32.651  29.754  27.393  1.00  0.00     0.278 C 
ENDBRANCH  26  31
ENDBRANCH  18  25
ENDBRANCH   8  17
BRANCH  16  33
ATOM     33  O   UNL A   1      41.028  28.595  36.277  1.00  0.00    -0.497 OA
ATOM     34  C   UNL A   1      41.795  27.501  35.809  1.00  0.00     0.278 C 
ENDBRANCH  16  33
ENDBRANCH   4   7
ENDBRANCH   2   3
ENDBRANCH   1   2
BRANCH   1  35
ATOM     35  C   UNL A   1      43.620  38.562  32.903  1.00  0.00     0.023 C 
BRANCH  35  36
ATOM     36  C   UNL A   1      44.190  37.621  31.819  1.00  0.00     0.116 C 
BRANCH  36  37
ATOM     37  N   UNL A   1      45.548  37.134  32.074  1.00  0.00    -0.352 N 
ATOM     38  C   UNL A   1      46.386  36.691  31.059  1.00  0.00     0.251 C 
ATOM     39  H   UNL A   1      45.880  37.119  33.001  1.00  0.00     0.163 HD
ATOM     40  O   UNL A   1      47.433  37.267  30.789  1.00  0.00    -0.269 OA
BRANCH  38  41
ATOM     41  C   UNL A   1      46.142  35.363  30.471  1.00  0.00     0.039 A 
ATOM     42  C   UNL A   1      46.489  33.959  31.529  1.00  0.00     0.014 A 
ATOM     43  C   UNL A   1      45.663  35.096  28.754  1.00  0.00     0.014 A 
ATOM     44  C   UNL A   1      46.287  32.295  30.921  1.00  0.00     0.010 A 
ATOM     45  C   UNL A   1      45.410  33.375  28.142  1.00  0.00     0.010 A 
ATOM     46  C   UNL A   1      45.665  31.963  29.252  1.00  0.00    -0.014 A 
BRANCH  46  47
ATOM     47  C   UNL A   1      45.236  30.548  28.941  1.00  0.00     0.031 A 
ATOM     48  C   UNL A   1      43.807  30.083  29.081  1.00  0.00     0.074 A 
ATOM     49  C   UNL A   1      46.159  29.624  28.571  1.00  0.00     0.049 A 
ATOM     50  N   UNL A   1      43.307  28.878  28.926  1.00  0.00    -0.248 NA
ATOM     51  C   UNL A   1      42.817  31.075  29.510  1.00  0.00     0.031 C 
ATOM     52  C   UNL A   1      47.609  29.828  28.506  1.00  0.00     0.029 A 
ATOM     53  N   UNL A   1      46.025  28.314  28.152  1.00  0.00    -0.354 N 
ATOM     54  C   UNL A   1      41.972  28.966  29.306  1.00  0.00     0.074 A 
ATOM     55  C   UNL A   1      41.767  30.316  29.778  1.00  0.00     0.031 C 
ATOM     56  C   UNL A   1      48.202  28.774  27.934  1.00  0.00     0.029 A 
ATOM     57  C   UNL A   1      47.205  27.737  27.728  1.00  0.00     0.049 A 
ATOM     58  H   UNL A   1      45.165  27.835  28.156  1.00  0.00     0.167 HD
ATOM     59  C   UNL A   1      40.985  28.037  29.227  1.00  0.00     0.031 A 
ATOM     60  C   UNL A   1      47.488  26.508  27.255  1.00  0.00     0.031 A 
ATOM     61  C   UNL A   1      41.160  26.707  28.708  1.00  0.00     0.049 A 
ATOM     62  C   UNL A   1      46.388  25.492  27.174  1.00  0.00     0.074 A 
ATOM     63  C   UNL A   1      40.208  25.720  28.520  1.00  0.00     0.029 A 
ATOM     64  N   UNL A   1      42.372  26.180  28.288  1.00  0.00    -0.354 N 
ATOM     65  N   UNL A   1      45.116  25.632  27.456  1.00  0.00    -0.248 NA
ATOM     66  C   UNL A   1      46.762  24.144  26.723  1.00  0.00     0.031 C 
ATOM     67  C   UNL A   1      40.854  24.578  28.034  1.00  0.00     0.029 A 
ATOM     68  C   UNL A   1      42.198  24.871  27.868  1.00  0.00     0.049 A 
ATOM     69  H   UNL A   1      43.229  26.664  28.287  1.00  0.00     0.167 HD
ATOM     70  C   UNL A   1      44.538  24.397  27.207  1.00  0.00     0.074 A 
ATOM     71  C   UNL A   1      45.588  23.527  26.720  1.00  0.00     0.031 C 
ATOM     72  C   UNL A   1      43.249  24.017  27.379  1.00  0.00     0.031 A 
BRANCH  59  73
ATOM     73  C   UNL A   1      39.621  28.453  29.719  1.00  0.00    -0.014 A 
ATOM     74  C   UNL A   1      39.277  28.356  31.079  1.00  0.00     0.009 A 
ATOM     75  C   UNL A   1      38.651  28.905  28.811  1.00  0.00     0.009 A 
ATOM     76  C   UNL A   1      37.972  28.609  31.503  1.00  0.00     0.001 A 
ATOM     77  C   UNL A   1      37.356  29.200  29.245  1.00  0.00     0.001 A 
ATOM     78  C   UNL A   1      37.011  29.028  30.585  1.00  0.00     0.000 A 
ENDBRANCH  59  73
BRANCH  60  79
ATOM     79  C   UNL A   1      48.874  26.156  26.823  1.00  0.00    -0.014 A 
ATOM     80  C   UNL A   1      49.777  25.590  27.738  1.00  0.00     0.009 A 
ATOM     81  C   UNL A   1      49.310  26.391  25.509  1.00  0.00     0.009 A 
ATOM     82  C   UNL A   1      51.088  25.293  27.357  1.00  0.00     0.001 A 
ATOM     83  C   UNL A   1      50.612  26.060  25.120  1.00  0.00     0.001 A 
ATOM     84  C   UNL A   1      51.503  25.523  26.047  1.00  0.00     0.000 A 
ENDBRANCH  60  79
BRANCH  72  85
ATOM     85  C   UNL A   1      42.892  22.603  27.019  1.00  0.00    -0.014 A 
ATOM     86  C   UNL A   1      43.254  22.059  25.777  1.00  0.00     0.009 A 
ATOM     87  C   UNL A   1      42.253  21.784  27.962  1.00  0.00     0.009 A 
ATOM     88  C   UNL A   1      42.970  20.725  25.482  1.00  0.00     0.001 A 
ATOM     89  C   UNL A   1      41.998  20.442  27.677  1.00  0.00     0.001 A 
ATOM     90  C   UNL A   1      42.353  19.915  26.437  1.00  0.00     0.000 A 
ENDBRANCH  72  85
ENDBRANCH  46  47
ENDBRANCH  38  41
ENDBRANCH  36  37
ENDBRANCH  35  36
ENDBRANCH   1  35
TORSDOF 15
ENDMDL
MODEL 3
REMARK VINA RESULT:     -10.0      6.698     12.876
REMARK SMILES COc1ccc(N2C(=O)/C(=C/c3c(C(=O)NCCCCNC(=O)c4ccc(-c5c6nc(c(-c7ccccc7)c7ccc([nH]7)c(-c7ccccc7)c7nc(c(-c8ccccc8)c8ccc5[nH]8)C=C7)C=C6)cc4)[nH]c4cc(OC)ccc34)SC2=S)cc1
REMARK SMILES IDX 18 1 17 2 16 3 14 4 15 5 13 7 12 8 80 9 72 10 73 11 79 12
REMARK SMILES IDX 74 14 78 15 75 16 11 17 7 18 8 19 82 20 9 21 10 22 81 23
REMARK SMILES IDX 83 24 6 25 3 26 4 27 85 28 5 29 84 30 2 31 1 32 76 33 77 34
REMARK SMILES IDX 19 35 20 36 21 37 22 38 23 40 24 41 25 42 71 43 26 44 70 45
REMARK SMILES IDX 27 46 28 47 29 48 64 49 30 50 69 51 63 52 65 53 31 54 68 55
REMARK SMILES IDX 62 56 61 57 32 59 54 60 39 61 53 62 40 63 43 64 52 65 66 66
REMARK SMILES IDX 41 67 42 68 51 70 67 71 44 72 33 73 34 74 38 75 35 76 37 77
REMARK SMILES IDX 36 78 55 79 56 80 60 81 57 82 59 83 58 84 45 85 46 86 50 87
REMARK SMILES IDX 47 88 49 89 48 90
REMARK H PARENT 16 6 72 13 21 39 65 58 43 69
REMARK Flexibility Score: inf
ROOT
ATOM      1  C   UNL A   1      47.690  38.687  27.899  1.00  0.00     0.023 C 
ENDROOT
BRANCH   1   2
ATOM      2  C   UNL A   1      46.761  38.718  29.119  1.00  0.00     0.116 C 
BRANCH   2   3
ATOM      3  N   UNL A   1      46.884  39.883  29.985  1.00  0.00    -0.351 N 
ATOM      4  C   UNL A   1      46.144  41.054  29.995  1.00  0.00     0.268 C 
ATOM      5  O   UNL A   1      46.553  41.974  30.702  1.00  0.00    -0.268 OA
ATOM      6  H   UNL A   1      47.597  39.832  30.662  1.00  0.00     0.163 HD
BRANCH   4   7
ATOM      7  C   UNL A   1      44.967  41.214  29.165  1.00  0.00     0.112 A 
ATOM      8  C   UNL A   1      43.632  40.807  29.255  1.00  0.00     0.014 A 
ATOM      9  C   UNL A   1      43.118  40.878  27.899  1.00  0.00     0.008 A 
ATOM     10  N   UNL A   1      44.987  42.073  28.095  1.00  0.00    -0.350 N 
ATOM     11  C   UNL A   1      44.016  41.698  27.209  1.00  0.00     0.050 A 
ATOM     12  C   UNL A   1      42.037  40.368  27.127  1.00  0.00     0.015 A 
ATOM     13  H   UNL A   1      45.600  42.835  27.984  1.00  0.00     0.167 HD
ATOM     14  C   UNL A   1      43.919  42.026  25.857  1.00  0.00     0.073 A 
ATOM     15  C   UNL A   1      41.967  40.634  25.721  1.00  0.00     0.047 A 
ATOM     16  C   UNL A   1      42.907  41.452  25.097  1.00  0.00     0.120 A 
BRANCH   8  17
ATOM     17  C   UNL A   1      43.137  40.270  30.508  1.00  0.00     0.032 C 
ATOM     18  N   UNL A   1      43.578  41.993  33.581  1.00  0.00    -0.261 N 
ATOM     19  C   UNL A   1      43.205  40.785  32.961  1.00  0.00     0.270 C 
ATOM     20  C   UNL A   1      43.189  43.155  32.943  1.00  0.00     0.152 C 
ATOM     21  O   UNL A   1      43.275  39.651  33.415  1.00  0.00    -0.268 OA
ATOM     22  C   UNL A   1      42.778  41.073  31.546  1.00  0.00     0.081 C 
ATOM     23  S   UNL A   1      42.330  42.744  31.462  1.00  0.00    -0.054 SA
ATOM     24  S   UNL A   1      43.434  44.736  33.421  1.00  0.00    -0.051 S 
BRANCH  18  25
ATOM     25  C   UNL A   1      44.183  41.998  34.870  1.00  0.00     0.051 A 
ATOM     26  C   UNL A   1      45.411  42.777  37.281  1.00  0.00     0.119 A 
ATOM     27  C   UNL A   1      44.051  42.466  37.266  1.00  0.00     0.048 A 
ATOM     28  C   UNL A   1      46.164  42.310  36.182  1.00  0.00     0.048 A 
ATOM     29  C   UNL A   1      43.444  42.048  36.059  1.00  0.00     0.030 A 
ATOM     30  C   UNL A   1      45.559  42.005  34.963  1.00  0.00     0.030 A 
BRANCH  26  31
ATOM     31  O   UNL A   1      45.831  43.731  38.313  1.00  0.00    -0.497 OA
ATOM     32  C   UNL A   1      46.582  45.484  38.942  1.00  0.00     0.278 C 
ENDBRANCH  26  31
ENDBRANCH  18  25
ENDBRANCH   8  17
BRANCH  16  33
ATOM     33  O   UNL A   1      43.036  41.737  23.768  1.00  0.00    -0.497 OA
ATOM     34  C   UNL A   1      41.889  42.094  23.019  1.00  0.00     0.278 C 
ENDBRANCH  16  33
ENDBRANCH   4   7
ENDBRANCH   2   3
ENDBRANCH   1   2
BRANCH   1  35
ATOM     35  C   UNL A   1      47.169  39.201  26.531  1.00  0.00     0.023 C 
BRANCH  35  36
ATOM     36  C   UNL A   1      47.040  38.172  25.387  1.00  0.00     0.116 C 
BRANCH  36  37
ATOM     37  N   UNL A   1      47.376  36.794  25.753  1.00  0.00    -0.352 N 
ATOM     38  C   UNL A   1      46.424  35.784  25.814  1.00  0.00     0.251 C 
ATOM     39  H   UNL A   1      48.312  36.574  25.964  1.00  0.00     0.163 HD
ATOM     40  O   UNL A   1      46.461  34.816  25.064  1.00  0.00    -0.269 OA
BRANCH  38  41
ATOM     41  C   UNL A   1      45.508  35.746  26.967  1.00  0.00     0.039 A 
ATOM     42  C   UNL A   1      45.699  34.354  28.078  1.00  0.00     0.014 A 
ATOM     43  C   UNL A   1      44.163  36.918  27.221  1.00  0.00     0.014 A 
ATOM     44  C   UNL A   1      44.619  34.161  29.483  1.00  0.00     0.010 A 
ATOM     45  C   UNL A   1      43.076  36.742  28.700  1.00  0.00     0.010 A 
ATOM     46  C   UNL A   1      43.343  35.387  29.875  1.00  0.00    -0.014 A 
BRANCH  46  47
ATOM     47  C   UNL A   1      42.696  35.302  31.238  1.00  0.00     0.031 A 
ATOM     48  C   UNL A   1      41.321  34.718  31.450  1.00  0.00     0.074 A 
ATOM     49  C   UNL A   1      43.331  35.813  32.324  1.00  0.00     0.049 A 
ATOM     50  N   UNL A   1      40.607  34.652  32.551  1.00  0.00    -0.248 NA
ATOM     51  C   UNL A   1      40.625  34.194  30.270  1.00  0.00     0.031 C 
ATOM     52  C   UNL A   1      44.602  36.541  32.319  1.00  0.00     0.029 A 
ATOM     53  N   UNL A   1      43.009  35.786  33.668  1.00  0.00    -0.354 N 
ATOM     54  C   UNL A   1      39.367  34.149  32.173  1.00  0.00     0.074 A 
ATOM     55  C   UNL A   1      39.400  34.010  30.735  1.00  0.00     0.031 C 
ATOM     56  C   UNL A   1      45.027  36.744  33.572  1.00  0.00     0.029 A 
ATOM     57  C   UNL A   1      43.989  36.305  34.489  1.00  0.00     0.049 A 
ATOM     58  H   UNL A   1      42.157  35.430  34.008  1.00  0.00     0.167 HD
ATOM     59  C   UNL A   1      38.309  33.783  32.941  1.00  0.00     0.031 A 
ATOM     60  C   UNL A   1      44.058  36.454  35.827  1.00  0.00     0.031 A 
ATOM     61  C   UNL A   1      38.280  33.863  34.377  1.00  0.00     0.049 A 
ATOM     62  C   UNL A   1      42.881  36.046  36.663  1.00  0.00     0.074 A 
ATOM     63  C   UNL A   1      37.286  33.450  35.247  1.00  0.00     0.029 A 
ATOM     64  N   UNL A   1      39.300  34.389  35.155  1.00  0.00    -0.354 N 
ATOM     65  N   UNL A   1      41.757  35.490  36.285  1.00  0.00    -0.248 NA
ATOM     66  C   UNL A   1      42.976  36.299  38.108  1.00  0.00     0.031 C 
ATOM     67  C   UNL A   1      37.683  33.774  36.549  1.00  0.00     0.029 A 
ATOM     68  C   UNL A   1      38.947  34.339  36.494  1.00  0.00     0.049 A 
ATOM     69  H   UNL A   1      40.150  34.746  34.808  1.00  0.00     0.167 HD
ATOM     70  C   UNL A   1      41.016  35.316  37.444  1.00  0.00     0.074 A 
ATOM     71  C   UNL A   1      41.829  35.795  38.543  1.00  0.00     0.031 C 
ATOM     72  C   UNL A   1      39.766  34.812  37.580  1.00  0.00     0.031 A 
BRANCH  59  73
ATOM     73  C   UNL A   1      37.095  33.256  32.217  1.00  0.00    -0.014 A 
ATOM     74  C   UNL A   1      36.987  31.898  31.869  1.00  0.00     0.009 A 
ATOM     75  C   UNL A   1      36.064  34.130  31.839  1.00  0.00     0.009 A 
ATOM     76  C   UNL A   1      35.929  31.447  31.078  1.00  0.00     0.001 A 
ATOM     77  C   UNL A   1      34.983  33.668  31.085  1.00  0.00     0.001 A 
ATOM     78  C   UNL A   1      34.928  32.334  30.684  1.00  0.00     0.000 A 
ENDBRANCH  59  73
BRANCH  60  79
ATOM     79  C   UNL A   1      45.280  37.022  36.469  1.00  0.00    -0.014 A 
ATOM     80  C   UNL A   1      46.344  36.179  36.833  1.00  0.00     0.009 A 
ATOM     81  C   UNL A   1      45.394  38.396  36.736  1.00  0.00     0.009 A 
ATOM     82  C   UNL A   1      47.476  36.692  37.470  1.00  0.00     0.001 A 
ATOM     83  C   UNL A   1      46.543  38.913  37.342  1.00  0.00     0.001 A 
ATOM     84  C   UNL A   1      47.578  38.060  37.719  1.00  0.00     0.000 A 
ENDBRANCH  60  79
BRANCH  72  85
ATOM     85  C   UNL A   1      39.202  34.731  38.970  1.00  0.00    -0.014 A 
ATOM     86  C   UNL A   1      39.063  33.498  39.624  1.00  0.00     0.009 A 
ATOM     87  C   UNL A   1      38.878  35.910  39.659  1.00  0.00     0.009 A 
ATOM     88  C   UNL A   1      38.596  33.446  40.938  1.00  0.00     0.001 A 
ATOM     89  C   UNL A   1      38.441  35.858  40.983  1.00  0.00     0.001 A 
ATOM     90  C   UNL A   1      38.296  34.626  41.619  1.00  0.00     0.000 A 
ENDBRANCH  72  85
ENDBRANCH  46  47
ENDBRANCH  38  41
ENDBRANCH  36  37
ENDBRANCH  35  36
ENDBRANCH   1  35
TORSDOF 15
ENDMDL
