MODEL 1
REMARK VINA RESULT:     -12.4      0.000      0.000
REMARK SMILES Cc1ncc(CC(=O)N2CCc3c(c(C(=O)NCCCCNC(=O)c4ccc(-c5c6nc(c(-c7ccccc7)c7ccc([nH]7)c(-c7ccccc7)c7nc(c(-c8ccccc8)c8ccc5[nH]8)C=C7)C=C6)cc4)nn3CC3CC3)C2)c(=O)[nH]1
REMARK SMILES IDX 19 1 18 2 17 3 15 4 16 5 14 7 9 8 10 9 79 10 11 11 13 12
REMARK SMILES IDX 12 13 74 14 73 15 7 16 8 17 6 18 5 19 1 20 2 21 3 22 82 23
REMARK SMILES IDX 4 24 80 25 81 27 75 28 76 29 77 30 78 31 20 32 21 33 22 34
REMARK SMILES IDX 23 35 24 37 25 38 26 39 72 40 27 41 71 42 28 43 29 44 30 45
REMARK SMILES IDX 65 46 31 47 70 48 64 49 66 50 32 51 69 52 63 53 62 54 33 56
REMARK SMILES IDX 55 57 40 58 54 59 41 60 44 61 53 62 67 63 42 64 43 65 52 67
REMARK SMILES IDX 68 68 45 69 34 70 35 71 39 72 36 73 38 74 37 75 56 76 57 77
REMARK SMILES IDX 61 78 58 79 60 80 59 81 46 82 47 83 51 84 48 85 50 86 49 87
REMARK H PARENT 17 6 82 26 22 36 66 55 44 66
REMARK Flexibility Score: inf
ROOT
ATOM      1  C   UNL A   1      35.322  29.937  27.496  1.00  0.00     0.023 C 
ENDROOT
BRANCH   1   2
ATOM      2  C   UNL A   1      34.503  28.770  26.925  1.00  0.00     0.116 C 
BRANCH   2   3
ATOM      3  N   UNL A   1      33.233  28.563  27.612  1.00  0.00    -0.351 N 
ATOM      4  C   UNL A   1      31.962  28.273  27.140  1.00  0.00     0.272 C 
ATOM      5  O   UNL A   1      31.074  28.135  27.986  1.00  0.00    -0.267 OA
ATOM      6  H   UNL A   1      33.288  28.644  28.591  1.00  0.00     0.163 HD
BRANCH   4   7
ATOM      7  C   UNL A   1      31.663  28.164  25.698  1.00  0.00     0.155 A 
ATOM      8  N   UNL A   1      32.598  24.988  23.807  1.00  0.00    -0.338 N 
ATOM      9  C   UNL A   1      31.412  25.056  22.937  1.00  0.00     0.126 C 
ATOM     10  C   UNL A   1      32.442  25.660  25.123  1.00  0.00     0.159 C 
ATOM     11  C   UNL A   1      31.166  26.495  22.459  1.00  0.00     0.078 C 
ATOM     12  C   UNL A   1      31.849  27.019  24.859  1.00  0.00     0.026 A 
ATOM     13  C   UNL A   1      31.288  27.378  23.646  1.00  0.00     0.046 A 
ATOM     14  N   UNL A   1      30.895  28.669  23.759  1.00  0.00    -0.268 N 
ATOM     15  N   UNL A   1      31.151  29.177  24.973  1.00  0.00    -0.167 NA
BRANCH   8  16
ATOM     16  C   UNL A   1      33.802  24.369  23.519  1.00  0.00     0.227 C 
ATOM     17  O   UNL A   1      34.273  24.428  22.376  1.00  0.00    -0.275 OA
BRANCH  16  18
ATOM     18  C   UNL A   1      34.428  23.359  24.506  1.00  0.00     0.143 C 
BRANCH  18  19
ATOM     19  C   UNL A   1      34.018  21.927  24.499  1.00  0.00     0.045 A 
ATOM     20  C   UNL A   1      32.689  17.938  24.940  1.00  0.00     0.087 C 
ATOM     21  C   UNL A   1      33.152  19.345  24.703  1.00  0.00     0.105 A 
ATOM     22  N   UNL A   1      32.424  20.180  24.036  1.00  0.00    -0.243 NA
ATOM     23  N   UNL A   1      34.357  19.674  25.255  1.00  0.00    -0.311 N 
ATOM     24  C   UNL A   1      32.899  21.460  23.927  1.00  0.00     0.123 A 
ATOM     25  C   UNL A   1      34.879  20.935  25.177  1.00  0.00     0.254 A 
ATOM     26  H   UNL A   1      34.870  18.976  25.724  1.00  0.00     0.171 HD
ATOM     27  O   UNL A   1      35.956  21.227  25.673  1.00  0.00    -0.269 OA
ENDBRANCH  18  19
ENDBRANCH  16  18
ENDBRANCH   8  16
BRANCH  14  28
ATOM     28  C   UNL A   1      30.271  29.514  22.748  1.00  0.00     0.148 C 
BRANCH  28  29
ATOM     29  C   UNL A   1      28.770  29.410  22.677  1.00  0.00     0.011 C 
ATOM     30  C   UNL A   1      27.804  30.468  23.169  1.00  0.00     0.006 C 
ATOM     31  C   UNL A   1      28.016  30.277  21.695  1.00  0.00     0.006 C 
ENDBRANCH  28  29
ENDBRANCH  14  28
ENDBRANCH   4   7
ENDBRANCH   2   3
ENDBRANCH   1   2
BRANCH   1  32
ATOM     32  C   UNL A   1      34.541  31.217  27.836  1.00  0.00     0.023 C 
BRANCH  32  33
ATOM     33  C   UNL A   1      35.390  32.374  28.346  1.00  0.00     0.116 C 
BRANCH  33  34
ATOM     34  N   UNL A   1      35.042  32.841  29.697  1.00  0.00    -0.352 N 
ATOM     35  C   UNL A   1      35.343  32.240  30.918  1.00  0.00     0.251 C 
ATOM     36  H   UNL A   1      34.534  33.683  29.745  1.00  0.00     0.163 HD
ATOM     37  O   UNL A   1      34.721  32.497  31.936  1.00  0.00    -0.269 OA
BRANCH  35  38
ATOM     38  C   UNL A   1      36.471  31.292  30.952  1.00  0.00     0.039 A 
ATOM     39  C   UNL A   1      36.338  29.902  30.864  1.00  0.00     0.014 A 
ATOM     40  C   UNL A   1      37.722  31.881  31.000  1.00  0.00     0.014 A 
ATOM     41  C   UNL A   1      37.497  29.132  30.750  1.00  0.00     0.010 A 
ATOM     42  C   UNL A   1      38.795  31.170  30.566  1.00  0.00     0.010 A 
ATOM     43  C   UNL A   1      38.725  29.788  30.596  1.00  0.00    -0.014 A 
BRANCH  43  44
ATOM     44  C   UNL A   1      40.001  29.108  30.453  1.00  0.00     0.031 A 
ATOM     45  C   UNL A   1      40.721  28.816  31.715  1.00  0.00     0.074 A 
ATOM     46  C   UNL A   1      40.333  28.504  29.287  1.00  0.00     0.049 A 
ATOM     47  N   UNL A   1      41.867  29.276  32.085  1.00  0.00    -0.248 NA
ATOM     48  C   UNL A   1      40.051  27.990  32.732  1.00  0.00     0.031 C 
ATOM     49  C   UNL A   1      39.542  28.388  28.048  1.00  0.00     0.029 A 
ATOM     50  N   UNL A   1      41.390  27.700  29.027  1.00  0.00    -0.354 N 
ATOM     51  C   UNL A   1      42.158  28.659  33.296  1.00  0.00     0.074 A 
ATOM     52  C   UNL A   1      40.939  28.023  33.729  1.00  0.00     0.031 C 
ATOM     53  C   UNL A   1      40.005  27.353  27.313  1.00  0.00     0.029 A 
ATOM     54  C   UNL A   1      41.224  26.866  27.928  1.00  0.00     0.049 A 
ATOM     55  H   UNL A   1      42.210  27.705  29.571  1.00  0.00     0.167 HD
ATOM     56  C   UNL A   1      43.442  28.515  33.732  1.00  0.00     0.031 A 
ATOM     57  C   UNL A   1      42.008  25.815  27.588  1.00  0.00     0.031 A 
ATOM     58  C   UNL A   1      44.364  29.296  32.946  1.00  0.00     0.049 A 
ATOM     59  C   UNL A   1      43.304  26.001  28.290  1.00  0.00     0.074 A 
ATOM     60  C   UNL A   1      44.479  30.638  32.640  1.00  0.00     0.029 A 
ATOM     61  N   UNL A   1      45.092  28.632  31.984  1.00  0.00    -0.354 N 
ATOM     62  N   UNL A   1      44.114  26.992  28.033  1.00  0.00    -0.248 NA
ATOM     63  C   UNL A   1      43.455  25.402  29.608  1.00  0.00     0.031 C 
ATOM     64  C   UNL A   1      44.798  30.662  31.248  1.00  0.00     0.029 A 
ATOM     65  C   UNL A   1      44.947  29.341  30.818  1.00  0.00     0.049 A 
ATOM     66  H   UNL A   1      45.615  27.807  32.109  1.00  0.00     0.167 HD
ATOM     67  C   UNL A   1      44.551  27.427  29.278  1.00  0.00     0.074 A 
ATOM     68  C   UNL A   1      44.188  26.351  30.203  1.00  0.00     0.031 C 
ATOM     69  C   UNL A   1      44.882  28.735  29.506  1.00  0.00     0.031 A 
BRANCH  56  70
ATOM     70  C   UNL A   1      43.916  27.375  34.592  1.00  0.00    -0.014 A 
ATOM     71  C   UNL A   1      44.000  26.091  34.025  1.00  0.00     0.009 A 
ATOM     72  C   UNL A   1      44.011  27.459  35.994  1.00  0.00     0.009 A 
ATOM     73  C   UNL A   1      44.101  24.948  34.826  1.00  0.00     0.001 A 
ATOM     74  C   UNL A   1      44.154  26.322  36.794  1.00  0.00     0.001 A 
ATOM     75  C   UNL A   1      44.169  25.064  36.211  1.00  0.00     0.000 A 
ENDBRANCH  56  70
BRANCH  57  76
ATOM     76  C   UNL A   1      41.587  24.540  26.963  1.00  0.00    -0.014 A 
ATOM     77  C   UNL A   1      42.481  23.765  26.210  1.00  0.00     0.009 A 
ATOM     78  C   UNL A   1      40.352  23.955  27.306  1.00  0.00     0.009 A 
ATOM     79  C   UNL A   1      42.162  22.448  25.841  1.00  0.00     0.001 A 
ATOM     80  C   UNL A   1      40.031  22.644  26.937  1.00  0.00     0.001 A 
ATOM     81  C   UNL A   1      40.943  21.885  26.215  1.00  0.00     0.000 A 
ENDBRANCH  57  76
BRANCH  69  82
ATOM     82  C   UNL A   1      44.914  29.689  28.331  1.00  0.00    -0.014 A 
ATOM     83  C   UNL A   1      43.773  30.368  27.863  1.00  0.00     0.009 A 
ATOM     84  C   UNL A   1      46.159  30.062  27.807  1.00  0.00     0.009 A 
ATOM     85  C   UNL A   1      43.874  31.366  26.887  1.00  0.00     0.001 A 
ATOM     86  C   UNL A   1      46.265  31.071  26.846  1.00  0.00     0.001 A 
ATOM     87  C   UNL A   1      45.122  31.721  26.383  1.00  0.00     0.000 A 
ENDBRANCH  69  82
ENDBRANCH  43  44
ENDBRANCH  35  38
ENDBRANCH  33  34
ENDBRANCH  32  33
ENDBRANCH   1  32
TORSDOF 16
ENDMDL
MODEL 2
REMARK VINA RESULT:     -12.3      2.251      8.458
REMARK SMILES Cc1ncc(CC(=O)N2CCc3c(c(C(=O)NCCCCNC(=O)c4ccc(-c5c6nc(c(-c7ccccc7)c7ccc([nH]7)c(-c7ccccc7)c7nc(c(-c8ccccc8)c8ccc5[nH]8)C=C7)C=C6)cc4)nn3CC3CC3)C2)c(=O)[nH]1
REMARK SMILES IDX 19 1 18 2 17 3 15 4 16 5 14 7 9 8 10 9 79 10 11 11 13 12
REMARK SMILES IDX 12 13 74 14 73 15 7 16 8 17 6 18 5 19 1 20 2 21 3 22 82 23
REMARK SMILES IDX 4 24 80 25 81 27 75 28 76 29 77 30 78 31 20 32 21 33 22 34
REMARK SMILES IDX 23 35 24 37 25 38 26 39 72 40 27 41 71 42 28 43 29 44 30 45
REMARK SMILES IDX 65 46 31 47 70 48 64 49 66 50 32 51 69 52 63 53 62 54 33 56
REMARK SMILES IDX 55 57 40 58 54 59 41 60 44 61 53 62 67 63 42 64 43 65 52 67
REMARK SMILES IDX 68 68 45 69 34 70 35 71 39 72 36 73 38 74 37 75 56 76 57 77
REMARK SMILES IDX 61 78 58 79 60 80 59 81 46 82 47 83 51 84 48 85 50 86 49 87
REMARK H PARENT 17 6 82 26 22 36 66 55 44 66
REMARK Flexibility Score: inf
ROOT
ATOM      1  C   UNL A   1      39.163  21.891  26.044  1.00  0.00     0.023 C 
ENDROOT
BRANCH   1   2
ATOM      2  C   UNL A   1      37.744  22.454  25.867  1.00  0.00     0.116 C 
BRANCH   2   3
ATOM      3  N   UNL A   1      37.437  22.825  24.490  1.00  0.00    -0.351 N 
ATOM      4  C   UNL A   1      36.288  22.682  23.728  1.00  0.00     0.272 C 
ATOM      5  O   UNL A   1      36.329  23.120  22.576  1.00  0.00    -0.267 OA
ATOM      6  H   UNL A   1      38.182  23.257  24.015  1.00  0.00     0.163 HD
BRANCH   4   7
ATOM      7  C   UNL A   1      35.079  22.010  24.244  1.00  0.00     0.155 A 
ATOM      8  N   UNL A   1      31.988  24.073  25.099  1.00  0.00    -0.338 N 
ATOM      9  C   UNL A   1      31.059  23.020  24.655  1.00  0.00     0.126 C 
ATOM     10  C   UNL A   1      33.326  24.033  24.454  1.00  0.00     0.159 C 
ATOM     11  C   UNL A   1      31.530  21.638  25.134  1.00  0.00     0.078 C 
ATOM     12  C   UNL A   1      33.807  22.607  24.519  1.00  0.00     0.026 A 
ATOM     13  C   UNL A   1      32.982  21.543  24.839  1.00  0.00     0.046 A 
ATOM     14  N   UNL A   1      33.753  20.430  24.837  1.00  0.00    -0.268 N 
ATOM     15  N   UNL A   1      35.030  20.694  24.526  1.00  0.00    -0.167 NA
BRANCH   8  16
ATOM     16  C   UNL A   1      31.732  25.067  26.029  1.00  0.00     0.227 C 
ATOM     17  O   UNL A   1      31.655  24.787  27.231  1.00  0.00    -0.275 OA
BRANCH  16  18
ATOM     18  C   UNL A   1      31.245  26.462  25.579  1.00  0.00     0.143 C 
BRANCH  18  19
ATOM     19  C   UNL A   1      31.971  27.696  25.991  1.00  0.00     0.045 A 
ATOM     20  C   UNL A   1      33.637  31.297  27.451  1.00  0.00     0.087 C 
ATOM     21  C   UNL A   1      33.121  29.992  26.919  1.00  0.00     0.105 A 
ATOM     22  N   UNL A   1      33.517  28.868  27.421  1.00  0.00    -0.243 NA
ATOM     23  N   UNL A   1      32.207  30.083  25.909  1.00  0.00    -0.311 N 
ATOM     24  C   UNL A   1      32.942  27.733  26.915  1.00  0.00     0.123 A 
ATOM     25  C   UNL A   1      31.602  28.984  25.367  1.00  0.00     0.254 A 
ATOM     26  H   UNL A   1      31.976  30.973  25.557  1.00  0.00     0.171 HD
ATOM     27  O   UNL A   1      30.783  29.067  24.465  1.00  0.00    -0.269 OA
ENDBRANCH  18  19
ENDBRANCH  16  18
ENDBRANCH   8  16
BRANCH  14  28
ATOM     28  C   UNL A   1      33.359  19.059  25.137  1.00  0.00     0.148 C 
BRANCH  28  29
ATOM     29  C   UNL A   1      34.175  18.001  24.441  1.00  0.00     0.011 C 
ATOM     30  C   UNL A   1      33.788  16.540  24.333  1.00  0.00     0.006 C 
ATOM     31  C   UNL A   1      33.682  17.432  23.131  1.00  0.00     0.006 C 
ENDBRANCH  28  29
ENDBRANCH  14  28
ENDBRANCH   4   7
ENDBRANCH   2   3
ENDBRANCH   1   2
BRANCH   1  32
ATOM     32  C   UNL A   1      39.425  20.501  25.444  1.00  0.00     0.023 C 
BRANCH  32  33
ATOM     33  C   UNL A   1      40.033  19.487  26.405  1.00  0.00     0.116 C 
BRANCH  33  34
ATOM     34  N   UNL A   1      41.283  18.869  25.936  1.00  0.00    -0.352 N 
ATOM     35  C   UNL A   1      42.482  19.500  25.605  1.00  0.00     0.251 C 
ATOM     36  H   UNL A   1      41.273  17.889  25.845  1.00  0.00     0.163 HD
ATOM     37  O   UNL A   1      43.321  18.963  24.900  1.00  0.00    -0.269 OA
BRANCH  35  38
ATOM     38  C   UNL A   1      42.723  20.842  26.163  1.00  0.00     0.039 A 
ATOM     39  C   UNL A   1      43.045  21.969  25.399  1.00  0.00     0.014 A 
ATOM     40  C   UNL A   1      42.531  20.945  27.529  1.00  0.00     0.014 A 
ATOM     41  C   UNL A   1      43.093  23.211  26.037  1.00  0.00     0.010 A 
ATOM     42  C   UNL A   1      42.260  22.166  28.060  1.00  0.00     0.010 A 
ATOM     43  C   UNL A   1      42.689  23.291  27.376  1.00  0.00    -0.014 A 
BRANCH  43  44
ATOM     44  C   UNL A   1      42.676  24.520  28.151  1.00  0.00     0.031 A 
ATOM     45  C   UNL A   1      41.481  25.378  27.979  1.00  0.00     0.074 A 
ATOM     46  C   UNL A   1      43.534  24.691  29.186  1.00  0.00     0.049 A 
ATOM     47  N   UNL A   1      41.439  26.573  27.497  1.00  0.00    -0.248 NA
ATOM     48  C   UNL A   1      40.158  24.812  28.290  1.00  0.00     0.031 C 
ATOM     49  C   UNL A   1      44.540  23.754  29.718  1.00  0.00     0.029 A 
ATOM     50  N   UNL A   1      43.557  25.685  30.104  1.00  0.00    -0.354 N 
ATOM     51  C   UNL A   1      40.118  26.990  27.612  1.00  0.00     0.074 A 
ATOM     52  C   UNL A   1      39.350  25.814  27.936  1.00  0.00     0.031 C 
ATOM     53  C   UNL A   1      44.846  24.095  30.988  1.00  0.00     0.029 A 
ATOM     54  C   UNL A   1      44.213  25.364  31.285  1.00  0.00     0.049 A 
ATOM     55  H   UNL A   1      43.145  26.565  29.947  1.00  0.00     0.167 HD
ATOM     56  C   UNL A   1      39.791  28.312  27.670  1.00  0.00     0.031 A 
ATOM     57  C   UNL A   1      44.184  26.071  32.441  1.00  0.00     0.031 A 
ATOM     58  C   UNL A   1      40.910  29.155  27.328  1.00  0.00     0.049 A 
ATOM     59  C   UNL A   1      43.746  27.447  32.093  1.00  0.00     0.074 A 
ATOM     60  C   UNL A   1      41.733  29.272  26.225  1.00  0.00     0.029 A 
ATOM     61  N   UNL A   1      41.596  29.743  28.368  1.00  0.00    -0.354 N 
ATOM     62  N   UNL A   1      44.454  28.248  31.344  1.00  0.00    -0.248 NA
ATOM     63  C   UNL A   1      42.320  27.738  32.138  1.00  0.00     0.031 C 
ATOM     64  C   UNL A   1      43.044  29.421  26.771  1.00  0.00     0.029 A 
ATOM     65  C   UNL A   1      42.927  29.479  28.162  1.00  0.00     0.049 A 
ATOM     66  H   UNL A   1      41.207  30.253  29.115  1.00  0.00     0.167 HD
ATOM     67  C   UNL A   1      43.534  28.844  30.491  1.00  0.00     0.074 A 
ATOM     68  C   UNL A   1      42.227  28.564  31.090  1.00  0.00     0.031 C 
ATOM     69  C   UNL A   1      43.878  29.239  29.226  1.00  0.00     0.031 A 
BRANCH  56  70
ATOM     70  C   UNL A   1      38.600  28.854  28.414  1.00  0.00    -0.014 A 
ATOM     71  C   UNL A   1      37.809  29.838  27.796  1.00  0.00     0.009 A 
ATOM     72  C   UNL A   1      38.396  28.644  29.790  1.00  0.00     0.009 A 
ATOM     73  C   UNL A   1      36.912  30.619  28.534  1.00  0.00     0.001 A 
ATOM     74  C   UNL A   1      37.470  29.393  30.522  1.00  0.00     0.001 A 
ATOM     75  C   UNL A   1      36.749  30.401  29.899  1.00  0.00     0.000 A 
ENDBRANCH  56  70
BRANCH  57  76
ATOM     76  C   UNL A   1      44.207  25.540  33.824  1.00  0.00    -0.014 A 
ATOM     77  C   UNL A   1      44.803  26.257  34.871  1.00  0.00     0.009 A 
ATOM     78  C   UNL A   1      43.424  24.420  34.168  1.00  0.00     0.009 A 
ATOM     79  C   UNL A   1      44.599  25.884  36.210  1.00  0.00     0.001 A 
ATOM     80  C   UNL A   1      43.223  24.045  35.500  1.00  0.00     0.001 A 
ATOM     81  C   UNL A   1      43.800  24.786  36.523  1.00  0.00     0.000 A 
ENDBRANCH  57  76
BRANCH  69  82
ATOM     82  C   UNL A   1      45.331  29.156  28.813  1.00  0.00    -0.014 A 
ATOM     83  C   UNL A   1      46.237  30.221  28.977  1.00  0.00     0.009 A 
ATOM     84  C   UNL A   1      45.848  27.911  28.430  1.00  0.00     0.009 A 
ATOM     85  C   UNL A   1      47.606  30.051  28.741  1.00  0.00     0.001 A 
ATOM     86  C   UNL A   1      47.216  27.733  28.212  1.00  0.00     0.001 A 
ATOM     87  C   UNL A   1      48.096  28.803  28.363  1.00  0.00     0.000 A 
ENDBRANCH  69  82
ENDBRANCH  43  44
ENDBRANCH  35  38
ENDBRANCH  33  34
ENDBRANCH  32  33
ENDBRANCH   1  32
TORSDOF 16
ENDMDL
MODEL 3
REMARK VINA RESULT:     -12.3      2.464      5.985
REMARK SMILES Cc1ncc(CC(=O)N2CCc3c(c(C(=O)NCCCCNC(=O)c4ccc(-c5c6nc(c(-c7ccccc7)c7ccc([nH]7)c(-c7ccccc7)c7nc(c(-c8ccccc8)c8ccc5[nH]8)C=C7)C=C6)cc4)nn3CC3CC3)C2)c(=O)[nH]1
REMARK SMILES IDX 19 1 18 2 17 3 15 4 16 5 14 7 9 8 10 9 79 10 11 11 13 12
REMARK SMILES IDX 12 13 74 14 73 15 7 16 8 17 6 18 5 19 1 20 2 21 3 22 82 23
REMARK SMILES IDX 4 24 80 25 81 27 75 28 76 29 77 30 78 31 20 32 21 33 22 34
REMARK SMILES IDX 23 35 24 37 25 38 26 39 72 40 27 41 71 42 28 43 29 44 30 45
REMARK SMILES IDX 65 46 31 47 70 48 64 49 66 50 32 51 69 52 63 53 62 54 33 56
REMARK SMILES IDX 55 57 40 58 54 59 41 60 44 61 53 62 67 63 42 64 43 65 52 67
REMARK SMILES IDX 68 68 45 69 34 70 35 71 39 72 36 73 38 74 37 75 56 76 57 77
REMARK SMILES IDX 61 78 58 79 60 80 59 81 46 82 47 83 51 84 48 85 50 86 49 87
REMARK H PARENT 17 6 82 26 22 36 66 55 44 66
REMARK Flexibility Score: inf
ROOT
ATOM      1  C   UNL A   1      34.248  31.185  27.684  1.00  0.00     0.023 C 
ENDROOT
BRANCH   1   2
ATOM      2  C   UNL A   1      33.852  29.912  26.921  1.00  0.00     0.116 C 
BRANCH   2   3
ATOM      3  N   UNL A   1      32.789  29.154  27.572  1.00  0.00    -0.351 N 
ATOM      4  C   UNL A   1      31.762  28.376  27.062  1.00  0.00     0.272 C 
ATOM      5  O   UNL A   1      31.016  27.834  27.882  1.00  0.00    -0.267 OA
ATOM      6  H   UNL A   1      32.805  29.203  28.555  1.00  0.00     0.163 HD
BRANCH   4   7
ATOM      7  C   UNL A   1      31.538  28.221  25.610  1.00  0.00     0.155 A 
ATOM      8  N   UNL A   1      32.781  25.087  23.829  1.00  0.00    -0.338 N 
ATOM      9  C   UNL A   1      31.634  25.055  22.906  1.00  0.00     0.126 C 
ATOM     10  C   UNL A   1      32.518  25.770  25.123  1.00  0.00     0.159 C 
ATOM     11  C   UNL A   1      31.309  26.464  22.388  1.00  0.00     0.078 C 
ATOM     12  C   UNL A   1      31.843  27.078  24.805  1.00  0.00     0.026 A 
ATOM     13  C   UNL A   1      31.314  27.374  23.560  1.00  0.00     0.046 A 
ATOM     14  N   UNL A   1      30.826  28.636  23.629  1.00  0.00    -0.268 N 
ATOM     15  N   UNL A   1      30.990  29.182  24.843  1.00  0.00    -0.167 NA
BRANCH   8  16
ATOM     16  C   UNL A   1      34.039  24.551  23.608  1.00  0.00     0.227 C 
ATOM     17  O   UNL A   1      34.296  23.995  22.533  1.00  0.00    -0.275 OA
BRANCH  16  18
ATOM     18  C   UNL A   1      35.035  24.366  24.774  1.00  0.00     0.143 C 
BRANCH  18  19
ATOM     19  C   UNL A   1      35.777  23.087  24.951  1.00  0.00     0.045 A 
ATOM     20  C   UNL A   1      37.695  19.319  25.012  1.00  0.00     0.087 C 
ATOM     21  C   UNL A   1      37.074  20.685  25.039  1.00  0.00     0.105 A 
ATOM     22  N   UNL A   1      37.754  21.731  24.700  1.00  0.00    -0.243 NA
ATOM     23  N   UNL A   1      35.761  20.732  25.414  1.00  0.00    -0.311 N 
ATOM     24  C   UNL A   1      37.083  22.925  24.693  1.00  0.00     0.123 A 
ATOM     25  C   UNL A   1      35.043  21.894  25.424  1.00  0.00     0.254 A 
ATOM     26  H   UNL A   1      35.316  19.897  25.688  1.00  0.00     0.171 HD
ATOM     27  O   UNL A   1      33.869  21.934  25.758  1.00  0.00    -0.269 OA
ENDBRANCH  18  19
ENDBRANCH  16  18
ENDBRANCH   8  16
BRANCH  14  28
ATOM     28  C   UNL A   1      30.191  29.415  22.574  1.00  0.00     0.148 C 
BRANCH  28  29
ATOM     29  C   UNL A   1      28.693  29.528  22.686  1.00  0.00     0.011 C 
ATOM     30  C   UNL A   1      27.950  30.760  23.162  1.00  0.00     0.006 C 
ATOM     31  C   UNL A   1      27.943  30.400  21.705  1.00  0.00     0.006 C 
ENDBRANCH  28  29
ENDBRANCH  14  28
ENDBRANCH   4   7
ENDBRANCH   2   3
ENDBRANCH   1   2
BRANCH   1  32
ATOM     32  C   UNL A   1      33.097  32.118  28.098  1.00  0.00     0.023 C 
BRANCH  32  33
ATOM     33  C   UNL A   1      32.949  33.374  27.250  1.00  0.00     0.116 C 
BRANCH  33  34
ATOM     34  N   UNL A   1      32.663  34.599  28.013  1.00  0.00    -0.352 N 
ATOM     35  C   UNL A   1      33.177  34.980  29.251  1.00  0.00     0.251 C 
ATOM     36  H   UNL A   1      32.030  35.229  27.597  1.00  0.00     0.163 HD
ATOM     37  O   UNL A   1      32.624  35.811  29.953  1.00  0.00    -0.269 OA
BRANCH  35  38
ATOM     38  C   UNL A   1      34.444  34.363  29.682  1.00  0.00     0.039 A 
ATOM     39  C   UNL A   1      34.585  33.560  30.819  1.00  0.00     0.014 A 
ATOM     40  C   UNL A   1      35.510  34.568  28.825  1.00  0.00     0.014 A 
ATOM     41  C   UNL A   1      35.805  32.911  31.025  1.00  0.00     0.010 A 
ATOM     42  C   UNL A   1      36.550  33.694  28.856  1.00  0.00     0.010 A 
ATOM     43  C   UNL A   1      36.780  32.985  30.023  1.00  0.00    -0.014 A 
BRANCH  43  44
ATOM     44  C   UNL A   1      38.083  32.346  30.103  1.00  0.00     0.031 A 
ATOM     45  C   UNL A   1      38.143  30.944  29.628  1.00  0.00     0.074 A 
ATOM     46  C   UNL A   1      39.202  33.085  30.288  1.00  0.00     0.049 A 
ATOM     47  N   UNL A   1      38.426  29.895  30.322  1.00  0.00    -0.248 NA
ATOM     48  C   UNL A   1      37.750  30.654  28.239  1.00  0.00     0.031 C 
ATOM     49  C   UNL A   1      39.337  34.549  30.402  1.00  0.00     0.029 A 
ATOM     50  N   UNL A   1      40.494  32.684  30.229  1.00  0.00    -0.354 N 
ATOM     51  C   UNL A   1      38.433  28.830  29.428  1.00  0.00     0.074 A 
ATOM     52  C   UNL A   1      37.841  29.322  28.210  1.00  0.00     0.031 C 
ATOM     53  C   UNL A   1      40.606  34.909  30.115  1.00  0.00     0.029 A 
ATOM     54  C   UNL A   1      41.404  33.705  29.987  1.00  0.00     0.049 A 
ATOM     55  H   UNL A   1      40.767  31.746  30.347  1.00  0.00     0.167 HD
ATOM     56  C   UNL A   1      39.146  27.695  29.677  1.00  0.00     0.031 A 
ATOM     57  C   UNL A   1      42.709  33.560  29.651  1.00  0.00     0.031 A 
ATOM     58  C   UNL A   1      39.621  27.651  31.038  1.00  0.00     0.049 A 
ATOM     59  C   UNL A   1      43.104  32.184  30.048  1.00  0.00     0.074 A 
ATOM     60  C   UNL A   1      39.014  27.700  32.277  1.00  0.00     0.029 A 
ATOM     61  N   UNL A   1      40.938  27.986  31.256  1.00  0.00    -0.354 N 
ATOM     62  N   UNL A   1      43.134  31.786  31.291  1.00  0.00    -0.248 NA
ATOM     63  C   UNL A   1      42.961  31.124  29.060  1.00  0.00     0.031 C 
ATOM     64  C   UNL A   1      39.845  28.568  33.049  1.00  0.00     0.029 A 
ATOM     65  C   UNL A   1      40.948  28.916  32.266  1.00  0.00     0.049 A 
ATOM     66  H   UNL A   1      41.723  27.630  30.779  1.00  0.00     0.167 HD
ATOM     67  C   UNL A   1      42.575  30.515  31.271  1.00  0.00     0.074 A 
ATOM     68  C   UNL A   1      42.576  30.123  29.860  1.00  0.00     0.031 C 
ATOM     69  C   UNL A   1      41.882  30.019  32.342  1.00  0.00     0.031 A 
BRANCH  56  70
ATOM     70  C   UNL A   1      39.753  26.829  28.607  1.00  0.00    -0.014 A 
ATOM     71  C   UNL A   1      40.616  27.422  27.669  1.00  0.00     0.009 A 
ATOM     72  C   UNL A   1      39.293  25.531  28.317  1.00  0.00     0.009 A 
ATOM     73  C   UNL A   1      40.942  26.776  26.471  1.00  0.00     0.001 A 
ATOM     74  C   UNL A   1      39.651  24.866  27.142  1.00  0.00     0.001 A 
ATOM     75  C   UNL A   1      40.452  25.500  26.205  1.00  0.00     0.000 A 
ENDBRANCH  56  70
BRANCH  57  76
ATOM     76  C   UNL A   1      43.507  34.416  28.744  1.00  0.00    -0.014 A 
ATOM     77  C   UNL A   1      43.416  34.286  27.350  1.00  0.00     0.009 A 
ATOM     78  C   UNL A   1      44.193  35.539  29.247  1.00  0.00     0.009 A 
ATOM     79  C   UNL A   1      43.965  35.257  26.497  1.00  0.00     0.001 A 
ATOM     80  C   UNL A   1      44.743  36.506  28.399  1.00  0.00     0.001 A 
ATOM     81  C   UNL A   1      44.618  36.372  27.022  1.00  0.00     0.000 A 
ENDBRANCH  57  76
BRANCH  69  82
ATOM     82  C   UNL A   1      41.859  30.822  33.624  1.00  0.00    -0.014 A 
ATOM     83  C   UNL A   1      40.996  31.916  33.829  1.00  0.00     0.009 A 
ATOM     84  C   UNL A   1      42.585  30.346  34.724  1.00  0.00     0.009 A 
ATOM     85  C   UNL A   1      40.884  32.525  35.084  1.00  0.00     0.001 A 
ATOM     86  C   UNL A   1      42.461  30.940  35.983  1.00  0.00     0.001 A 
ATOM     87  C   UNL A   1      41.614  32.032  36.163  1.00  0.00     0.000 A 
ENDBRANCH  69  82
ENDBRANCH  43  44
ENDBRANCH  35  38
ENDBRANCH  33  34
ENDBRANCH  32  33
ENDBRANCH   1  32
TORSDOF 16
ENDMDL
