MODEL 1
REMARK VINA RESULT:     -11.0      0.000      0.000
REMARK SMILES C[NH+]1CCC([N@@H+](C)Cc2ccc(C(=O)NCCCCNC(=O)c3ccc(-c4c5nc(c(-c6ccccc6)c6ccc([nH]6)c(-c6ccccc6)c6nc(c(-c7ccccc7)c7ccc4[nH]7)C=C6)C=C5)cc3)cn2)CC1
REMARK SMILES IDX 17 1 16 2 15 3 13 4 14 5 12 7 9 8 10 9 72 10 11 11 71 12
REMARK SMILES IDX 8 13 6 14 7 15 5 17 1 18 2 19 3 20 74 21 4 23 73 24 18 25
REMARK SMILES IDX 19 26 20 27 21 28 22 30 23 31 24 32 70 33 25 34 69 35 26 36
REMARK SMILES IDX 27 37 28 38 63 39 29 40 68 41 62 42 64 43 30 44 67 45 61 46
REMARK SMILES IDX 60 47 31 49 53 50 38 51 52 52 39 53 42 54 51 55 65 56 40 57
REMARK SMILES IDX 41 58 50 60 66 61 43 62 32 63 33 64 37 65 34 66 36 67 35 68
REMARK SMILES IDX 54 69 55 70 59 71 56 72 58 73 57 74 44 75 45 76 49 77 46 78
REMARK SMILES IDX 48 79 47 80
REMARK H PARENT 15 6 6 16 2 22 20 29 64 48 42 59
REMARK Flexibility Score: inf
ROOT
ATOM      1  C   UNL A   1      32.785  29.419  24.902  1.00  0.00     0.023 C 
ENDROOT
BRANCH   1   2
ATOM      2  C   UNL A   1      31.270  29.597  25.013  1.00  0.00     0.116 C 
BRANCH   2   3
ATOM      3  N   UNL A   1      30.689  29.776  23.699  1.00  0.00    -0.352 N 
ATOM      4  C   UNL A   1      30.465  28.910  22.660  1.00  0.00     0.252 C 
ATOM      5  O   UNL A   1      29.970  29.384  21.636  1.00  0.00    -0.269 OA
ATOM      6  H   UNL A   1      30.398  30.699  23.516  1.00  0.00     0.163 HD
BRANCH   4   7
ATOM      7  C   UNL A   1      30.714  27.447  22.727  1.00  0.00     0.058 A 
ATOM      8  C   UNL A   1      31.092  24.765  23.316  1.00  0.00     0.095 A 
ATOM      9  C   UNL A   1      31.931  25.386  22.395  1.00  0.00     0.030 A 
ATOM     10  N   UNL A   1      30.010  25.397  23.831  1.00  0.00    -0.255 NA
ATOM     11  C   UNL A   1      31.725  26.734  22.089  1.00  0.00     0.017 A 
ATOM     12  C   UNL A   1      29.856  26.712  23.538  1.00  0.00     0.125 A 
BRANCH   8  13
ATOM     13  C   UNL A   1      31.434  23.386  23.855  1.00  0.00     0.319 C 
BRANCH  13  14
ATOM     14  N   UNL A   1      32.567  22.670  23.225  1.00  0.00    -0.330 N 
ATOM     15  C   UNL A   1      32.162  21.369  22.692  1.00  0.00     0.333 C 
ATOM     16  H   UNL A   1      32.806  23.289  22.451  1.00  0.00     0.348 HD
BRANCH  14  17
ATOM     17  C   UNL A   1      33.856  22.617  23.953  1.00  0.00     0.195 C 
ATOM     18  C   UNL A   1      37.834  21.491  25.205  1.00  0.00     0.332 C 
ATOM     19  N   UNL A   1      36.565  21.636  24.495  1.00  0.00    -0.337 N 
ATOM     20  C   UNL A   1      36.369  23.028  24.067  1.00  0.00     0.268 C 
ATOM     21  C   UNL A   1      35.442  21.200  25.334  1.00  0.00     0.268 C 
ATOM     22  H   UNL A   1      36.597  21.041  23.667  1.00  0.00     0.347 HD
ATOM     23  C   UNL A   1      35.101  23.158  23.221  1.00  0.00     0.126 C 
ATOM     24  C   UNL A   1      34.139  21.219  24.533  1.00  0.00     0.126 C 
ENDBRANCH  14  17
ENDBRANCH  13  14
ENDBRANCH   8  13
ENDBRANCH   4   7
ENDBRANCH   2   3
ENDBRANCH   1   2
BRANCH   1  25
ATOM     25  C   UNL A   1      33.348  28.294  25.778  1.00  0.00     0.023 C 
BRANCH  25  26
ATOM     26  C   UNL A   1      33.421  28.610  27.269  1.00  0.00     0.116 C 
BRANCH  26  27
ATOM     27  N   UNL A   1      33.442  30.036  27.553  1.00  0.00    -0.352 N 
ATOM     28  C   UNL A   1      34.458  30.800  28.073  1.00  0.00     0.251 C 
ATOM     29  H   UNL A   1      32.613  30.521  27.342  1.00  0.00     0.163 HD
ATOM     30  O   UNL A   1      34.266  31.977  28.346  1.00  0.00    -0.269 OA
BRANCH  28  31
ATOM     31  C   UNL A   1      35.773  30.182  28.340  1.00  0.00     0.039 A 
ATOM     32  C   UNL A   1      36.713  30.147  27.306  1.00  0.00     0.014 A 
ATOM     33  C   UNL A   1      36.088  29.662  29.597  1.00  0.00     0.014 A 
ATOM     34  C   UNL A   1      37.993  29.651  27.555  1.00  0.00     0.010 A 
ATOM     35  C   UNL A   1      37.384  29.231  29.863  1.00  0.00     0.010 A 
ATOM     36  C   UNL A   1      38.350  29.227  28.846  1.00  0.00    -0.014 A 
BRANCH  36  37
ATOM     37  C   UNL A   1      39.743  28.814  29.144  1.00  0.00     0.031 A 
ATOM     38  C   UNL A   1      40.679  29.736  29.873  1.00  0.00     0.074 A 
ATOM     39  C   UNL A   1      40.178  27.613  28.713  1.00  0.00     0.049 A 
ATOM     40  N   UNL A   1      41.922  29.534  30.230  1.00  0.00    -0.248 NA
ATOM     41  C   UNL A   1      40.161  31.067  30.226  1.00  0.00     0.031 C 
ATOM     42  C   UNL A   1      39.384  26.650  27.946  1.00  0.00     0.029 A 
ATOM     43  N   UNL A   1      41.393  26.996  28.864  1.00  0.00    -0.354 N 
ATOM     44  C   UNL A   1      42.336  30.710  30.842  1.00  0.00     0.074 A 
ATOM     45  C   UNL A   1      41.230  31.639  30.760  1.00  0.00     0.031 C 
ATOM     46  C   UNL A   1      40.121  25.549  27.727  1.00  0.00     0.029 A 
ATOM     47  C   UNL A   1      41.445  25.741  28.308  1.00  0.00     0.049 A 
ATOM     48  H   UNL A   1      42.156  27.413  29.326  1.00  0.00     0.167 HD
ATOM     49  C   UNL A   1      43.521  30.985  31.437  1.00  0.00     0.031 A 
ATOM     50  C   UNL A   1      42.445  24.842  28.276  1.00  0.00     0.031 A 
ATOM     51  C   UNL A   1      44.621  30.060  31.518  1.00  0.00     0.049 A 
ATOM     52  C   UNL A   1      43.750  25.171  28.943  1.00  0.00     0.074 A 
ATOM     53  C   UNL A   1      45.841  30.223  32.150  1.00  0.00     0.029 A 
ATOM     54  N   UNL A   1      44.635  28.798  30.943  1.00  0.00    -0.354 N 
ATOM     55  N   UNL A   1      44.095  26.257  29.590  1.00  0.00    -0.248 NA
ATOM     56  C   UNL A   1      44.796  24.141  28.887  1.00  0.00     0.031 C 
ATOM     57  C   UNL A   1      46.613  29.080  31.914  1.00  0.00     0.029 A 
ATOM     58  C   UNL A   1      45.852  28.182  31.184  1.00  0.00     0.049 A 
ATOM     59  H   UNL A   1      43.889  28.398  30.440  1.00  0.00     0.167 HD
ATOM     60  C   UNL A   1      45.392  26.034  30.037  1.00  0.00     0.074 A 
ATOM     61  C   UNL A   1      45.757  24.699  29.609  1.00  0.00     0.031 C 
ATOM     62  C   UNL A   1      46.207  26.860  30.737  1.00  0.00     0.031 A 
BRANCH  49  63
ATOM     63  C   UNL A   1      43.688  32.350  32.043  1.00  0.00    -0.014 A 
ATOM     64  C   UNL A   1      43.371  32.592  33.390  1.00  0.00     0.009 A 
ATOM     65  C   UNL A   1      44.200  33.403  31.268  1.00  0.00     0.009 A 
ATOM     66  C   UNL A   1      43.527  33.867  33.937  1.00  0.00     0.001 A 
ATOM     67  C   UNL A   1      44.383  34.670  31.825  1.00  0.00     0.001 A 
ATOM     68  C   UNL A   1      44.037  34.904  33.155  1.00  0.00     0.000 A 
ENDBRANCH  49  63
BRANCH  50  69
ATOM     69  C   UNL A   1      42.244  23.529  27.608  1.00  0.00    -0.014 A 
ATOM     70  C   UNL A   1      42.601  23.354  26.261  1.00  0.00     0.009 A 
ATOM     71  C   UNL A   1      41.692  22.447  28.311  1.00  0.00     0.009 A 
ATOM     72  C   UNL A   1      42.381  22.131  25.625  1.00  0.00     0.001 A 
ATOM     73  C   UNL A   1      41.501  21.216  27.679  1.00  0.00     0.001 A 
ATOM     74  C   UNL A   1      41.836  21.062  26.334  1.00  0.00     0.000 A 
ENDBRANCH  50  69
BRANCH  62  75
ATOM     75  C   UNL A   1      47.566  26.328  31.094  1.00  0.00    -0.014 A 
ATOM     76  C   UNL A   1      48.656  26.468  30.221  1.00  0.00     0.009 A 
ATOM     77  C   UNL A   1      47.761  25.687  32.327  1.00  0.00     0.009 A 
ATOM     78  C   UNL A   1      49.902  25.936  30.555  1.00  0.00     0.001 A 
ATOM     79  C   UNL A   1      49.016  25.185  32.673  1.00  0.00     0.001 A 
ATOM     80  C   UNL A   1      50.082  25.298  31.782  1.00  0.00     0.000 A 
ENDBRANCH  62  75
ENDBRANCH  36  37
ENDBRANCH  28  31
ENDBRANCH  26  27
ENDBRANCH  25  26
ENDBRANCH   1  25
TORSDOF 14
ENDMDL
MODEL 2
REMARK VINA RESULT:     -10.8      2.946      8.188
REMARK SMILES C[NH+]1CCC([N@@H+](C)Cc2ccc(C(=O)NCCCCNC(=O)c3ccc(-c4c5nc(c(-c6ccccc6)c6ccc([nH]6)c(-c6ccccc6)c6nc(c(-c7ccccc7)c7ccc4[nH]7)C=C6)C=C5)cc3)cn2)CC1
REMARK SMILES IDX 17 1 16 2 15 3 13 4 14 5 12 7 9 8 10 9 72 10 11 11 71 12
REMARK SMILES IDX 8 13 6 14 7 15 5 17 1 18 2 19 3 20 74 21 4 23 73 24 18 25
REMARK SMILES IDX 19 26 20 27 21 28 22 30 23 31 24 32 70 33 25 34 69 35 26 36
REMARK SMILES IDX 27 37 28 38 63 39 29 40 68 41 62 42 64 43 30 44 67 45 61 46
REMARK SMILES IDX 60 47 31 49 53 50 38 51 52 52 39 53 42 54 51 55 65 56 40 57
REMARK SMILES IDX 41 58 50 60 66 61 43 62 32 63 33 64 37 65 34 66 36 67 35 68
REMARK SMILES IDX 54 69 55 70 59 71 56 72 58 73 57 74 44 75 45 76 49 77 46 78
REMARK SMILES IDX 48 79 47 80
REMARK H PARENT 15 6 6 16 2 22 20 29 64 48 42 59
REMARK Flexibility Score: inf
ROOT
ATOM      1  C   UNL A   1      36.766  21.143  24.766  1.00  0.00     0.023 C 
ENDROOT
BRANCH   1   2
ATOM      2  C   UNL A   1      35.288  20.749  24.740  1.00  0.00     0.116 C 
BRANCH   2   3
ATOM      3  N   UNL A   1      34.727  20.815  26.072  1.00  0.00    -0.352 N 
ATOM      4  C   UNL A   1      34.188  21.845  26.800  1.00  0.00     0.252 C 
ATOM      5  O   UNL A   1      33.817  21.583  27.945  1.00  0.00    -0.269 OA
ATOM      6  H   UNL A   1      34.734  19.953  26.549  1.00  0.00     0.163 HD
BRANCH   4   7
ATOM      7  C   UNL A   1      33.964  23.213  26.268  1.00  0.00     0.058 A 
ATOM      8  C   UNL A   1      33.172  25.576  25.054  1.00  0.00     0.095 A 
ATOM      9  C   UNL A   1      34.528  25.275  25.140  1.00  0.00     0.030 A 
ATOM     10  N   UNL A   1      32.234  24.814  25.666  1.00  0.00    -0.255 NA
ATOM     11  C   UNL A   1      34.923  24.090  25.768  1.00  0.00     0.017 A 
ATOM     12  C   UNL A   1      32.646  23.656  26.240  1.00  0.00     0.125 A 
BRANCH   8  13
ATOM     13  C   UNL A   1      32.696  26.716  24.170  1.00  0.00     0.319 C 
BRANCH  13  14
ATOM     14  N   UNL A   1      31.833  26.370  23.017  1.00  0.00    -0.330 N 
ATOM     15  C   UNL A   1      32.617  25.937  21.860  1.00  0.00     0.333 C 
ATOM     16  H   UNL A   1      31.303  25.577  23.377  1.00  0.00     0.348 HD
BRANCH  14  17
ATOM     17  C   UNL A   1      30.739  27.299  22.654  1.00  0.00     0.195 C 
ATOM     18  C   UNL A   1      27.714  30.377  22.852  1.00  0.00     0.332 C 
ATOM     19  N   UNL A   1      28.830  29.474  23.126  1.00  0.00    -0.337 N 
ATOM     20  C   UNL A   1      29.889  29.643  22.122  1.00  0.00     0.268 C 
ATOM     21  C   UNL A   1      28.378  28.078  23.155  1.00  0.00     0.268 C 
ATOM     22  H   UNL A   1      29.209  29.709  24.043  1.00  0.00     0.347 HD
ATOM     23  C   UNL A   1      31.107  28.786  22.474  1.00  0.00     0.126 C 
ATOM     24  C   UNL A   1      29.522  27.156  23.585  1.00  0.00     0.126 C 
ENDBRANCH  14  17
ENDBRANCH  13  14
ENDBRANCH   8  13
ENDBRANCH   4   7
ENDBRANCH   2   3
ENDBRANCH   1   2
BRANCH   1  25
ATOM     25  C   UNL A   1      37.721  19.969  25.010  1.00  0.00     0.023 C 
BRANCH  25  26
ATOM     26  C   UNL A   1      38.932  20.289  25.881  1.00  0.00     0.116 C 
BRANCH  26  27
ATOM     27  N   UNL A   1      39.957  19.259  25.840  1.00  0.00    -0.352 N 
ATOM     28  C   UNL A   1      41.304  19.368  26.084  1.00  0.00     0.251 C 
ATOM     29  H   UNL A   1      39.641  18.357  25.605  1.00  0.00     0.163 HD
ATOM     30  O   UNL A   1      42.043  18.410  25.899  1.00  0.00    -0.269 OA
BRANCH  28  31
ATOM     31  C   UNL A   1      41.862  20.661  26.531  1.00  0.00     0.039 A 
ATOM     32  C   UNL A   1      42.255  21.586  25.561  1.00  0.00     0.014 A 
ATOM     33  C   UNL A   1      41.980  20.969  27.889  1.00  0.00     0.014 A 
ATOM     34  C   UNL A   1      42.701  22.848  25.953  1.00  0.00     0.010 A 
ATOM     35  C   UNL A   1      42.360  22.250  28.277  1.00  0.00     0.010 A 
ATOM     36  C   UNL A   1      42.719  23.203  27.312  1.00  0.00    -0.014 A 
BRANCH  36  37
ATOM     37  C   UNL A   1      43.076  24.582  27.726  1.00  0.00     0.031 A 
ATOM     38  C   UNL A   1      44.512  25.020  27.784  1.00  0.00     0.074 A 
ATOM     39  C   UNL A   1      42.095  25.430  28.096  1.00  0.00     0.049 A 
ATOM     40  N   UNL A   1      45.003  26.190  28.109  1.00  0.00    -0.248 NA
ATOM     41  C   UNL A   1      45.530  24.009  27.458  1.00  0.00     0.031 C 
ATOM     42  C   UNL A   1      40.667  25.108  28.138  1.00  0.00     0.029 A 
ATOM     43  N   UNL A   1      42.152  26.739  28.501  1.00  0.00    -0.354 N 
ATOM     44  C   UNL A   1      46.383  26.054  28.033  1.00  0.00     0.074 A 
ATOM     45  C   UNL A   1      46.653  24.675  27.684  1.00  0.00     0.031 C 
ATOM     46  C   UNL A   1      39.981  26.200  28.509  1.00  0.00     0.029 A 
ATOM     47  C   UNL A   1      40.920  27.287  28.763  1.00  0.00     0.049 A 
ATOM     48  H   UNL A   1      42.995  27.238  28.597  1.00  0.00     0.167 HD
ATOM     49  C   UNL A   1      47.339  26.995  28.216  1.00  0.00     0.031 A 
ATOM     50  C   UNL A   1      40.583  28.528  29.155  1.00  0.00     0.031 A 
ATOM     51  C   UNL A   1      47.071  28.366  28.562  1.00  0.00     0.049 A 
ATOM     52  C   UNL A   1      41.662  29.554  29.352  1.00  0.00     0.074 A 
ATOM     53  C   UNL A   1      47.967  29.410  28.713  1.00  0.00     0.029 A 
ATOM     54  N   UNL A   1      45.810  28.883  28.818  1.00  0.00    -0.354 N 
ATOM     55  N   UNL A   1      42.958  29.431  29.194  1.00  0.00    -0.248 NA
ATOM     56  C   UNL A   1      41.228  30.896  29.764  1.00  0.00     0.031 C 
ATOM     57  C   UNL A   1      47.254  30.546  29.110  1.00  0.00     0.029 A 
ATOM     58  C   UNL A   1      45.907  30.224  29.151  1.00  0.00     0.049 A 
ATOM     59  H   UNL A   1      44.970  28.372  28.769  1.00  0.00     0.167 HD
ATOM     60  C   UNL A   1      43.493  30.683  29.469  1.00  0.00     0.074 A 
ATOM     61  C   UNL A   1      42.377  31.556  29.775  1.00  0.00     0.031 C 
ATOM     62  C   UNL A   1      44.789  31.075  29.469  1.00  0.00     0.031 A 
BRANCH  49  63
ATOM     63  C   UNL A   1      48.771  26.566  28.049  1.00  0.00    -0.014 A 
ATOM     64  C   UNL A   1      49.382  26.548  26.785  1.00  0.00     0.009 A 
ATOM     65  C   UNL A   1      49.529  26.206  29.174  1.00  0.00     0.009 A 
ATOM     66  C   UNL A   1      50.711  26.143  26.646  1.00  0.00     0.001 A 
ATOM     67  C   UNL A   1      50.867  25.829  29.036  1.00  0.00     0.001 A 
ATOM     68  C   UNL A   1      51.453  25.788  27.772  1.00  0.00     0.000 A 
ENDBRANCH  49  63
BRANCH  50  69
ATOM     69  C   UNL A   1      39.154  28.881  29.365  1.00  0.00    -0.014 A 
ATOM     70  C   UNL A   1      38.387  29.400  28.309  1.00  0.00     0.009 A 
ATOM     71  C   UNL A   1      38.552  28.706  30.620  1.00  0.00     0.009 A 
ATOM     72  C   UNL A   1      37.054  29.763  28.516  1.00  0.00     0.001 A 
ATOM     73  C   UNL A   1      37.211  29.042  30.815  1.00  0.00     0.001 A 
ATOM     74  C   UNL A   1      36.466  29.580  29.766  1.00  0.00     0.000 A 
ENDBRANCH  50  69
BRANCH  62  75
ATOM     75  C   UNL A   1      45.063  32.517  29.795  1.00  0.00    -0.014 A 
ATOM     76  C   UNL A   1      45.080  33.500  28.794  1.00  0.00     0.009 A 
ATOM     77  C   UNL A   1      45.297  32.897  31.126  1.00  0.00     0.009 A 
ATOM     78  C   UNL A   1      45.371  34.827  29.111  1.00  0.00     0.001 A 
ATOM     79  C   UNL A   1      45.556  34.231  31.445  1.00  0.00     0.001 A 
ATOM     80  C   UNL A   1      45.606  35.192  30.437  1.00  0.00     0.000 A 
ENDBRANCH  62  75
ENDBRANCH  36  37
ENDBRANCH  28  31
ENDBRANCH  26  27
ENDBRANCH  25  26
ENDBRANCH   1  25
TORSDOF 14
ENDMDL
MODEL 3
REMARK VINA RESULT:     -10.8      3.179      8.110
REMARK SMILES C[NH+]1CCC([N@@H+](C)Cc2ccc(C(=O)NCCCCNC(=O)c3ccc(-c4c5nc(c(-c6ccccc6)c6ccc([nH]6)c(-c6ccccc6)c6nc(c(-c7ccccc7)c7ccc4[nH]7)C=C6)C=C5)cc3)cn2)CC1
REMARK SMILES IDX 17 1 16 2 15 3 13 4 14 5 12 7 9 8 10 9 72 10 11 11 71 12
REMARK SMILES IDX 8 13 6 14 7 15 5 17 1 18 2 19 3 20 74 21 4 23 73 24 18 25
REMARK SMILES IDX 19 26 20 27 21 28 22 30 23 31 24 32 70 33 25 34 69 35 26 36
REMARK SMILES IDX 27 37 28 38 63 39 29 40 68 41 62 42 64 43 30 44 67 45 61 46
REMARK SMILES IDX 60 47 31 49 53 50 38 51 52 52 39 53 42 54 51 55 65 56 40 57
REMARK SMILES IDX 41 58 50 60 66 61 43 62 32 63 33 64 37 65 34 66 36 67 35 68
REMARK SMILES IDX 54 69 55 70 59 71 56 72 58 73 57 74 44 75 45 76 49 77 46 78
REMARK SMILES IDX 48 79 47 80
REMARK H PARENT 15 6 6 16 2 22 20 29 64 48 42 59
REMARK Flexibility Score: inf
ROOT
ATOM      1  C   UNL A   1      36.853  21.050  24.654  1.00  0.00     0.023 C 
ENDROOT
BRANCH   1   2
ATOM      2  C   UNL A   1      35.607  21.129  25.536  1.00  0.00     0.116 C 
BRANCH   2   3
ATOM      3  N   UNL A   1      34.725  20.014  25.261  1.00  0.00    -0.352 N 
ATOM      4  C   UNL A   1      33.410  19.946  24.880  1.00  0.00     0.252 C 
ATOM      5  O   UNL A   1      32.924  18.822  24.753  1.00  0.00    -0.269 OA
ATOM      6  H   UNL A   1      35.153  19.134  25.370  1.00  0.00     0.163 HD
BRANCH   4   7
ATOM      7  C   UNL A   1      32.578  21.130  24.545  1.00  0.00     0.058 A 
ATOM      8  C   UNL A   1      31.394  23.473  23.653  1.00  0.00     0.095 A 
ATOM      9  C   UNL A   1      31.221  23.083  24.978  1.00  0.00     0.030 A 
ATOM     10  N   UNL A   1      32.010  22.672  22.751  1.00  0.00    -0.255 NA
ATOM     11  C   UNL A   1      31.806  21.892  25.418  1.00  0.00     0.017 A 
ATOM     12  C   UNL A   1      32.593  21.539  23.215  1.00  0.00     0.125 A 
BRANCH   8  13
ATOM     13  C   UNL A   1      30.988  24.867  23.206  1.00  0.00     0.319 C 
BRANCH  13  14
ATOM     14  N   UNL A   1      30.443  25.781  24.236  1.00  0.00    -0.330 N 
ATOM     15  C   UNL A   1      29.116  26.280  23.877  1.00  0.00     0.333 C 
ATOM     16  H   UNL A   1      30.361  25.166  25.046  1.00  0.00     0.348 HD
BRANCH  14  17
ATOM     17  C   UNL A   1      31.328  26.839  24.776  1.00  0.00     0.195 C 
ATOM     18  C   UNL A   1      34.236  28.949  27.174  1.00  0.00     0.332 C 
ATOM     19  N   UNL A   1      33.381  27.936  26.557  1.00  0.00    -0.337 N 
ATOM     20  C   UNL A   1      33.642  27.851  25.114  1.00  0.00     0.268 C 
ATOM     21  C   UNL A   1      31.964  28.229  26.799  1.00  0.00     0.268 C 
ATOM     22  H   UNL A   1      33.601  27.036  26.983  1.00  0.00     0.347 HD
ATOM     23  C   UNL A   1      32.837  26.712  24.487  1.00  0.00     0.126 C 
ATOM     24  C   UNL A   1      31.087  27.090  26.275  1.00  0.00     0.126 C 
ENDBRANCH  14  17
ENDBRANCH  13  14
ENDBRANCH   8  13
ENDBRANCH   4   7
ENDBRANCH   2   3
ENDBRANCH   1   2
BRANCH   1  25
ATOM     25  C   UNL A   1      37.776  19.870  24.979  1.00  0.00     0.023 C 
BRANCH  25  26
ATOM     26  C   UNL A   1      39.042  20.232  25.751  1.00  0.00     0.116 C 
BRANCH  26  27
ATOM     27  N   UNL A   1      40.030  19.166  25.764  1.00  0.00    -0.352 N 
ATOM     28  C   UNL A   1      41.380  19.240  26.006  1.00  0.00     0.251 C 
ATOM     29  H   UNL A   1      39.683  18.265  25.573  1.00  0.00     0.163 HD
ATOM     30  O   UNL A   1      42.085  18.249  25.872  1.00  0.00    -0.269 OA
BRANCH  28  31
ATOM     31  C   UNL A   1      41.983  20.533  26.391  1.00  0.00     0.039 A 
ATOM     32  C   UNL A   1      42.390  21.403  25.377  1.00  0.00     0.014 A 
ATOM     33  C   UNL A   1      42.126  20.895  27.732  1.00  0.00     0.014 A 
ATOM     34  C   UNL A   1      42.880  22.667  25.709  1.00  0.00     0.010 A 
ATOM     35  C   UNL A   1      42.550  22.180  28.060  1.00  0.00     0.010 A 
ATOM     36  C   UNL A   1      42.925  23.079  27.051  1.00  0.00    -0.014 A 
BRANCH  36  37
ATOM     37  C   UNL A   1      43.329  24.463  27.401  1.00  0.00     0.031 A 
ATOM     38  C   UNL A   1      44.765  24.893  27.303  1.00  0.00     0.074 A 
ATOM     39  C   UNL A   1      42.395  25.324  27.853  1.00  0.00     0.049 A 
ATOM     40  N   UNL A   1      45.292  26.065  27.553  1.00  0.00    -0.248 NA
ATOM     41  C   UNL A   1      45.740  23.870  26.893  1.00  0.00     0.031 C 
ATOM     42  C   UNL A   1      40.978  25.011  28.048  1.00  0.00     0.029 A 
ATOM     43  N   UNL A   1      42.499  26.639  28.227  1.00  0.00    -0.354 N 
ATOM     44  C   UNL A   1      46.657  25.919  27.339  1.00  0.00     0.074 A 
ATOM     45  C   UNL A   1      46.883  24.533  26.990  1.00  0.00     0.031 C 
ATOM     46  C   UNL A   1      40.338  26.114  28.468  1.00  0.00     0.029 A 
ATOM     47  C   UNL A   1      41.302  27.199  28.603  1.00  0.00     0.049 A 
ATOM     48  H   UNL A   1      43.350  27.135  28.226  1.00  0.00     0.167 HD
ATOM     49  C   UNL A   1      47.631  26.858  27.406  1.00  0.00     0.031 A 
ATOM     50  C   UNL A   1      41.013  28.449  29.005  1.00  0.00     0.031 A 
ATOM     51  C   UNL A   1      47.405  28.236  27.752  1.00  0.00     0.049 A 
ATOM     52  C   UNL A   1      42.111  29.472  29.071  1.00  0.00     0.074 A 
ATOM     53  C   UNL A   1      48.317  29.277  27.791  1.00  0.00     0.029 A 
ATOM     54  N   UNL A   1      46.179  28.766  28.126  1.00  0.00    -0.354 N 
ATOM     55  N   UNL A   1      43.384  29.338  28.784  1.00  0.00    -0.248 NA
ATOM     56  C   UNL A   1      41.728  30.824  29.501  1.00  0.00     0.031 C 
ATOM     57  C   UNL A   1      47.653  30.425  28.238  1.00  0.00     0.029 A 
ATOM     58  C   UNL A   1      46.316  30.112  28.423  1.00  0.00     0.049 A 
ATOM     59  H   UNL A   1      45.336  28.259  28.173  1.00  0.00     0.167 HD
ATOM     60  C   UNL A   1      43.949  30.591  28.979  1.00  0.00     0.074 A 
ATOM     61  C   UNL A   1      42.875  31.476  29.382  1.00  0.00     0.031 C 
ATOM     62  C   UNL A   1      45.241  30.976  28.839  1.00  0.00     0.031 A 
BRANCH  49  63
ATOM     63  C   UNL A   1      49.035  26.417  27.101  1.00  0.00    -0.014 A 
ATOM     64  C   UNL A   1      49.900  25.986  28.120  1.00  0.00     0.009 A 
ATOM     65  C   UNL A   1      49.492  26.401  25.774  1.00  0.00     0.009 A 
ATOM     66  C   UNL A   1      51.203  25.584  27.822  1.00  0.00     0.001 A 
ATOM     67  C   UNL A   1      50.786  25.971  25.474  1.00  0.00     0.001 A 
ATOM     68  C   UNL A   1      51.644  25.573  26.499  1.00  0.00     0.000 A 
ENDBRANCH  49  63
BRANCH  50  69
ATOM     69  C   UNL A   1      39.615  28.814  29.354  1.00  0.00    -0.014 A 
ATOM     70  C   UNL A   1      39.140  28.641  30.664  1.00  0.00     0.009 A 
ATOM     71  C   UNL A   1      38.748  29.334  28.380  1.00  0.00     0.009 A 
ATOM     72  C   UNL A   1      37.817  28.952  30.984  1.00  0.00     0.001 A 
ATOM     73  C   UNL A   1      37.434  29.671  28.711  1.00  0.00     0.001 A 
ATOM     74  C   UNL A   1      36.966  29.471  30.009  1.00  0.00     0.000 A 
ENDBRANCH  50  69
BRANCH  62  75
ATOM     75  C   UNL A   1      45.552  32.421  29.108  1.00  0.00    -0.014 A 
ATOM     76  C   UNL A   1      45.477  33.384  28.091  1.00  0.00     0.009 A 
ATOM     77  C   UNL A   1      45.918  32.825  30.402  1.00  0.00     0.009 A 
ATOM     78  C   UNL A   1      45.805  34.716  28.353  1.00  0.00     0.001 A 
ATOM     79  C   UNL A   1      46.214  34.162  30.669  1.00  0.00     0.001 A 
ATOM     80  C   UNL A   1      46.170  35.104  29.642  1.00  0.00     0.000 A 
ENDBRANCH  62  75
ENDBRANCH  36  37
ENDBRANCH  28  31
ENDBRANCH  26  27
ENDBRANCH  25  26
ENDBRANCH   1  25
TORSDOF 14
ENDMDL
