MODEL 1
REMARK VINA RESULT:      -9.5      0.000      0.000
REMARK SMILES Cc1ccc(N2C(=O)/C(=C\c3ccccc3O[C@H](C)C(=O)NCCCCNC(=O)c3ccc(-c4c5nc(c(-c6ccccc6)c6ccc([nH]6)c(-c6ccccc6)c6nc(c(-c7ccccc7)c7ccc4[nH]7)C=C6)C=C5)cc3)SC2=S)c(C)c1
REMARK SMILES IDX 23 1 22 2 20 3 21 4 18 6 19 7 17 8 16 9 11 10 12 11 13 12
REMARK SMILES IDX 15 13 14 14 10 15 6 16 7 17 79 18 8 19 9 20 78 21 80 22 5 23
REMARK SMILES IDX 1 24 2 25 3 26 83 27 4 28 81 29 82 30 24 31 25 32 26 33
REMARK SMILES IDX 27 34 28 35 29 37 30 38 31 39 77 40 32 41 76 42 33 43 34 44
REMARK SMILES IDX 35 45 70 46 36 47 75 48 69 49 71 50 37 51 74 52 68 53 67 54
REMARK SMILES IDX 38 56 60 57 45 58 59 59 46 60 49 61 58 62 72 63 47 64 48 65
REMARK SMILES IDX 57 67 73 68 50 69 39 70 40 71 44 72 41 73 43 74 42 75 61 76
REMARK SMILES IDX 62 77 66 78 63 79 65 80 64 81 51 82 52 83 56 84 53 85 55 86
REMARK SMILES IDX 54 87
REMARK H PARENT 22 5 27 36 71 55 49 66
REMARK Flexibility Score: inf
ROOT
ATOM      1  C   UNL A   1      34.457  34.400  31.921  1.00  0.00     0.116 C 
ENDROOT
BRANCH   1   2
ATOM      2  N   UNL A   1      35.691  34.992  32.412  1.00  0.00    -0.353 N 
ATOM      3  C   UNL A   1      36.927  34.414  32.575  1.00  0.00     0.260 C 
ATOM      4  O   UNL A   1      37.855  35.134  32.949  1.00  0.00    -0.271 OA
ATOM      5  H   UNL A   1      35.633  35.942  32.664  1.00  0.00     0.163 HD
BRANCH   3   6
ATOM      6  C   UNL A   1      37.121  32.905  32.336  1.00  0.00     0.258 C 
ATOM      7  C   UNL A   1      37.842  32.725  31.005  1.00  0.00     0.064 C 
BRANCH   6   8
ATOM      8  O   UNL A   1      37.785  32.480  33.522  1.00  0.00    -0.480 OA
BRANCH   8   9
ATOM      9  C   UNL A   1      38.729  31.509  33.610  1.00  0.00     0.127 A 
ATOM     10  C   UNL A   1      39.998  31.967  34.035  1.00  0.00     0.018 A 
ATOM     11  C   UNL A   1      41.094  31.098  34.033  1.00  0.00     0.012 A 
ATOM     12  C   UNL A   1      40.925  29.767  33.660  1.00  0.00     0.001 A 
ATOM     13  C   UNL A   1      38.561  30.165  33.299  1.00  0.00     0.047 A 
ATOM     14  C   UNL A   1      39.659  29.299  33.313  1.00  0.00     0.004 A 
BRANCH  10  15
ATOM     15  C   UNL A   1      40.200  33.351  34.503  1.00  0.00     0.033 C 
ATOM     16  N   UNL A   1      39.198  33.803  38.001  1.00  0.00    -0.261 N 
ATOM     17  C   UNL A   1      39.439  32.977  36.906  1.00  0.00     0.270 C 
ATOM     18  C   UNL A   1      39.494  35.146  37.842  1.00  0.00     0.152 C 
ATOM     19  O   UNL A   1      39.271  31.765  36.863  1.00  0.00    -0.268 OA
ATOM     20  C   UNL A   1      39.934  33.783  35.747  1.00  0.00     0.081 C 
ATOM     21  S   UNL A   1      40.093  35.436  36.207  1.00  0.00    -0.054 SA
ATOM     22  S   UNL A   1      39.446  36.392  38.960  1.00  0.00    -0.051 S 
BRANCH  16  23
ATOM     23  C   UNL A   1      38.611  33.241  39.178  1.00  0.00     0.054 A 
ATOM     24  C   UNL A   1      36.751  31.172  42.491  1.00  0.00     0.044 C 
ATOM     25  C   UNL A   1      37.378  31.914  41.349  1.00  0.00    -0.051 A 
ATOM     26  C   UNL A   1      36.615  32.354  40.268  1.00  0.00     0.005 A 
ATOM     27  C   UNL A   1      38.755  32.159  41.350  1.00  0.00     0.009 A 
ATOM     28  C   UNL A   1      37.225  33.006  39.193  1.00  0.00     0.027 A 
ATOM     29  C   UNL A   1      39.384  32.835  40.286  1.00  0.00    -0.027 A 
ATOM     30  C   UNL A   1      40.866  33.076  40.409  1.00  0.00     0.046 C 
ENDBRANCH  16  23
ENDBRANCH  10  15
ENDBRANCH   8   9
ENDBRANCH   6   8
ENDBRANCH   3   6
ENDBRANCH   1   2
BRANCH   1  31
ATOM     31  C   UNL A   1      34.471  34.178  30.412  1.00  0.00     0.023 C 
BRANCH  31  32
ATOM     32  C   UNL A   1      34.455  32.714  29.979  1.00  0.00     0.023 C 
BRANCH  32  33
ATOM     33  C   UNL A   1      34.647  32.475  28.486  1.00  0.00     0.116 C 
BRANCH  33  34
ATOM     34  N   UNL A   1      34.042  31.238  28.012  1.00  0.00    -0.352 N 
ATOM     35  C   UNL A   1      34.624  30.006  27.831  1.00  0.00     0.251 C 
ATOM     36  H   UNL A   1      33.084  31.291  27.792  1.00  0.00     0.163 HD
ATOM     37  O   UNL A   1      33.990  29.084  27.329  1.00  0.00    -0.269 OA
BRANCH  35  38
ATOM     38  C   UNL A   1      36.040  29.812  28.207  1.00  0.00     0.039 A 
ATOM     39  C   UNL A   1      36.339  29.352  29.492  1.00  0.00     0.014 A 
ATOM     40  C   UNL A   1      37.060  30.037  27.280  1.00  0.00     0.014 A 
ATOM     41  C   UNL A   1      37.658  29.032  29.819  1.00  0.00     0.010 A 
ATOM     42  C   UNL A   1      38.362  29.654  27.584  1.00  0.00     0.010 A 
ATOM     43  C   UNL A   1      38.670  29.135  28.851  1.00  0.00    -0.014 A 
BRANCH  43  44
ATOM     44  C   UNL A   1      40.055  28.682  29.128  1.00  0.00     0.031 A 
ATOM     45  C   UNL A   1      41.051  29.629  29.732  1.00  0.00     0.074 A 
ATOM     46  C   UNL A   1      40.439  27.447  28.750  1.00  0.00     0.049 A 
ATOM     47  N   UNL A   1      42.332  29.455  29.941  1.00  0.00    -0.248 NA
ATOM     48  C   UNL A   1      40.548  30.952  30.132  1.00  0.00     0.031 C 
ATOM     49  C   UNL A   1      39.577  26.442  28.124  1.00  0.00     0.029 A 
ATOM     50  N   UNL A   1      41.664  26.832  28.826  1.00  0.00    -0.354 N 
ATOM     51  C   UNL A   1      42.791  30.651  30.476  1.00  0.00     0.074 A 
ATOM     52  C   UNL A   1      41.661  31.556  30.524  1.00  0.00     0.031 C 
ATOM     53  C   UNL A   1      40.295  25.332  27.887  1.00  0.00     0.029 A 
ATOM     54  C   UNL A   1      41.675  25.560  28.305  1.00  0.00     0.049 A 
ATOM     55  H   UNL A   1      42.460  27.261  29.218  1.00  0.00     0.167 HD
ATOM     56  C   UNL A   1      44.037  30.966  30.904  1.00  0.00     0.031 A 
ATOM     57  C   UNL A   1      42.685  24.683  28.163  1.00  0.00     0.031 A 
ATOM     58  C   UNL A   1      45.157  30.066  30.869  1.00  0.00     0.049 A 
ATOM     59  C   UNL A   1      44.063  25.066  28.620  1.00  0.00     0.074 A 
ATOM     60  C   UNL A   1      46.443  30.274  31.336  1.00  0.00     0.029 A 
ATOM     61  N   UNL A   1      45.125  28.788  30.334  1.00  0.00    -0.354 N 
ATOM     62  N   UNL A   1      44.468  26.182  29.177  1.00  0.00    -0.248 NA
ATOM     63  C   UNL A   1      45.126  24.068  28.426  1.00  0.00     0.031 C 
ATOM     64  C   UNL A   1      47.203  29.136  31.041  1.00  0.00     0.029 A 
ATOM     65  C   UNL A   1      46.376  28.205  30.434  1.00  0.00     0.049 A 
ATOM     66  H   UNL A   1      44.331  28.359  29.942  1.00  0.00     0.167 HD
ATOM     67  C   UNL A   1      45.825  26.013  29.419  1.00  0.00     0.074 A 
ATOM     68  C   UNL A   1      46.171  24.681  28.964  1.00  0.00     0.031 C 
ATOM     69  C   UNL A   1      46.705  26.883  29.970  1.00  0.00     0.031 A 
BRANCH  56  70
ATOM     70  C   UNL A   1      44.251  32.352  31.441  1.00  0.00    -0.014 A 
ATOM     71  C   UNL A   1      44.073  32.638  32.803  1.00  0.00     0.009 A 
ATOM     72  C   UNL A   1      44.667  33.378  30.579  1.00  0.00     0.009 A 
ATOM     73  C   UNL A   1      44.274  33.932  33.286  1.00  0.00     0.001 A 
ATOM     74  C   UNL A   1      44.893  34.666  31.069  1.00  0.00     0.001 A 
ATOM     75  C   UNL A   1      44.688  34.944  32.420  1.00  0.00     0.000 A 
ENDBRANCH  56  70
BRANCH  57  76
ATOM     76  C   UNL A   1      42.434  23.349  27.557  1.00  0.00    -0.014 A 
ATOM     77  C   UNL A   1      41.987  22.283  28.352  1.00  0.00     0.009 A 
ATOM     78  C   UNL A   1      42.648  23.134  26.187  1.00  0.00     0.009 A 
ATOM     79  C   UNL A   1      41.782  21.021  27.791  1.00  0.00     0.001 A 
ATOM     80  C   UNL A   1      42.416  21.877  25.624  1.00  0.00     0.001 A 
ATOM     81  C   UNL A   1      41.992  20.820  26.428  1.00  0.00     0.000 A 
ENDBRANCH  57  76
BRANCH  69  82
ATOM     82  C   UNL A   1      48.124  26.415  30.128  1.00  0.00    -0.014 A 
ATOM     83  C   UNL A   1      49.069  26.616  29.110  1.00  0.00     0.009 A 
ATOM     84  C   UNL A   1      48.526  25.802  31.323  1.00  0.00     0.009 A 
ATOM     85  C   UNL A   1      50.387  26.188  29.280  1.00  0.00     0.001 A 
ATOM     86  C   UNL A   1      49.850  25.397  31.500  1.00  0.00     0.001 A 
ATOM     87  C   UNL A   1      50.777  25.584  30.476  1.00  0.00     0.000 A 
ENDBRANCH  69  82
ENDBRANCH  43  44
ENDBRANCH  35  38
ENDBRANCH  33  34
ENDBRANCH  32  33
ENDBRANCH  31  32
ENDBRANCH   1  31
TORSDOF 15
ENDMDL
MODEL 2
REMARK VINA RESULT:      -9.2      6.371     11.485
REMARK SMILES Cc1ccc(N2C(=O)/C(=C\c3ccccc3O[C@H](C)C(=O)NCCCCNC(=O)c3ccc(-c4c5nc(c(-c6ccccc6)c6ccc([nH]6)c(-c6ccccc6)c6nc(c(-c7ccccc7)c7ccc4[nH]7)C=C6)C=C5)cc3)SC2=S)c(C)c1
REMARK SMILES IDX 23 1 22 2 20 3 21 4 18 6 19 7 17 8 16 9 11 10 12 11 13 12
REMARK SMILES IDX 15 13 14 14 10 15 6 16 7 17 79 18 8 19 9 20 78 21 80 22 5 23
REMARK SMILES IDX 1 24 2 25 3 26 83 27 4 28 81 29 82 30 24 31 25 32 26 33
REMARK SMILES IDX 27 34 28 35 29 37 30 38 31 39 77 40 32 41 76 42 33 43 34 44
REMARK SMILES IDX 35 45 70 46 36 47 75 48 69 49 71 50 37 51 74 52 68 53 67 54
REMARK SMILES IDX 38 56 60 57 45 58 59 59 46 60 49 61 58 62 72 63 47 64 48 65
REMARK SMILES IDX 57 67 73 68 50 69 39 70 40 71 44 72 41 73 43 74 42 75 61 76
REMARK SMILES IDX 62 77 66 78 63 79 65 80 64 81 51 82 52 83 56 84 53 85 55 86
REMARK SMILES IDX 54 87
REMARK H PARENT 22 5 27 36 71 55 49 66
REMARK Flexibility Score: inf
ROOT
ATOM      1  C   UNL A   1      40.004  22.292  26.617  1.00  0.00     0.116 C 
ENDROOT
BRANCH   1   2
ATOM      2  N   UNL A   1      39.196  21.668  25.581  1.00  0.00    -0.353 N 
ATOM      3  C   UNL A   1      37.883  21.899  25.247  1.00  0.00     0.260 C 
ATOM      4  O   UNL A   1      37.420  21.292  24.278  1.00  0.00    -0.271 OA
ATOM      5  H   UNL A   1      39.654  20.983  25.043  1.00  0.00     0.163 HD
BRANCH   3   6
ATOM      6  C   UNL A   1      37.019  22.855  26.090  1.00  0.00     0.258 C 
ATOM      7  C   UNL A   1      37.695  24.222  26.099  1.00  0.00     0.064 C 
BRANCH   6   8
ATOM      8  O   UNL A   1      35.738  22.744  25.479  1.00  0.00    -0.480 OA
BRANCH   8   9
ATOM      9  C   UNL A   1      34.565  22.480  26.110  1.00  0.00     0.127 A 
ATOM     10  C   UNL A   1      33.439  23.111  25.533  1.00  0.00     0.018 A 
ATOM     11  C   UNL A   1      32.194  23.038  26.167  1.00  0.00     0.012 A 
ATOM     12  C   UNL A   1      32.053  22.302  27.341  1.00  0.00     0.001 A 
ATOM     13  C   UNL A   1      34.400  21.700  27.248  1.00  0.00     0.047 A 
ATOM     14  C   UNL A   1      33.149  21.620  27.868  1.00  0.00     0.004 A 
BRANCH  10  15
ATOM     15  C   UNL A   1      33.535  23.840  24.255  1.00  0.00     0.033 C 
ATOM     16  N   UNL A   1      33.644  27.475  24.726  1.00  0.00    -0.261 N 
ATOM     17  C   UNL A   1      33.661  26.184  25.248  1.00  0.00     0.270 C 
ATOM     18  C   UNL A   1      33.634  27.587  23.346  1.00  0.00     0.152 C 
ATOM     19  O   UNL A   1      33.703  25.883  26.434  1.00  0.00    -0.268 OA
ATOM     20  C   UNL A   1      33.610  25.177  24.142  1.00  0.00     0.081 C 
ATOM     21  S   UNL A   1      33.618  25.979  22.617  1.00  0.00    -0.054 SA
ATOM     22  S   UNL A   1      33.730  28.953  22.382  1.00  0.00    -0.051 S 
BRANCH  16  23
ATOM     23  C   UNL A   1      33.573  28.586  25.624  1.00  0.00     0.054 A 
ATOM     24  C   UNL A   1      33.663  32.148  28.078  1.00  0.00     0.044 C 
ATOM     25  C   UNL A   1      33.636  30.896  27.253  1.00  0.00    -0.051 A 
ATOM     26  C   UNL A   1      34.731  30.035  27.210  1.00  0.00     0.005 A 
ATOM     27  C   UNL A   1      32.501  30.586  26.495  1.00  0.00     0.009 A 
ATOM     28  C   UNL A   1      34.702  28.896  26.402  1.00  0.00     0.027 A 
ATOM     29  C   UNL A   1      32.445  29.431  25.692  1.00  0.00    -0.027 A 
ATOM     30  C   UNL A   1      31.161  29.177  24.946  1.00  0.00     0.046 C 
ENDBRANCH  16  23
ENDBRANCH  10  15
ENDBRANCH   8   9
ENDBRANCH   6   8
ENDBRANCH   3   6
ENDBRANCH   1   2
BRANCH   1  31
ATOM     31  C   UNL A   1      41.311  21.549  26.871  1.00  0.00     0.023 C 
BRANCH  31  32
ATOM     32  C   UNL A   1      41.452  20.225  26.124  1.00  0.00     0.023 C 
BRANCH  32  33
ATOM     33  C   UNL A   1      42.645  19.369  26.535  1.00  0.00     0.116 C 
BRANCH  33  34
ATOM     34  N   UNL A   1      43.395  18.835  25.408  1.00  0.00    -0.352 N 
ATOM     35  C   UNL A   1      44.302  19.472  24.594  1.00  0.00     0.251 C 
ATOM     36  H   UNL A   1      43.230  17.887  25.199  1.00  0.00     0.163 HD
ATOM     37  O   UNL A   1      44.777  18.898  23.620  1.00  0.00    -0.269 OA
BRANCH  35  38
ATOM     38  C   UNL A   1      44.668  20.875  24.878  1.00  0.00     0.039 A 
ATOM     39  C   UNL A   1      44.348  21.859  23.939  1.00  0.00     0.014 A 
ATOM     40  C   UNL A   1      45.281  21.221  26.085  1.00  0.00     0.014 A 
ATOM     41  C   UNL A   1      44.560  23.203  24.250  1.00  0.00     0.010 A 
ATOM     42  C   UNL A   1      45.429  22.562  26.421  1.00  0.00     0.010 A 
ATOM     43  C   UNL A   1      45.057  23.566  25.512  1.00  0.00    -0.014 A 
BRANCH  43  44
ATOM     44  C   UNL A   1      45.174  24.987  25.919  1.00  0.00     0.031 A 
ATOM     45  C   UNL A   1      46.511  25.671  25.894  1.00  0.00     0.074 A 
ATOM     46  C   UNL A   1      44.093  25.633  26.396  1.00  0.00     0.049 A 
ATOM     47  N   UNL A   1      46.833  26.867  26.319  1.00  0.00    -0.248 NA
ATOM     48  C   UNL A   1      47.637  24.902  25.343  1.00  0.00     0.031 C 
ATOM     49  C   UNL A   1      42.744  25.072  26.503  1.00  0.00     0.029 A 
ATOM     50  N   UNL A   1      43.963  26.904  26.898  1.00  0.00    -0.354 N 
ATOM     51  C   UNL A   1      48.200  26.985  26.105  1.00  0.00     0.074 A 
ATOM     52  C   UNL A   1      48.653  25.728  25.550  1.00  0.00     0.031 C 
ATOM     53  C   UNL A   1      41.922  25.999  27.021  1.00  0.00     0.029 A 
ATOM     54  C   UNL A   1      42.690  27.202  27.322  1.00  0.00     0.049 A 
ATOM     55  H   UNL A   1      44.711  27.543  26.948  1.00  0.00     0.167 HD
ATOM     56  C   UNL A   1      49.004  28.050  26.337  1.00  0.00     0.031 A 
ATOM     57  C   UNL A   1      42.200  28.312  27.904  1.00  0.00     0.031 A 
ATOM     58  C   UNL A   1      48.554  29.304  26.876  1.00  0.00     0.049 A 
ATOM     59  C   UNL A   1      43.119  29.469  28.175  1.00  0.00     0.074 A 
ATOM     60  C   UNL A   1      49.283  30.461  27.090  1.00  0.00     0.029 A 
ATOM     61  N   UNL A   1      47.258  29.564  27.292  1.00  0.00    -0.354 N 
ATOM     62  N   UNL A   1      44.398  29.585  27.913  1.00  0.00    -0.248 NA
ATOM     63  C   UNL A   1      42.525  30.647  28.823  1.00  0.00     0.031 C 
ATOM     64  C   UNL A   1      48.437  31.408  27.677  1.00  0.00     0.029 A 
ATOM     65  C   UNL A   1      47.171  30.853  27.786  1.00  0.00     0.049 A 
ATOM     66  H   UNL A   1      46.510  28.925  27.243  1.00  0.00     0.167 HD
ATOM     67  C   UNL A   1      44.758  30.855  28.346  1.00  0.00     0.074 A 
ATOM     68  C   UNL A   1      43.559  31.477  28.871  1.00  0.00     0.031 C 
ATOM     69  C   UNL A   1      45.972  31.453  28.311  1.00  0.00     0.031 A 
BRANCH  56  70
ATOM     70  C   UNL A   1      50.462  27.895  26.010  1.00  0.00    -0.014 A 
ATOM     71  C   UNL A   1      50.963  28.240  24.745  1.00  0.00     0.009 A 
ATOM     72  C   UNL A   1      51.351  27.428  26.990  1.00  0.00     0.009 A 
ATOM     73  C   UNL A   1      52.320  28.089  24.458  1.00  0.00     0.001 A 
ATOM     74  C   UNL A   1      52.713  27.302  26.707  1.00  0.00     0.001 A 
ATOM     75  C   UNL A   1      53.194  27.625  25.439  1.00  0.00     0.000 A 
ENDBRANCH  56  70
BRANCH  57  76
ATOM     76  C   UNL A   1      40.763  28.386  28.275  1.00  0.00    -0.014 A 
ATOM     77  C   UNL A   1      39.837  28.979  27.404  1.00  0.00     0.009 A 
ATOM     78  C   UNL A   1      40.313  27.875  29.501  1.00  0.00     0.009 A 
ATOM     79  C   UNL A   1      38.492  29.079  27.765  1.00  0.00     0.001 A 
ATOM     80  C   UNL A   1      38.962  27.953  29.848  1.00  0.00     0.001 A 
ATOM     81  C   UNL A   1      38.055  28.562  28.983  1.00  0.00     0.000 A 
ENDBRANCH  57  76
BRANCH  69  82
ATOM     82  C   UNL A   1      46.061  32.857  28.838  1.00  0.00    -0.014 A 
ATOM     83  C   UNL A   1      46.451  33.109  30.162  1.00  0.00     0.009 A 
ATOM     84  C   UNL A   1      45.790  33.939  27.987  1.00  0.00     0.009 A 
ATOM     85  C   UNL A   1      46.542  34.422  30.631  1.00  0.00     0.001 A 
ATOM     86  C   UNL A   1      45.906  35.250  28.451  1.00  0.00     0.001 A 
ATOM     87  C   UNL A   1      46.275  35.489  29.774  1.00  0.00     0.000 A 
ENDBRANCH  69  82
ENDBRANCH  43  44
ENDBRANCH  35  38
ENDBRANCH  33  34
ENDBRANCH  32  33
ENDBRANCH  31  32
ENDBRANCH   1  31
TORSDOF 15
ENDMDL
MODEL 3
REMARK VINA RESULT:      -9.1      2.225      3.660
REMARK SMILES Cc1ccc(N2C(=O)/C(=C\c3ccccc3O[C@H](C)C(=O)NCCCCNC(=O)c3ccc(-c4c5nc(c(-c6ccccc6)c6ccc([nH]6)c(-c6ccccc6)c6nc(c(-c7ccccc7)c7ccc4[nH]7)C=C6)C=C5)cc3)SC2=S)c(C)c1
REMARK SMILES IDX 23 1 22 2 20 3 21 4 18 6 19 7 17 8 16 9 11 10 12 11 13 12
REMARK SMILES IDX 15 13 14 14 10 15 6 16 7 17 79 18 8 19 9 20 78 21 80 22 5 23
REMARK SMILES IDX 1 24 2 25 3 26 83 27 4 28 81 29 82 30 24 31 25 32 26 33
REMARK SMILES IDX 27 34 28 35 29 37 30 38 31 39 77 40 32 41 76 42 33 43 34 44
REMARK SMILES IDX 35 45 70 46 36 47 75 48 69 49 71 50 37 51 74 52 68 53 67 54
REMARK SMILES IDX 38 56 60 57 45 58 59 59 46 60 49 61 58 62 72 63 47 64 48 65
REMARK SMILES IDX 57 67 73 68 50 69 39 70 40 71 44 72 41 73 43 74 42 75 61 76
REMARK SMILES IDX 62 77 66 78 63 79 65 80 64 81 51 82 52 83 56 84 53 85 55 86
REMARK SMILES IDX 54 87
REMARK H PARENT 22 5 27 36 71 55 49 66
REMARK Flexibility Score: inf
ROOT
ATOM      1  C   UNL A   1      35.779  34.280  33.938  1.00  0.00     0.116 C 
ENDROOT
BRANCH   1   2
ATOM      2  N   UNL A   1      36.318  33.010  33.480  1.00  0.00    -0.353 N 
ATOM      3  C   UNL A   1      37.262  32.204  34.068  1.00  0.00     0.260 C 
ATOM      4  O   UNL A   1      37.519  31.126  33.526  1.00  0.00    -0.271 OA
ATOM      5  H   UNL A   1      35.954  32.680  32.626  1.00  0.00     0.163 HD
BRANCH   3   6
ATOM      6  C   UNL A   1      37.998  32.664  35.341  1.00  0.00     0.258 C 
ATOM      7  C   UNL A   1      38.089  31.475  36.292  1.00  0.00     0.064 C 
BRANCH   6   8
ATOM      8  O   UNL A   1      39.210  33.205  34.826  1.00  0.00    -0.480 OA
BRANCH   8   9
ATOM      9  C   UNL A   1      40.453  32.680  34.975  1.00  0.00     0.127 A 
ATOM     10  C   UNL A   1      41.296  33.416  35.840  1.00  0.00     0.018 A 
ATOM     11  C   UNL A   1      42.644  33.065  35.971  1.00  0.00     0.012 A 
ATOM     12  C   UNL A   1      43.144  31.959  35.287  1.00  0.00     0.001 A 
ATOM     13  C   UNL A   1      40.948  31.544  34.346  1.00  0.00     0.047 A 
ATOM     14  C   UNL A   1      42.294  31.191  34.493  1.00  0.00     0.004 A 
BRANCH  10  15
ATOM     15  C   UNL A   1      40.785  34.549  36.632  1.00  0.00     0.033 C 
ATOM     16  N   UNL A   1      39.465  33.495  39.888  1.00  0.00    -0.261 N 
ATOM     17  C   UNL A   1      40.140  33.210  38.703  1.00  0.00     0.270 C 
ATOM     18  C   UNL A   1      39.097  34.815  40.091  1.00  0.00     0.152 C 
ATOM     19  O   UNL A   1      40.572  32.116  38.361  1.00  0.00    -0.268 OA
ATOM     20  C   UNL A   1      40.266  34.445  37.868  1.00  0.00     0.081 C 
ATOM     21  S   UNL A   1      39.591  35.791  38.705  1.00  0.00    -0.054 SA
ATOM     22  S   UNL A   1      38.391  35.535  41.426  1.00  0.00    -0.051 S 
BRANCH  16  23
ATOM     23  C   UNL A   1      39.142  32.423  40.777  1.00  0.00     0.054 A 
ATOM     24  C   UNL A   1      38.155  29.488  43.799  1.00  0.00     0.044 C 
ATOM     25  C   UNL A   1      38.521  30.486  42.742  1.00  0.00    -0.051 A 
ATOM     26  C   UNL A   1      39.777  31.092  42.722  1.00  0.00     0.005 A 
ATOM     27  C   UNL A   1      37.585  30.838  41.763  1.00  0.00     0.009 A 
ATOM     28  C   UNL A   1      40.082  32.052  41.754  1.00  0.00     0.027 A 
ATOM     29  C   UNL A   1      37.883  31.787  40.766  1.00  0.00    -0.027 A 
ATOM     30  C   UNL A   1      36.813  32.062  39.741  1.00  0.00     0.046 C 
ENDBRANCH  16  23
ENDBRANCH  10  15
ENDBRANCH   8   9
ENDBRANCH   6   8
ENDBRANCH   3   6
ENDBRANCH   1   2
BRANCH   1  31
ATOM     31  C   UNL A   1      35.783  35.348  32.849  1.00  0.00     0.023 C 
BRANCH  31  32
ATOM     32  C   UNL A   1      34.410  35.922  32.509  1.00  0.00     0.023 C 
BRANCH  32  33
ATOM     33  C   UNL A   1      33.329  34.890  32.210  1.00  0.00     0.116 C 
BRANCH  33  34
ATOM     34  N   UNL A   1      32.753  35.019  30.879  1.00  0.00    -0.352 N 
ATOM     35  C   UNL A   1      33.268  34.610  29.672  1.00  0.00     0.251 C 
ATOM     36  H   UNL A   1      31.874  35.460  30.838  1.00  0.00     0.163 HD
ATOM     37  O   UNL A   1      32.694  34.884  28.624  1.00  0.00    -0.269 OA
BRANCH  35  38
ATOM     38  C   UNL A   1      34.548  33.873  29.644  1.00  0.00     0.039 A 
ATOM     39  C   UNL A   1      35.593  34.364  28.857  1.00  0.00     0.014 A 
ATOM     40  C   UNL A   1      34.730  32.731  30.429  1.00  0.00     0.014 A 
ATOM     41  C   UNL A   1      36.850  33.761  28.925  1.00  0.00     0.010 A 
ATOM     42  C   UNL A   1      35.999  32.174  30.548  1.00  0.00     0.010 A 
ATOM     43  C   UNL A   1      37.073  32.693  29.807  1.00  0.00    -0.014 A 
BRANCH  43  44
ATOM     44  C   UNL A   1      38.426  32.114  29.997  1.00  0.00     0.031 A 
ATOM     45  C   UNL A   1      39.514  32.933  30.628  1.00  0.00     0.074 A 
ATOM     46  C   UNL A   1      38.696  30.885  29.516  1.00  0.00     0.049 A 
ATOM     47  N   UNL A   1      40.783  32.645  30.774  1.00  0.00    -0.248 NA
ATOM     48  C   UNL A   1      39.133  34.257  31.142  1.00  0.00     0.031 C 
ATOM     49  C   UNL A   1      37.736  30.000  28.853  1.00  0.00     0.029 A 
ATOM     50  N   UNL A   1      39.869  30.172  29.500  1.00  0.00    -0.354 N 
ATOM     51  C   UNL A   1      41.354  33.758  31.376  1.00  0.00     0.074 A 
ATOM     52  C   UNL A   1      40.303  34.742  31.532  1.00  0.00     0.031 C 
ATOM     53  C   UNL A   1      38.354  28.858  28.509  1.00  0.00     0.029 A 
ATOM     54  C   UNL A   1      39.760  28.946  28.888  1.00  0.00     0.049 A 
ATOM     55  H   UNL A   1      40.709  30.507  29.890  1.00  0.00     0.167 HD
ATOM     56  C   UNL A   1      42.635  33.942  31.776  1.00  0.00     0.031 A 
ATOM     57  C   UNL A   1      40.691  28.006  28.644  1.00  0.00     0.031 A 
ATOM     58  C   UNL A   1      43.677  32.962  31.633  1.00  0.00     0.049 A 
ATOM     59  C   UNL A   1      42.111  28.246  29.073  1.00  0.00     0.074 A 
ATOM     60  C   UNL A   1      44.991  33.034  32.062  1.00  0.00     0.029 A 
ATOM     61  N   UNL A   1      43.525  31.734  31.009  1.00  0.00    -0.354 N 
ATOM     62  N   UNL A   1      42.622  29.281  29.693  1.00  0.00    -0.248 NA
ATOM     63  C   UNL A   1      43.082  27.185  28.767  1.00  0.00     0.031 C 
ATOM     64  C   UNL A   1      45.646  31.866  31.657  1.00  0.00     0.029 A 
ATOM     65  C   UNL A   1      44.728  31.050  31.017  1.00  0.00     0.049 A 
ATOM     66  H   UNL A   1      42.686  31.399  30.617  1.00  0.00     0.167 HD
ATOM     67  C   UNL A   1      43.968  28.989  29.869  1.00  0.00     0.074 A 
ATOM     68  C   UNL A   1      44.191  27.673  29.306  1.00  0.00     0.031 C 
ATOM     69  C   UNL A   1      44.933  29.744  30.446  1.00  0.00     0.031 A 
BRANCH  56  70
ATOM     70  C   UNL A   1      42.978  35.263  32.403  1.00  0.00    -0.014 A 
ATOM     71  C   UNL A   1      42.707  35.516  33.756  1.00  0.00     0.009 A 
ATOM     72  C   UNL A   1      43.608  36.256  31.637  1.00  0.00     0.009 A 
ATOM     73  C   UNL A   1      43.031  36.750  34.323  1.00  0.00     0.001 A 
ATOM     74  C   UNL A   1      43.954  37.480  32.214  1.00  0.00     0.001 A 
ATOM     75  C   UNL A   1      43.657  37.728  33.553  1.00  0.00     0.000 A 
ENDBRANCH  56  70
BRANCH  57  76
ATOM     76  C   UNL A   1      40.314  26.745  27.954  1.00  0.00    -0.014 A 
ATOM     77  C   UNL A   1      40.658  26.544  26.609  1.00  0.00     0.009 A 
ATOM     78  C   UNL A   1      39.604  25.743  28.632  1.00  0.00     0.009 A 
ATOM     79  C   UNL A   1      40.276  25.373  25.950  1.00  0.00     0.001 A 
ATOM     80  C   UNL A   1      39.247  24.562  27.977  1.00  0.00     0.001 A 
ATOM     81  C   UNL A   1      39.575  24.383  26.635  1.00  0.00     0.000 A 
ENDBRANCH  57  76
BRANCH  69  82
ATOM     82  C   UNL A   1      46.314  29.157  30.515  1.00  0.00    -0.014 A 
ATOM     83  C   UNL A   1      46.682  28.293  31.557  1.00  0.00     0.009 A 
ATOM     84  C   UNL A   1      47.243  29.441  29.503  1.00  0.00     0.009 A 
ATOM     85  C   UNL A   1      47.966  27.745  31.597  1.00  0.00     0.001 A 
ATOM     86  C   UNL A   1      48.517  28.872  29.532  1.00  0.00     0.001 A 
ATOM     87  C   UNL A   1      48.879  28.030  30.582  1.00  0.00     0.000 A 
ENDBRANCH  69  82
ENDBRANCH  43  44
ENDBRANCH  35  38
ENDBRANCH  33  34
ENDBRANCH  32  33
ENDBRANCH  31  32
ENDBRANCH   1  31
TORSDOF 15
ENDMDL
