MODEL 1
REMARK VINA RESULT:     -11.5      0.000      0.000
REMARK SMILES Cn1c(Cn2nnc3ccccc32)nnc1SCC(=O)NCCCCNC(=O)c1ccc(-c2c3nc(c(-c4ccccc4)c4ccc([nH]4)c(-c4ccccc4)c4nc(c(-c5ccccc5)c5ccc2[nH]5)C=C4)C=C3)cc1
REMARK SMILES IDX 22 1 21 2 19 3 20 4 18 6 17 7 16 8 1 9 2 10 3 11 14 12 15 13
REMARK SMILES IDX 4 14 5 15 6 16 13 17 7 18 8 19 12 20 9 21 11 22 10 23 23 24
REMARK SMILES IDX 24 25 25 26 26 27 27 28 28 30 29 31 30 32 76 33 31 34 75 35
REMARK SMILES IDX 32 36 33 37 34 38 69 39 35 40 74 41 68 42 70 43 36 44 73 45
REMARK SMILES IDX 67 46 66 47 37 49 59 50 44 51 58 52 45 53 48 54 57 55 71 56
REMARK SMILES IDX 46 57 47 58 56 60 72 61 49 62 38 63 39 64 43 65 40 66 42 67
REMARK SMILES IDX 41 68 60 69 61 70 65 71 62 72 64 73 63 74 50 75 51 76 55 77
REMARK SMILES IDX 52 78 54 79 53 80
REMARK H PARENT 21 5 26 29 70 48 48 59
REMARK Flexibility Score: inf
ROOT
ATOM      1  C   UNL A   1      33.594  27.063  25.078  1.00  0.00     0.116 C 
ENDROOT
BRANCH   1   2
ATOM      2  N   UNL A   1      33.858  26.759  23.685  1.00  0.00    -0.355 N 
ATOM      3  C   UNL A   1      33.493  25.662  22.985  1.00  0.00     0.230 C 
ATOM      4  O   UNL A   1      33.756  25.645  21.763  1.00  0.00    -0.274 OA
ATOM      5  H   UNL A   1      34.370  27.436  23.187  1.00  0.00     0.163 HD
BRANCH   3   6
ATOM      6  C   UNL A   1      32.727  24.532  23.625  1.00  0.00     0.178 C 
BRANCH   6   7
ATOM      7  S   UNL A   1      33.278  22.878  23.229  1.00  0.00    -0.076 SA
BRANCH   7   8
ATOM      8  C   UNL A   1      34.932  22.640  23.645  1.00  0.00     0.191 A 
ATOM      9  C   UNL A   1      34.942  21.369  25.862  1.00  0.00     0.154 C 
ATOM     10  N   UNL A   1      35.515  22.026  24.720  1.00  0.00    -0.308 N 
ATOM     11  C   UNL A   1      36.877  22.225  24.577  1.00  0.00     0.155 A 
ATOM     12  N   UNL A   1      37.074  22.981  23.518  1.00  0.00    -0.132 NA
ATOM     13  N   UNL A   1      35.872  23.220  22.929  1.00  0.00    -0.123 NA
BRANCH  11  14
ATOM     14  C   UNL A   1      37.922  21.742  25.525  1.00  0.00     0.224 C 
BRANCH  14  15
ATOM     15  N   UNL A   1      38.547  22.831  26.253  1.00  0.00    -0.237 N 
ATOM     16  N   UNL A   1      37.991  24.062  26.220  1.00  0.00    -0.066 NA
ATOM     17  C   UNL A   1      39.740  22.833  26.927  1.00  0.00     0.089 A 
ATOM     18  N   UNL A   1      38.784  24.875  26.907  1.00  0.00    -0.130 NA
ATOM     19  C   UNL A   1      39.851  24.148  27.362  1.00  0.00     0.113 A 
ATOM     20  C   UNL A   1      40.691  21.850  27.219  1.00  0.00     0.030 A 
ATOM     21  C   UNL A   1      40.954  24.520  28.144  1.00  0.00     0.032 A 
ATOM     22  C   UNL A   1      41.761  22.225  28.033  1.00  0.00     0.002 A 
ATOM     23  C   UNL A   1      41.896  23.538  28.486  1.00  0.00     0.002 A 
ENDBRANCH  14  15
ENDBRANCH  11  14
ENDBRANCH   7   8
ENDBRANCH   6   7
ENDBRANCH   3   6
ENDBRANCH   1   2
BRANCH   1  24
ATOM     24  C   UNL A   1      32.539  28.156  25.218  1.00  0.00     0.023 C 
BRANCH  24  25
ATOM     25  C   UNL A   1      33.110  29.547  25.535  1.00  0.00     0.023 C 
BRANCH  25  26
ATOM     26  C   UNL A   1      33.838  29.626  26.873  1.00  0.00     0.116 C 
BRANCH  26  27
ATOM     27  N   UNL A   1      34.173  30.978  27.251  1.00  0.00    -0.352 N 
ATOM     28  C   UNL A   1      35.318  31.576  27.677  1.00  0.00     0.251 C 
ATOM     29  H   UNL A   1      33.412  31.598  27.188  1.00  0.00     0.163 HD
ATOM     30  O   UNL A   1      35.339  32.807  27.640  1.00  0.00    -0.269 OA
BRANCH  28  31
ATOM     31  C   UNL A   1      36.417  30.862  28.360  1.00  0.00     0.039 A 
ATOM     32  C   UNL A   1      37.259  31.335  29.359  1.00  0.00     0.014 A 
ATOM     33  C   UNL A   1      36.734  29.639  27.775  1.00  0.00     0.014 A 
ATOM     34  C   UNL A   1      38.572  30.842  29.389  1.00  0.00     0.010 A 
ATOM     35  C   UNL A   1      37.887  28.987  28.137  1.00  0.00     0.010 A 
ATOM     36  C   UNL A   1      38.947  29.759  28.560  1.00  0.00    -0.014 A 
BRANCH  36  37
ATOM     37  C   UNL A   1      40.247  29.041  28.644  1.00  0.00     0.031 A 
ATOM     38  C   UNL A   1      40.404  28.685  30.115  1.00  0.00     0.074 A 
ATOM     39  C   UNL A   1      41.104  28.725  27.593  1.00  0.00     0.049 A 
ATOM     40  N   UNL A   1      41.142  29.371  30.926  1.00  0.00    -0.248 NA
ATOM     41  C   UNL A   1      39.439  27.840  30.880  1.00  0.00     0.031 C 
ATOM     42  C   UNL A   1      41.076  29.023  26.129  1.00  0.00     0.029 A 
ATOM     43  N   UNL A   1      42.319  28.029  27.631  1.00  0.00    -0.354 N 
ATOM     44  C   UNL A   1      41.037  28.773  32.174  1.00  0.00     0.074 A 
ATOM     45  C   UNL A   1      39.836  28.000  32.150  1.00  0.00     0.031 C 
ATOM     46  C   UNL A   1      42.009  28.289  25.442  1.00  0.00     0.029 A 
ATOM     47  C   UNL A   1      42.820  27.526  26.378  1.00  0.00     0.049 A 
ATOM     48  H   UNL A   1      42.807  27.891  28.475  1.00  0.00     0.167 HD
ATOM     49  C   UNL A   1      42.140  28.730  32.965  1.00  0.00     0.031 A 
ATOM     50  C   UNL A   1      44.007  26.845  26.109  1.00  0.00     0.031 A 
ATOM     51  C   UNL A   1      43.108  29.678  32.470  1.00  0.00     0.049 A 
ATOM     52  C   UNL A   1      44.869  27.053  27.302  1.00  0.00     0.074 A 
ATOM     53  C   UNL A   1      43.118  31.051  32.336  1.00  0.00     0.029 A 
ATOM     54  N   UNL A   1      43.921  29.167  31.491  1.00  0.00    -0.354 N 
ATOM     55  N   UNL A   1      45.403  28.215  27.543  1.00  0.00    -0.248 NA
ATOM     56  C   UNL A   1      44.552  26.210  28.453  1.00  0.00     0.031 C 
ATOM     57  C   UNL A   1      43.651  31.295  31.036  1.00  0.00     0.029 A 
ATOM     58  C   UNL A   1      44.141  30.100  30.514  1.00  0.00     0.049 A 
ATOM     59  H   UNL A   1      44.294  28.255  31.490  1.00  0.00     0.167 HD
ATOM     60  C   UNL A   1      44.998  28.485  28.835  1.00  0.00     0.074 A 
ATOM     61  C   UNL A   1      44.464  27.203  29.347  1.00  0.00     0.031 C 
ATOM     62  C   UNL A   1      44.740  29.765  29.243  1.00  0.00     0.031 A 
BRANCH  49  63
ATOM     63  C   UNL A   1      42.534  27.541  33.801  1.00  0.00    -0.014 A 
ATOM     64  C   UNL A   1      41.887  27.160  34.995  1.00  0.00     0.009 A 
ATOM     65  C   UNL A   1      43.436  26.614  33.250  1.00  0.00     0.009 A 
ATOM     66  C   UNL A   1      42.177  25.948  35.636  1.00  0.00     0.001 A 
ATOM     67  C   UNL A   1      43.705  25.389  33.873  1.00  0.00     0.001 A 
ATOM     68  C   UNL A   1      43.091  25.065  35.076  1.00  0.00     0.000 A 
ENDBRANCH  49  63
BRANCH  50  69
ATOM     69  C   UNL A   1      44.208  25.528  25.367  1.00  0.00    -0.014 A 
ATOM     70  C   UNL A   1      43.078  24.736  25.147  1.00  0.00     0.009 A 
ATOM     71  C   UNL A   1      45.469  24.882  25.188  1.00  0.00     0.009 A 
ATOM     72  C   UNL A   1      43.172  23.353  24.931  1.00  0.00     0.001 A 
ATOM     73  C   UNL A   1      45.562  23.492  24.923  1.00  0.00     0.001 A 
ATOM     74  C   UNL A   1      44.408  22.721  24.848  1.00  0.00     0.000 A 
ENDBRANCH  50  69
BRANCH  62  75
ATOM     75  C   UNL A   1      45.043  30.928  28.313  1.00  0.00    -0.014 A 
ATOM     76  C   UNL A   1      44.033  31.251  27.397  1.00  0.00     0.009 A 
ATOM     77  C   UNL A   1      46.290  31.570  28.160  1.00  0.00     0.009 A 
ATOM     78  C   UNL A   1      44.239  32.173  26.372  1.00  0.00     0.001 A 
ATOM     79  C   UNL A   1      46.486  32.532  27.150  1.00  0.00     0.001 A 
ATOM     80  C   UNL A   1      45.459  32.830  26.258  1.00  0.00     0.000 A 
ENDBRANCH  62  75
ENDBRANCH  36  37
ENDBRANCH  28  31
ENDBRANCH  26  27
ENDBRANCH  25  26
ENDBRANCH  24  25
ENDBRANCH   1  24
TORSDOF 15
ENDMDL
MODEL 2
REMARK VINA RESULT:     -11.0      3.011      5.748
REMARK SMILES Cn1c(Cn2nnc3ccccc32)nnc1SCC(=O)NCCCCNC(=O)c1ccc(-c2c3nc(c(-c4ccccc4)c4ccc([nH]4)c(-c4ccccc4)c4nc(c(-c5ccccc5)c5ccc2[nH]5)C=C4)C=C3)cc1
REMARK SMILES IDX 22 1 21 2 19 3 20 4 18 6 17 7 16 8 1 9 2 10 3 11 14 12 15 13
REMARK SMILES IDX 4 14 5 15 6 16 13 17 7 18 8 19 12 20 9 21 11 22 10 23 23 24
REMARK SMILES IDX 24 25 25 26 26 27 27 28 28 30 29 31 30 32 76 33 31 34 75 35
REMARK SMILES IDX 32 36 33 37 34 38 69 39 35 40 74 41 68 42 70 43 36 44 73 45
REMARK SMILES IDX 67 46 66 47 37 49 59 50 44 51 58 52 45 53 48 54 57 55 71 56
REMARK SMILES IDX 46 57 47 58 56 60 72 61 49 62 38 63 39 64 43 65 40 66 42 67
REMARK SMILES IDX 41 68 60 69 61 70 65 71 62 72 64 73 63 74 50 75 51 76 55 77
REMARK SMILES IDX 52 78 54 79 53 80
REMARK H PARENT 21 5 26 29 70 48 48 59
REMARK Flexibility Score: inf
ROOT
ATOM      1  C   UNL A   1      33.678  28.976  25.444  1.00  0.00     0.116 C 
ENDROOT
BRANCH   1   2
ATOM      2  N   UNL A   1      32.871  29.235  24.267  1.00  0.00    -0.355 N 
ATOM      3  C   UNL A   1      31.622  28.795  23.996  1.00  0.00     0.230 C 
ATOM      4  O   UNL A   1      31.079  29.214  22.950  1.00  0.00    -0.274 OA
ATOM      5  H   UNL A   1      33.287  29.803  23.578  1.00  0.00     0.163 HD
BRANCH   3   6
ATOM      6  C   UNL A   1      30.874  27.898  24.949  1.00  0.00     0.178 C 
BRANCH   6   7
ATOM      7  S   UNL A   1      30.686  26.192  24.447  1.00  0.00    -0.076 SA
BRANCH   7   8
ATOM      8  C   UNL A   1      31.236  25.105  25.664  1.00  0.00     0.191 A 
ATOM      9  C   UNL A   1      33.738  24.778  25.261  1.00  0.00     0.154 C 
ATOM     10  N   UNL A   1      32.476  24.586  25.919  1.00  0.00    -0.308 N 
ATOM     11  C   UNL A   1      32.305  23.691  26.960  1.00  0.00     0.155 A 
ATOM     12  N   UNL A   1      31.021  23.630  27.245  1.00  0.00    -0.132 NA
ATOM     13  N   UNL A   1      30.363  24.522  26.457  1.00  0.00    -0.123 NA
BRANCH  11  14
ATOM     14  C   UNL A   1      33.386  22.868  27.575  1.00  0.00     0.224 C 
BRANCH  14  15
ATOM     15  N   UNL A   1      34.021  21.988  26.611  1.00  0.00    -0.237 N 
ATOM     16  N   UNL A   1      33.337  20.930  26.122  1.00  0.00    -0.066 NA
ATOM     17  C   UNL A   1      35.317  22.000  26.167  1.00  0.00     0.089 A 
ATOM     18  N   UNL A   1      34.157  20.263  25.318  1.00  0.00    -0.130 NA
ATOM     19  C   UNL A   1      35.367  20.903  25.317  1.00  0.00     0.113 A 
ATOM     20  C   UNL A   1      36.410  22.844  26.389  1.00  0.00     0.030 A 
ATOM     21  C   UNL A   1      36.557  20.624  24.628  1.00  0.00     0.032 A 
ATOM     22  C   UNL A   1      37.574  22.578  25.665  1.00  0.00     0.002 A 
ATOM     23  C   UNL A   1      37.650  21.485  24.801  1.00  0.00     0.002 A 
ENDBRANCH  14  15
ENDBRANCH  11  14
ENDBRANCH   7   8
ENDBRANCH   6   7
ENDBRANCH   3   6
ENDBRANCH   1   2
BRANCH   1  24
ATOM     24  C   UNL A   1      33.463  30.044  26.512  1.00  0.00     0.023 C 
BRANCH  24  25
ATOM     25  C   UNL A   1      34.441  29.958  27.695  1.00  0.00     0.023 C 
BRANCH  25  26
ATOM     26  C   UNL A   1      35.904  29.849  27.281  1.00  0.00     0.116 C 
BRANCH  26  27
ATOM     27  N   UNL A   1      36.805  30.441  28.241  1.00  0.00    -0.352 N 
ATOM     28  C   UNL A   1      38.142  30.330  28.465  1.00  0.00     0.251 C 
ATOM     29  H   UNL A   1      36.357  31.054  28.866  1.00  0.00     0.163 HD
ATOM     30  O   UNL A   1      38.651  31.192  29.183  1.00  0.00    -0.269 OA
BRANCH  28  31
ATOM     31  C   UNL A   1      38.947  29.150  28.084  1.00  0.00     0.039 A 
ATOM     32  C   UNL A   1      39.194  28.003  28.827  1.00  0.00     0.014 A 
ATOM     33  C   UNL A   1      39.678  29.330  26.913  1.00  0.00     0.014 A 
ATOM     34  C   UNL A   1      40.431  27.366  28.646  1.00  0.00     0.010 A 
ATOM     35  C   UNL A   1      40.657  28.430  26.574  1.00  0.00     0.010 A 
ATOM     36  C   UNL A   1      41.294  27.768  27.600  1.00  0.00    -0.014 A 
BRANCH  36  37
ATOM     37  C   UNL A   1      42.534  27.047  27.204  1.00  0.00     0.031 A 
ATOM     38  C   UNL A   1      42.124  25.585  27.110  1.00  0.00     0.074 A 
ATOM     39  C   UNL A   1      43.781  27.603  26.930  1.00  0.00     0.049 A 
ATOM     40  N   UNL A   1      42.361  24.731  28.051  1.00  0.00    -0.248 NA
ATOM     41  C   UNL A   1      41.061  25.069  26.197  1.00  0.00     0.031 C 
ATOM     42  C   UNL A   1      44.313  28.998  26.996  1.00  0.00     0.029 A 
ATOM     43  N   UNL A   1      44.959  26.961  26.529  1.00  0.00    -0.354 N 
ATOM     44  C   UNL A   1      41.840  23.513  27.635  1.00  0.00     0.074 A 
ATOM     45  C   UNL A   1      40.877  23.813  26.625  1.00  0.00     0.031 C 
ATOM     46  C   UNL A   1      45.538  29.106  26.391  1.00  0.00     0.029 A 
ATOM     47  C   UNL A   1      45.995  27.790  25.969  1.00  0.00     0.049 A 
ATOM     48  H   UNL A   1      45.074  25.988  26.626  1.00  0.00     0.167 HD
ATOM     49  C   UNL A   1      42.517  22.379  27.951  1.00  0.00     0.031 A 
ATOM     50  C   UNL A   1      47.271  27.437  25.531  1.00  0.00     0.031 A 
ATOM     51  C   UNL A   1      43.458  22.673  29.004  1.00  0.00     0.049 A 
ATOM     52  C   UNL A   1      47.530  26.087  26.095  1.00  0.00     0.074 A 
ATOM     53  C   UNL A   1      43.329  23.094  30.311  1.00  0.00     0.029 A 
ATOM     54  N   UNL A   1      44.664  23.138  28.543  1.00  0.00    -0.354 N 
ATOM     55  N   UNL A   1      47.749  25.929  27.368  1.00  0.00    -0.248 NA
ATOM     56  C   UNL A   1      46.893  24.982  25.382  1.00  0.00     0.031 C 
ATOM     57  C   UNL A   1      44.306  24.120  30.471  1.00  0.00     0.029 A 
ATOM     58  C   UNL A   1      45.130  24.142  29.348  1.00  0.00     0.049 A 
ATOM     59  H   UNL A   1      45.129  22.797  27.745  1.00  0.00     0.167 HD
ATOM     60  C   UNL A   1      46.817  24.976  27.729  1.00  0.00     0.074 A 
ATOM     61  C   UNL A   1      46.308  24.430  26.452  1.00  0.00     0.031 C 
ATOM     62  C   UNL A   1      46.237  24.989  28.969  1.00  0.00     0.031 A 
BRANCH  49  63
ATOM     63  C   UNL A   1      42.698  21.215  27.012  1.00  0.00    -0.014 A 
ATOM     64  C   UNL A   1      43.624  21.188  25.949  1.00  0.00     0.009 A 
ATOM     65  C   UNL A   1      42.090  19.993  27.349  1.00  0.00     0.009 A 
ATOM     66  C   UNL A   1      43.876  20.018  25.220  1.00  0.00     0.001 A 
ATOM     67  C   UNL A   1      42.362  18.816  26.642  1.00  0.00     0.001 A 
ATOM     68  C   UNL A   1      43.240  18.832  25.564  1.00  0.00     0.000 A 
ENDBRANCH  49  63
BRANCH  50  69
ATOM     69  C   UNL A   1      47.941  27.739  24.195  1.00  0.00    -0.014 A 
ATOM     70  C   UNL A   1      47.140  28.264  23.178  1.00  0.00     0.009 A 
ATOM     71  C   UNL A   1      49.208  27.220  23.787  1.00  0.00     0.009 A 
ATOM     72  C   UNL A   1      47.482  28.137  21.823  1.00  0.00     0.001 A 
ATOM     73  C   UNL A   1      49.572  27.134  22.420  1.00  0.00     0.001 A 
ATOM     74  C   UNL A   1      48.680  27.547  21.437  1.00  0.00     0.000 A 
ENDBRANCH  50  69
BRANCH  62  75
ATOM     75  C   UNL A   1      46.726  25.970  30.020  1.00  0.00    -0.014 A 
ATOM     76  C   UNL A   1      46.489  27.324  29.743  1.00  0.00     0.009 A 
ATOM     77  C   UNL A   1      47.547  25.667  31.126  1.00  0.00     0.009 A 
ATOM     78  C   UNL A   1      47.035  28.340  30.526  1.00  0.00     0.001 A 
ATOM     79  C   UNL A   1      48.065  26.691  31.942  1.00  0.00     0.001 A 
ATOM     80  C   UNL A   1      47.808  28.027  31.638  1.00  0.00     0.000 A 
ENDBRANCH  62  75
ENDBRANCH  36  37
ENDBRANCH  28  31
ENDBRANCH  26  27
ENDBRANCH  25  26
ENDBRANCH  24  25
ENDBRANCH   1  24
TORSDOF 15
ENDMDL
MODEL 3
REMARK VINA RESULT:     -10.8      1.802      3.015
REMARK SMILES Cn1c(Cn2nnc3ccccc32)nnc1SCC(=O)NCCCCNC(=O)c1ccc(-c2c3nc(c(-c4ccccc4)c4ccc([nH]4)c(-c4ccccc4)c4nc(c(-c5ccccc5)c5ccc2[nH]5)C=C4)C=C3)cc1
REMARK SMILES IDX 22 1 21 2 19 3 20 4 18 6 17 7 16 8 1 9 2 10 3 11 14 12 15 13
REMARK SMILES IDX 4 14 5 15 6 16 13 17 7 18 8 19 12 20 9 21 11 22 10 23 23 24
REMARK SMILES IDX 24 25 25 26 26 27 27 28 28 30 29 31 30 32 76 33 31 34 75 35
REMARK SMILES IDX 32 36 33 37 34 38 69 39 35 40 74 41 68 42 70 43 36 44 73 45
REMARK SMILES IDX 67 46 66 47 37 49 59 50 44 51 58 52 45 53 48 54 57 55 71 56
REMARK SMILES IDX 46 57 47 58 56 60 72 61 49 62 38 63 39 64 43 65 40 66 42 67
REMARK SMILES IDX 41 68 60 69 61 70 65 71 62 72 64 73 63 74 50 75 51 76 55 77
REMARK SMILES IDX 52 78 54 79 53 80
REMARK H PARENT 21 5 26 29 70 48 48 59
REMARK Flexibility Score: inf
ROOT
ATOM      1  C   UNL A   1      32.784  27.720  26.076  1.00  0.00     0.116 C 
ENDROOT
BRANCH   1   2
ATOM      2  N   UNL A   1      33.449  28.074  24.837  1.00  0.00    -0.355 N 
ATOM      3  C   UNL A   1      32.921  28.670  23.745  1.00  0.00     0.230 C 
ATOM      4  O   UNL A   1      33.703  28.961  22.813  1.00  0.00    -0.274 OA
ATOM      5  H   UNL A   1      34.407  27.850  24.784  1.00  0.00     0.163 HD
BRANCH   3   6
ATOM      6  C   UNL A   1      31.463  29.046  23.675  1.00  0.00     0.178 C 
BRANCH   6   7
ATOM      7  S   UNL A   1      30.376  27.860  22.895  1.00  0.00    -0.076 SA
BRANCH   7   8
ATOM      8  C   UNL A   1      31.051  26.275  22.905  1.00  0.00     0.191 A 
ATOM      9  C   UNL A   1      30.320  25.194  25.102  1.00  0.00     0.154 C 
ATOM     10  N   UNL A   1      30.983  25.268  23.829  1.00  0.00    -0.308 N 
ATOM     11  C   UNL A   1      31.798  24.259  23.350  1.00  0.00     0.155 A 
ATOM     12  N   UNL A   1      32.375  24.683  22.246  1.00  0.00    -0.132 NA
ATOM     13  N   UNL A   1      31.894  25.923  21.958  1.00  0.00    -0.123 NA
BRANCH  11  14
ATOM     14  C   UNL A   1      32.048  22.957  24.034  1.00  0.00     0.224 C 
BRANCH  14  15
ATOM     15  N   UNL A   1      33.167  23.028  24.956  1.00  0.00    -0.237 N 
ATOM     16  N   UNL A   1      32.934  23.187  26.278  1.00  0.00    -0.066 NA
ATOM     17  C   UNL A   1      34.507  23.064  24.672  1.00  0.00     0.089 A 
ATOM     18  N   UNL A   1      34.113  23.282  26.881  1.00  0.00    -0.130 NA
ATOM     19  C   UNL A   1      35.090  23.196  25.926  1.00  0.00     0.113 A 
ATOM     20  C   UNL A   1      35.251  22.969  23.491  1.00  0.00     0.030 A 
ATOM     21  C   UNL A   1      36.488  23.221  26.032  1.00  0.00     0.032 A 
ATOM     22  C   UNL A   1      36.641  22.953  23.616  1.00  0.00     0.002 A 
ATOM     23  C   UNL A   1      37.252  23.081  24.864  1.00  0.00     0.002 A 
ENDBRANCH  14  15
ENDBRANCH  11  14
ENDBRANCH   7   8
ENDBRANCH   6   7
ENDBRANCH   3   6
ENDBRANCH   1   2
BRANCH   1  24
ATOM     24  C   UNL A   1      33.226  28.624  27.223  1.00  0.00     0.023 C 
BRANCH  24  25
ATOM     25  C   UNL A   1      32.530  29.994  27.251  1.00  0.00     0.023 C 
BRANCH  25  26
ATOM     26  C   UNL A   1      33.490  31.176  27.172  1.00  0.00     0.116 C 
BRANCH  26  27
ATOM     27  N   UNL A   1      33.938  31.623  28.469  1.00  0.00    -0.352 N 
ATOM     28  C   UNL A   1      35.166  31.836  29.015  1.00  0.00     0.251 C 
ATOM     29  H   UNL A   1      33.200  31.814  29.090  1.00  0.00     0.163 HD
ATOM     30  O   UNL A   1      35.197  32.495  30.055  1.00  0.00    -0.269 OA
BRANCH  28  31
ATOM     31  C   UNL A   1      36.399  31.160  28.560  1.00  0.00     0.039 A 
ATOM     32  C   UNL A   1      36.517  30.079  27.694  1.00  0.00     0.014 A 
ATOM     33  C   UNL A   1      37.541  31.562  29.248  1.00  0.00     0.014 A 
ATOM     34  C   UNL A   1      37.580  29.189  27.908  1.00  0.00     0.010 A 
ATOM     35  C   UNL A   1      38.705  30.848  29.115  1.00  0.00     0.010 A 
ATOM     36  C   UNL A   1      38.598  29.503  28.839  1.00  0.00    -0.014 A 
BRANCH  36  37
ATOM     37  C   UNL A   1      39.856  28.728  29.008  1.00  0.00     0.031 A 
ATOM     38  C   UNL A   1      39.950  28.454  30.501  1.00  0.00     0.074 A 
ATOM     39  C   UNL A   1      40.726  28.306  28.006  1.00  0.00     0.049 A 
ATOM     40  N   UNL A   1      40.698  29.149  31.294  1.00  0.00    -0.248 NA
ATOM     41  C   UNL A   1      38.920  27.706  31.282  1.00  0.00     0.031 C 
ATOM     42  C   UNL A   1      40.758  28.516  26.527  1.00  0.00     0.029 A 
ATOM     43  N   UNL A   1      41.902  27.554  28.124  1.00  0.00    -0.354 N 
ATOM     44  C   UNL A   1      40.524  28.633  32.572  1.00  0.00     0.074 A 
ATOM     45  C   UNL A   1      39.287  27.922  32.553  1.00  0.00     0.031 C 
ATOM     46  C   UNL A   1      41.672  27.696  25.915  1.00  0.00     0.029 A 
ATOM     47  C   UNL A   1      42.414  26.951  26.921  1.00  0.00     0.049 A 
ATOM     48  H   UNL A   1      42.357  27.442  28.991  1.00  0.00     0.167 HD
ATOM     49  C   UNL A   1      41.600  28.584  33.400  1.00  0.00     0.031 A 
ATOM     50  C   UNL A   1      43.572  26.197  26.732  1.00  0.00     0.031 A 
ATOM     51  C   UNL A   1      42.630  29.451  32.882  1.00  0.00     0.049 A 
ATOM     52  C   UNL A   1      44.407  26.433  27.939  1.00  0.00     0.074 A 
ATOM     53  C   UNL A   1      42.716  30.811  32.668  1.00  0.00     0.029 A 
ATOM     54  N   UNL A   1      43.444  28.840  31.962  1.00  0.00    -0.354 N 
ATOM     55  N   UNL A   1      44.992  27.580  28.128  1.00  0.00    -0.248 NA
ATOM     56  C   UNL A   1      44.012  25.678  29.126  1.00  0.00     0.031 C 
ATOM     57  C   UNL A   1      43.300  30.949  31.374  1.00  0.00     0.029 A 
ATOM     58  C   UNL A   1      43.742  29.701  30.940  1.00  0.00     0.049 A 
ATOM     59  H   UNL A   1      43.769  27.913  32.027  1.00  0.00     0.167 HD
ATOM     60  C   UNL A   1      44.563  27.946  29.388  1.00  0.00     0.074 A 
ATOM     61  C   UNL A   1      43.949  26.726  29.956  1.00  0.00     0.031 C 
ATOM     62  C   UNL A   1      44.360  29.261  29.711  1.00  0.00     0.031 A 
BRANCH  49  63
ATOM     63  C   UNL A   1      41.906  27.429  34.317  1.00  0.00    -0.014 A 
ATOM     64  C   UNL A   1      42.751  26.351  33.983  1.00  0.00     0.009 A 
ATOM     65  C   UNL A   1      41.529  27.539  35.667  1.00  0.00     0.009 A 
ATOM     66  C   UNL A   1      43.142  25.399  34.933  1.00  0.00     0.001 A 
ATOM     67  C   UNL A   1      41.942  26.605  36.625  1.00  0.00     0.001 A 
ATOM     68  C   UNL A   1      42.733  25.524  36.254  1.00  0.00     0.000 A 
ENDBRANCH  49  63
BRANCH  50  69
ATOM     69  C   UNL A   1      43.726  24.829  26.076  1.00  0.00    -0.014 A 
ATOM     70  C   UNL A   1      42.580  24.038  25.963  1.00  0.00     0.009 A 
ATOM     71  C   UNL A   1      44.971  24.156  25.886  1.00  0.00     0.009 A 
ATOM     72  C   UNL A   1      42.651  22.642  25.839  1.00  0.00     0.001 A 
ATOM     73  C   UNL A   1      45.039  22.750  25.715  1.00  0.00     0.001 A 
ATOM     74  C   UNL A   1      43.875  21.990  25.746  1.00  0.00     0.000 A 
ENDBRANCH  50  69
BRANCH  62  75
ATOM     75  C   UNL A   1      44.751  30.348  28.725  1.00  0.00    -0.014 A 
ATOM     76  C   UNL A   1      43.807  30.632  27.729  1.00  0.00     0.009 A 
ATOM     77  C   UNL A   1      46.023  30.948  28.606  1.00  0.00     0.009 A 
ATOM     78  C   UNL A   1      44.100  31.475  26.659  1.00  0.00     0.001 A 
ATOM     79  C   UNL A   1      46.306  31.832  27.547  1.00  0.00     0.001 A 
ATOM     80  C   UNL A   1      45.342  32.093  26.575  1.00  0.00     0.000 A 
ENDBRANCH  62  75
ENDBRANCH  36  37
ENDBRANCH  28  31
ENDBRANCH  26  27
ENDBRANCH  25  26
ENDBRANCH  24  25
ENDBRANCH   1  24
TORSDOF 15
ENDMDL
