MODEL 1
REMARK VINA RESULT:     -12.7      0.000      0.000
REMARK SMILES Cc1cnn(C2(C(=O)NCCCCNC(=O)c3ccc(-c4c5nc(c(-c6ccccc6)c6ccc([nH]6)c(-c6ccccc6)c6nc(c(-c7ccccc7)c7ccc4[nH]7)C=C6)C=C5)cc3)CCN(C(=O)c3cc4ccccc4[nH]3)CC2)c1
REMARK SMILES IDX 12 1 11 2 10 3 9 4 7 5 8 6 6 8 65 9 80 10 66 11 79 12 67 13
REMARK SMILES IDX 68 14 69 15 5 16 1 17 2 18 3 19 81 20 4 21 70 22 71 23 78 24
REMARK SMILES IDX 72 25 77 26 73 28 76 29 74 30 75 31 13 32 14 33 15 34 16 36
REMARK SMILES IDX 17 37 18 38 64 39 19 40 63 41 20 42 21 43 22 44 57 45 23 46
REMARK SMILES IDX 62 47 56 48 58 49 24 50 61 51 55 52 54 53 25 55 47 56 32 57
REMARK SMILES IDX 46 58 33 59 36 60 45 61 59 62 34 63 35 64 44 66 60 67 37 68
REMARK SMILES IDX 26 69 27 70 31 71 28 72 30 73 29 74 48 75 49 76 53 77 50 78
REMARK SMILES IDX 52 79 51 80 38 81 39 82 43 83 40 84 42 85 41 86
REMARK H PARENT 9 7 78 27 14 35 58 54 36 65
REMARK Flexibility Score: inf
ROOT
ATOM      1  C   UNL A   1      32.222  29.241  26.798  1.00  0.00     0.023 C 
ENDROOT
BRANCH   1   2
ATOM      2  C   UNL A   1      32.207  28.858  25.312  1.00  0.00     0.023 C 
BRANCH   2   3
ATOM      3  C   UNL A   1      33.456  28.145  24.779  1.00  0.00     0.116 C 
BRANCH   3   4
ATOM      4  N   UNL A   1      33.209  27.433  23.533  1.00  0.00    -0.354 N 
ATOM      5  C   UNL A   1      33.101  26.100  23.199  1.00  0.00     0.248 C 
ATOM      6  O   UNL A   1      32.843  25.937  22.005  1.00  0.00    -0.272 OA
ATOM      7  H   UNL A   1      33.095  28.034  22.762  1.00  0.00     0.163 HD
BRANCH   5   8
ATOM      8  C   UNL A   1      33.240  24.955  24.270  1.00  0.00     0.144 C 
ATOM      9  C   UNL A   1      33.491  23.628  23.501  1.00  0.00     0.062 C 
ATOM     10  C   UNL A   1      34.378  25.407  25.226  1.00  0.00     0.062 C 
ATOM     11  C   UNL A   1      34.397  22.625  24.199  1.00  0.00     0.123 C 
ATOM     12  C   UNL A   1      35.159  24.276  25.877  1.00  0.00     0.123 C 
ATOM     13  N   UNL A   1      35.505  23.253  24.898  1.00  0.00    -0.337 N 
ATOM     14  C   UNL A   1      36.808  22.852  24.603  1.00  0.00     0.270 C 
ATOM     15  O   UNL A   1      37.082  22.274  23.555  1.00  0.00    -0.267 OA
BRANCH   8  16
ATOM     16  N   UNL A   1      32.020  24.735  25.118  1.00  0.00    -0.257 N 
ATOM     17  C   UNL A   1      29.681  22.797  27.178  1.00  0.00     0.048 C 
ATOM     18  C   UNL A   1      30.467  23.768  26.387  1.00  0.00    -0.013 A 
ATOM     19  C   UNL A   1      30.176  25.114  26.107  1.00  0.00     0.138 A 
ATOM     20  C   UNL A   1      31.669  23.560  25.751  1.00  0.00     0.113 A 
ATOM     21  N   UNL A   1      31.110  25.694  25.355  1.00  0.00    -0.180 NA
ENDBRANCH   8  16
BRANCH  14  22
ATOM     22  C   UNL A   1      37.832  23.188  25.562  1.00  0.00     0.105 A 
ATOM     23  C   UNL A   1      38.095  24.383  26.213  1.00  0.00     0.042 A 
ATOM     24  N   UNL A   1      38.728  22.268  26.049  1.00  0.00    -0.351 N 
ATOM     25  C   UNL A   1      39.238  24.197  27.037  1.00  0.00     0.000 A 
ATOM     26  C   UNL A   1      39.646  22.875  26.874  1.00  0.00     0.046 A 
ATOM     27  H   UNL A   1      38.716  21.307  25.836  1.00  0.00     0.167 HD
ATOM     28  C   UNL A   1      39.969  25.032  27.902  1.00  0.00     0.010 A 
ATOM     29  C   UNL A   1      40.782  22.352  27.499  1.00  0.00     0.026 A 
ATOM     30  C   UNL A   1      41.100  24.521  28.549  1.00  0.00     0.001 A 
ATOM     31  C   UNL A   1      41.506  23.205  28.337  1.00  0.00     0.002 A 
ENDBRANCH  14  22
ENDBRANCH   5   8
ENDBRANCH   3   4
ENDBRANCH   2   3
ENDBRANCH   1   2
BRANCH   1  32
ATOM     32  C   UNL A   1      33.590  29.622  27.347  1.00  0.00     0.116 C 
BRANCH  32  33
ATOM     33  N   UNL A   1      33.942  31.018  27.095  1.00  0.00    -0.352 N 
ATOM     34  C   UNL A   1      35.026  31.722  27.592  1.00  0.00     0.251 C 
ATOM     35  H   UNL A   1      33.336  31.517  26.501  1.00  0.00     0.163 HD
ATOM     36  O   UNL A   1      35.032  32.940  27.628  1.00  0.00    -0.269 OA
BRANCH  34  37
ATOM     37  C   UNL A   1      36.193  30.957  28.065  1.00  0.00     0.039 A 
ATOM     38  C   UNL A   1      36.471  29.674  27.588  1.00  0.00     0.014 A 
ATOM     39  C   UNL A   1      37.037  31.580  28.981  1.00  0.00     0.014 A 
ATOM     40  C   UNL A   1      37.662  29.059  27.971  1.00  0.00     0.010 A 
ATOM     41  C   UNL A   1      38.269  31.039  29.243  1.00  0.00     0.010 A 
ATOM     42  C   UNL A   1      38.569  29.761  28.782  1.00  0.00    -0.014 A 
BRANCH  42  43
ATOM     43  C   UNL A   1      39.909  29.245  29.044  1.00  0.00     0.031 A 
ATOM     44  C   UNL A   1      40.168  28.933  30.474  1.00  0.00     0.074 A 
ATOM     45  C   UNL A   1      40.741  28.842  28.059  1.00  0.00     0.049 A 
ATOM     46  N   UNL A   1      40.952  29.563  31.284  1.00  0.00    -0.248 NA
ATOM     47  C   UNL A   1      39.352  27.894  31.127  1.00  0.00     0.031 C 
ATOM     48  C   UNL A   1      40.462  28.805  26.615  1.00  0.00     0.029 A 
ATOM     49  N   UNL A   1      41.970  28.255  28.136  1.00  0.00    -0.354 N 
ATOM     50  C   UNL A   1      40.919  28.846  32.479  1.00  0.00     0.074 A 
ATOM     51  C   UNL A   1      39.772  27.981  32.392  1.00  0.00     0.031 C 
ATOM     52  C   UNL A   1      41.365  28.016  25.994  1.00  0.00     0.029 A 
ATOM     53  C   UNL A   1      42.390  27.651  26.954  1.00  0.00     0.049 A 
ATOM     54  H   UNL A   1      42.513  28.258  28.958  1.00  0.00     0.167 HD
ATOM     55  C   UNL A   1      42.023  28.787  33.278  1.00  0.00     0.031 A 
ATOM     56  C   UNL A   1      43.505  26.907  26.767  1.00  0.00     0.031 A 
ATOM     57  C   UNL A   1      43.015  29.738  32.843  1.00  0.00     0.049 A 
ATOM     58  C   UNL A   1      44.452  27.260  27.843  1.00  0.00     0.074 A 
ATOM     59  C   UNL A   1      43.189  31.102  32.859  1.00  0.00     0.029 A 
ATOM     60  N   UNL A   1      43.874  29.225  31.905  1.00  0.00    -0.354 N 
ATOM     61  N   UNL A   1      45.013  28.430  27.933  1.00  0.00    -0.248 NA
ATOM     62  C   UNL A   1      44.527  26.433  29.038  1.00  0.00     0.031 C 
ATOM     63  C   UNL A   1      44.023  31.402  31.739  1.00  0.00     0.029 A 
ATOM     64  C   UNL A   1      44.376  30.211  31.105  1.00  0.00     0.049 A 
ATOM     65  H   UNL A   1      44.099  28.271  31.818  1.00  0.00     0.167 HD
ATOM     66  C   UNL A   1      45.086  28.662  29.292  1.00  0.00     0.074 A 
ATOM     67  C   UNL A   1      44.968  27.345  29.910  1.00  0.00     0.031 C 
ATOM     68  C   UNL A   1      44.904  29.918  29.791  1.00  0.00     0.031 A 
BRANCH  55  69
ATOM     69  C   UNL A   1      42.464  27.544  34.037  1.00  0.00    -0.014 A 
ATOM     70  C   UNL A   1      43.484  26.754  33.466  1.00  0.00     0.009 A 
ATOM     71  C   UNL A   1      41.728  26.950  35.078  1.00  0.00     0.009 A 
ATOM     72  C   UNL A   1      43.678  25.418  33.837  1.00  0.00     0.001 A 
ATOM     73  C   UNL A   1      41.941  25.624  35.474  1.00  0.00     0.001 A 
ATOM     74  C   UNL A   1      42.894  24.847  34.832  1.00  0.00     0.000 A 
ENDBRANCH  55  69
BRANCH  56  75
ATOM     75  C   UNL A   1      43.801  25.819  25.815  1.00  0.00    -0.014 A 
ATOM     76  C   UNL A   1      45.128  25.513  25.471  1.00  0.00     0.009 A 
ATOM     77  C   UNL A   1      42.802  24.887  25.489  1.00  0.00     0.009 A 
ATOM     78  C   UNL A   1      45.453  24.286  24.877  1.00  0.00     0.001 A 
ATOM     79  C   UNL A   1      43.128  23.660  24.897  1.00  0.00     0.001 A 
ATOM     80  C   UNL A   1      44.455  23.352  24.611  1.00  0.00     0.000 A 
ENDBRANCH  56  75
BRANCH  68  81
ATOM     81  C   UNL A   1      45.086  31.068  28.842  1.00  0.00    -0.014 A 
ATOM     82  C   UNL A   1      44.067  31.564  28.012  1.00  0.00     0.009 A 
ATOM     83  C   UNL A   1      46.325  31.723  28.850  1.00  0.00     0.009 A 
ATOM     84  C   UNL A   1      44.297  32.672  27.190  1.00  0.00     0.001 A 
ATOM     85  C   UNL A   1      46.547  32.840  28.046  1.00  0.00     0.001 A 
ATOM     86  C   UNL A   1      45.537  33.311  27.211  1.00  0.00     0.000 A 
ENDBRANCH  68  81
ENDBRANCH  42  43
ENDBRANCH  34  37
ENDBRANCH  32  33
ENDBRANCH   1  32
TORSDOF 13
ENDMDL
MODEL 2
REMARK VINA RESULT:     -12.7      2.348      4.139
REMARK SMILES Cc1cnn(C2(C(=O)NCCCCNC(=O)c3ccc(-c4c5nc(c(-c6ccccc6)c6ccc([nH]6)c(-c6ccccc6)c6nc(c(-c7ccccc7)c7ccc4[nH]7)C=C6)C=C5)cc3)CCN(C(=O)c3cc4ccccc4[nH]3)CC2)c1
REMARK SMILES IDX 12 1 11 2 10 3 9 4 7 5 8 6 6 8 65 9 80 10 66 11 79 12 67 13
REMARK SMILES IDX 68 14 69 15 5 16 1 17 2 18 3 19 81 20 4 21 70 22 71 23 78 24
REMARK SMILES IDX 72 25 77 26 73 28 76 29 74 30 75 31 13 32 14 33 15 34 16 36
REMARK SMILES IDX 17 37 18 38 64 39 19 40 63 41 20 42 21 43 22 44 57 45 23 46
REMARK SMILES IDX 62 47 56 48 58 49 24 50 61 51 55 52 54 53 25 55 47 56 32 57
REMARK SMILES IDX 46 58 33 59 36 60 45 61 59 62 34 63 35 64 44 66 60 67 37 68
REMARK SMILES IDX 26 69 27 70 31 71 28 72 30 73 29 74 48 75 49 76 53 77 50 78
REMARK SMILES IDX 52 79 51 80 38 81 39 82 43 83 40 84 42 85 41 86
REMARK H PARENT 9 7 78 27 14 35 58 54 36 65
REMARK Flexibility Score: inf
ROOT
ATOM      1  C   UNL A   1      32.843  30.017  26.085  1.00  0.00     0.023 C 
ENDROOT
BRANCH   1   2
ATOM      2  C   UNL A   1      31.674  29.045  26.297  1.00  0.00     0.023 C 
BRANCH   2   3
ATOM      3  C   UNL A   1      31.967  27.800  27.142  1.00  0.00     0.116 C 
BRANCH   3   4
ATOM      4  N   UNL A   1      30.982  26.744  26.951  1.00  0.00    -0.354 N 
ATOM      5  C   UNL A   1      30.952  25.591  26.197  1.00  0.00     0.248 C 
ATOM      6  O   UNL A   1      29.912  24.951  26.365  1.00  0.00    -0.272 OA
ATOM      7  H   UNL A   1      30.160  26.885  27.474  1.00  0.00     0.163 HD
BRANCH   5   8
ATOM      8  C   UNL A   1      32.159  25.154  25.287  1.00  0.00     0.144 C 
ATOM      9  C   UNL A   1      33.453  25.278  26.139  1.00  0.00     0.062 C 
ATOM     10  C   UNL A   1      31.815  23.725  24.786  1.00  0.00     0.062 C 
ATOM     11  C   UNL A   1      34.534  24.249  25.846  1.00  0.00     0.123 C 
ATOM     12  C   UNL A   1      33.015  22.837  24.497  1.00  0.00     0.123 C 
ATOM     13  N   UNL A   1      33.998  22.928  25.569  1.00  0.00    -0.337 N 
ATOM     14  C   UNL A   1      34.444  21.843  26.325  1.00  0.00     0.270 C 
ATOM     15  O   UNL A   1      34.976  21.996  27.420  1.00  0.00    -0.267 OA
BRANCH   8  16
ATOM     16  N   UNL A   1      32.368  26.004  24.066  1.00  0.00    -0.257 N 
ATOM     17  C   UNL A   1      34.026  28.543  21.998  1.00  0.00     0.048 C 
ATOM     18  C   UNL A   1      33.198  27.499  22.640  1.00  0.00    -0.013 A 
ATOM     19  C   UNL A   1      32.032  26.882  22.158  1.00  0.00     0.138 A 
ATOM     20  C   UNL A   1      33.397  26.900  23.863  1.00  0.00     0.113 A 
ATOM     21  N   UNL A   1      31.540  25.981  23.008  1.00  0.00    -0.180 NA
ENDBRANCH   8  16
BRANCH  14  22
ATOM     22  C   UNL A   1      34.210  20.525  25.785  1.00  0.00     0.105 A 
ATOM     23  C   UNL A   1      34.847  19.851  24.755  1.00  0.00     0.042 A 
ATOM     24  N   UNL A   1      33.279  19.660  26.308  1.00  0.00    -0.351 N 
ATOM     25  C   UNL A   1      34.215  18.588  24.596  1.00  0.00     0.000 A 
ATOM     26  C   UNL A   1      33.201  18.516  25.549  1.00  0.00     0.046 A 
ATOM     27  H   UNL A   1      32.742  19.836  27.114  1.00  0.00     0.167 HD
ATOM     28  C   UNL A   1      34.408  17.499  23.725  1.00  0.00     0.010 A 
ATOM     29  C   UNL A   1      32.331  17.426  25.646  1.00  0.00     0.026 A 
ATOM     30  C   UNL A   1      33.557  16.392  23.819  1.00  0.00     0.001 A 
ATOM     31  C   UNL A   1      32.527  16.365  24.758  1.00  0.00     0.002 A 
ENDBRANCH  14  22
ENDBRANCH   5   8
ENDBRANCH   3   4
ENDBRANCH   2   3
ENDBRANCH   1   2
BRANCH   1  32
ATOM     32  C   UNL A   1      33.975  29.885  27.094  1.00  0.00     0.116 C 
BRANCH  32  33
ATOM     33  N   UNL A   1      34.359  31.160  27.698  1.00  0.00    -0.352 N 
ATOM     34  C   UNL A   1      35.354  31.390  28.632  1.00  0.00     0.251 C 
ATOM     35  H   UNL A   1      33.847  31.949  27.406  1.00  0.00     0.163 HD
ATOM     36  O   UNL A   1      35.353  32.388  29.333  1.00  0.00    -0.269 OA
BRANCH  34  37
ATOM     37  C   UNL A   1      36.439  30.400  28.750  1.00  0.00     0.039 A 
ATOM     38  C   UNL A   1      37.494  30.355  27.835  1.00  0.00     0.014 A 
ATOM     39  C   UNL A   1      36.395  29.529  29.835  1.00  0.00     0.014 A 
ATOM     40  C   UNL A   1      38.556  29.487  28.077  1.00  0.00     0.010 A 
ATOM     41  C   UNL A   1      37.501  28.784  30.150  1.00  0.00     0.010 A 
ATOM     42  C   UNL A   1      38.563  28.720  29.254  1.00  0.00    -0.014 A 
BRANCH  42  43
ATOM     43  C   UNL A   1      39.739  27.951  29.652  1.00  0.00     0.031 A 
ATOM     44  C   UNL A   1      40.066  28.051  31.098  1.00  0.00     0.074 A 
ATOM     45  C   UNL A   1      40.318  27.034  28.846  1.00  0.00     0.049 A 
ATOM     46  N   UNL A   1      41.075  28.653  31.634  1.00  0.00    -0.248 NA
ATOM     47  C   UNL A   1      39.083  27.556  32.078  1.00  0.00     0.031 C 
ATOM     48  C   UNL A   1      39.878  26.621  27.505  1.00  0.00     0.029 A 
ATOM     49  N   UNL A   1      41.347  26.175  29.096  1.00  0.00    -0.354 N 
ATOM     50  C   UNL A   1      40.988  28.396  33.001  1.00  0.00     0.074 A 
ATOM     51  C   UNL A   1      39.650  27.917  33.232  1.00  0.00     0.031 C 
ATOM     52  C   UNL A   1      40.463  25.450  27.171  1.00  0.00     0.029 A 
ATOM     53  C   UNL A   1      41.456  25.132  28.180  1.00  0.00     0.049 A 
ATOM     54  H   UNL A   1      41.961  26.284  29.859  1.00  0.00     0.167 HD
ATOM     55  C   UNL A   1      42.119  28.279  33.754  1.00  0.00     0.031 A 
ATOM     56  C   UNL A   1      42.306  24.080  28.236  1.00  0.00     0.031 A 
ATOM     57  C   UNL A   1      43.273  28.714  33.006  1.00  0.00     0.049 A 
ATOM     58  C   UNL A   1      43.427  24.468  29.113  1.00  0.00     0.074 A 
ATOM     59  C   UNL A   1      43.803  29.902  32.558  1.00  0.00     0.029 A 
ATOM     60  N   UNL A   1      43.853  27.705  32.282  1.00  0.00    -0.354 N 
ATOM     61  N   UNL A   1      44.285  25.393  28.793  1.00  0.00    -0.248 NA
ATOM     62  C   UNL A   1      43.415  24.081  30.516  1.00  0.00     0.031 C 
ATOM     63  C   UNL A   1      44.555  29.575  31.387  1.00  0.00     0.029 A 
ATOM     64  C   UNL A   1      44.505  28.196  31.187  1.00  0.00     0.049 A 
ATOM     65  H   UNL A   1      43.806  26.751  32.519  1.00  0.00     0.167 HD
ATOM     66  C   UNL A   1      44.570  26.014  29.992  1.00  0.00     0.074 A 
ATOM     67  C   UNL A   1      44.177  25.056  31.021  1.00  0.00     0.031 C 
ATOM     68  C   UNL A   1      44.785  27.361  30.040  1.00  0.00     0.031 A 
BRANCH  55  69
ATOM     69  C   UNL A   1      42.298  27.272  34.881  1.00  0.00    -0.014 A 
ATOM     70  C   UNL A   1      42.577  25.935  34.527  1.00  0.00     0.009 A 
ATOM     71  C   UNL A   1      41.892  27.491  36.209  1.00  0.00     0.009 A 
ATOM     72  C   UNL A   1      42.355  24.875  35.414  1.00  0.00     0.001 A 
ATOM     73  C   UNL A   1      41.700  26.436  37.110  1.00  0.00     0.001 A 
ATOM     74  C   UNL A   1      41.900  25.125  36.703  1.00  0.00     0.000 A 
ENDBRANCH  55  69
BRANCH  56  75
ATOM     75  C   UNL A   1      42.193  22.708  27.702  1.00  0.00    -0.014 A 
ATOM     76  C   UNL A   1      41.017  21.964  27.888  1.00  0.00     0.009 A 
ATOM     77  C   UNL A   1      43.119  22.253  26.748  1.00  0.00     0.009 A 
ATOM     78  C   UNL A   1      40.746  20.837  27.101  1.00  0.00     0.001 A 
ATOM     79  C   UNL A   1      42.847  21.127  25.961  1.00  0.00     0.001 A 
ATOM     80  C   UNL A   1      41.651  20.432  26.123  1.00  0.00     0.000 A 
ENDBRANCH  56  75
BRANCH  68  81
ATOM     81  C   UNL A   1      45.156  28.044  28.756  1.00  0.00    -0.014 A 
ATOM     82  C   UNL A   1      46.468  28.113  28.259  1.00  0.00     0.009 A 
ATOM     83  C   UNL A   1      44.116  28.572  27.980  1.00  0.00     0.009 A 
ATOM     84  C   UNL A   1      46.731  28.722  27.027  1.00  0.00     0.001 A 
ATOM     85  C   UNL A   1      44.375  29.160  26.742  1.00  0.00     0.001 A 
ATOM     86  C   UNL A   1      45.682  29.242  26.269  1.00  0.00     0.000 A 
ENDBRANCH  68  81
ENDBRANCH  42  43
ENDBRANCH  34  37
ENDBRANCH  32  33
ENDBRANCH   1  32
TORSDOF 13
ENDMDL
MODEL 3
REMARK VINA RESULT:     -12.3      2.642      7.985
REMARK SMILES Cc1cnn(C2(C(=O)NCCCCNC(=O)c3ccc(-c4c5nc(c(-c6ccccc6)c6ccc([nH]6)c(-c6ccccc6)c6nc(c(-c7ccccc7)c7ccc4[nH]7)C=C6)C=C5)cc3)CCN(C(=O)c3cc4ccccc4[nH]3)CC2)c1
REMARK SMILES IDX 12 1 11 2 10 3 9 4 7 5 8 6 6 8 65 9 80 10 66 11 79 12 67 13
REMARK SMILES IDX 68 14 69 15 5 16 1 17 2 18 3 19 81 20 4 21 70 22 71 23 78 24
REMARK SMILES IDX 72 25 77 26 73 28 76 29 74 30 75 31 13 32 14 33 15 34 16 36
REMARK SMILES IDX 17 37 18 38 64 39 19 40 63 41 20 42 21 43 22 44 57 45 23 46
REMARK SMILES IDX 62 47 56 48 58 49 24 50 61 51 55 52 54 53 25 55 47 56 32 57
REMARK SMILES IDX 46 58 33 59 36 60 45 61 59 62 34 63 35 64 44 66 60 67 37 68
REMARK SMILES IDX 26 69 27 70 31 71 28 72 30 73 29 74 48 75 49 76 53 77 50 78
REMARK SMILES IDX 52 79 51 80 38 81 39 82 43 83 40 84 42 85 41 86
REMARK H PARENT 9 7 78 27 14 35 58 54 36 65
REMARK Flexibility Score: inf
ROOT
ATOM      1  C   UNL A   1      38.134  20.200  24.684  1.00  0.00     0.023 C 
ENDROOT
BRANCH   1   2
ATOM      2  C   UNL A   1      36.623  20.225  24.955  1.00  0.00     0.023 C 
BRANCH   2   3
ATOM      3  C   UNL A   1      35.952  21.604  24.947  1.00  0.00     0.116 C 
BRANCH   3   4
ATOM      4  N   UNL A   1      35.424  21.981  26.251  1.00  0.00    -0.354 N 
ATOM      5  C   UNL A   1      34.158  22.233  26.733  1.00  0.00     0.248 C 
ATOM      6  O   UNL A   1      34.159  22.487  27.939  1.00  0.00    -0.272 OA
ATOM      7  H   UNL A   1      36.123  22.075  26.937  1.00  0.00     0.163 HD
BRANCH   5   8
ATOM      8  C   UNL A   1      32.879  22.135  25.819  1.00  0.00     0.144 C 
ATOM      9  C   UNL A   1      31.639  22.111  26.756  1.00  0.00     0.062 C 
ATOM     10  C   UNL A   1      32.965  23.340  24.843  1.00  0.00     0.062 C 
ATOM     11  C   UNL A   1      30.393  22.794  26.213  1.00  0.00     0.123 C 
ATOM     12  C   UNL A   1      31.626  23.874  24.360  1.00  0.00     0.123 C 
ATOM     13  N   UNL A   1      30.689  24.006  25.469  1.00  0.00    -0.337 N 
ATOM     14  C   UNL A   1      30.075  25.200  25.846  1.00  0.00     0.270 C 
ATOM     15  O   UNL A   1      29.594  25.352  26.965  1.00  0.00    -0.267 OA
BRANCH   8  16
ATOM     16  N   UNL A   1      32.802  20.895  24.975  1.00  0.00    -0.257 N 
ATOM     17  C   UNL A   1      32.953  17.291  24.299  1.00  0.00     0.048 C 
ATOM     18  C   UNL A   1      32.845  18.766  24.327  1.00  0.00    -0.013 A 
ATOM     19  C   UNL A   1      32.618  19.651  23.260  1.00  0.00     0.138 A 
ATOM     20  C   UNL A   1      32.942  19.597  25.419  1.00  0.00     0.113 A 
ATOM     21  N   UNL A   1      32.584  20.925  23.649  1.00  0.00    -0.180 NA
ENDBRANCH   8  16
BRANCH  14  22
ATOM     22  C   UNL A   1      30.071  26.271  24.878  1.00  0.00     0.105 A 
ATOM     23  C   UNL A   1      31.119  27.011  24.353  1.00  0.00     0.042 A 
ATOM     24  N   UNL A   1      28.930  26.698  24.244  1.00  0.00    -0.351 N 
ATOM     25  C   UNL A   1      30.578  27.969  23.454  1.00  0.00     0.000 A 
ATOM     26  C   UNL A   1      29.197  27.785  23.445  1.00  0.00     0.046 A 
ATOM     27  H   UNL A   1      28.042  26.283  24.347  1.00  0.00     0.167 HD
ATOM     28  C   UNL A   1      31.134  28.983  22.651  1.00  0.00     0.010 A 
ATOM     29  C   UNL A   1      28.331  28.597  22.706  1.00  0.00     0.026 A 
ATOM     30  C   UNL A   1      30.284  29.794  21.892  1.00  0.00     0.001 A 
ATOM     31  C   UNL A   1      28.903  29.611  21.932  1.00  0.00     0.002 A 
ENDBRANCH  14  22
ENDBRANCH   5   8
ENDBRANCH   3   4
ENDBRANCH   2   3
ENDBRANCH   1   2
BRANCH   1  32
ATOM     32  C   UNL A   1      39.007  20.172  25.930  1.00  0.00     0.116 C 
BRANCH  32  33
ATOM     33  N   UNL A   1      40.122  19.231  25.830  1.00  0.00    -0.352 N 
ATOM     34  C   UNL A   1      41.476  19.516  25.863  1.00  0.00     0.251 C 
ATOM     35  H   UNL A   1      39.880  18.282  25.727  1.00  0.00     0.163 HD
ATOM     36  O   UNL A   1      42.301  18.741  25.411  1.00  0.00    -0.269 OA
BRANCH  34  37
ATOM     37  C   UNL A   1      41.905  20.784  26.479  1.00  0.00     0.039 A 
ATOM     38  C   UNL A   1      42.326  21.869  25.706  1.00  0.00     0.014 A 
ATOM     39  C   UNL A   1      41.837  20.876  27.866  1.00  0.00     0.014 A 
ATOM     40  C   UNL A   1      42.588  23.083  26.340  1.00  0.00     0.010 A 
ATOM     41  C   UNL A   1      41.953  22.100  28.470  1.00  0.00     0.010 A 
ATOM     42  C   UNL A   1      42.375  23.196  27.724  1.00  0.00    -0.014 A 
BRANCH  42  43
ATOM     43  C   UNL A   1      42.440  24.490  28.397  1.00  0.00     0.031 A 
ATOM     44  C   UNL A   1      41.307  25.397  28.075  1.00  0.00     0.074 A 
ATOM     45  C   UNL A   1      43.296  24.742  29.411  1.00  0.00     0.049 A 
ATOM     46  N   UNL A   1      41.346  26.483  27.378  1.00  0.00    -0.248 NA
ATOM     47  C   UNL A   1      39.943  24.977  28.441  1.00  0.00     0.031 C 
ATOM     48  C   UNL A   1      44.247  23.805  30.030  1.00  0.00     0.029 A 
ATOM     49  N   UNL A   1      43.417  25.848  30.200  1.00  0.00    -0.354 N 
ATOM     50  C   UNL A   1      40.059  27.014  27.430  1.00  0.00     0.074 A 
ATOM     51  C   UNL A   1      39.208  25.951  27.899  1.00  0.00     0.031 C 
ATOM     52  C   UNL A   1      44.654  24.288  31.224  1.00  0.00     0.029 A 
ATOM     53  C   UNL A   1      44.151  25.641  31.365  1.00  0.00     0.049 A 
ATOM     54  H   UNL A   1      43.020  26.718  29.964  1.00  0.00     0.167 HD
ATOM     55  C   UNL A   1      39.869  28.364  27.407  1.00  0.00     0.031 A 
ATOM     56  C   UNL A   1      44.342  26.519  32.378  1.00  0.00     0.031 A 
ATOM     57  C   UNL A   1      41.094  29.043  27.063  1.00  0.00     0.049 A 
ATOM     58  C   UNL A   1      44.100  27.871  31.837  1.00  0.00     0.074 A 
ATOM     59  C   UNL A   1      41.873  29.225  25.944  1.00  0.00     0.029 A 
ATOM     60  N   UNL A   1      41.867  29.339  28.155  1.00  0.00    -0.354 N 
ATOM     61  N   UNL A   1      44.876  28.426  30.952  1.00  0.00    -0.248 NA
ATOM     62  C   UNL A   1      42.797  28.496  32.011  1.00  0.00     0.031 C 
ATOM     63  C   UNL A   1      43.204  29.426  26.424  1.00  0.00     0.029 A 
ATOM     64  C   UNL A   1      43.189  29.413  27.818  1.00  0.00     0.049 A 
ATOM     65  H   UNL A   1      41.517  29.480  29.064  1.00  0.00     0.167 HD
ATOM     66  C   UNL A   1      44.009  29.144  30.152  1.00  0.00     0.074 A 
ATOM     67  C   UNL A   1      42.803  29.315  30.954  1.00  0.00     0.031 C 
ATOM     68  C   UNL A   1      44.229  29.243  28.809  1.00  0.00     0.031 A 
BRANCH  55  69
ATOM     69  C   UNL A   1      38.819  29.095  28.230  1.00  0.00    -0.014 A 
ATOM     70  C   UNL A   1      38.793  28.857  29.621  1.00  0.00     0.009 A 
ATOM     71  C   UNL A   1      37.684  29.724  27.687  1.00  0.00     0.009 A 
ATOM     72  C   UNL A   1      37.658  29.128  30.395  1.00  0.00     0.001 A 
ATOM     73  C   UNL A   1      36.560  30.026  28.464  1.00  0.00     0.001 A 
ATOM     74  C   UNL A   1      36.533  29.699  29.812  1.00  0.00     0.000 A 
ENDBRANCH  55  69
BRANCH  56  75
ATOM     75  C   UNL A   1      44.598  26.306  33.815  1.00  0.00    -0.014 A 
ATOM     76  C   UNL A   1      43.643  25.667  34.623  1.00  0.00     0.009 A 
ATOM     77  C   UNL A   1      45.900  26.451  34.322  1.00  0.00     0.009 A 
ATOM     78  C   UNL A   1      43.996  25.133  35.870  1.00  0.00     0.001 A 
ATOM     79  C   UNL A   1      46.252  25.915  35.567  1.00  0.00     0.001 A 
ATOM     80  C   UNL A   1      45.306  25.238  36.331  1.00  0.00     0.000 A 
ENDBRANCH  56  75
BRANCH  68  81
ATOM     81  C   UNL A   1      45.620  28.966  28.317  1.00  0.00    -0.014 A 
ATOM     82  C   UNL A   1      46.580  29.965  28.088  1.00  0.00     0.009 A 
ATOM     83  C   UNL A   1      45.994  27.625  28.154  1.00  0.00     0.009 A 
ATOM     84  C   UNL A   1      47.875  29.626  27.678  1.00  0.00     0.001 A 
ATOM     85  C   UNL A   1      47.289  27.287  27.767  1.00  0.00     0.001 A 
ATOM     86  C   UNL A   1      48.228  28.286  27.522  1.00  0.00     0.000 A 
ENDBRANCH  68  81
ENDBRANCH  42  43
ENDBRANCH  34  37
ENDBRANCH  32  33
ENDBRANCH   1  32
TORSDOF 13
ENDMDL
