MODEL 1
REMARK VINA RESULT:     -10.1      0.000      0.000
REMARK SMILES O=C(C[C@H](NC(=O)[C@]12C[C@H]3C[C@H](C[C@H](C3)C1)C2)c1cccc([N+](=O)[O-])c1)NCCCCNC(=O)c1ccc(-c2c3nc(c(-c4ccccc4)c4ccc([nH]4)c(-c4ccccc4)c4nc(c(-c5ccccc5)c5ccc2[nH]5)C=C4)C=C3)cc1
REMARK SMILES IDX 29 1 28 2 27 3 1 4 2 5 3 7 4 8 18 9 19 10 26 11 20 12 22 13
REMARK SMILES IDX 21 14 23 15 24 16 25 17 5 18 6 19 7 21 8 22 9 23 16 24 17 25
REMARK SMILES IDX 10 26 14 27 12 28 11 29 15 30 13 31 30 32 31 33 32 34 33 35
REMARK SMILES IDX 34 37 35 38 36 39 82 40 37 41 81 42 38 43 39 44 40 45 75 46
REMARK SMILES IDX 41 47 80 48 74 49 76 50 42 51 79 52 73 53 72 54 43 56 65 57
REMARK SMILES IDX 50 58 64 59 51 60 54 61 63 62 77 63 52 64 53 65 62 67 78 68
REMARK SMILES IDX 55 69 44 70 45 71 49 72 46 73 48 74 47 75 66 76 67 77 71 78
REMARK SMILES IDX 68 79 70 80 69 81 56 82 57 83 61 84 58 85 60 86 59 87
REMARK H PARENT 27 6 5 20 32 36 76 55 54 66
REMARK Flexibility Score: inf
ROOT
ATOM      1  C   UNL A   1      45.393  19.463  23.866  1.00  0.00     0.023 C 
ENDROOT
BRANCH   1   2
ATOM      2  C   UNL A   1      46.397  20.415  24.529  1.00  0.00     0.116 C 
BRANCH   2   3
ATOM      3  N   UNL A   1      46.199  21.830  24.271  1.00  0.00    -0.356 N 
ATOM      4  O   UNL A   1      46.023  22.402  26.469  1.00  0.00    -0.275 OA
ATOM      5  C   UNL A   1      46.099  22.739  25.290  1.00  0.00     0.222 C 
ATOM      6  H   UNL A   1      46.135  22.144  23.339  1.00  0.00     0.163 HD
BRANCH   5   7
ATOM      7  C   UNL A   1      45.945  24.186  24.901  1.00  0.00     0.129 C 
BRANCH   7   8
ATOM      8  C   UNL A   1      46.861  25.241  25.533  1.00  0.00     0.122 C 
BRANCH   8   9
ATOM      9  C   UNL A   1      46.034  26.486  25.877  1.00  0.00    -0.018 A 
ATOM     10  C   UNL A   1      46.467  27.469  26.778  1.00  0.00     0.006 A 
ATOM     11  C   UNL A   1      44.736  26.607  25.340  1.00  0.00     0.091 A 
ATOM     12  C   UNL A   1      45.624  28.518  27.169  1.00  0.00     0.007 A 
ATOM     13  C   UNL A   1      43.891  27.656  25.738  1.00  0.00     0.269 A 
ATOM     14  C   UNL A   1      44.330  28.609  26.660  1.00  0.00     0.085 A 
BRANCH  13  15
ATOM     15  N   UNL A   1      42.526  27.728  25.203  1.00  0.00     0.062 N 
ATOM     16  O   UNL A   1      42.064  28.848  24.946  1.00  0.00    -0.258 OA
ATOM     17  O   UNL A   1      41.915  26.660  25.046  1.00  0.00    -0.258 OA
ENDBRANCH  13  15
ENDBRANCH   8   9
BRANCH   8  18
ATOM     18  N   UNL A   1      47.882  24.933  26.544  1.00  0.00    -0.348 N 
ATOM     19  C   UNL A   1      49.202  25.032  26.800  1.00  0.00     0.226 C 
ATOM     20  H   UNL A   1      47.445  24.497  27.310  1.00  0.00     0.164 HD
ATOM     21  O   UNL A   1      49.570  24.255  27.696  1.00  0.00    -0.274 OA
BRANCH  19  22
ATOM     22  C   UNL A   1      50.215  26.041  26.239  1.00  0.00     0.050 C 
ATOM     23  C   UNL A   1      51.628  25.437  26.455  1.00  0.00     0.020 C 
ATOM     24  C   UNL A   1      50.163  27.462  26.799  1.00  0.00     0.020 C 
ATOM     25  C   UNL A   1      50.006  26.167  24.696  1.00  0.00     0.020 C 
ATOM     26  C   UNL A   1      52.712  26.331  25.831  1.00  0.00    -0.010 C 
ATOM     27  C   UNL A   1      51.261  28.354  26.205  1.00  0.00    -0.010 C 
ATOM     28  C   UNL A   1      51.080  27.074  24.061  1.00  0.00    -0.010 C 
ATOM     29  C   UNL A   1      52.467  26.463  24.318  1.00  0.00     0.007 C 
ATOM     30  C   UNL A   1      52.640  27.725  26.471  1.00  0.00     0.007 C 
ATOM     31  C   UNL A   1      51.022  28.470  24.698  1.00  0.00     0.007 C 
ENDBRANCH  19  22
ENDBRANCH   8  18
ENDBRANCH   7   8
ENDBRANCH   5   7
ENDBRANCH   2   3
ENDBRANCH   1   2
BRANCH   1  32
ATOM     32  C   UNL A   1      44.687  18.483  24.802  1.00  0.00     0.023 C 
BRANCH  32  33
ATOM     33  C   UNL A   1      43.846  19.132  25.889  1.00  0.00     0.116 C 
BRANCH  33  34
ATOM     34  N   UNL A   1      42.418  19.027  25.643  1.00  0.00    -0.352 N 
ATOM     35  C   UNL A   1      41.424  19.912  25.989  1.00  0.00     0.251 C 
ATOM     36  H   UNL A   1      42.125  18.218  25.165  1.00  0.00     0.163 HD
ATOM     37  O   UNL A   1      40.250  19.637  25.807  1.00  0.00    -0.269 OA
BRANCH  35  38
ATOM     38  C   UNL A   1      41.800  21.192  26.628  1.00  0.00     0.039 A 
ATOM     39  C   UNL A   1      42.260  22.234  25.821  1.00  0.00     0.014 A 
ATOM     40  C   UNL A   1      41.657  21.371  28.006  1.00  0.00     0.014 A 
ATOM     41  C   UNL A   1      42.523  23.481  26.390  1.00  0.00     0.010 A 
ATOM     42  C   UNL A   1      41.853  22.632  28.560  1.00  0.00     0.010 A 
ATOM     43  C   UNL A   1      42.289  23.698  27.758  1.00  0.00    -0.014 A 
BRANCH  43  44
ATOM     44  C   UNL A   1      42.499  25.033  28.368  1.00  0.00     0.031 A 
ATOM     45  C   UNL A   1      43.831  25.384  28.971  1.00  0.00     0.074 A 
ATOM     46  C   UNL A   1      41.477  25.906  28.432  1.00  0.00     0.049 A 
ATOM     47  N   UNL A   1      44.193  26.478  29.591  1.00  0.00    -0.248 NA
ATOM     48  C   UNL A   1      44.886  24.360  28.888  1.00  0.00     0.031 C 
ATOM     49  C   UNL A   1      40.123  25.668  27.924  1.00  0.00     0.029 A 
ATOM     50  N   UNL A   1      41.416  27.171  28.961  1.00  0.00    -0.354 N 
ATOM     51  C   UNL A   1      45.509  26.268  29.983  1.00  0.00     0.074 A 
ATOM     52  C   UNL A   1      45.865  24.926  29.579  1.00  0.00     0.031 C 
ATOM     53  C   UNL A   1      39.374  26.761  28.144  1.00  0.00     0.029 A 
ATOM     54  C   UNL A   1      40.181  27.760  28.837  1.00  0.00     0.049 A 
ATOM     55  H   UNL A   1      42.184  27.614  29.389  1.00  0.00     0.167 HD
ATOM     56  C   UNL A   1      46.354  27.125  30.606  1.00  0.00     0.031 A 
ATOM     57  C   UNL A   1      39.747  28.969  29.241  1.00  0.00     0.031 A 
ATOM     58  C   UNL A   1      46.004  28.462  30.999  1.00  0.00     0.049 A 
ATOM     59  C   UNL A   1      40.702  29.899  29.934  1.00  0.00     0.074 A 
ATOM     60  C   UNL A   1      46.805  29.425  31.589  1.00  0.00     0.029 A 
ATOM     61  N   UNL A   1      44.748  29.026  30.844  1.00  0.00    -0.354 N 
ATOM     62  N   UNL A   1      41.963  29.712  30.238  1.00  0.00    -0.248 NA
ATOM     63  C   UNL A   1      40.175  31.213  30.328  1.00  0.00     0.031 C 
ATOM     64  C   UNL A   1      46.020  30.558  31.831  1.00  0.00     0.029 A 
ATOM     65  C   UNL A   1      44.746  30.317  31.344  1.00  0.00     0.049 A 
ATOM     66  H   UNL A   1      43.972  28.576  30.438  1.00  0.00     0.167 HD
ATOM     67  C   UNL A   1      42.387  30.891  30.835  1.00  0.00     0.074 A 
ATOM     68  C   UNL A   1      41.254  31.793  30.836  1.00  0.00     0.031 C 
ATOM     69  C   UNL A   1      43.609  31.200  31.338  1.00  0.00     0.031 A 
BRANCH  56  70
ATOM     70  C   UNL A   1      47.742  26.628  30.900  1.00  0.00    -0.014 A 
ATOM     71  C   UNL A   1      48.801  26.865  30.008  1.00  0.00     0.009 A 
ATOM     72  C   UNL A   1      48.000  25.934  32.091  1.00  0.00     0.009 A 
ATOM     73  C   UNL A   1      50.082  26.382  30.286  1.00  0.00     0.001 A 
ATOM     74  C   UNL A   1      49.288  25.478  32.380  1.00  0.00     0.001 A 
ATOM     75  C   UNL A   1      50.324  25.693  31.473  1.00  0.00     0.000 A 
ENDBRANCH  56  70
BRANCH  57  76
ATOM     76  C   UNL A   1      38.341  29.377  28.982  1.00  0.00    -0.014 A 
ATOM     77  C   UNL A   1      37.943  29.783  27.699  1.00  0.00     0.009 A 
ATOM     78  C   UNL A   1      37.392  29.364  30.015  1.00  0.00     0.009 A 
ATOM     79  C   UNL A   1      36.630  30.193  27.462  1.00  0.00     0.001 A 
ATOM     80  C   UNL A   1      36.072  29.748  29.768  1.00  0.00     0.001 A 
ATOM     81  C   UNL A   1      35.694  30.170  28.496  1.00  0.00     0.000 A 
ENDBRANCH  57  76
BRANCH  69  82
ATOM     82  C   UNL A   1      43.788  32.581  31.901  1.00  0.00    -0.014 A 
ATOM     83  C   UNL A   1      43.597  32.842  33.266  1.00  0.00     0.009 A 
ATOM     84  C   UNL A   1      44.195  33.627  31.058  1.00  0.00     0.009 A 
ATOM     85  C   UNL A   1      43.780  34.130  33.770  1.00  0.00     0.001 A 
ATOM     86  C   UNL A   1      44.404  34.908  31.570  1.00  0.00     0.001 A 
ATOM     87  C   UNL A   1      44.188  35.160  32.923  1.00  0.00     0.000 A 
ENDBRANCH  69  82
ENDBRANCH  43  44
ENDBRANCH  35  38
ENDBRANCH  33  34
ENDBRANCH  32  33
ENDBRANCH   1  32
TORSDOF 16
ENDMDL
MODEL 2
REMARK VINA RESULT:      -9.9      4.568      9.497
REMARK SMILES O=C(C[C@H](NC(=O)[C@]12C[C@H]3C[C@H](C[C@H](C3)C1)C2)c1cccc([N+](=O)[O-])c1)NCCCCNC(=O)c1ccc(-c2c3nc(c(-c4ccccc4)c4ccc([nH]4)c(-c4ccccc4)c4nc(c(-c5ccccc5)c5ccc2[nH]5)C=C4)C=C3)cc1
REMARK SMILES IDX 29 1 28 2 27 3 1 4 2 5 3 7 4 8 18 9 19 10 26 11 20 12 22 13
REMARK SMILES IDX 21 14 23 15 24 16 25 17 5 18 6 19 7 21 8 22 9 23 16 24 17 25
REMARK SMILES IDX 10 26 14 27 12 28 11 29 15 30 13 31 30 32 31 33 32 34 33 35
REMARK SMILES IDX 34 37 35 38 36 39 82 40 37 41 81 42 38 43 39 44 40 45 75 46
REMARK SMILES IDX 41 47 80 48 74 49 76 50 42 51 79 52 73 53 72 54 43 56 65 57
REMARK SMILES IDX 50 58 64 59 51 60 54 61 63 62 77 63 52 64 53 65 62 67 78 68
REMARK SMILES IDX 55 69 44 70 45 71 49 72 46 73 48 74 47 75 66 76 67 77 71 78
REMARK SMILES IDX 68 79 70 80 69 81 56 82 57 83 61 84 58 85 60 86 59 87
REMARK H PARENT 27 6 5 20 32 36 76 55 54 66
REMARK Flexibility Score: inf
ROOT
ATOM      1  C   UNL A   1      36.433  20.813  25.223  1.00  0.00     0.023 C 
ENDROOT
BRANCH   1   2
ATOM      2  C   UNL A   1      36.590  22.333  25.359  1.00  0.00     0.116 C 
BRANCH   2   3
ATOM      3  N   UNL A   1      35.437  23.129  24.974  1.00  0.00    -0.356 N 
ATOM      4  O   UNL A   1      35.973  23.179  22.760  1.00  0.00    -0.275 OA
ATOM      5  C   UNL A   1      35.179  23.432  23.663  1.00  0.00     0.222 C 
ATOM      6  H   UNL A   1      34.826  23.460  25.672  1.00  0.00     0.163 HD
BRANCH   5   7
ATOM      7  C   UNL A   1      33.929  24.221  23.378  1.00  0.00     0.129 C 
BRANCH   7   8
ATOM      8  C   UNL A   1      32.568  23.667  23.820  1.00  0.00     0.122 C 
BRANCH   8   9
ATOM      9  C   UNL A   1      32.493  22.177  23.470  1.00  0.00    -0.018 A 
ATOM     10  C   UNL A   1      32.185  21.706  22.185  1.00  0.00     0.006 A 
ATOM     11  C   UNL A   1      32.644  21.228  24.502  1.00  0.00     0.091 A 
ATOM     12  C   UNL A   1      31.990  20.340  21.940  1.00  0.00     0.007 A 
ATOM     13  C   UNL A   1      32.442  19.861  24.254  1.00  0.00     0.269 A 
ATOM     14  C   UNL A   1      32.107  19.414  22.974  1.00  0.00     0.085 A 
BRANCH  13  15
ATOM     15  N   UNL A   1      32.555  18.901  25.359  1.00  0.00     0.062 N 
ATOM     16  O   UNL A   1      32.063  17.776  25.201  1.00  0.00    -0.258 OA
ATOM     17  O   UNL A   1      33.134  19.279  26.389  1.00  0.00    -0.258 OA
ENDBRANCH  13  15
ENDBRANCH   8   9
BRANCH   8  18
ATOM     18  N   UNL A   1      31.938  23.987  25.108  1.00  0.00    -0.348 N 
ATOM     19  C   UNL A   1      31.872  24.935  26.064  1.00  0.00     0.226 C 
ATOM     20  H   UNL A   1      31.354  23.239  25.366  1.00  0.00     0.164 HD
ATOM     21  O   UNL A   1      31.431  24.495  27.139  1.00  0.00    -0.274 OA
BRANCH  19  22
ATOM     22  C   UNL A   1      32.130  26.444  25.938  1.00  0.00     0.050 C 
ATOM     23  C   UNL A   1      33.662  26.657  26.061  1.00  0.00     0.020 C 
ATOM     24  C   UNL A   1      31.396  27.359  26.917  1.00  0.00     0.020 C 
ATOM     25  C   UNL A   1      31.721  26.911  24.505  1.00  0.00     0.020 C 
ATOM     26  C   UNL A   1      34.034  28.133  25.844  1.00  0.00    -0.010 C 
ATOM     27  C   UNL A   1      31.783  28.832  26.729  1.00  0.00    -0.010 C 
ATOM     28  C   UNL A   1      32.076  28.395  24.281  1.00  0.00    -0.010 C 
ATOM     29  C   UNL A   1      33.595  28.576  24.438  1.00  0.00     0.007 C 
ATOM     30  C   UNL A   1      33.305  28.991  26.888  1.00  0.00     0.007 C 
ATOM     31  C   UNL A   1      31.358  29.264  25.323  1.00  0.00     0.007 C 
ENDBRANCH  19  22
ENDBRANCH   8  18
ENDBRANCH   7   8
ENDBRANCH   5   7
ENDBRANCH   2   3
ENDBRANCH   1   2
BRANCH   1  32
ATOM     32  C   UNL A   1      37.712  20.039  24.903  1.00  0.00     0.023 C 
BRANCH  32  33
ATOM     33  C   UNL A   1      38.924  20.439  25.729  1.00  0.00     0.116 C 
BRANCH  33  34
ATOM     34  N   UNL A   1      39.964  19.425  25.740  1.00  0.00    -0.352 N 
ATOM     35  C   UNL A   1      41.285  19.560  26.100  1.00  0.00     0.251 C 
ATOM     36  H   UNL A   1      39.687  18.525  25.455  1.00  0.00     0.163 HD
ATOM     37  O   UNL A   1      42.069  18.637  25.957  1.00  0.00    -0.269 OA
BRANCH  35  38
ATOM     38  C   UNL A   1      41.751  20.861  26.627  1.00  0.00     0.039 A 
ATOM     39  C   UNL A   1      42.244  21.810  25.729  1.00  0.00     0.014 A 
ATOM     40  C   UNL A   1      41.663  21.152  27.991  1.00  0.00     0.014 A 
ATOM     41  C   UNL A   1      42.593  23.079  26.192  1.00  0.00     0.010 A 
ATOM     42  C   UNL A   1      41.945  22.437  28.439  1.00  0.00     0.010 A 
ATOM     43  C   UNL A   1      42.416  23.412  27.545  1.00  0.00    -0.014 A 
BRANCH  43  44
ATOM     44  C   UNL A   1      42.720  24.775  28.044  1.00  0.00     0.031 A 
ATOM     45  C   UNL A   1      44.128  25.144  28.418  1.00  0.00     0.074 A 
ATOM     46  C   UNL A   1      41.721  25.661  28.217  1.00  0.00     0.049 A 
ATOM     47  N   UNL A   1      44.584  26.265  28.916  1.00  0.00    -0.248 NA
ATOM     48  C   UNL A   1      45.156  24.106  28.230  1.00  0.00     0.031 C 
ATOM     49  C   UNL A   1      40.305  25.411  27.933  1.00  0.00     0.029 A 
ATOM     50  N   UNL A   1      41.744  26.952  28.680  1.00  0.00    -0.354 N 
ATOM     51  C   UNL A   1      45.943  26.063  29.114  1.00  0.00     0.074 A 
ATOM     52  C   UNL A   1      46.230  24.697  28.733  1.00  0.00     0.031 C 
ATOM     53  C   UNL A   1      39.601  26.522  28.207  1.00  0.00     0.029 A 
ATOM     54  C   UNL A   1      40.506  27.547  28.715  1.00  0.00     0.049 A 
ATOM     55  H   UNL A   1      42.569  27.410  28.962  1.00  0.00     0.167 HD
ATOM     56  C   UNL A   1      46.875  26.941  29.555  1.00  0.00     0.031 A 
ATOM     57  C   UNL A   1      40.141  28.780  29.115  1.00  0.00     0.031 A 
ATOM     58  C   UNL A   1      46.593  28.301  29.925  1.00  0.00     0.049 A 
ATOM     59  C   UNL A   1      41.193  29.735  29.604  1.00  0.00     0.074 A 
ATOM     60  C   UNL A   1      47.476  29.285  30.333  1.00  0.00     0.029 A 
ATOM     61  N   UNL A   1      45.329  28.870  29.932  1.00  0.00    -0.354 N 
ATOM     62  N   UNL A   1      42.486  29.551  29.722  1.00  0.00    -0.248 NA
ATOM     63  C   UNL A   1      40.735  31.074  30.002  1.00  0.00     0.031 C 
ATOM     64  C   UNL A   1      46.740  30.437  30.631  1.00  0.00     0.029 A 
ATOM     65  C   UNL A   1      45.406  30.185  30.357  1.00  0.00     0.049 A 
ATOM     66  H   UNL A   1      44.499  28.407  29.674  1.00  0.00     0.167 HD
ATOM     67  C   UNL A   1      42.999  30.756  30.183  1.00  0.00     0.074 A 
ATOM     68  C   UNL A   1      41.881  31.668  30.308  1.00  0.00     0.031 C 
ATOM     69  C   UNL A   1      44.283  31.078  30.477  1.00  0.00     0.031 A 
BRANCH  56  70
ATOM     70  C   UNL A   1      48.291  26.446  29.659  1.00  0.00    -0.014 A 
ATOM     71  C   UNL A   1      49.180  26.556  28.578  1.00  0.00     0.009 A 
ATOM     72  C   UNL A   1      48.749  25.884  30.860  1.00  0.00     0.009 A 
ATOM     73  C   UNL A   1      50.487  26.076  28.684  1.00  0.00     0.001 A 
ATOM     74  C   UNL A   1      50.065  25.431  30.973  1.00  0.00     0.001 A 
ATOM     75  C   UNL A   1      50.928  25.517  29.883  1.00  0.00     0.000 A 
ENDBRANCH  56  70
BRANCH  57  76
ATOM     76  C   UNL A   1      38.714  29.189  29.051  1.00  0.00    -0.014 A 
ATOM     77  C   UNL A   1      37.879  29.035  30.169  1.00  0.00     0.009 A 
ATOM     78  C   UNL A   1      38.178  29.733  27.874  1.00  0.00     0.009 A 
ATOM     79  C   UNL A   1      36.532  29.394  30.101  1.00  0.00     0.001 A 
ATOM     80  C   UNL A   1      36.837  30.116  27.818  1.00  0.00     0.001 A 
ATOM     81  C   UNL A   1      36.013  29.939  28.927  1.00  0.00     0.000 A 
ENDBRANCH  57  76
BRANCH  69  82
ATOM     82  C   UNL A   1      44.549  32.485  30.932  1.00  0.00    -0.014 A 
ATOM     83  C   UNL A   1      44.491  32.835  32.289  1.00  0.00     0.009 A 
ATOM     84  C   UNL A   1      44.905  33.462  29.990  1.00  0.00     0.009 A 
ATOM     85  C   UNL A   1      44.753  34.145  32.691  1.00  0.00     0.001 A 
ATOM     86  C   UNL A   1      45.194  34.765  30.398  1.00  0.00     0.001 A 
ATOM     87  C   UNL A   1      45.109  35.107  31.746  1.00  0.00     0.000 A 
ENDBRANCH  69  82
ENDBRANCH  43  44
ENDBRANCH  35  38
ENDBRANCH  33  34
ENDBRANCH  32  33
ENDBRANCH   1  32
TORSDOF 16
ENDMDL
MODEL 3
REMARK VINA RESULT:      -9.9      5.624     12.274
REMARK SMILES O=C(C[C@H](NC(=O)[C@]12C[C@H]3C[C@H](C[C@H](C3)C1)C2)c1cccc([N+](=O)[O-])c1)NCCCCNC(=O)c1ccc(-c2c3nc(c(-c4ccccc4)c4ccc([nH]4)c(-c4ccccc4)c4nc(c(-c5ccccc5)c5ccc2[nH]5)C=C4)C=C3)cc1
REMARK SMILES IDX 29 1 28 2 27 3 1 4 2 5 3 7 4 8 18 9 19 10 26 11 20 12 22 13
REMARK SMILES IDX 21 14 23 15 24 16 25 17 5 18 6 19 7 21 8 22 9 23 16 24 17 25
REMARK SMILES IDX 10 26 14 27 12 28 11 29 15 30 13 31 30 32 31 33 32 34 33 35
REMARK SMILES IDX 34 37 35 38 36 39 82 40 37 41 81 42 38 43 39 44 40 45 75 46
REMARK SMILES IDX 41 47 80 48 74 49 76 50 42 51 79 52 73 53 72 54 43 56 65 57
REMARK SMILES IDX 50 58 64 59 51 60 54 61 63 62 77 63 52 64 53 65 62 67 78 68
REMARK SMILES IDX 55 69 44 70 45 71 49 72 46 73 48 74 47 75 66 76 67 77 71 78
REMARK SMILES IDX 68 79 70 80 69 81 56 82 57 83 61 84 58 85 60 86 59 87
REMARK H PARENT 27 6 5 20 32 36 76 55 54 66
REMARK Flexibility Score: inf
ROOT
ATOM      1  C   UNL A   1      31.809  30.270  25.697  1.00  0.00     0.023 C 
ENDROOT
BRANCH   1   2
ATOM      2  C   UNL A   1      32.796  29.270  26.313  1.00  0.00     0.116 C 
BRANCH   2   3
ATOM      3  N   UNL A   1      32.629  27.883  25.917  1.00  0.00    -0.356 N 
ATOM      4  O   UNL A   1      31.111  27.402  27.546  1.00  0.00    -0.275 OA
ATOM      5  C   UNL A   1      31.723  27.064  26.536  1.00  0.00     0.222 C 
ATOM      6  H   UNL A   1      33.181  27.523  25.185  1.00  0.00     0.163 HD
BRANCH   5   7
ATOM      7  C   UNL A   1      31.601  25.659  26.007  1.00  0.00     0.129 C 
BRANCH   7   8
ATOM      8  C   UNL A   1      31.264  25.434  24.528  1.00  0.00     0.122 C 
BRANCH   8   9
ATOM      9  C   UNL A   1      30.118  26.370  24.124  1.00  0.00    -0.018 A 
ATOM     10  C   UNL A   1      28.772  26.106  24.418  1.00  0.00     0.006 A 
ATOM     11  C   UNL A   1      30.413  27.504  23.339  1.00  0.00     0.091 A 
ATOM     12  C   UNL A   1      27.747  26.915  23.912  1.00  0.00     0.007 A 
ATOM     13  C   UNL A   1      29.382  28.309  22.828  1.00  0.00     0.269 A 
ATOM     14  C   UNL A   1      28.046  28.013  23.107  1.00  0.00     0.085 A 
BRANCH  13  15
ATOM     15  N   UNL A   1      29.715  29.452  21.970  1.00  0.00     0.062 N 
ATOM     16  O   UNL A   1      28.813  29.934  21.272  1.00  0.00    -0.258 OA
ATOM     17  O   UNL A   1      30.886  29.862  21.991  1.00  0.00    -0.258 OA
ENDBRANCH  13  15
ENDBRANCH   8   9
BRANCH   8  18
ATOM     18  N   UNL A   1      32.277  25.280  23.475  1.00  0.00    -0.348 N 
ATOM     19  C   UNL A   1      33.539  24.858  23.254  1.00  0.00     0.226 C 
ATOM     20  H   UNL A   1      31.898  25.600  22.626  1.00  0.00     0.164 HD
ATOM     21  O   UNL A   1      34.010  25.308  22.196  1.00  0.00    -0.274 OA
BRANCH  19  22
ATOM     22  C   UNL A   1      34.358  23.828  24.045  1.00  0.00     0.050 C 
ATOM     23  C   UNL A   1      34.971  24.571  25.262  1.00  0.00     0.020 C 
ATOM     24  C   UNL A   1      35.453  23.080  23.286  1.00  0.00     0.020 C 
ATOM     25  C   UNL A   1      33.393  22.740  24.616  1.00  0.00     0.020 C 
ATOM     26  C   UNL A   1      35.730  23.597  26.178  1.00  0.00    -0.010 C 
ATOM     27  C   UNL A   1      36.237  22.127  24.198  1.00  0.00    -0.010 C 
ATOM     28  C   UNL A   1      34.148  21.749  25.524  1.00  0.00    -0.010 C 
ATOM     29  C   UNL A   1      34.765  22.520  26.703  1.00  0.00     0.007 C 
ATOM     30  C   UNL A   1      36.845  22.918  25.371  1.00  0.00     0.007 C 
ATOM     31  C   UNL A   1      35.270  21.066  24.729  1.00  0.00     0.007 C 
ENDBRANCH  19  22
ENDBRANCH   8  18
ENDBRANCH   7   8
ENDBRANCH   5   7
ENDBRANCH   2   3
ENDBRANCH   1   2
BRANCH   1  32
ATOM     32  C   UNL A   1      31.482  31.494  26.551  1.00  0.00     0.023 C 
BRANCH  32  33
ATOM     33  C   UNL A   1      32.690  32.197  27.150  1.00  0.00     0.116 C 
BRANCH  33  34
ATOM     34  N   UNL A   1      32.403  33.554  27.582  1.00  0.00    -0.352 N 
ATOM     35  C   UNL A   1      33.140  34.357  28.421  1.00  0.00     0.251 C 
ATOM     36  H   UNL A   1      31.574  33.948  27.229  1.00  0.00     0.163 HD
ATOM     37  O   UNL A   1      32.716  35.443  28.779  1.00  0.00    -0.269 OA
BRANCH  35  38
ATOM     38  C   UNL A   1      34.443  33.864  28.918  1.00  0.00     0.039 A 
ATOM     39  C   UNL A   1      34.474  33.131  30.105  1.00  0.00     0.014 A 
ATOM     40  C   UNL A   1      35.615  34.091  28.192  1.00  0.00     0.014 A 
ATOM     41  C   UNL A   1      35.677  32.571  30.537  1.00  0.00     0.010 A 
ATOM     42  C   UNL A   1      36.798  33.476  28.586  1.00  0.00     0.010 A 
ATOM     43  C   UNL A   1      36.841  32.712  29.763  1.00  0.00    -0.014 A 
BRANCH  43  44
ATOM     44  C   UNL A   1      38.113  32.069  30.172  1.00  0.00     0.031 A 
ATOM     45  C   UNL A   1      39.041  32.774  31.123  1.00  0.00     0.074 A 
ATOM     46  C   UNL A   1      38.462  30.882  29.643  1.00  0.00     0.049 A 
ATOM     47  N   UNL A   1      40.216  32.398  31.559  1.00  0.00    -0.248 NA
ATOM     48  C   UNL A   1      38.600  34.084  31.629  1.00  0.00     0.031 C 
ATOM     49  C   UNL A   1      37.669  30.117  28.676  1.00  0.00     0.029 A 
ATOM     50  N   UNL A   1      39.580  30.111  29.840  1.00  0.00    -0.354 N 
ATOM     51  C   UNL A   1      40.660  33.429  32.377  1.00  0.00     0.074 A 
ATOM     52  C   UNL A   1      39.654  34.468  32.335  1.00  0.00     0.031 C 
ATOM     53  C   UNL A   1      38.316  28.977  28.384  1.00  0.00     0.029 A 
ATOM     54  C   UNL A   1      39.579  28.945  29.114  1.00  0.00     0.049 A 
ATOM     55  H   UNL A   1      40.313  30.369  30.444  1.00  0.00     0.167 HD
ATOM     56  C   UNL A   1      41.794  33.497  33.114  1.00  0.00     0.031 A 
ATOM     57  C   UNL A   1      40.497  27.962  29.041  1.00  0.00     0.031 A 
ATOM     58  C   UNL A   1      42.790  32.462  33.164  1.00  0.00     0.049 A 
ATOM     59  C   UNL A   1      41.749  28.063  29.865  1.00  0.00     0.074 A 
ATOM     60  C   UNL A   1      43.947  32.414  33.921  1.00  0.00     0.029 A 
ATOM     61  N   UNL A   1      42.745  31.290  32.425  1.00  0.00    -0.354 N 
ATOM     62  N   UNL A   1      42.123  29.014  30.686  1.00  0.00    -0.248 NA
ATOM     63  C   UNL A   1      42.699  26.946  29.761  1.00  0.00     0.031 C 
ATOM     64  C   UNL A   1      44.627  31.232  33.605  1.00  0.00     0.029 A 
ATOM     65  C   UNL A   1      43.865  30.522  32.692  1.00  0.00     0.049 A 
ATOM     66  H   UNL A   1      42.025  31.042  31.802  1.00  0.00     0.167 HD
ATOM     67  C   UNL A   1      43.338  28.600  31.216  1.00  0.00     0.074 A 
ATOM     68  C   UNL A   1      43.630  27.306  30.636  1.00  0.00     0.031 C 
ATOM     69  C   UNL A   1      44.141  29.237  32.105  1.00  0.00     0.031 A 
BRANCH  56  70
ATOM     70  C   UNL A   1      42.012  34.744  33.926  1.00  0.00    -0.014 A 
ATOM     71  C   UNL A   1      41.545  34.841  35.247  1.00  0.00     0.009 A 
ATOM     72  C   UNL A   1      42.710  35.827  33.372  1.00  0.00     0.009 A 
ATOM     73  C   UNL A   1      41.739  36.011  35.983  1.00  0.00     0.001 A 
ATOM     74  C   UNL A   1      42.929  36.986  34.120  1.00  0.00     0.001 A 
ATOM     75  C   UNL A   1      42.435  37.081  35.419  1.00  0.00     0.000 A 
ENDBRANCH  56  70
BRANCH  57  76
ATOM     76  C   UNL A   1      40.255  26.784  28.167  1.00  0.00    -0.014 A 
ATOM     77  C   UNL A   1      40.801  26.733  26.875  1.00  0.00     0.009 A 
ATOM     78  C   UNL A   1      39.478  25.707  28.618  1.00  0.00     0.009 A 
ATOM     79  C   UNL A   1      40.552  25.639  26.044  1.00  0.00     0.001 A 
ATOM     80  C   UNL A   1      39.253  24.602  27.794  1.00  0.00     0.001 A 
ATOM     81  C   UNL A   1      39.782  24.572  26.506  1.00  0.00     0.000 A 
ENDBRANCH  57  76
BRANCH  69  82
ATOM     82  C   UNL A   1      45.395  28.525  32.526  1.00  0.00    -0.014 A 
ATOM     83  C   UNL A   1      45.399  27.638  33.612  1.00  0.00     0.009 A 
ATOM     84  C   UNL A   1      46.579  28.715  31.796  1.00  0.00     0.009 A 
ATOM     85  C   UNL A   1      46.573  26.979  33.980  1.00  0.00     0.001 A 
ATOM     86  C   UNL A   1      47.744  28.034  32.148  1.00  0.00     0.001 A 
ATOM     87  C   UNL A   1      47.742  27.174  33.244  1.00  0.00     0.000 A 
ENDBRANCH  69  82
ENDBRANCH  43  44
ENDBRANCH  35  38
ENDBRANCH  33  34
ENDBRANCH  32  33
ENDBRANCH   1  32
TORSDOF 16
ENDMDL
