MODEL 1
REMARK VINA RESULT:     -11.9      0.000      0.000
REMARK SMILES C=CCN1C[C@]2(C(=O)NCCCCNC(=O)c3ccc(-c4c5nc(c(-c6ccccc6)c6ccc([nH]6)c(-c6ccccc6)c6nc(c(-c7ccccc7)c7ccc4[nH]7)C=C6)C=C5)cc3)CN(C(=O)c3cccc(C#N)c3)C[C@H]2C1=O
REMARK SMILES IDX 11 1 10 2 9 3 7 4 8 5 6 7 4 8 5 9 79 10 78 11 80 12 65 13
REMARK SMILES IDX 77 14 66 15 3 16 2 17 1 18 67 19 68 20 69 21 70 22 76 23
REMARK SMILES IDX 71 24 73 25 72 26 74 27 75 28 12 29 13 30 14 31 15 32 16 34
REMARK SMILES IDX 17 35 18 36 64 37 19 38 63 39 20 40 21 41 22 42 57 43 23 44
REMARK SMILES IDX 62 45 56 46 58 47 24 48 61 49 55 50 54 51 25 53 47 54 32 55
REMARK SMILES IDX 46 56 33 57 36 58 45 59 59 60 34 61 35 62 44 64 60 65 37 66
REMARK SMILES IDX 26 67 27 68 31 69 28 70 30 71 29 72 48 73 49 74 53 75 50 76
REMARK SMILES IDX 52 77 51 78 38 79 39 80 43 81 40 82 42 83 41 84
REMARK H PARENT 9 6 14 33 58 52 36 63
REMARK Flexibility Score: inf
ROOT
ATOM      1  C   UNL A   1      31.348  30.523  25.647  1.00  0.00     0.023 C 
ENDROOT
BRANCH   1   2
ATOM      2  C   UNL A   1      32.569  29.631  25.773  1.00  0.00     0.116 C 
BRANCH   2   3
ATOM      3  N   UNL A   1      33.292  29.690  24.522  1.00  0.00    -0.355 N 
ATOM      4  C   UNL A   1      33.138  28.771  23.509  1.00  0.00     0.230 C 
ATOM      5  O   UNL A   1      34.024  28.620  22.673  1.00  0.00    -0.274 OA
ATOM      6  H   UNL A   1      33.930  30.427  24.388  1.00  0.00     0.163 HD
BRANCH   4   7
ATOM      7  C   UNL A   1      31.772  28.076  23.500  1.00  0.00     0.097 C 
ATOM      8  N   UNL A   1      30.010  29.342  22.450  1.00  0.00    -0.337 N 
ATOM      9  C   UNL A   1      31.434  29.107  22.304  1.00  0.00     0.139 C 
ATOM     10  C   UNL A   1      29.418  28.180  22.886  1.00  0.00     0.229 C 
ATOM     11  C   UNL A   1      30.558  27.216  23.022  1.00  0.00     0.117 C 
ATOM     12  O   UNL A   1      28.236  27.967  23.069  1.00  0.00    -0.274 OA
ATOM     13  C   UNL A   1      32.562  26.694  23.792  1.00  0.00     0.139 C 
ATOM     14  C   UNL A   1      30.286  26.164  24.067  1.00  0.00     0.134 C 
ATOM     15  N   UNL A   1      31.604  25.894  24.575  1.00  0.00    -0.337 N 
BRANCH   8  16
ATOM     16  C   UNL A   1      29.259  30.554  22.156  1.00  0.00     0.146 C 
BRANCH  16  17
ATOM     17  C   UNL A   1      28.761  31.266  23.372  1.00  0.00    -0.014 C 
ATOM     18  C   UNL A   1      27.468  31.461  23.663  1.00  0.00     0.006 C 
ENDBRANCH  16  17
ENDBRANCH   8  16
BRANCH  15  19
ATOM     19  C   UNL A   1      31.720  25.132  25.733  1.00  0.00     0.253 C 
ATOM     20  O   UNL A   1      31.094  25.396  26.759  1.00  0.00    -0.269 OA
BRANCH  19  21
ATOM     21  C   UNL A   1      32.651  23.989  25.824  1.00  0.00     0.041 A 
ATOM     22  C   UNL A   1      33.982  24.188  26.187  1.00  0.00     0.014 A 
ATOM     23  C   UNL A   1      32.233  22.724  25.373  1.00  0.00     0.033 A 
ATOM     24  C   UNL A   1      34.875  23.112  26.170  1.00  0.00     0.002 A 
ATOM     25  C   UNL A   1      33.104  21.631  25.448  1.00  0.00     0.053 A 
ATOM     26  C   UNL A   1      34.430  21.834  25.835  1.00  0.00     0.019 A 
BRANCH  25  27
ATOM     27  C   UNL A   1      32.672  20.288  25.204  1.00  0.00     0.099 C 
ATOM     28  N   UNL A   1      32.286  19.192  25.134  1.00  0.00    -0.192 NA
ENDBRANCH  25  27
ENDBRANCH  19  21
ENDBRANCH  15  19
ENDBRANCH   4   7
ENDBRANCH   2   3
ENDBRANCH   1   2
BRANCH   1  29
ATOM     29  C   UNL A   1      31.246  31.570  26.736  1.00  0.00     0.023 C 
BRANCH  29  30
ATOM     30  C   UNL A   1      32.497  32.415  26.826  1.00  0.00     0.116 C 
BRANCH  30  31
ATOM     31  N   UNL A   1      32.271  33.733  27.417  1.00  0.00    -0.352 N 
ATOM     32  C   UNL A   1      33.010  34.405  28.364  1.00  0.00     0.251 C 
ATOM     33  H   UNL A   1      31.473  34.209  27.090  1.00  0.00     0.163 HD
ATOM     34  O   UNL A   1      32.618  35.469  28.827  1.00  0.00    -0.269 OA
BRANCH  32  35
ATOM     35  C   UNL A   1      34.288  33.809  28.792  1.00  0.00     0.039 A 
ATOM     36  C   UNL A   1      35.502  34.325  28.338  1.00  0.00     0.014 A 
ATOM     37  C   UNL A   1      34.256  32.795  29.746  1.00  0.00     0.014 A 
ATOM     38  C   UNL A   1      36.689  33.871  28.916  1.00  0.00     0.010 A 
ATOM     39  C   UNL A   1      35.409  32.480  30.433  1.00  0.00     0.010 A 
ATOM     40  C   UNL A   1      36.645  32.976  29.997  1.00  0.00    -0.014 A 
BRANCH  40  41
ATOM     41  C   UNL A   1      37.862  32.443  30.649  1.00  0.00     0.031 A 
ATOM     42  C   UNL A   1      38.514  31.220  30.059  1.00  0.00     0.074 A 
ATOM     43  C   UNL A   1      38.316  32.977  31.798  1.00  0.00     0.049 A 
ATOM     44  N   UNL A   1      39.489  30.490  30.534  1.00  0.00    -0.248 NA
ATOM     45  C   UNL A   1      37.956  30.716  28.789  1.00  0.00     0.031 C 
ATOM     46  C   UNL A   1      37.744  34.133  32.490  1.00  0.00     0.029 A 
ATOM     47  N   UNL A   1      39.367  32.599  32.593  1.00  0.00    -0.354 N 
ATOM     48  C   UNL A   1      39.631  29.435  29.641  1.00  0.00     0.074 A 
ATOM     49  C   UNL A   1      38.589  29.564  28.652  1.00  0.00     0.031 C 
ATOM     50  C   UNL A   1      38.474  34.391  33.589  1.00  0.00     0.029 A 
ATOM     51  C   UNL A   1      39.530  33.391  33.705  1.00  0.00     0.049 A 
ATOM     52  H   UNL A   1      39.949  31.832  32.389  1.00  0.00     0.167 HD
ATOM     53  C   UNL A   1      40.570  28.462  29.621  1.00  0.00     0.031 A 
ATOM     54  C   UNL A   1      40.428  33.308  34.704  1.00  0.00     0.031 A 
ATOM     55  C   UNL A   1      41.622  28.355  30.591  1.00  0.00     0.049 A 
ATOM     56  C   UNL A   1      41.453  32.207  34.672  1.00  0.00     0.074 A 
ATOM     57  C   UNL A   1      42.664  27.449  30.633  1.00  0.00     0.029 A 
ATOM     58  N   UNL A   1      41.764  29.189  31.689  1.00  0.00    -0.354 N 
ATOM     59  N   UNL A   1      41.622  31.256  33.783  1.00  0.00    -0.248 NA
ATOM     60  C   UNL A   1      42.422  32.175  35.776  1.00  0.00     0.031 C 
ATOM     61  C   UNL A   1      43.398  27.691  31.797  1.00  0.00     0.029 A 
ATOM     62  C   UNL A   1      42.859  28.797  32.436  1.00  0.00     0.049 A 
ATOM     63  H   UNL A   1      41.172  29.945  31.905  1.00  0.00     0.167 HD
ATOM     64  C   UNL A   1      42.734  30.537  34.202  1.00  0.00     0.074 A 
ATOM     65  C   UNL A   1      43.210  31.173  35.413  1.00  0.00     0.031 C 
ATOM     66  C   UNL A   1      43.314  29.448  33.638  1.00  0.00     0.031 A 
BRANCH  53  67
ATOM     67  C   UNL A   1      40.490  27.447  28.514  1.00  0.00    -0.014 A 
ATOM     68  C   UNL A   1      39.767  26.251  28.667  1.00  0.00     0.009 A 
ATOM     69  C   UNL A   1      41.138  27.695  27.295  1.00  0.00     0.009 A 
ATOM     70  C   UNL A   1      39.735  25.306  27.640  1.00  0.00     0.001 A 
ATOM     71  C   UNL A   1      41.071  26.766  26.255  1.00  0.00     0.001 A 
ATOM     72  C   UNL A   1      40.381  25.568  26.433  1.00  0.00     0.000 A 
ENDBRANCH  53  67
BRANCH  54  73
ATOM     73  C   UNL A   1      40.412  34.301  35.812  1.00  0.00    -0.014 A 
ATOM     74  C   UNL A   1      39.666  34.059  36.977  1.00  0.00     0.009 A 
ATOM     75  C   UNL A   1      41.126  35.506  35.706  1.00  0.00     0.009 A 
ATOM     76  C   UNL A   1      39.606  35.015  37.995  1.00  0.00     0.001 A 
ATOM     77  C   UNL A   1      41.093  36.445  36.740  1.00  0.00     0.001 A 
ATOM     78  C   UNL A   1      40.323  36.205  37.877  1.00  0.00     0.000 A 
ENDBRANCH  54  73
BRANCH  66  79
ATOM     79  C   UNL A   1      44.549  28.903  34.299  1.00  0.00    -0.014 A 
ATOM     80  C   UNL A   1      44.480  27.884  35.260  1.00  0.00     0.009 A 
ATOM     81  C   UNL A   1      45.810  29.389  33.913  1.00  0.00     0.009 A 
ATOM     82  C   UNL A   1      45.646  27.392  35.852  1.00  0.00     0.001 A 
ATOM     83  C   UNL A   1      46.974  28.869  34.477  1.00  0.00     0.001 A 
ATOM     84  C   UNL A   1      46.890  27.879  35.455  1.00  0.00     0.000 A 
ENDBRANCH  66  79
ENDBRANCH  40  41
ENDBRANCH  32  35
ENDBRANCH  30  31
ENDBRANCH  29  30
ENDBRANCH   1  29
TORSDOF 16
ENDMDL
MODEL 2
REMARK VINA RESULT:     -11.9      4.061      9.522
REMARK SMILES C=CCN1C[C@]2(C(=O)NCCCCNC(=O)c3ccc(-c4c5nc(c(-c6ccccc6)c6ccc([nH]6)c(-c6ccccc6)c6nc(c(-c7ccccc7)c7ccc4[nH]7)C=C6)C=C5)cc3)CN(C(=O)c3cccc(C#N)c3)C[C@H]2C1=O
REMARK SMILES IDX 11 1 10 2 9 3 7 4 8 5 6 7 4 8 5 9 79 10 78 11 80 12 65 13
REMARK SMILES IDX 77 14 66 15 3 16 2 17 1 18 67 19 68 20 69 21 70 22 76 23
REMARK SMILES IDX 71 24 73 25 72 26 74 27 75 28 12 29 13 30 14 31 15 32 16 34
REMARK SMILES IDX 17 35 18 36 64 37 19 38 63 39 20 40 21 41 22 42 57 43 23 44
REMARK SMILES IDX 62 45 56 46 58 47 24 48 61 49 55 50 54 51 25 53 47 54 32 55
REMARK SMILES IDX 46 56 33 57 36 58 45 59 59 60 34 61 35 62 44 64 60 65 37 66
REMARK SMILES IDX 26 67 27 68 31 69 28 70 30 71 29 72 48 73 49 74 53 75 50 76
REMARK SMILES IDX 52 77 51 78 38 79 39 80 43 81 40 82 42 83 41 84
REMARK H PARENT 9 6 14 33 58 52 36 63
REMARK Flexibility Score: inf
ROOT
ATOM      1  C   UNL A   1      37.612  21.515  24.822  1.00  0.00     0.023 C 
ENDROOT
BRANCH   1   2
ATOM      2  C   UNL A   1      36.123  21.389  24.561  1.00  0.00     0.116 C 
BRANCH   2   3
ATOM      3  N   UNL A   1      35.471  21.142  25.827  1.00  0.00    -0.355 N 
ATOM      4  C   UNL A   1      34.103  21.101  25.983  1.00  0.00     0.230 C 
ATOM      5  O   UNL A   1      33.603  21.293  27.088  1.00  0.00    -0.274 OA
ATOM      6  H   UNL A   1      36.034  20.996  26.620  1.00  0.00     0.163 HD
BRANCH   4   7
ATOM      7  C   UNL A   1      33.341  20.714  24.711  1.00  0.00     0.097 C 
ATOM      8  N   UNL A   1      33.037  18.342  24.408  1.00  0.00    -0.337 N 
ATOM      9  C   UNL A   1      33.086  19.316  25.481  1.00  0.00     0.139 C 
ATOM     10  C   UNL A   1      32.455  18.931  23.309  1.00  0.00     0.229 C 
ATOM     11  C   UNL A   1      32.166  20.333  23.755  1.00  0.00     0.117 C 
ATOM     12  O   UNL A   1      32.189  18.418  22.241  1.00  0.00    -0.274 OA
ATOM     13  C   UNL A   1      32.812  22.242  24.659  1.00  0.00     0.139 C 
ATOM     14  C   UNL A   1      32.165  21.303  22.601  1.00  0.00     0.134 C 
ATOM     15  N   UNL A   1      32.639  22.511  23.221  1.00  0.00    -0.337 N 
BRANCH   8  16
ATOM     16  C   UNL A   1      33.460  16.949  24.432  1.00  0.00     0.146 C 
BRANCH  16  17
ATOM     17  C   UNL A   1      34.922  16.767  24.688  1.00  0.00    -0.014 C 
ATOM     18  C   UNL A   1      35.452  15.741  25.368  1.00  0.00     0.006 C 
ENDBRANCH  16  17
ENDBRANCH   8  16
BRANCH  15  19
ATOM     19  C   UNL A   1      32.996  23.576  22.400  1.00  0.00     0.253 C 
ATOM     20  O   UNL A   1      33.459  23.410  21.272  1.00  0.00    -0.269 OA
BRANCH  19  21
ATOM     21  C   UNL A   1      32.896  24.977  22.854  1.00  0.00     0.041 A 
ATOM     22  C   UNL A   1      33.833  25.502  23.743  1.00  0.00     0.014 A 
ATOM     23  C   UNL A   1      31.753  25.727  22.524  1.00  0.00     0.033 A 
ATOM     24  C   UNL A   1      33.667  26.798  24.242  1.00  0.00     0.002 A 
ATOM     25  C   UNL A   1      31.638  27.056  22.949  1.00  0.00     0.053 A 
ATOM     26  C   UNL A   1      32.594  27.582  23.821  1.00  0.00     0.019 A 
BRANCH  25  27
ATOM     27  C   UNL A   1      30.608  27.928  22.474  1.00  0.00     0.099 C 
ATOM     28  N   UNL A   1      29.861  28.736  22.094  1.00  0.00    -0.192 NA
ENDBRANCH  25  27
ENDBRANCH  19  21
ENDBRANCH  15  19
ENDBRANCH   4   7
ENDBRANCH   2   3
ENDBRANCH   1   2
BRANCH   1  29
ATOM     29  C   UNL A   1      38.311  20.183  25.000  1.00  0.00     0.023 C 
BRANCH  29  30
ATOM     30  C   UNL A   1      39.289  20.209  26.154  1.00  0.00     0.116 C 
BRANCH  30  31
ATOM     31  N   UNL A   1      40.405  19.277  25.994  1.00  0.00    -0.352 N 
ATOM     32  C   UNL A   1      41.759  19.514  26.071  1.00  0.00     0.251 C 
ATOM     33  H   UNL A   1      40.151  18.345  25.803  1.00  0.00     0.163 HD
ATOM     34  O   UNL A   1      42.566  18.631  25.808  1.00  0.00    -0.269 OA
BRANCH  32  35
ATOM     35  C   UNL A   1      42.203  20.855  26.490  1.00  0.00     0.039 A 
ATOM     36  C   UNL A   1      42.528  21.827  25.544  1.00  0.00     0.014 A 
ATOM     37  C   UNL A   1      42.180  21.161  27.849  1.00  0.00     0.014 A 
ATOM     38  C   UNL A   1      42.747  23.139  25.969  1.00  0.00     0.010 A 
ATOM     39  C   UNL A   1      42.223  22.482  28.242  1.00  0.00     0.010 A 
ATOM     40  C   UNL A   1      42.554  23.480  27.316  1.00  0.00    -0.014 A 
BRANCH  40  41
ATOM     41  C   UNL A   1      42.781  24.846  27.840  1.00  0.00     0.031 A 
ATOM     42  C   UNL A   1      44.173  25.224  28.276  1.00  0.00     0.074 A 
ATOM     43  C   UNL A   1      41.753  25.695  28.015  1.00  0.00     0.049 A 
ATOM     44  N   UNL A   1      44.583  26.297  28.899  1.00  0.00    -0.248 NA
ATOM     45  C   UNL A   1      45.239  24.234  28.029  1.00  0.00     0.031 C 
ATOM     46  C   UNL A   1      40.354  25.428  27.673  1.00  0.00     0.029 A 
ATOM     47  N   UNL A   1      41.731  26.960  28.543  1.00  0.00    -0.354 N 
ATOM     48  C   UNL A   1      45.936  26.091  29.141  1.00  0.00     0.074 A 
ATOM     49  C   UNL A   1      46.257  24.761  28.687  1.00  0.00     0.031 C 
ATOM     50  C   UNL A   1      39.617  26.513  27.967  1.00  0.00     0.029 A 
ATOM     51  C   UNL A   1      40.479  27.528  28.564  1.00  0.00     0.049 A 
ATOM     52  H   UNL A   1      42.535  27.420  28.876  1.00  0.00     0.167 HD
ATOM     53  C   UNL A   1      46.843  26.947  29.662  1.00  0.00     0.031 A 
ATOM     54  C   UNL A   1      40.079  28.728  29.021  1.00  0.00     0.031 A 
ATOM     55  C   UNL A   1      46.525  28.281  30.086  1.00  0.00     0.049 A 
ATOM     56  C   UNL A   1      41.103  29.659  29.614  1.00  0.00     0.074 A 
ATOM     57  C   UNL A   1      47.375  29.256  30.570  1.00  0.00     0.029 A 
ATOM     58  N   UNL A   1      45.249  28.824  30.072  1.00  0.00    -0.354 N 
ATOM     59  N   UNL A   1      42.393  29.481  29.773  1.00  0.00    -0.248 NA
ATOM     60  C   UNL A   1      40.616  30.965  30.080  1.00  0.00     0.031 C 
ATOM     61  C   UNL A   1      46.603  30.368  30.914  1.00  0.00     0.029 A 
ATOM     62  C   UNL A   1      45.284  30.113  30.571  1.00  0.00     0.049 A 
ATOM     63  H   UNL A   1      44.440  28.361  29.756  1.00  0.00     0.167 HD
ATOM     64  C   UNL A   1      42.876  30.662  30.323  1.00  0.00     0.074 A 
ATOM     65  C   UNL A   1      41.743  31.555  30.452  1.00  0.00     0.031 C 
ATOM     66  C   UNL A   1      44.142  30.983  30.689  1.00  0.00     0.031 A 
BRANCH  53  67
ATOM     67  C   UNL A   1      48.259  26.457  29.796  1.00  0.00    -0.014 A 
ATOM     68  C   UNL A   1      48.694  25.777  30.948  1.00  0.00     0.009 A 
ATOM     69  C   UNL A   1      49.170  26.668  28.751  1.00  0.00     0.009 A 
ATOM     70  C   UNL A   1      50.020  25.361  31.067  1.00  0.00     0.001 A 
ATOM     71  C   UNL A   1      50.487  26.215  28.856  1.00  0.00     0.001 A 
ATOM     72  C   UNL A   1      50.914  25.574  30.018  1.00  0.00     0.000 A 
ENDBRANCH  53  67
BRANCH  54  73
ATOM     73  C   UNL A   1      38.650  29.131  28.927  1.00  0.00    -0.014 A 
ATOM     74  C   UNL A   1      38.145  29.704  27.748  1.00  0.00     0.009 A 
ATOM     75  C   UNL A   1      37.783  28.963  30.019  1.00  0.00     0.009 A 
ATOM     76  C   UNL A   1      36.818  30.132  27.676  1.00  0.00     0.001 A 
ATOM     77  C   UNL A   1      36.446  29.361  29.934  1.00  0.00     0.001 A 
ATOM     78  C   UNL A   1      35.968  29.957  28.768  1.00  0.00     0.000 A 
ENDBRANCH  54  73
BRANCH  66  79
ATOM     79  C   UNL A   1      44.376  32.369  31.222  1.00  0.00    -0.014 A 
ATOM     80  C   UNL A   1      44.314  32.649  32.595  1.00  0.00     0.009 A 
ATOM     81  C   UNL A   1      44.713  33.403  30.332  1.00  0.00     0.009 A 
ATOM     82  C   UNL A   1      44.543  33.945  33.062  1.00  0.00     0.001 A 
ATOM     83  C   UNL A   1      44.980  34.687  30.805  1.00  0.00     0.001 A 
ATOM     84  C   UNL A   1      44.883  34.960  32.168  1.00  0.00     0.000 A 
ENDBRANCH  66  79
ENDBRANCH  40  41
ENDBRANCH  32  35
ENDBRANCH  30  31
ENDBRANCH  29  30
ENDBRANCH   1  29
TORSDOF 16
ENDMDL
MODEL 3
REMARK VINA RESULT:     -11.9      4.600     10.124
REMARK SMILES C=CCN1C[C@]2(C(=O)NCCCCNC(=O)c3ccc(-c4c5nc(c(-c6ccccc6)c6ccc([nH]6)c(-c6ccccc6)c6nc(c(-c7ccccc7)c7ccc4[nH]7)C=C6)C=C5)cc3)CN(C(=O)c3cccc(C#N)c3)C[C@H]2C1=O
REMARK SMILES IDX 11 1 10 2 9 3 7 4 8 5 6 7 4 8 5 9 79 10 78 11 80 12 65 13
REMARK SMILES IDX 77 14 66 15 3 16 2 17 1 18 67 19 68 20 69 21 70 22 76 23
REMARK SMILES IDX 71 24 73 25 72 26 74 27 75 28 12 29 13 30 14 31 15 32 16 34
REMARK SMILES IDX 17 35 18 36 64 37 19 38 63 39 20 40 21 41 22 42 57 43 23 44
REMARK SMILES IDX 62 45 56 46 58 47 24 48 61 49 55 50 54 51 25 53 47 54 32 55
REMARK SMILES IDX 46 56 33 57 36 58 45 59 59 60 34 61 35 62 44 64 60 65 37 66
REMARK SMILES IDX 26 67 27 68 31 69 28 70 30 71 29 72 48 73 49 74 53 75 50 76
REMARK SMILES IDX 52 77 51 78 38 79 39 80 43 81 40 82 42 83 41 84
REMARK H PARENT 9 6 14 33 58 52 36 63
REMARK Flexibility Score: inf
ROOT
ATOM      1  C   UNL A   1      36.435  20.220  25.003  1.00  0.00     0.023 C 
ENDROOT
BRANCH   1   2
ATOM      2  C   UNL A   1      36.203  21.634  25.502  1.00  0.00     0.116 C 
BRANCH   2   3
ATOM      3  N   UNL A   1      35.406  21.554  26.705  1.00  0.00    -0.355 N 
ATOM      4  C   UNL A   1      34.056  21.820  26.743  1.00  0.00     0.230 C 
ATOM      5  O   UNL A   1      33.518  22.133  27.802  1.00  0.00    -0.274 OA
ATOM      6  H   UNL A   1      35.852  21.295  27.543  1.00  0.00     0.163 HD
BRANCH   4   7
ATOM      7  C   UNL A   1      33.339  21.598  25.407  1.00  0.00     0.097 C 
ATOM      8  N   UNL A   1      32.830  19.295  24.914  1.00  0.00    -0.337 N 
ATOM      9  C   UNL A   1      32.907  20.184  26.057  1.00  0.00     0.139 C 
ATOM     10  C   UNL A   1      32.373  20.011  23.832  1.00  0.00     0.229 C 
ATOM     11  C   UNL A   1      32.192  21.401  24.364  1.00  0.00     0.117 C 
ATOM     12  O   UNL A   1      32.125  19.601  22.717  1.00  0.00    -0.274 OA
ATOM     13  C   UNL A   1      32.960  23.171  25.440  1.00  0.00     0.139 C 
ATOM     14  C   UNL A   1      32.352  22.443  23.286  1.00  0.00     0.134 C 
ATOM     15  N   UNL A   1      32.901  23.553  24.017  1.00  0.00    -0.337 N 
BRANCH   8  16
ATOM     16  C   UNL A   1      33.117  17.868  24.857  1.00  0.00     0.146 C 
BRANCH  16  17
ATOM     17  C   UNL A   1      34.297  17.524  24.006  1.00  0.00    -0.014 C 
ATOM     18  C   UNL A   1      34.240  16.781  22.892  1.00  0.00     0.006 C 
ENDBRANCH  16  17
ENDBRANCH   8  16
BRANCH  15  19
ATOM     19  C   UNL A   1      33.405  24.631  23.297  1.00  0.00     0.253 C 
ATOM     20  O   UNL A   1      34.281  24.499  22.444  1.00  0.00    -0.269 OA
BRANCH  19  21
ATOM     21  C   UNL A   1      32.961  26.016  23.554  1.00  0.00     0.041 A 
ATOM     22  C   UNL A   1      33.831  26.942  24.129  1.00  0.00     0.014 A 
ATOM     23  C   UNL A   1      31.606  26.348  23.380  1.00  0.00     0.033 A 
ATOM     24  C   UNL A   1      33.366  28.220  24.459  1.00  0.00     0.002 A 
ATOM     25  C   UNL A   1      31.167  27.654  23.624  1.00  0.00     0.053 A 
ATOM     26  C   UNL A   1      32.050  28.584  24.177  1.00  0.00     0.019 A 
BRANCH  25  27
ATOM     27  C   UNL A   1      29.855  28.102  23.266  1.00  0.00     0.099 C 
ATOM     28  N   UNL A   1      28.750  28.339  22.987  1.00  0.00    -0.192 NA
ENDBRANCH  25  27
ENDBRANCH  19  21
ENDBRANCH  15  19
ENDBRANCH   4   7
ENDBRANCH   2   3
ENDBRANCH   1   2
BRANCH   1  29
ATOM     29  C   UNL A   1      37.878  19.933  24.641  1.00  0.00     0.023 C 
BRANCH  29  30
ATOM     30  C   UNL A   1      38.792  20.039  25.842  1.00  0.00     0.116 C 
BRANCH  30  31
ATOM     31  N   UNL A   1      39.954  19.153  25.771  1.00  0.00    -0.352 N 
ATOM     32  C   UNL A   1      41.281  19.432  26.006  1.00  0.00     0.251 C 
ATOM     33  H   UNL A   1      39.758  18.222  25.517  1.00  0.00     0.163 HD
ATOM     34  O   UNL A   1      42.146  18.589  25.801  1.00  0.00    -0.269 OA
BRANCH  32  35
ATOM     35  C   UNL A   1      41.624  20.769  26.524  1.00  0.00     0.039 A 
ATOM     36  C   UNL A   1      41.911  20.959  27.875  1.00  0.00     0.014 A 
ATOM     37  C   UNL A   1      41.765  21.812  25.611  1.00  0.00     0.014 A 
ATOM     38  C   UNL A   1      42.426  22.188  28.292  1.00  0.00     0.010 A 
ATOM     39  C   UNL A   1      42.434  22.956  25.993  1.00  0.00     0.010 A 
ATOM     40  C   UNL A   1      42.729  23.178  27.344  1.00  0.00    -0.014 A 
BRANCH  40  41
ATOM     41  C   UNL A   1      43.264  24.508  27.715  1.00  0.00     0.031 A 
ATOM     42  C   UNL A   1      42.291  25.581  28.130  1.00  0.00     0.074 A 
ATOM     43  C   UNL A   1      44.575  24.781  27.587  1.00  0.00     0.049 A 
ATOM     44  N   UNL A   1      42.505  26.851  28.352  1.00  0.00    -0.248 NA
ATOM     45  C   UNL A   1      40.876  25.183  28.257  1.00  0.00     0.031 C 
ATOM     46  C   UNL A   1      45.608  23.839  27.152  1.00  0.00     0.029 A 
ATOM     47  N   UNL A   1      45.259  25.950  27.803  1.00  0.00    -0.354 N 
ATOM     48  C   UNL A   1      41.253  27.397  28.610  1.00  0.00     0.074 A 
ATOM     49  C   UNL A   1      40.279  26.349  28.426  1.00  0.00     0.031 C 
ATOM     50  C   UNL A   1      46.801  24.459  27.169  1.00  0.00     0.029 A 
ATOM     51  C   UNL A   1      46.609  25.851  27.564  1.00  0.00     0.049 A 
ATOM     52  H   UNL A   1      44.825  26.782  28.101  1.00  0.00     0.167 HD
ATOM     53  C   UNL A   1      40.941  28.653  29.003  1.00  0.00     0.031 A 
ATOM     54  C   UNL A   1      47.575  26.784  27.649  1.00  0.00     0.031 A 
ATOM     55  C   UNL A   1      41.917  29.684  29.212  1.00  0.00     0.049 A 
ATOM     56  C   UNL A   1      47.204  28.180  28.071  1.00  0.00     0.074 A 
ATOM     57  C   UNL A   1      41.722  30.973  29.670  1.00  0.00     0.029 A 
ATOM     58  N   UNL A   1      43.275  29.537  28.979  1.00  0.00    -0.354 N 
ATOM     59  N   UNL A   1      46.025  28.667  28.382  1.00  0.00    -0.248 NA
ATOM     60  C   UNL A   1      48.300  29.154  28.167  1.00  0.00     0.031 C 
ATOM     61  C   UNL A   1      42.955  31.629  29.648  1.00  0.00     0.029 A 
ATOM     62  C   UNL A   1      43.928  30.726  29.251  1.00  0.00     0.049 A 
ATOM     63  H   UNL A   1      43.710  28.712  28.664  1.00  0.00     0.167 HD
ATOM     64  C   UNL A   1      46.244  29.991  28.742  1.00  0.00     0.074 A 
ATOM     65  C   UNL A   1      47.669  30.224  28.630  1.00  0.00     0.031 C 
ATOM     66  C   UNL A   1      45.349  30.932  29.133  1.00  0.00     0.031 A 
BRANCH  53  67
ATOM     67  C   UNL A   1      39.487  28.966  29.227  1.00  0.00    -0.014 A 
ATOM     68  C   UNL A   1      38.659  29.400  28.177  1.00  0.00     0.009 A 
ATOM     69  C   UNL A   1      38.933  28.815  30.507  1.00  0.00     0.009 A 
ATOM     70  C   UNL A   1      37.322  29.718  28.414  1.00  0.00     0.001 A 
ATOM     71  C   UNL A   1      37.584  29.096  30.733  1.00  0.00     0.001 A 
ATOM     72  C   UNL A   1      36.784  29.559  29.690  1.00  0.00     0.000 A 
ENDBRANCH  53  67
BRANCH  54  73
ATOM     73  C   UNL A   1      48.989  26.432  27.344  1.00  0.00    -0.014 A 
ATOM     74  C   UNL A   1      49.480  26.521  26.031  1.00  0.00     0.009 A 
ATOM     75  C   UNL A   1      49.852  25.986  28.358  1.00  0.00     0.009 A 
ATOM     76  C   UNL A   1      50.790  26.138  25.734  1.00  0.00     0.001 A 
ATOM     77  C   UNL A   1      51.172  25.636  28.064  1.00  0.00     0.001 A 
ATOM     78  C   UNL A   1      51.636  25.700  26.752  1.00  0.00     0.000 A 
ENDBRANCH  54  73
BRANCH  66  79
ATOM     79  C   UNL A   1      45.888  32.285  29.508  1.00  0.00    -0.014 A 
ATOM     80  C   UNL A   1      46.023  33.311  28.562  1.00  0.00     0.009 A 
ATOM     81  C   UNL A   1      46.222  32.546  30.848  1.00  0.00     0.009 A 
ATOM     82  C   UNL A   1      46.521  34.559  28.941  1.00  0.00     0.001 A 
ATOM     83  C   UNL A   1      46.680  33.806  31.231  1.00  0.00     0.001 A 
ATOM     84  C   UNL A   1      46.842  34.807  30.275  1.00  0.00     0.000 A 
ENDBRANCH  66  79
ENDBRANCH  40  41
ENDBRANCH  32  35
ENDBRANCH  30  31
ENDBRANCH  29  30
ENDBRANCH   1  29
TORSDOF 16
ENDMDL
