MODEL 1
REMARK VINA RESULT:     -10.4      0.000      0.000
REMARK SMILES CCOc1c(Br)cc(CNc2cccc(C(=O)NCCCCNC(=O)c3ccc(-c4c5nc(c(-c6ccccc6)c6ccc([nH]6)c(-c6ccccc6)c6nc(c(-c7ccccc7)c7ccc4[nH]7)C=C6)C=C5)cc3)c2C)cc1OC
REMARK SMILES IDX 19 1 18 2 16 3 17 4 15 6 11 7 12 8 74 9 13 10 75 11 14 12
REMARK SMILES IDX 10 13 9 15 8 16 4 17 5 18 77 19 6 20 7 21 76 22 3 23 2 24
REMARK SMILES IDX 1 25 78 26 79 27 20 28 21 29 22 30 23 31 24 32 25 34 26 35
REMARK SMILES IDX 27 36 73 37 28 38 72 39 29 40 30 41 31 42 66 43 32 44 71 45
REMARK SMILES IDX 65 46 67 47 33 48 70 49 64 50 63 51 34 53 56 54 41 55 55 56
REMARK SMILES IDX 42 57 45 58 54 59 68 60 43 61 44 62 53 64 69 65 46 66 35 67
REMARK SMILES IDX 36 68 40 69 37 70 39 71 38 72 57 73 58 74 62 75 59 76 61 77
REMARK SMILES IDX 60 78 47 79 48 80 52 81 49 82 51 83 50 84
REMARK H PARENT 18 5 10 14 23 33 67 52 45 63
REMARK Flexibility Score: inf
ROOT
ATOM      1  C   UNL A   1      43.805  25.236  25.464  1.00  0.00     0.116 C 
ENDROOT
BRANCH   1   2
ATOM      2  N   UNL A   1      43.334  26.499  24.903  1.00  0.00    -0.352 N 
ATOM      3  C   UNL A   1      42.291  27.362  25.170  1.00  0.00     0.251 C 
ATOM      4  O   UNL A   1      42.299  28.428  24.554  1.00  0.00    -0.269 OA
ATOM      5  H   UNL A   1      43.894  26.808  24.155  1.00  0.00     0.163 HD
BRANCH   3   6
ATOM      6  C   UNL A   1      41.183  27.077  26.144  1.00  0.00     0.044 A 
ATOM      7  C   UNL A   1      39.885  27.588  28.174  1.00  0.00     0.038 A 
ATOM      8  C   UNL A   1      39.112  26.447  27.921  1.00  0.00     0.026 A 
ATOM      9  C   UNL A   1      40.883  27.957  27.229  1.00  0.00    -0.015 A 
ATOM     10  C   UNL A   1      39.424  25.577  26.888  1.00  0.00     0.003 A 
ATOM     11  C   UNL A   1      41.677  29.224  27.461  1.00  0.00     0.047 C 
ATOM     12  C   UNL A   1      40.503  25.858  26.061  1.00  0.00     0.014 A 
BRANCH   7  13
ATOM     13  N   UNL A   1      39.720  28.275  29.375  1.00  0.00    -0.381 N 
ATOM     14  H   UNL A   1      40.514  28.621  29.842  1.00  0.00     0.160 HD
BRANCH  13  15
ATOM     15  C   UNL A   1      38.402  28.496  29.957  1.00  0.00     0.149 C 
BRANCH  15  16
ATOM     16  C   UNL A   1      37.742  29.699  29.322  1.00  0.00    -0.024 A 
ATOM     17  C   UNL A   1      36.494  31.947  28.140  1.00  0.00     0.175 A 
ATOM     18  C   UNL A   1      37.627  32.098  28.960  1.00  0.00     0.064 A 
ATOM     19  C   UNL A   1      35.934  30.670  27.981  1.00  0.00     0.162 A 
ATOM     20  Br  UNL A   1      38.347  33.805  29.389  1.00  0.00    -0.047 Br
ATOM     21  C   UNL A   1      38.256  30.985  29.527  1.00  0.00     0.025 A 
ATOM     22  C   UNL A   1      36.575  29.561  28.559  1.00  0.00     0.056 A 
BRANCH  17  23
ATOM     23  O   UNL A   1      35.943  33.068  27.572  1.00  0.00    -0.489 OA
BRANCH  23  24
ATOM     24  C   UNL A   1      35.095  33.781  28.486  1.00  0.00     0.226 C 
ATOM     25  C   UNL A   1      33.631  33.475  28.224  1.00  0.00     0.049 C 
ENDBRANCH  23  24
ENDBRANCH  17  23
BRANCH  19  26
ATOM     26  O   UNL A   1      34.805  30.313  27.293  1.00  0.00    -0.493 OA
ATOM     27  C   UNL A   1      34.376  28.960  27.340  1.00  0.00     0.278 C 
ENDBRANCH  19  26
ENDBRANCH  15  16
ENDBRANCH  13  15
ENDBRANCH   7  13
ENDBRANCH   3   6
ENDBRANCH   1   2
BRANCH   1  28
ATOM     28  C   UNL A   1      43.202  23.979  24.836  1.00  0.00     0.023 C 
BRANCH  28  29
ATOM     29  C   UNL A   1      43.973  22.679  25.046  1.00  0.00     0.023 C 
BRANCH  29  30
ATOM     30  C   UNL A   1      43.512  21.817  26.217  1.00  0.00     0.116 C 
BRANCH  30  31
ATOM     31  N   UNL A   1      42.092  21.897  26.538  1.00  0.00    -0.352 N 
ATOM     32  C   UNL A   1      41.469  22.438  27.661  1.00  0.00     0.251 C 
ATOM     33  H   UNL A   1      41.486  21.514  25.863  1.00  0.00     0.163 HD
ATOM     34  O   UNL A   1      40.264  22.380  27.780  1.00  0.00    -0.269 OA
BRANCH  32  35
ATOM     35  C   UNL A   1      42.280  23.207  28.646  1.00  0.00     0.039 A 
ATOM     36  C   UNL A   1      42.255  24.605  28.561  1.00  0.00     0.014 A 
ATOM     37  C   UNL A   1      43.200  22.578  29.478  1.00  0.00     0.014 A 
ATOM     38  C   UNL A   1      43.320  25.338  29.077  1.00  0.00     0.010 A 
ATOM     39  C   UNL A   1      44.309  23.286  29.898  1.00  0.00     0.010 A 
ATOM     40  C   UNL A   1      44.403  24.653  29.622  1.00  0.00    -0.014 A 
BRANCH  40  41
ATOM     41  C   UNL A   1      45.724  25.250  29.777  1.00  0.00     0.031 A 
ATOM     42  C   UNL A   1      46.790  24.996  28.794  1.00  0.00     0.074 A 
ATOM     43  C   UNL A   1      45.927  26.112  30.797  1.00  0.00     0.049 A 
ATOM     44  N   UNL A   1      48.051  25.136  29.033  1.00  0.00    -0.248 NA
ATOM     45  C   UNL A   1      46.507  24.495  27.455  1.00  0.00     0.031 C 
ATOM     46  C   UNL A   1      47.037  27.040  30.986  1.00  0.00     0.029 A 
ATOM     47  N   UNL A   1      45.233  26.150  32.008  1.00  0.00    -0.354 N 
ATOM     48  C   UNL A   1      48.711  25.031  27.830  1.00  0.00     0.074 A 
ATOM     49  C   UNL A   1      47.720  24.543  26.899  1.00  0.00     0.031 C 
ATOM     50  C   UNL A   1      47.109  27.368  32.287  1.00  0.00     0.029 A 
ATOM     51  C   UNL A   1      46.156  26.527  32.996  1.00  0.00     0.049 A 
ATOM     52  H   UNL A   1      44.278  25.951  32.143  1.00  0.00     0.167 HD
ATOM     53  C   UNL A   1      49.983  25.508  27.716  1.00  0.00     0.031 A 
ATOM     54  C   UNL A   1      46.485  25.669  34.007  1.00  0.00     0.031 A 
ATOM     55  C   UNL A   1      50.511  25.957  29.002  1.00  0.00     0.049 A 
ATOM     56  C   UNL A   1      47.951  25.289  34.031  1.00  0.00     0.074 A 
ATOM     57  C   UNL A   1      50.627  27.208  29.588  1.00  0.00     0.029 A 
ATOM     58  N   UNL A   1      50.725  25.028  30.014  1.00  0.00    -0.354 N 
ATOM     59  N   UNL A   1      48.755  25.415  33.012  1.00  0.00    -0.248 NA
ATOM     60  C   UNL A   1      48.606  24.686  35.191  1.00  0.00     0.031 C 
ATOM     61  C   UNL A   1      50.814  27.022  30.983  1.00  0.00     0.029 A 
ATOM     62  C   UNL A   1      50.849  25.662  31.235  1.00  0.00     0.049 A 
ATOM     63  H   UNL A   1      50.781  24.055  29.879  1.00  0.00     0.167 HD
ATOM     64  C   UNL A   1      49.987  24.919  33.343  1.00  0.00     0.074 A 
ATOM     65  C   UNL A   1      49.849  24.487  34.722  1.00  0.00     0.031 C 
ATOM     66  C   UNL A   1      51.020  24.885  32.454  1.00  0.00     0.031 A 
BRANCH  53  67
ATOM     67  C   UNL A   1      50.616  25.851  26.386  1.00  0.00    -0.014 A 
ATOM     68  C   UNL A   1      51.895  25.352  26.077  1.00  0.00     0.009 A 
ATOM     69  C   UNL A   1      50.050  26.713  25.431  1.00  0.00     0.009 A 
ATOM     70  C   UNL A   1      52.606  25.772  24.943  1.00  0.00     0.001 A 
ATOM     71  C   UNL A   1      50.768  27.172  24.318  1.00  0.00     0.001 A 
ATOM     72  C   UNL A   1      52.055  26.710  24.081  1.00  0.00     0.000 A 
ENDBRANCH  53  67
BRANCH  54  73
ATOM     73  C   UNL A   1      45.383  24.742  34.396  1.00  0.00    -0.014 A 
ATOM     74  C   UNL A   1      44.370  25.221  35.254  1.00  0.00     0.009 A 
ATOM     75  C   UNL A   1      45.150  23.559  33.682  1.00  0.00     0.009 A 
ATOM     76  C   UNL A   1      43.120  24.596  35.304  1.00  0.00     0.001 A 
ATOM     77  C   UNL A   1      43.902  22.927  33.749  1.00  0.00     0.001 A 
ATOM     78  C   UNL A   1      42.878  23.464  34.530  1.00  0.00     0.000 A 
ENDBRANCH  54  73
BRANCH  66  79
ATOM     79  C   UNL A   1      52.321  24.164  32.672  1.00  0.00    -0.014 A 
ATOM     80  C   UNL A   1      52.419  22.780  32.874  1.00  0.00     0.009 A 
ATOM     81  C   UNL A   1      53.530  24.877  32.526  1.00  0.00     0.009 A 
ATOM     82  C   UNL A   1      53.664  22.148  32.977  1.00  0.00     0.001 A 
ATOM     83  C   UNL A   1      54.773  24.244  32.587  1.00  0.00     0.001 A 
ATOM     84  C   UNL A   1      54.839  22.878  32.825  1.00  0.00     0.000 A 
ENDBRANCH  66  79
ENDBRANCH  40  41
ENDBRANCH  32  35
ENDBRANCH  30  31
ENDBRANCH  29  30
ENDBRANCH  28  29
ENDBRANCH   1  28
TORSDOF 17
ENDMDL
MODEL 2
REMARK VINA RESULT:      -9.9      5.087     10.637
REMARK SMILES CCOc1c(Br)cc(CNc2cccc(C(=O)NCCCCNC(=O)c3ccc(-c4c5nc(c(-c6ccccc6)c6ccc([nH]6)c(-c6ccccc6)c6nc(c(-c7ccccc7)c7ccc4[nH]7)C=C6)C=C5)cc3)c2C)cc1OC
REMARK SMILES IDX 19 1 18 2 16 3 17 4 15 6 11 7 12 8 74 9 13 10 75 11 14 12
REMARK SMILES IDX 10 13 9 15 8 16 4 17 5 18 77 19 6 20 7 21 76 22 3 23 2 24
REMARK SMILES IDX 1 25 78 26 79 27 20 28 21 29 22 30 23 31 24 32 25 34 26 35
REMARK SMILES IDX 27 36 73 37 28 38 72 39 29 40 30 41 31 42 66 43 32 44 71 45
REMARK SMILES IDX 65 46 67 47 33 48 70 49 64 50 63 51 34 53 56 54 41 55 55 56
REMARK SMILES IDX 42 57 45 58 54 59 68 60 43 61 44 62 53 64 69 65 46 66 35 67
REMARK SMILES IDX 36 68 40 69 37 70 39 71 38 72 57 73 58 74 62 75 59 76 61 77
REMARK SMILES IDX 60 78 47 79 48 80 52 81 49 82 51 83 50 84
REMARK H PARENT 18 5 10 14 23 33 67 52 45 63
REMARK Flexibility Score: inf
ROOT
ATOM      1  C   UNL A   1      43.651  23.284  29.014  1.00  0.00     0.116 C 
ENDROOT
BRANCH   1   2
ATOM      2  N   UNL A   1      43.824  22.912  27.613  1.00  0.00    -0.352 N 
ATOM      3  C   UNL A   1      43.016  22.908  26.493  1.00  0.00     0.251 C 
ATOM      4  O   UNL A   1      43.573  22.646  25.426  1.00  0.00    -0.269 OA
ATOM      5  H   UNL A   1      44.732  22.585  27.421  1.00  0.00     0.163 HD
BRANCH   3   6
ATOM      6  C   UNL A   1      41.543  23.199  26.509  1.00  0.00     0.044 A 
ATOM      7  C   UNL A   1      39.183  22.496  26.426  1.00  0.00     0.038 A 
ATOM      8  C   UNL A   1      38.818  23.845  26.516  1.00  0.00     0.026 A 
ATOM      9  C   UNL A   1      40.564  22.159  26.506  1.00  0.00    -0.015 A 
ATOM     10  C   UNL A   1      39.767  24.856  26.487  1.00  0.00     0.003 A 
ATOM     11  C   UNL A   1      40.963  20.699  26.477  1.00  0.00     0.047 C 
ATOM     12  C   UNL A   1      41.113  24.526  26.402  1.00  0.00     0.014 A 
BRANCH   7  13
ATOM     13  N   UNL A   1      38.206  21.536  26.174  1.00  0.00    -0.381 N 
ATOM     14  H   UNL A   1      37.786  21.069  26.932  1.00  0.00     0.160 HD
BRANCH  13  15
ATOM     15  C   UNL A   1      37.790  21.204  24.817  1.00  0.00     0.149 C 
BRANCH  15  16
ATOM     16  C   UNL A   1      36.303  21.425  24.656  1.00  0.00    -0.024 A 
ATOM     17  C   UNL A   1      33.522  21.842  24.338  1.00  0.00     0.175 A 
ATOM     18  C   UNL A   1      34.018  20.619  24.825  1.00  0.00     0.064 A 
ATOM     19  C   UNL A   1      34.430  22.832  23.929  1.00  0.00     0.162 A 
ATOM     20  Br  UNL A   1      32.877  19.152  25.228  1.00  0.00    -0.047 Br
ATOM     21  C   UNL A   1      35.391  20.421  25.001  1.00  0.00     0.025 A 
ATOM     22  C   UNL A   1      35.807  22.617  24.109  1.00  0.00     0.056 A 
BRANCH  17  23
ATOM     23  O   UNL A   1      32.164  22.000  24.228  1.00  0.00    -0.489 OA
BRANCH  23  24
ATOM     24  C   UNL A   1      31.516  22.067  25.507  1.00  0.00     0.226 C 
ATOM     25  C   UNL A   1      32.043  23.232  26.325  1.00  0.00     0.049 C 
ENDBRANCH  23  24
ENDBRANCH  17  23
BRANCH  19  26
ATOM     26  O   UNL A   1      34.167  24.052  23.367  1.00  0.00    -0.493 OA
ATOM     27  C   UNL A   1      34.090  25.190  24.212  1.00  0.00     0.278 C 
ENDBRANCH  19  26
ENDBRANCH  15  16
ENDBRANCH  13  15
ENDBRANCH   7  13
ENDBRANCH   3   6
ENDBRANCH   1   2
BRANCH   1  28
ATOM     28  C   UNL A   1      44.013  24.730  29.353  1.00  0.00     0.023 C 
BRANCH  28  29
ATOM     29  C   UNL A   1      43.222  25.816  28.628  1.00  0.00     0.023 C 
BRANCH  29  30
ATOM     30  C   UNL A   1      44.055  26.871  27.907  1.00  0.00     0.116 C 
BRANCH  30  31
ATOM     31  N   UNL A   1      43.768  27.038  26.488  1.00  0.00    -0.352 N 
ATOM     32  C   UNL A   1      42.770  27.789  25.870  1.00  0.00     0.251 C 
ATOM     33  H   UNL A   1      44.366  26.549  25.876  1.00  0.00     0.163 HD
ATOM     34  O   UNL A   1      42.654  27.779  24.663  1.00  0.00    -0.269 OA
BRANCH  32  35
ATOM     35  C   UNL A   1      41.937  28.710  26.692  1.00  0.00     0.039 A 
ATOM     36  C   UNL A   1      42.584  29.764  27.350  1.00  0.00     0.014 A 
ATOM     37  C   UNL A   1      40.608  28.421  26.985  1.00  0.00     0.014 A 
ATOM     38  C   UNL A   1      41.997  30.325  28.481  1.00  0.00     0.010 A 
ATOM     39  C   UNL A   1      40.068  28.897  28.163  1.00  0.00     0.010 A 
ATOM     40  C   UNL A   1      40.801  29.787  28.952  1.00  0.00    -0.014 A 
BRANCH  40  41
ATOM     41  C   UNL A   1      40.333  29.969  30.320  1.00  0.00     0.031 A 
ATOM     42  C   UNL A   1      39.530  31.144  30.697  1.00  0.00     0.074 A 
ATOM     43  C   UNL A   1      40.578  28.992  31.220  1.00  0.00     0.049 A 
ATOM     44  N   UNL A   1      39.412  31.591  31.902  1.00  0.00    -0.248 NA
ATOM     45  C   UNL A   1      38.834  31.957  29.707  1.00  0.00     0.031 C 
ATOM     46  C   UNL A   1      39.975  28.807  32.537  1.00  0.00     0.029 A 
ATOM     47  N   UNL A   1      41.623  28.067  31.185  1.00  0.00    -0.354 N 
ATOM     48  C   UNL A   1      38.420  32.544  31.891  1.00  0.00     0.074 A 
ATOM     49  C   UNL A   1      38.158  32.798  30.494  1.00  0.00     0.031 C 
ATOM     50  C   UNL A   1      40.782  28.028  33.276  1.00  0.00     0.029 A 
ATOM     51  C   UNL A   1      42.007  27.833  32.515  1.00  0.00     0.049 A 
ATOM     52  H   UNL A   1      42.015  27.657  30.380  1.00  0.00     0.167 HD
ATOM     53  C   UNL A   1      37.822  32.906  33.061  1.00  0.00     0.031 A 
ATOM     54  C   UNL A   1      43.254  28.183  32.952  1.00  0.00     0.031 A 
ATOM     55  C   UNL A   1      38.464  32.282  34.216  1.00  0.00     0.049 A 
ATOM     56  C   UNL A   1      43.242  29.211  34.064  1.00  0.00     0.074 A 
ATOM     57  C   UNL A   1      38.152  31.169  34.980  1.00  0.00     0.029 A 
ATOM     58  N   UNL A   1      39.774  32.624  34.534  1.00  0.00    -0.354 N 
ATOM     59  N   UNL A   1      42.231  29.989  34.330  1.00  0.00    -0.248 NA
ATOM     60  C   UNL A   1      44.395  29.477  34.923  1.00  0.00     0.031 C 
ATOM     61  C   UNL A   1      39.321  30.784  35.688  1.00  0.00     0.029 A 
ATOM     62  C   UNL A   1      40.326  31.683  35.382  1.00  0.00     0.049 A 
ATOM     63  H   UNL A   1      40.242  33.424  34.202  1.00  0.00     0.167 HD
ATOM     64  C   UNL A   1      42.570  30.844  35.344  1.00  0.00     0.074 A 
ATOM     65  C   UNL A   1      43.930  30.477  35.692  1.00  0.00     0.031 C 
ATOM     66  C   UNL A   1      41.714  31.800  35.806  1.00  0.00     0.031 A 
BRANCH  53  67
ATOM     67  C   UNL A   1      36.465  33.575  33.119  1.00  0.00    -0.014 A 
ATOM     68  C   UNL A   1      35.308  32.786  33.257  1.00  0.00     0.009 A 
ATOM     69  C   UNL A   1      36.248  34.955  32.968  1.00  0.00     0.009 A 
ATOM     70  C   UNL A   1      34.019  33.326  33.142  1.00  0.00     0.001 A 
ATOM     71  C   UNL A   1      34.966  35.498  32.809  1.00  0.00     0.001 A 
ATOM     72  C   UNL A   1      33.849  34.679  32.883  1.00  0.00     0.000 A 
ENDBRANCH  53  67
BRANCH  54  73
ATOM     73  C   UNL A   1      44.306  28.114  31.897  1.00  0.00    -0.014 A 
ATOM     74  C   UNL A   1      44.610  29.284  31.170  1.00  0.00     0.009 A 
ATOM     75  C   UNL A   1      45.209  27.044  31.849  1.00  0.00     0.009 A 
ATOM     76  C   UNL A   1      45.836  29.420  30.511  1.00  0.00     0.001 A 
ATOM     77  C   UNL A   1      46.429  27.178  31.173  1.00  0.00     0.001 A 
ATOM     78  C   UNL A   1      46.756  28.375  30.536  1.00  0.00     0.000 A 
ENDBRANCH  54  73
BRANCH  66  79
ATOM     79  C   UNL A   1      42.088  32.905  36.752  1.00  0.00    -0.014 A 
ATOM     80  C   UNL A   1      42.671  34.114  36.345  1.00  0.00     0.009 A 
ATOM     81  C   UNL A   1      41.712  32.800  38.108  1.00  0.00     0.009 A 
ATOM     82  C   UNL A   1      42.911  35.148  37.259  1.00  0.00     0.001 A 
ATOM     83  C   UNL A   1      41.912  33.845  39.014  1.00  0.00     0.001 A 
ATOM     84  C   UNL A   1      42.524  35.016  38.590  1.00  0.00     0.000 A 
ENDBRANCH  66  79
ENDBRANCH  40  41
ENDBRANCH  32  35
ENDBRANCH  30  31
ENDBRANCH  29  30
ENDBRANCH  28  29
ENDBRANCH   1  28
TORSDOF 17
ENDMDL
MODEL 3
REMARK VINA RESULT:      -9.6      1.320      2.006
REMARK SMILES CCOc1c(Br)cc(CNc2cccc(C(=O)NCCCCNC(=O)c3ccc(-c4c5nc(c(-c6ccccc6)c6ccc([nH]6)c(-c6ccccc6)c6nc(c(-c7ccccc7)c7ccc4[nH]7)C=C6)C=C5)cc3)c2C)cc1OC
REMARK SMILES IDX 19 1 18 2 16 3 17 4 15 6 11 7 12 8 74 9 13 10 75 11 14 12
REMARK SMILES IDX 10 13 9 15 8 16 4 17 5 18 77 19 6 20 7 21 76 22 3 23 2 24
REMARK SMILES IDX 1 25 78 26 79 27 20 28 21 29 22 30 23 31 24 32 25 34 26 35
REMARK SMILES IDX 27 36 73 37 28 38 72 39 29 40 30 41 31 42 66 43 32 44 71 45
REMARK SMILES IDX 65 46 67 47 33 48 70 49 64 50 63 51 34 53 56 54 41 55 55 56
REMARK SMILES IDX 42 57 45 58 54 59 68 60 43 61 44 62 53 64 69 65 46 66 35 67
REMARK SMILES IDX 36 68 40 69 37 70 39 71 38 72 57 73 58 74 62 75 59 76 61 77
REMARK SMILES IDX 60 78 47 79 48 80 52 81 49 82 51 83 50 84
REMARK H PARENT 18 5 10 14 23 33 67 52 45 63
REMARK Flexibility Score: inf
ROOT
ATOM      1  C   UNL A   1      43.401  26.263  25.094  1.00  0.00     0.116 C 
ENDROOT
BRANCH   1   2
ATOM      2  N   UNL A   1      44.305  27.410  25.112  1.00  0.00    -0.352 N 
ATOM      3  C   UNL A   1      44.596  28.414  26.013  1.00  0.00     0.251 C 
ATOM      4  O   UNL A   1      45.544  29.145  25.721  1.00  0.00    -0.269 OA
ATOM      5  H   UNL A   1      44.831  27.486  24.283  1.00  0.00     0.163 HD
BRANCH   3   6
ATOM      6  C   UNL A   1      43.844  28.651  27.291  1.00  0.00     0.044 A 
ATOM      7  C   UNL A   1      41.805  29.248  28.538  1.00  0.00     0.038 A 
ATOM      8  C   UNL A   1      42.534  29.100  29.726  1.00  0.00     0.026 A 
ATOM      9  C   UNL A   1      42.445  28.940  27.305  1.00  0.00    -0.015 A 
ATOM     10  C   UNL A   1      43.897  28.851  29.711  1.00  0.00     0.003 A 
ATOM     11  C   UNL A   1      41.645  29.033  26.023  1.00  0.00     0.047 C 
ATOM     12  C   UNL A   1      44.553  28.709  28.495  1.00  0.00     0.014 A 
BRANCH   7  13
ATOM     13  N   UNL A   1      40.516  29.773  28.586  1.00  0.00    -0.381 N 
ATOM     14  H   UNL A   1      40.389  30.743  28.472  1.00  0.00     0.160 HD
BRANCH  13  15
ATOM     15  C   UNL A   1      39.349  28.925  28.800  1.00  0.00     0.149 C 
BRANCH  15  16
ATOM     16  C   UNL A   1      38.093  29.764  28.854  1.00  0.00    -0.024 A 
ATOM     17  C   UNL A   1      35.750  31.348  28.949  1.00  0.00     0.175 A 
ATOM     18  C   UNL A   1      35.791  30.164  28.192  1.00  0.00     0.064 A 
ATOM     19  C   UNL A   1      36.918  31.785  29.594  1.00  0.00     0.162 A 
ATOM     20  Br  UNL A   1      34.320  29.588  27.133  1.00  0.00    -0.047 Br
ATOM     21  C   UNL A   1      36.942  29.370  28.162  1.00  0.00     0.025 A 
ATOM     22  C   UNL A   1      38.068  30.979  29.552  1.00  0.00     0.056 A 
BRANCH  17  23
ATOM     23  O   UNL A   1      34.581  32.066  28.981  1.00  0.00    -0.489 OA
BRANCH  23  24
ATOM     24  C   UNL A   1      34.611  33.195  28.095  1.00  0.00     0.226 C 
ATOM     25  C   UNL A   1      33.417  34.103  28.329  1.00  0.00     0.049 C 
ENDBRANCH  23  24
ENDBRANCH  17  23
BRANCH  19  26
ATOM     26  O   UNL A   1      37.117  32.932  30.315  1.00  0.00    -0.493 OA
ATOM     27  C   UNL A   1      37.510  32.823  31.675  1.00  0.00     0.278 C 
ENDBRANCH  19  26
ENDBRANCH  15  16
ENDBRANCH  13  15
ENDBRANCH   7  13
ENDBRANCH   3   6
ENDBRANCH   1   2
BRANCH   1  28
ATOM     28  C   UNL A   1      44.079  24.902  24.936  1.00  0.00     0.023 C 
BRANCH  28  29
ATOM     29  C   UNL A   1      43.204  23.676  25.182  1.00  0.00     0.023 C 
BRANCH  29  30
ATOM     30  C   UNL A   1      41.799  23.959  25.702  1.00  0.00     0.116 C 
BRANCH  30  31
ATOM     31  N   UNL A   1      41.141  22.848  26.379  1.00  0.00    -0.352 N 
ATOM     32  C   UNL A   1      41.293  22.396  27.688  1.00  0.00     0.251 C 
ATOM     33  H   UNL A   1      40.496  22.344  25.831  1.00  0.00     0.163 HD
ATOM     34  O   UNL A   1      40.687  21.419  28.072  1.00  0.00    -0.269 OA
BRANCH  32  35
ATOM     35  C   UNL A   1      42.099  23.200  28.648  1.00  0.00     0.039 A 
ATOM     36  C   UNL A   1      42.095  24.593  28.498  1.00  0.00     0.014 A 
ATOM     37  C   UNL A   1      42.999  22.600  29.523  1.00  0.00     0.014 A 
ATOM     38  C   UNL A   1      43.162  25.336  28.995  1.00  0.00     0.010 A 
ATOM     39  C   UNL A   1      44.110  23.312  29.927  1.00  0.00     0.010 A 
ATOM     40  C   UNL A   1      44.227  24.663  29.589  1.00  0.00    -0.014 A 
BRANCH  40  41
ATOM     41  C   UNL A   1      45.554  25.250  29.737  1.00  0.00     0.031 A 
ATOM     42  C   UNL A   1      46.606  25.004  28.737  1.00  0.00     0.074 A 
ATOM     43  C   UNL A   1      45.774  26.096  30.766  1.00  0.00     0.049 A 
ATOM     44  N   UNL A   1      47.871  25.133  28.962  1.00  0.00    -0.248 NA
ATOM     45  C   UNL A   1      46.304  24.524  27.394  1.00  0.00     0.031 C 
ATOM     46  C   UNL A   1      46.893  27.014  30.955  1.00  0.00     0.029 A 
ATOM     47  N   UNL A   1      45.096  26.120  31.986  1.00  0.00    -0.354 N 
ATOM     48  C   UNL A   1      48.515  25.040  27.750  1.00  0.00     0.074 A 
ATOM     49  C   UNL A   1      47.510  24.573  26.824  1.00  0.00     0.031 C 
ATOM     50  C   UNL A   1      46.983  27.322  32.259  1.00  0.00     0.029 A 
ATOM     51  C   UNL A   1      46.034  26.477  32.968  1.00  0.00     0.049 A 
ATOM     52  H   UNL A   1      44.142  25.924  32.130  1.00  0.00     0.167 HD
ATOM     53  C   UNL A   1      49.789  25.511  27.627  1.00  0.00     0.031 A 
ATOM     54  C   UNL A   1      46.369  25.601  33.962  1.00  0.00     0.031 A 
ATOM     55  C   UNL A   1      50.335  25.939  28.913  1.00  0.00     0.049 A 
ATOM     56  C   UNL A   1      47.833  25.213  33.962  1.00  0.00     0.074 A 
ATOM     57  C   UNL A   1      50.467  27.180  29.515  1.00  0.00     0.029 A 
ATOM     58  N   UNL A   1      50.556  24.993  29.909  1.00  0.00    -0.354 N 
ATOM     59  N   UNL A   1      48.625  25.348  32.936  1.00  0.00    -0.248 NA
ATOM     60  C   UNL A   1      48.498  24.589  35.105  1.00  0.00     0.031 C 
ATOM     61  C   UNL A   1      50.669  26.972  30.905  1.00  0.00     0.029 A 
ATOM     62  C   UNL A   1      50.699  25.609  31.137  1.00  0.00     0.049 A 
ATOM     63  H   UNL A   1      50.604  24.022  29.758  1.00  0.00     0.167 HD
ATOM     64  C   UNL A   1      49.858  24.840  33.244  1.00  0.00     0.074 A 
ATOM     65  C   UNL A   1      49.735  24.388  34.618  1.00  0.00     0.031 C 
ATOM     66  C   UNL A   1      50.880  24.813  32.342  1.00  0.00     0.031 A 
BRANCH  53  67
ATOM     67  C   UNL A   1      50.408  25.870  26.294  1.00  0.00    -0.014 A 
ATOM     68  C   UNL A   1      51.715  25.441  25.998  1.00  0.00     0.009 A 
ATOM     69  C   UNL A   1      49.798  26.684  25.324  1.00  0.00     0.009 A 
ATOM     70  C   UNL A   1      52.406  25.884  24.861  1.00  0.00     0.001 A 
ATOM     71  C   UNL A   1      50.494  27.166  24.206  1.00  0.00     0.001 A 
ATOM     72  C   UNL A   1      51.806  26.775  23.982  1.00  0.00     0.000 A 
ENDBRANCH  53  67
BRANCH  54  73
ATOM     73  C   UNL A   1      45.266  24.676  34.351  1.00  0.00    -0.014 A 
ATOM     74  C   UNL A   1      44.271  25.146  35.233  1.00  0.00     0.009 A 
ATOM     75  C   UNL A   1      45.013  23.508  33.619  1.00  0.00     0.009 A 
ATOM     76  C   UNL A   1      43.016  24.530  35.292  1.00  0.00     0.001 A 
ATOM     77  C   UNL A   1      43.761  22.884  33.694  1.00  0.00     0.001 A 
ATOM     78  C   UNL A   1      42.754  23.415  34.501  1.00  0.00     0.000 A 
ENDBRANCH  54  73
BRANCH  66  79
ATOM     79  C   UNL A   1      52.179  24.080  32.533  1.00  0.00    -0.014 A 
ATOM     80  C   UNL A   1      53.410  24.721  32.732  1.00  0.00     0.009 A 
ATOM     81  C   UNL A   1      52.158  22.676  32.665  1.00  0.00     0.009 A 
ATOM     82  C   UNL A   1      54.574  23.989  33.000  1.00  0.00     0.001 A 
ATOM     83  C   UNL A   1      53.308  21.945  32.972  1.00  0.00     0.001 A 
ATOM     84  C   UNL A   1      54.521  22.603  33.128  1.00  0.00     0.000 A 
ENDBRANCH  66  79
ENDBRANCH  40  41
ENDBRANCH  32  35
ENDBRANCH  30  31
ENDBRANCH  29  30
ENDBRANCH  28  29
ENDBRANCH   1  28
TORSDOF 17
ENDMDL
