MODEL 1
REMARK VINA RESULT:     -11.3      0.000      0.000
REMARK SMILES CO[C@@H]1C[C@@H](C(=O)NCCCCNC(=O)c2ccc(-c3c4nc(c(-c5ccccc5)c5ccc([nH]5)c(-c5ccccc5)c5nc(c(-c6ccccc6)c6ccc3[nH]6)C=C5)C=C4)cc2)N(S(=O)(=O)/C=C/c2ccccc2)C1
REMARK SMILES IDX 10 1 9 2 8 3 6 4 7 5 5 7 3 8 4 9 76 10 64 11 2 12 1 13 65 14
REMARK SMILES IDX 66 15 67 16 68 17 69 18 70 19 71 20 75 21 72 22 74 23 73 24
REMARK SMILES IDX 11 25 12 26 13 27 14 28 15 30 16 31 17 32 63 33 18 34 62 35
REMARK SMILES IDX 19 36 20 37 21 38 56 39 22 40 61 41 55 42 57 43 23 44 60 45
REMARK SMILES IDX 54 46 53 47 24 49 46 50 31 51 45 52 32 53 35 54 44 55 58 56
REMARK SMILES IDX 33 57 34 58 43 60 59 61 36 62 25 63 26 64 30 65 27 66 29 67
REMARK SMILES IDX 28 68 47 69 48 70 52 71 49 72 51 73 50 74 37 75 38 76 42 77
REMARK SMILES IDX 39 78 41 79 40 80
REMARK H PARENT 8 6 13 29 57 48 35 59
REMARK Flexibility Score: inf
ROOT
ATOM      1  C   UNL A   1      37.028  22.202  23.959  1.00  0.00     0.023 C 
ENDROOT
BRANCH   1   2
ATOM      2  C   UNL A   1      35.678  22.885  24.091  1.00  0.00     0.116 C 
BRANCH   2   3
ATOM      3  N   UNL A   1      35.305  23.093  25.466  1.00  0.00    -0.355 N 
ATOM      4  C   UNL A   1      34.211  23.716  25.955  1.00  0.00     0.238 C 
ATOM      5  O   UNL A   1      33.741  23.214  26.982  1.00  0.00    -0.273 OA
ATOM      6  H   UNL A   1      35.928  22.734  26.138  1.00  0.00     0.163 HD
BRANCH   4   7
ATOM      7  C   UNL A   1      33.506  24.897  25.322  1.00  0.00     0.165 C 
ATOM      8  C   UNL A   1      32.196  26.861  25.054  1.00  0.00     0.135 C 
ATOM      9  C   UNL A   1      32.694  25.903  26.125  1.00  0.00     0.064 C 
ATOM     10  C   UNL A   1      32.036  25.996  23.791  1.00  0.00     0.135 C 
ATOM     11  N   UNL A   1      32.671  24.653  24.095  1.00  0.00    -0.183 NA
BRANCH   8  12
ATOM     12  O   UNL A   1      33.008  28.032  24.894  1.00  0.00    -0.380 OA
ATOM     13  C   UNL A   1      33.735  28.524  26.010  1.00  0.00     0.195 C 
ENDBRANCH   8  12
BRANCH  11  14
ATOM     14  S   UNL A   1      31.527  23.371  24.135  1.00  0.00     0.237 S 
ATOM     15  O   UNL A   1      31.115  23.251  25.514  1.00  0.00    -0.207 OA
ATOM     16  O   UNL A   1      30.529  23.703  23.126  1.00  0.00    -0.207 OA
BRANCH  14  17
ATOM     17  C   UNL A   1      32.241  21.871  23.660  1.00  0.00     0.123 C 
ATOM     18  C   UNL A   1      32.432  20.877  24.538  1.00  0.00     0.021 C 
BRANCH  18  19
ATOM     19  C   UNL A   1      32.990  19.587  24.119  1.00  0.00    -0.025 A 
ATOM     20  C   UNL A   1      32.319  18.808  23.167  1.00  0.00     0.008 A 
ATOM     21  C   UNL A   1      34.187  19.109  24.659  1.00  0.00     0.008 A 
ATOM     22  C   UNL A   1      32.836  17.581  22.749  1.00  0.00     0.001 A 
ATOM     23  C   UNL A   1      34.698  17.873  24.251  1.00  0.00     0.001 A 
ATOM     24  C   UNL A   1      34.025  17.112  23.295  1.00  0.00     0.000 A 
ENDBRANCH  18  19
ENDBRANCH  14  17
ENDBRANCH  11  14
ENDBRANCH   4   7
ENDBRANCH   2   3
ENDBRANCH   1   2
BRANCH   1  25
ATOM     25  C   UNL A   1      37.287  21.146  25.034  1.00  0.00     0.023 C 
BRANCH  25  26
ATOM     26  C   UNL A   1      38.628  21.270  25.751  1.00  0.00     0.116 C 
BRANCH  26  27
ATOM     27  N   UNL A   1      39.416  20.044  25.708  1.00  0.00    -0.352 N 
ATOM     28  C   UNL A   1      40.740  19.869  26.027  1.00  0.00     0.251 C 
ATOM     29  H   UNL A   1      38.937  19.237  25.412  1.00  0.00     0.163 HD
ATOM     30  O   UNL A   1      41.301  18.797  25.838  1.00  0.00    -0.269 OA
BRANCH  28  31
ATOM     31  C   UNL A   1      41.483  21.022  26.563  1.00  0.00     0.039 A 
ATOM     32  C   UNL A   1      42.058  21.924  25.669  1.00  0.00     0.014 A 
ATOM     33  C   UNL A   1      41.500  21.257  27.940  1.00  0.00     0.014 A 
ATOM     34  C   UNL A   1      42.577  23.123  26.154  1.00  0.00     0.010 A 
ATOM     35  C   UNL A   1      41.959  22.480  28.414  1.00  0.00     0.010 A 
ATOM     36  C   UNL A   1      42.481  23.431  27.521  1.00  0.00    -0.014 A 
BRANCH  36  37
ATOM     37  C   UNL A   1      42.858  24.770  28.032  1.00  0.00     0.031 A 
ATOM     38  C   UNL A   1      41.804  25.807  28.288  1.00  0.00     0.074 A 
ATOM     39  C   UNL A   1      44.164  25.075  28.175  1.00  0.00     0.049 A 
ATOM     40  N   UNL A   1      41.950  27.055  28.653  1.00  0.00    -0.248 NA
ATOM     41  C   UNL A   1      40.405  25.397  28.086  1.00  0.00     0.031 C 
ATOM     42  C   UNL A   1      45.282  24.165  27.909  1.00  0.00     0.029 A 
ATOM     43  N   UNL A   1      44.773  26.243  28.560  1.00  0.00    -0.354 N 
ATOM     44  C   UNL A   1      40.668  27.583  28.706  1.00  0.00     0.074 A 
ATOM     45  C   UNL A   1      39.759  26.534  28.301  1.00  0.00     0.031 C 
ATOM     46  C   UNL A   1      46.437  24.804  28.153  1.00  0.00     0.029 A 
ATOM     47  C   UNL A   1      46.146  26.179  28.545  1.00  0.00     0.049 A 
ATOM     48  H   UNL A   1      44.275  27.049  28.824  1.00  0.00     0.167 HD
ATOM     49  C   UNL A   1      40.285  28.828  29.074  1.00  0.00     0.031 A 
ATOM     50  C   UNL A   1      47.070  27.127  28.794  1.00  0.00     0.031 A 
ATOM     51  C   UNL A   1      41.194  29.864  29.485  1.00  0.00     0.049 A 
ATOM     52  C   UNL A   1      46.613  28.509  29.171  1.00  0.00     0.074 A 
ATOM     53  C   UNL A   1      40.896  31.131  29.955  1.00  0.00     0.029 A 
ATOM     54  N   UNL A   1      42.575  29.759  29.461  1.00  0.00    -0.354 N 
ATOM     55  N   UNL A   1      45.392  28.963  29.318  1.00  0.00    -0.248 NA
ATOM     56  C   UNL A   1      47.662  29.509  29.417  1.00  0.00     0.031 C 
ATOM     57  C   UNL A   1      42.098  31.817  30.149  1.00  0.00     0.029 A 
ATOM     58  C   UNL A   1      43.145  30.956  29.860  1.00  0.00     0.049 A 
ATOM     59  H   UNL A   1      43.077  28.954  29.199  1.00  0.00     0.167 HD
ATOM     60  C   UNL A   1      45.526  30.295  29.686  1.00  0.00     0.074 A 
ATOM     61  C   UNL A   1      46.946  30.568  29.768  1.00  0.00     0.031 C 
ATOM     62  C   UNL A   1      44.559  31.213  29.927  1.00  0.00     0.031 A 
BRANCH  49  63
ATOM     63  C   UNL A   1      38.818  29.151  29.035  1.00  0.00    -0.014 A 
ATOM     64  C   UNL A   1      38.003  28.980  30.165  1.00  0.00     0.009 A 
ATOM     65  C   UNL A   1      38.258  29.700  27.870  1.00  0.00     0.009 A 
ATOM     66  C   UNL A   1      36.652  29.329  30.120  1.00  0.00     0.001 A 
ATOM     67  C   UNL A   1      36.915  30.072  27.837  1.00  0.00     0.001 A 
ATOM     68  C   UNL A   1      36.111  29.882  28.959  1.00  0.00     0.000 A 
ENDBRANCH  49  63
BRANCH  50  69
ATOM     69  C   UNL A   1      48.518  26.815  28.667  1.00  0.00    -0.014 A 
ATOM     70  C   UNL A   1      49.192  27.015  27.453  1.00  0.00     0.009 A 
ATOM     71  C   UNL A   1      49.232  26.293  29.758  1.00  0.00     0.009 A 
ATOM     72  C   UNL A   1      50.539  26.670  27.325  1.00  0.00     0.001 A 
ATOM     73  C   UNL A   1      50.587  25.980  29.637  1.00  0.00     0.001 A 
ATOM     74  C   UNL A   1      51.237  26.156  28.418  1.00  0.00     0.000 A 
ENDBRANCH  50  69
BRANCH  62  75
ATOM     75  C   UNL A   1      45.003  32.596  30.309  1.00  0.00    -0.014 A 
ATOM     76  C   UNL A   1      45.168  33.596  29.338  1.00  0.00     0.009 A 
ATOM     77  C   UNL A   1      45.199  32.919  31.661  1.00  0.00     0.009 A 
ATOM     78  C   UNL A   1      45.545  34.887  29.712  1.00  0.00     0.001 A 
ATOM     79  C   UNL A   1      45.547  34.219  32.034  1.00  0.00     0.001 A 
ATOM     80  C   UNL A   1      45.727  35.199  31.060  1.00  0.00     0.000 A 
ENDBRANCH  62  75
ENDBRANCH  36  37
ENDBRANCH  28  31
ENDBRANCH  26  27
ENDBRANCH  25  26
ENDBRANCH   1  25
TORSDOF 15
ENDMDL
MODEL 2
REMARK VINA RESULT:     -11.2      0.665      5.963
REMARK SMILES CO[C@@H]1C[C@@H](C(=O)NCCCCNC(=O)c2ccc(-c3c4nc(c(-c5ccccc5)c5ccc([nH]5)c(-c5ccccc5)c5nc(c(-c6ccccc6)c6ccc3[nH]6)C=C5)C=C4)cc2)N(S(=O)(=O)/C=C/c2ccccc2)C1
REMARK SMILES IDX 10 1 9 2 8 3 6 4 7 5 5 7 3 8 4 9 76 10 64 11 2 12 1 13 65 14
REMARK SMILES IDX 66 15 67 16 68 17 69 18 70 19 71 20 75 21 72 22 74 23 73 24
REMARK SMILES IDX 11 25 12 26 13 27 14 28 15 30 16 31 17 32 63 33 18 34 62 35
REMARK SMILES IDX 19 36 20 37 21 38 56 39 22 40 61 41 55 42 57 43 23 44 60 45
REMARK SMILES IDX 54 46 53 47 24 49 46 50 31 51 45 52 32 53 35 54 44 55 58 56
REMARK SMILES IDX 33 57 34 58 43 60 59 61 36 62 25 63 26 64 30 65 27 66 29 67
REMARK SMILES IDX 28 68 47 69 48 70 52 71 49 72 51 73 50 74 37 75 38 76 42 77
REMARK SMILES IDX 39 78 41 79 40 80
REMARK H PARENT 8 6 13 29 57 48 35 59
REMARK Flexibility Score: inf
ROOT
ATOM      1  C   UNL A   1      37.108  21.964  23.939  1.00  0.00     0.023 C 
ENDROOT
BRANCH   1   2
ATOM      2  C   UNL A   1      35.754  22.630  24.112  1.00  0.00     0.116 C 
BRANCH   2   3
ATOM      3  N   UNL A   1      35.451  22.898  25.494  1.00  0.00    -0.355 N 
ATOM      4  C   UNL A   1      34.410  23.588  26.009  1.00  0.00     0.238 C 
ATOM      5  O   UNL A   1      33.963  23.141  27.070  1.00  0.00    -0.273 OA
ATOM      6  H   UNL A   1      36.087  22.531  26.150  1.00  0.00     0.163 HD
BRANCH   4   7
ATOM      7  C   UNL A   1      33.733  24.781  25.367  1.00  0.00     0.165 C 
ATOM      8  C   UNL A   1      32.475  26.776  25.086  1.00  0.00     0.135 C 
ATOM      9  C   UNL A   1      32.953  25.816  26.164  1.00  0.00     0.064 C 
ATOM     10  C   UNL A   1      32.286  25.904  23.832  1.00  0.00     0.135 C 
ATOM     11  N   UNL A   1      32.886  24.547  24.146  1.00  0.00    -0.183 NA
BRANCH   8  12
ATOM     12  O   UNL A   1      33.317  27.924  24.910  1.00  0.00    -0.380 OA
ATOM     13  C   UNL A   1      32.883  28.973  24.057  1.00  0.00     0.195 C 
ENDBRANCH   8  12
BRANCH  11  14
ATOM     14  S   UNL A   1      31.709  23.297  24.204  1.00  0.00     0.237 S 
ATOM     15  O   UNL A   1      31.322  23.182  25.592  1.00  0.00    -0.207 OA
ATOM     16  O   UNL A   1      30.700  23.660  23.218  1.00  0.00    -0.207 OA
BRANCH  14  17
ATOM     17  C   UNL A   1      32.372  21.780  23.709  1.00  0.00     0.123 C 
ATOM     18  C   UNL A   1      32.552  20.777  24.578  1.00  0.00     0.021 C 
BRANCH  18  19
ATOM     19  C   UNL A   1      33.066  19.474  24.143  1.00  0.00    -0.025 A 
ATOM     20  C   UNL A   1      34.263  18.978  24.677  1.00  0.00     0.008 A 
ATOM     21  C   UNL A   1      32.385  18.710  23.192  1.00  0.00     0.008 A 
ATOM     22  C   UNL A   1      34.767  17.738  24.284  1.00  0.00     0.001 A 
ATOM     23  C   UNL A   1      32.897  17.474  22.785  1.00  0.00     0.001 A 
ATOM     24  C   UNL A   1      34.084  16.988  23.333  1.00  0.00     0.000 A 
ENDBRANCH  18  19
ENDBRANCH  14  17
ENDBRANCH  11  14
ENDBRANCH   4   7
ENDBRANCH   2   3
ENDBRANCH   1   2
BRANCH   1  25
ATOM     25  C   UNL A   1      37.411  20.910  25.005  1.00  0.00     0.023 C 
BRANCH  25  26
ATOM     26  C   UNL A   1      38.732  21.102  25.745  1.00  0.00     0.116 C 
BRANCH  26  27
ATOM     27  N   UNL A   1      39.586  19.920  25.708  1.00  0.00    -0.352 N 
ATOM     28  C   UNL A   1      40.916  19.819  26.032  1.00  0.00     0.251 C 
ATOM     29  H   UNL A   1      39.153  19.088  25.414  1.00  0.00     0.163 HD
ATOM     30  O   UNL A   1      41.536  18.779  25.849  1.00  0.00    -0.269 OA
BRANCH  28  31
ATOM     31  C   UNL A   1      41.594  21.013  26.567  1.00  0.00     0.039 A 
ATOM     32  C   UNL A   1      42.182  21.906  25.674  1.00  0.00     0.014 A 
ATOM     33  C   UNL A   1      41.534  21.290  27.935  1.00  0.00     0.014 A 
ATOM     34  C   UNL A   1      42.637  23.136  26.144  1.00  0.00     0.010 A 
ATOM     35  C   UNL A   1      41.929  22.542  28.391  1.00  0.00     0.010 A 
ATOM     36  C   UNL A   1      42.463  23.483  27.495  1.00  0.00    -0.014 A 
BRANCH  36  37
ATOM     37  C   UNL A   1      42.770  24.849  27.981  1.00  0.00     0.031 A 
ATOM     38  C   UNL A   1      44.159  25.197  28.430  1.00  0.00     0.074 A 
ATOM     39  C   UNL A   1      41.769  25.744  28.102  1.00  0.00     0.049 A 
ATOM     40  N   UNL A   1      44.596  26.309  28.963  1.00  0.00    -0.248 NA
ATOM     41  C   UNL A   1      45.187  24.154  28.284  1.00  0.00     0.031 C 
ATOM     42  C   UNL A   1      40.368  25.504  27.744  1.00  0.00     0.029 A 
ATOM     43  N   UNL A   1      41.773  27.031  28.579  1.00  0.00    -0.354 N 
ATOM     44  C   UNL A   1      45.940  26.094  29.231  1.00  0.00     0.074 A 
ATOM     45  C   UNL A   1      46.241  24.735  28.839  1.00  0.00     0.031 C 
ATOM     46  C   UNL A   1      39.653  26.611  28.001  1.00  0.00     0.029 A 
ATOM     47  C   UNL A   1      40.531  27.620  28.584  1.00  0.00     0.049 A 
ATOM     48  H   UNL A   1      42.587  27.490  28.887  1.00  0.00     0.167 HD
ATOM     49  C   UNL A   1      46.844  26.960  29.747  1.00  0.00     0.031 A 
ATOM     50  C   UNL A   1      40.137  28.828  29.030  1.00  0.00     0.031 A 
ATOM     51  C   UNL A   1      46.541  28.313  30.126  1.00  0.00     0.049 A 
ATOM     52  C   UNL A   1      41.159  29.756  29.625  1.00  0.00     0.074 A 
ATOM     53  C   UNL A   1      47.408  29.292  30.580  1.00  0.00     0.029 A 
ATOM     54  N   UNL A   1      45.275  28.873  30.111  1.00  0.00    -0.354 N 
ATOM     55  N   UNL A   1      42.449  29.574  29.777  1.00  0.00    -0.248 NA
ATOM     56  C   UNL A   1      40.672  31.055  30.111  1.00  0.00     0.031 C 
ATOM     57  C   UNL A   1      46.655  30.423  30.906  1.00  0.00     0.029 A 
ATOM     58  C   UNL A   1      45.328  30.169  30.596  1.00  0.00     0.049 A 
ATOM     59  H   UNL A   1      44.458  28.419  29.803  1.00  0.00     0.167 HD
ATOM     60  C   UNL A   1      42.928  30.738  30.360  1.00  0.00     0.074 A 
ATOM     61  C   UNL A   1      41.797  31.630  30.510  1.00  0.00     0.031 C 
ATOM     62  C   UNL A   1      44.192  31.039  30.746  1.00  0.00     0.031 A 
BRANCH  49  63
ATOM     63  C   UNL A   1      48.250  26.468  29.949  1.00  0.00    -0.014 A 
ATOM     64  C   UNL A   1      49.232  26.643  28.961  1.00  0.00     0.009 A 
ATOM     65  C   UNL A   1      48.612  25.882  31.172  1.00  0.00     0.009 A 
ATOM     66  C   UNL A   1      50.544  26.219  29.188  1.00  0.00     0.001 A 
ATOM     67  C   UNL A   1      49.928  25.484  31.405  1.00  0.00     0.001 A 
ATOM     68  C   UNL A   1      50.892  25.647  30.412  1.00  0.00     0.000 A 
ENDBRANCH  49  63
BRANCH  50  69
ATOM     69  C   UNL A   1      38.704  29.222  28.962  1.00  0.00    -0.014 A 
ATOM     70  C   UNL A   1      37.862  29.062  30.072  1.00  0.00     0.009 A 
ATOM     71  C   UNL A   1      38.165  29.742  27.774  1.00  0.00     0.009 A 
ATOM     72  C   UNL A   1      36.505  29.384  29.985  1.00  0.00     0.001 A 
ATOM     73  C   UNL A   1      36.816  30.094  27.699  1.00  0.00     0.001 A 
ATOM     74  C   UNL A   1      35.985  29.903  28.799  1.00  0.00     0.000 A 
ENDBRANCH  50  69
BRANCH  62  75
ATOM     75  C   UNL A   1      44.421  32.391  31.361  1.00  0.00    -0.014 A 
ATOM     76  C   UNL A   1      44.321  32.580  32.748  1.00  0.00     0.009 A 
ATOM     77  C   UNL A   1      44.799  33.473  30.550  1.00  0.00     0.009 A 
ATOM     78  C   UNL A   1      44.573  33.833  33.308  1.00  0.00     0.001 A 
ATOM     79  C   UNL A   1      45.079  34.717  31.117  1.00  0.00     0.001 A 
ATOM     80  C   UNL A   1      44.958  34.898  32.494  1.00  0.00     0.000 A 
ENDBRANCH  62  75
ENDBRANCH  36  37
ENDBRANCH  28  31
ENDBRANCH  26  27
ENDBRANCH  25  26
ENDBRANCH   1  25
TORSDOF 15
ENDMDL
MODEL 3
REMARK VINA RESULT:     -11.2      3.947      8.415
REMARK SMILES CO[C@@H]1C[C@@H](C(=O)NCCCCNC(=O)c2ccc(-c3c4nc(c(-c5ccccc5)c5ccc([nH]5)c(-c5ccccc5)c5nc(c(-c6ccccc6)c6ccc3[nH]6)C=C5)C=C4)cc2)N(S(=O)(=O)/C=C/c2ccccc2)C1
REMARK SMILES IDX 10 1 9 2 8 3 6 4 7 5 5 7 3 8 4 9 76 10 64 11 2 12 1 13 65 14
REMARK SMILES IDX 66 15 67 16 68 17 69 18 70 19 71 20 75 21 72 22 74 23 73 24
REMARK SMILES IDX 11 25 12 26 13 27 14 28 15 30 16 31 17 32 63 33 18 34 62 35
REMARK SMILES IDX 19 36 20 37 21 38 56 39 22 40 61 41 55 42 57 43 23 44 60 45
REMARK SMILES IDX 54 46 53 47 24 49 46 50 31 51 45 52 32 53 35 54 44 55 58 56
REMARK SMILES IDX 33 57 34 58 43 60 59 61 36 62 25 63 26 64 30 65 27 66 29 67
REMARK SMILES IDX 28 68 47 69 48 70 52 71 49 72 51 73 50 74 37 75 38 76 42 77
REMARK SMILES IDX 39 78 41 79 40 80
REMARK H PARENT 8 6 13 29 57 48 35 59
REMARK Flexibility Score: inf
ROOT
ATOM      1  C   UNL A   1      31.867  28.732  27.537  1.00  0.00     0.023 C 
ENDROOT
BRANCH   1   2
ATOM      2  C   UNL A   1      32.444  27.471  26.920  1.00  0.00     0.116 C 
BRANCH   2   3
ATOM      3  N   UNL A   1      31.420  26.534  26.536  1.00  0.00    -0.355 N 
ATOM      4  C   UNL A   1      30.861  26.351  25.320  1.00  0.00     0.238 C 
ATOM      5  O   UNL A   1      30.590  25.178  25.043  1.00  0.00    -0.273 OA
ATOM      6  H   UNL A   1      31.083  25.951  27.254  1.00  0.00     0.163 HD
BRANCH   4   7
ATOM      7  C   UNL A   1      30.616  27.429  24.285  1.00  0.00     0.165 C 
ATOM      8  C   UNL A   1      29.595  28.713  22.567  1.00  0.00     0.135 C 
ATOM      9  C   UNL A   1      29.358  27.484  23.431  1.00  0.00     0.064 C 
ATOM     10  C   UNL A   1      31.121  28.778  22.378  1.00  0.00     0.135 C 
ATOM     11  N   UNL A   1      31.725  27.757  23.323  1.00  0.00    -0.183 NA
BRANCH   8  12
ATOM     12  O   UNL A   1      28.991  29.910  23.076  1.00  0.00    -0.380 OA
ATOM     13  C   UNL A   1      27.634  30.185  22.760  1.00  0.00     0.195 C 
ENDBRANCH   8  12
BRANCH  11  14
ATOM     14  S   UNL A   1      32.491  26.459  22.497  1.00  0.00     0.237 S 
ATOM     15  O   UNL A   1      31.440  25.524  22.167  1.00  0.00    -0.207 OA
ATOM     16  O   UNL A   1      33.253  27.074  21.418  1.00  0.00    -0.207 OA
BRANCH  14  17
ATOM     17  C   UNL A   1      33.627  25.645  23.514  1.00  0.00     0.123 C 
ATOM     18  C   UNL A   1      34.171  24.473  23.158  1.00  0.00     0.021 C 
BRANCH  18  19
ATOM     19  C   UNL A   1      35.174  23.813  24.000  1.00  0.00    -0.025 A 
ATOM     20  C   UNL A   1      35.236  24.096  25.371  1.00  0.00     0.008 A 
ATOM     21  C   UNL A   1      36.084  22.900  23.458  1.00  0.00     0.008 A 
ATOM     22  C   UNL A   1      36.176  23.473  26.192  1.00  0.00     0.001 A 
ATOM     23  C   UNL A   1      37.037  22.288  24.277  1.00  0.00     0.001 A 
ATOM     24  C   UNL A   1      37.081  22.571  25.642  1.00  0.00     0.000 A 
ENDBRANCH  18  19
ENDBRANCH  14  17
ENDBRANCH  11  14
ENDBRANCH   4   7
ENDBRANCH   2   3
ENDBRANCH   1   2
BRANCH   1  25
ATOM     25  C   UNL A   1      32.067  29.981  26.677  1.00  0.00     0.023 C 
BRANCH  25  26
ATOM     26  C   UNL A   1      33.061  30.996  27.234  1.00  0.00     0.116 C 
BRANCH  26  27
ATOM     27  N   UNL A   1      32.502  32.337  27.359  1.00  0.00    -0.352 N 
ATOM     28  C   UNL A   1      33.018  33.417  28.032  1.00  0.00     0.251 C 
ATOM     29  H   UNL A   1      31.644  32.487  26.902  1.00  0.00     0.163 HD
ATOM     30  O   UNL A   1      32.382  34.457  28.143  1.00  0.00    -0.269 OA
BRANCH  28  31
ATOM     31  C   UNL A   1      34.343  33.277  28.657  1.00  0.00     0.039 A 
ATOM     32  C   UNL A   1      34.431  32.690  29.919  1.00  0.00     0.014 A 
ATOM     33  C   UNL A   1      35.490  33.620  27.937  1.00  0.00     0.014 A 
ATOM     34  C   UNL A   1      35.685  32.360  30.428  1.00  0.00     0.010 A 
ATOM     35  C   UNL A   1      36.735  33.231  28.418  1.00  0.00     0.010 A 
ATOM     36  C   UNL A   1      36.840  32.578  29.657  1.00  0.00    -0.014 A 
BRANCH  36  37
ATOM     37  C   UNL A   1      38.161  32.071  30.097  1.00  0.00     0.031 A 
ATOM     38  C   UNL A   1      38.685  30.767  29.571  1.00  0.00     0.074 A 
ATOM     39  C   UNL A   1      38.842  32.748  31.043  1.00  0.00     0.049 A 
ATOM     40  N   UNL A   1      39.774  30.125  29.903  1.00  0.00    -0.248 NA
ATOM     41  C   UNL A   1      37.867  30.082  28.556  1.00  0.00     0.031 C 
ATOM     42  C   UNL A   1      38.411  34.002  31.666  1.00  0.00     0.029 A 
ATOM     43  N   UNL A   1      40.035  32.466  31.662  1.00  0.00    -0.354 N 
ATOM     44  C   UNL A   1      39.765  28.957  29.155  1.00  0.00     0.074 A 
ATOM     45  C   UNL A   1      38.545  28.957  28.379  1.00  0.00     0.031 C 
ATOM     46  C   UNL A   1      39.331  34.387  32.566  1.00  0.00     0.029 A 
ATOM     47  C   UNL A   1      40.391  33.386  32.618  1.00  0.00     0.049 A 
ATOM     48  H   UNL A   1      40.584  31.680  31.441  1.00  0.00     0.167 HD
ATOM     49  C   UNL A   1      40.699  27.977  29.111  1.00  0.00     0.031 A 
ATOM     50  C   UNL A   1      41.440  33.410  33.462  1.00  0.00     0.031 A 
ATOM     51  C   UNL A   1      41.916  27.987  29.878  1.00  0.00     0.049 A 
ATOM     52  C   UNL A   1      42.445  32.293  33.410  1.00  0.00     0.074 A 
ATOM     53  C   UNL A   1      42.962  27.082  29.838  1.00  0.00     0.029 A 
ATOM     54  N   UNL A   1      42.242  28.937  30.830  1.00  0.00    -0.354 N 
ATOM     55  N   UNL A   1      42.474  31.246  32.621  1.00  0.00    -0.248 NA
ATOM     56  C   UNL A   1      43.562  32.362  34.363  1.00  0.00     0.031 C 
ATOM     57  C   UNL A   1      43.889  27.447  30.818  1.00  0.00     0.029 A 
ATOM     58  C   UNL A   1      43.450  28.614  31.423  1.00  0.00     0.049 A 
ATOM     59  H   UNL A   1      41.696  29.726  31.053  1.00  0.00     0.167 HD
ATOM     60  C   UNL A   1      43.616  30.540  32.973  1.00  0.00     0.074 A 
ATOM     61  C   UNL A   1      44.268  31.291  34.026  1.00  0.00     0.031 C 
ATOM     62  C   UNL A   1      44.080  29.368  32.474  1.00  0.00     0.031 A 
BRANCH  49  63
ATOM     63  C   UNL A   1      40.439  26.800  28.214  1.00  0.00    -0.014 A 
ATOM     64  C   UNL A   1      39.666  25.711  28.645  1.00  0.00     0.009 A 
ATOM     65  C   UNL A   1      40.919  26.813  26.895  1.00  0.00     0.009 A 
ATOM     66  C   UNL A   1      39.398  24.648  27.780  1.00  0.00     0.001 A 
ATOM     67  C   UNL A   1      40.628  25.762  26.025  1.00  0.00     0.001 A 
ATOM     68  C   UNL A   1      39.873  24.678  26.469  1.00  0.00     0.000 A 
ENDBRANCH  49  63
BRANCH  50  69
ATOM     69  C   UNL A   1      41.582  34.512  34.451  1.00  0.00    -0.014 A 
ATOM     70  C   UNL A   1      41.019  34.405  35.731  1.00  0.00     0.009 A 
ATOM     71  C   UNL A   1      42.267  35.690  34.110  1.00  0.00     0.009 A 
ATOM     72  C   UNL A   1      41.110  35.465  36.637  1.00  0.00     0.001 A 
ATOM     73  C   UNL A   1      42.384  36.736  35.028  1.00  0.00     0.001 A 
ATOM     74  C   UNL A   1      41.796  36.628  36.285  1.00  0.00     0.000 A 
ENDBRANCH  50  69
BRANCH  62  75
ATOM     75  C   UNL A   1      45.356  28.830  33.056  1.00  0.00    -0.014 A 
ATOM     76  C   UNL A   1      45.339  27.966  34.162  1.00  0.00     0.009 A 
ATOM     77  C   UNL A   1      46.585  29.142  32.454  1.00  0.00     0.009 A 
ATOM     78  C   UNL A   1      46.530  27.444  34.667  1.00  0.00     0.001 A 
ATOM     79  C   UNL A   1      47.772  28.595  32.944  1.00  0.00     0.001 A 
ATOM     80  C   UNL A   1      47.744  27.753  34.054  1.00  0.00     0.000 A 
ENDBRANCH  62  75
ENDBRANCH  36  37
ENDBRANCH  28  31
ENDBRANCH  26  27
ENDBRANCH  25  26
ENDBRANCH   1  25
TORSDOF 15
ENDMDL
