MODEL 1
REMARK VINA RESULT:     -12.5      0.000      0.000
REMARK SMILES C[C@@H]1Cc2ccccc2N1S(=O)(=O)c1c[nH]c(C(=O)NCCCCNC(=O)c2ccc(-c3c4nc(c(-c5ccccc5)c5ccc([nH]5)c(-c5ccccc5)c5nc(c(-c6ccccc6)c6ccc3[nH]6)C=C5)C=C4)cc2)c1
REMARK SMILES IDX 22 1 21 2 20 3 18 4 19 5 17 7 14 8 15 9 76 10 16 11 11 13
REMARK SMILES IDX 12 14 13 15 10 16 1 17 2 18 3 19 4 20 9 21 5 22 8 23 6 24
REMARK SMILES IDX 7 25 23 26 24 27 25 28 26 29 27 31 28 32 29 33 75 34 30 35
REMARK SMILES IDX 74 36 31 37 32 38 33 39 68 40 34 41 73 42 67 43 69 44 35 45
REMARK SMILES IDX 72 46 66 47 65 48 36 50 58 51 43 52 57 53 44 54 47 55 56 56
REMARK SMILES IDX 70 57 45 58 46 59 55 61 71 62 48 63 37 64 38 65 42 66 39 67
REMARK SMILES IDX 41 68 40 69 59 70 60 71 64 72 61 73 63 74 62 75 49 76 50 77
REMARK SMILES IDX 54 78 51 79 53 80 52 81
REMARK H PARENT 20 6 16 12 25 30 69 49 47 60
REMARK Flexibility Score: inf
ROOT
ATOM      1  C   UNL A   1      32.670  29.788  25.523  1.00  0.00     0.023 C 
ENDROOT
BRANCH   1   2
ATOM      2  C   UNL A   1      33.014  29.160  24.177  1.00  0.00     0.116 C 
BRANCH   2   3
ATOM      3  N   UNL A   1      31.932  29.318  23.229  1.00  0.00    -0.351 N 
ATOM      4  C   UNL A   1      31.204  28.396  22.533  1.00  0.00     0.267 C 
ATOM      5  O   UNL A   1      30.207  28.809  21.938  1.00  0.00    -0.268 OA
ATOM      6  H   UNL A   1      31.678  30.253  23.055  1.00  0.00     0.163 HD
BRANCH   4   7
ATOM      7  C   UNL A   1      31.561  26.996  22.502  1.00  0.00     0.105 A 
ATOM      8  C   UNL A   1      32.002  24.786  22.802  1.00  0.00     0.106 A 
ATOM      9  C   UNL A   1      32.670  25.203  21.671  1.00  0.00     0.105 A 
ATOM     10  C   UNL A   1      31.308  25.907  23.323  1.00  0.00     0.055 A 
ATOM     11  N   UNL A   1      32.410  26.534  21.509  1.00  0.00    -0.356 N 
ATOM     12  H   UNL A   1      32.776  27.090  20.784  1.00  0.00     0.166 HD
BRANCH   8  13
ATOM     13  S   UNL A   1      32.085  23.227  23.536  1.00  0.00     0.266 S 
ATOM     14  O   UNL A   1      32.503  22.350  22.466  1.00  0.00    -0.201 OA
ATOM     15  O   UNL A   1      30.782  23.073  24.161  1.00  0.00    -0.201 OA
BRANCH  13  16
ATOM     16  N   UNL A   1      33.260  23.186  24.777  1.00  0.00    -0.263 N 
ATOM     17  C   UNL A   1      32.181  23.272  27.022  1.00  0.00     0.032 C 
ATOM     18  C   UNL A   1      32.796  22.364  25.969  1.00  0.00     0.101 C 
ATOM     19  C   UNL A   1      34.034  21.603  26.489  1.00  0.00     0.063 C 
ATOM     20  C   UNL A   1      35.043  21.825  25.413  1.00  0.00    -0.021 A 
ATOM     21  C   UNL A   1      34.587  22.734  24.466  1.00  0.00     0.055 A 
ATOM     22  C   UNL A   1      36.326  21.295  25.350  1.00  0.00     0.006 A 
ATOM     23  C   UNL A   1      35.459  23.218  23.504  1.00  0.00     0.027 A 
ATOM     24  C   UNL A   1      37.177  21.721  24.330  1.00  0.00     0.000 A 
ATOM     25  C   UNL A   1      36.750  22.691  23.420  1.00  0.00     0.002 A 
ENDBRANCH  13  16
ENDBRANCH   8  13
ENDBRANCH   4   7
ENDBRANCH   2   3
ENDBRANCH   1   2
BRANCH   1  26
ATOM     26  C   UNL A   1      32.928  28.865  26.718  1.00  0.00     0.023 C 
BRANCH  26  27
ATOM     27  C   UNL A   1      34.367  28.906  27.245  1.00  0.00     0.116 C 
BRANCH  27  28
ATOM     28  N   UNL A   1      34.616  29.917  28.257  1.00  0.00    -0.352 N 
ATOM     29  C   UNL A   1      35.744  30.362  28.897  1.00  0.00     0.251 C 
ATOM     30  H   UNL A   1      33.799  30.385  28.546  1.00  0.00     0.163 HD
ATOM     31  O   UNL A   1      35.629  31.340  29.638  1.00  0.00    -0.269 OA
BRANCH  29  32
ATOM     32  C   UNL A   1      37.062  29.683  28.810  1.00  0.00     0.039 A 
ATOM     33  C   UNL A   1      37.609  28.907  29.830  1.00  0.00     0.014 A 
ATOM     34  C   UNL A   1      37.806  29.877  27.631  1.00  0.00     0.014 A 
ATOM     35  C   UNL A   1      38.919  28.470  29.754  1.00  0.00     0.010 A 
ATOM     36  C   UNL A   1      39.106  29.388  27.519  1.00  0.00     0.010 A 
ATOM     37  C   UNL A   1      39.669  28.721  28.605  1.00  0.00    -0.014 A 
BRANCH  37  38
ATOM     38  C   UNL A   1      41.030  28.157  28.588  1.00  0.00     0.031 A 
ATOM     39  C   UNL A   1      41.014  26.679  28.169  1.00  0.00     0.074 A 
ATOM     40  C   UNL A   1      42.001  28.968  29.098  1.00  0.00     0.049 A 
ATOM     41  N   UNL A   1      41.690  25.662  28.619  1.00  0.00    -0.248 NA
ATOM     42  C   UNL A   1      39.981  26.257  27.184  1.00  0.00     0.031 C 
ATOM     43  C   UNL A   1      41.804  30.377  29.515  1.00  0.00     0.029 A 
ATOM     44  N   UNL A   1      43.322  28.778  29.416  1.00  0.00    -0.354 N 
ATOM     45  C   UNL A   1      41.254  24.518  27.913  1.00  0.00     0.074 A 
ATOM     46  C   UNL A   1      40.135  24.932  27.118  1.00  0.00     0.031 C 
ATOM     47  C   UNL A   1      42.913  30.863  30.113  1.00  0.00     0.029 A 
ATOM     48  C   UNL A   1      43.921  29.826  30.153  1.00  0.00     0.049 A 
ATOM     49  H   UNL A   1      43.818  27.969  29.152  1.00  0.00     0.167 HD
ATOM     50  C   UNL A   1      41.899  23.313  27.929  1.00  0.00     0.031 A 
ATOM     51  C   UNL A   1      45.095  29.810  30.852  1.00  0.00     0.031 A 
ATOM     52  C   UNL A   1      43.050  23.337  28.768  1.00  0.00     0.049 A 
ATOM     53  C   UNL A   1      45.578  28.419  30.750  1.00  0.00     0.074 A 
ATOM     54  C   UNL A   1      43.390  22.989  30.051  1.00  0.00     0.029 A 
ATOM     55  N   UNL A   1      44.175  23.849  28.178  1.00  0.00    -0.354 N 
ATOM     56  N   UNL A   1      46.045  27.843  29.687  1.00  0.00    -0.248 NA
ATOM     57  C   UNL A   1      45.249  27.538  31.869  1.00  0.00     0.031 C 
ATOM     58  C   UNL A   1      44.676  23.557  30.272  1.00  0.00     0.029 A 
ATOM     59  C   UNL A   1      44.936  24.384  29.183  1.00  0.00     0.049 A 
ATOM     60  H   UNL A   1      44.395  23.833  27.219  1.00  0.00     0.167 HD
ATOM     61  C   UNL A   1      45.818  26.498  29.903  1.00  0.00     0.074 A 
ATOM     62  C   UNL A   1      45.444  26.356  31.299  1.00  0.00     0.031 C 
ATOM     63  C   UNL A   1      45.606  25.622  28.889  1.00  0.00     0.031 A 
BRANCH  50  64
ATOM     64  C   UNL A   1      41.773  22.112  27.010  1.00  0.00    -0.014 A 
ATOM     65  C   UNL A   1      42.846  21.502  26.350  1.00  0.00     0.009 A 
ATOM     66  C   UNL A   1      40.564  21.371  27.068  1.00  0.00     0.009 A 
ATOM     67  C   UNL A   1      42.734  20.198  25.836  1.00  0.00     0.001 A 
ATOM     68  C   UNL A   1      40.464  20.060  26.597  1.00  0.00     0.001 A 
ATOM     69  C   UNL A   1      41.559  19.465  25.991  1.00  0.00     0.000 A 
ENDBRANCH  50  64
BRANCH  51  70
ATOM     70  C   UNL A   1      45.730  30.719  31.871  1.00  0.00    -0.014 A 
ATOM     71  C   UNL A   1      46.965  31.348  31.566  1.00  0.00     0.009 A 
ATOM     72  C   UNL A   1      45.219  30.981  33.147  1.00  0.00     0.009 A 
ATOM     73  C   UNL A   1      47.716  32.057  32.509  1.00  0.00     0.001 A 
ATOM     74  C   UNL A   1      45.958  31.719  34.094  1.00  0.00     0.001 A 
ATOM     75  C   UNL A   1      47.219  32.226  33.788  1.00  0.00     0.000 A 
ENDBRANCH  51  70
BRANCH  63  76
ATOM     76  C   UNL A   1      45.648  26.218  27.493  1.00  0.00    -0.014 A 
ATOM     77  C   UNL A   1      44.530  26.906  26.969  1.00  0.00     0.009 A 
ATOM     78  C   UNL A   1      46.778  26.125  26.683  1.00  0.00     0.009 A 
ATOM     79  C   UNL A   1      44.515  27.442  25.680  1.00  0.00     0.001 A 
ATOM     80  C   UNL A   1      46.774  26.673  25.390  1.00  0.00     0.001 A 
ATOM     81  C   UNL A   1      45.644  27.320  24.885  1.00  0.00     0.000 A 
ENDBRANCH  63  76
ENDBRANCH  37  38
ENDBRANCH  29  32
ENDBRANCH  27  28
ENDBRANCH  26  27
ENDBRANCH   1  26
TORSDOF 13
ENDMDL
MODEL 2
REMARK VINA RESULT:     -12.3      1.539      6.433
REMARK SMILES C[C@@H]1Cc2ccccc2N1S(=O)(=O)c1c[nH]c(C(=O)NCCCCNC(=O)c2ccc(-c3c4nc(c(-c5ccccc5)c5ccc([nH]5)c(-c5ccccc5)c5nc(c(-c6ccccc6)c6ccc3[nH]6)C=C5)C=C4)cc2)c1
REMARK SMILES IDX 22 1 21 2 20 3 18 4 19 5 17 7 14 8 15 9 76 10 16 11 11 13
REMARK SMILES IDX 12 14 13 15 10 16 1 17 2 18 3 19 4 20 9 21 5 22 8 23 6 24
REMARK SMILES IDX 7 25 23 26 24 27 25 28 26 29 27 31 28 32 29 33 75 34 30 35
REMARK SMILES IDX 74 36 31 37 32 38 33 39 68 40 34 41 73 42 67 43 69 44 35 45
REMARK SMILES IDX 72 46 66 47 65 48 36 50 58 51 43 52 57 53 44 54 47 55 56 56
REMARK SMILES IDX 70 57 45 58 46 59 55 61 71 62 48 63 37 64 38 65 42 66 39 67
REMARK SMILES IDX 41 68 40 69 59 70 60 71 64 72 61 73 63 74 62 75 49 76 50 77
REMARK SMILES IDX 54 78 51 79 53 80 52 81
REMARK H PARENT 20 6 16 12 25 30 69 49 47 60
REMARK Flexibility Score: inf
ROOT
ATOM      1  C   UNL A   1      32.401  29.924  25.803  1.00  0.00     0.023 C 
ENDROOT
BRANCH   1   2
ATOM      2  C   UNL A   1      32.714  29.157  24.523  1.00  0.00     0.116 C 
BRANCH   2   3
ATOM      3  N   UNL A   1      31.696  29.373  23.517  1.00  0.00    -0.351 N 
ATOM      4  C   UNL A   1      31.064  28.504  22.675  1.00  0.00     0.267 C 
ATOM      5  O   UNL A   1      30.094  28.938  22.052  1.00  0.00    -0.268 OA
ATOM      6  H   UNL A   1      31.412  30.311  23.423  1.00  0.00     0.163 HD
BRANCH   4   7
ATOM      7  C   UNL A   1      31.489  27.131  22.525  1.00  0.00     0.105 A 
ATOM      8  C   UNL A   1      31.974  24.910  22.604  1.00  0.00     0.106 A 
ATOM      9  C   UNL A   1      32.818  25.498  21.688  1.00  0.00     0.105 A 
ATOM     10  C   UNL A   1      31.141  25.931  23.130  1.00  0.00     0.055 A 
ATOM     11  N   UNL A   1      32.529  26.832  21.659  1.00  0.00    -0.356 N 
ATOM     12  H   UNL A   1      32.995  27.492  21.098  1.00  0.00     0.166 HD
BRANCH   8  13
ATOM     13  S   UNL A   1      31.995  23.266  23.126  1.00  0.00     0.266 S 
ATOM     14  O   UNL A   1      32.533  22.541  21.997  1.00  0.00    -0.201 OA
ATOM     15  O   UNL A   1      30.635  23.034  23.582  1.00  0.00    -0.201 OA
BRANCH  13  16
ATOM     16  N   UNL A   1      33.032  23.052  24.468  1.00  0.00    -0.263 N 
ATOM     17  C   UNL A   1      31.719  22.645  26.546  1.00  0.00     0.032 C 
ATOM     18  C   UNL A   1      32.510  21.992  25.424  1.00  0.00     0.101 C 
ATOM     19  C   UNL A   1      33.741  21.215  25.937  1.00  0.00     0.063 C 
ATOM     20  C   UNL A   1      34.837  21.695  25.047  1.00  0.00    -0.021 A 
ATOM     21  C   UNL A   1      34.416  22.743  24.237  1.00  0.00     0.055 A 
ATOM     22  C   UNL A   1      36.157  21.259  25.039  1.00  0.00     0.006 A 
ATOM     23  C   UNL A   1      35.344  23.450  23.491  1.00  0.00     0.027 A 
ATOM     24  C   UNL A   1      37.075  21.919  24.222  1.00  0.00     0.000 A 
ATOM     25  C   UNL A   1      36.673  23.022  23.464  1.00  0.00     0.002 A 
ENDBRANCH  13  16
ENDBRANCH   8  13
ENDBRANCH   4   7
ENDBRANCH   2   3
ENDBRANCH   1   2
BRANCH   1  26
ATOM     26  C   UNL A   1      32.726  29.146  27.082  1.00  0.00     0.023 C 
BRANCH  26  27
ATOM     27  C   UNL A   1      34.208  29.171  27.475  1.00  0.00     0.116 C 
BRANCH  27  28
ATOM     28  N   UNL A   1      34.614  30.331  28.247  1.00  0.00    -0.352 N 
ATOM     29  C   UNL A   1      35.820  30.787  28.712  1.00  0.00     0.251 C 
ATOM     30  H   UNL A   1      33.861  30.917  28.490  1.00  0.00     0.163 HD
ATOM     31  O   UNL A   1      35.840  31.895  29.250  1.00  0.00    -0.269 OA
BRANCH  29  32
ATOM     32  C   UNL A   1      37.071  29.988  28.677  1.00  0.00     0.039 A 
ATOM     33  C   UNL A   1      37.608  29.328  29.781  1.00  0.00     0.014 A 
ATOM     34  C   UNL A   1      37.764  29.935  27.452  1.00  0.00     0.014 A 
ATOM     35  C   UNL A   1      38.872  28.771  29.720  1.00  0.00     0.010 A 
ATOM     36  C   UNL A   1      39.011  29.322  27.363  1.00  0.00     0.010 A 
ATOM     37  C   UNL A   1      39.577  28.778  28.516  1.00  0.00    -0.014 A 
BRANCH  37  38
ATOM     38  C   UNL A   1      40.884  28.099  28.529  1.00  0.00     0.031 A 
ATOM     39  C   UNL A   1      42.038  29.113  28.471  1.00  0.00     0.074 A 
ATOM     40  C   UNL A   1      40.835  26.741  28.417  1.00  0.00     0.049 A 
ATOM     41  N   UNL A   1      43.164  29.080  27.820  1.00  0.00    -0.248 NA
ATOM     42  C   UNL A   1      41.832  30.425  29.143  1.00  0.00     0.031 C 
ATOM     43  C   UNL A   1      39.594  25.929  28.429  1.00  0.00     0.029 A 
ATOM     44  N   UNL A   1      41.786  25.772  28.223  1.00  0.00    -0.354 N 
ATOM     45  C   UNL A   1      43.841  30.293  28.082  1.00  0.00     0.074 A 
ATOM     46  C   UNL A   1      42.927  31.117  28.819  1.00  0.00     0.031 C 
ATOM     47  C   UNL A   1      39.862  24.635  28.152  1.00  0.00     0.029 A 
ATOM     48  C   UNL A   1      41.282  24.485  27.923  1.00  0.00     0.049 A 
ATOM     49  H   UNL A   1      42.751  25.958  28.288  1.00  0.00     0.167 HD
ATOM     50  C   UNL A   1      45.153  30.522  27.779  1.00  0.00     0.031 A 
ATOM     51  C   UNL A   1      41.950  23.411  27.405  1.00  0.00     0.031 A 
ATOM     52  C   UNL A   1      45.754  29.401  27.138  1.00  0.00     0.049 A 
ATOM     53  C   UNL A   1      43.314  23.906  27.136  1.00  0.00     0.074 A 
ATOM     54  C   UNL A   1      46.035  28.979  25.863  1.00  0.00     0.029 A 
ATOM     55  N   UNL A   1      46.197  28.426  27.992  1.00  0.00    -0.354 N 
ATOM     56  N   UNL A   1      44.211  24.209  28.022  1.00  0.00    -0.248 NA
ATOM     57  C   UNL A   1      43.582  24.351  25.770  1.00  0.00     0.031 C 
ATOM     58  C   UNL A   1      46.416  27.613  25.989  1.00  0.00     0.029 A 
ATOM     59  C   UNL A   1      46.139  27.244  27.302  1.00  0.00     0.049 A 
ATOM     60  H   UNL A   1      46.500  28.550  28.920  1.00  0.00     0.167 HD
ATOM     61  C   UNL A   1      45.029  25.116  27.379  1.00  0.00     0.074 A 
ATOM     62  C   UNL A   1      44.675  25.074  25.971  1.00  0.00     0.031 C 
ATOM     63  C   UNL A   1      45.699  26.092  28.042  1.00  0.00     0.031 A 
BRANCH  50  64
ATOM     64  C   UNL A   1      46.106  31.599  28.263  1.00  0.00    -0.014 A 
ATOM     65  C   UNL A   1      47.241  31.360  29.047  1.00  0.00     0.009 A 
ATOM     66  C   UNL A   1      46.030  32.868  27.633  1.00  0.00     0.009 A 
ATOM     67  C   UNL A   1      48.272  32.312  29.140  1.00  0.00     0.001 A 
ATOM     68  C   UNL A   1      47.071  33.798  27.689  1.00  0.00     0.001 A 
ATOM     69  C   UNL A   1      48.204  33.512  28.435  1.00  0.00     0.000 A 
ENDBRANCH  50  64
BRANCH  51  70
ATOM     70  C   UNL A   1      41.529  22.097  26.800  1.00  0.00    -0.014 A 
ATOM     71  C   UNL A   1      40.159  21.876  26.507  1.00  0.00     0.009 A 
ATOM     72  C   UNL A   1      42.386  21.025  26.527  1.00  0.00     0.009 A 
ATOM     73  C   UNL A   1      39.651  20.631  26.119  1.00  0.00     0.001 A 
ATOM     74  C   UNL A   1      41.884  19.776  26.109  1.00  0.00     0.001 A 
ATOM     75  C   UNL A   1      40.517  19.569  25.938  1.00  0.00     0.000 A 
ENDBRANCH  51  70
BRANCH  63  76
ATOM     76  C   UNL A   1      45.500  26.113  29.547  1.00  0.00    -0.014 A 
ATOM     77  C   UNL A   1      46.491  25.596  30.412  1.00  0.00     0.009 A 
ATOM     78  C   UNL A   1      44.355  26.645  30.134  1.00  0.00     0.009 A 
ATOM     79  C   UNL A   1      46.335  25.568  31.799  1.00  0.00     0.001 A 
ATOM     80  C   UNL A   1      44.197  26.631  31.529  1.00  0.00     0.001 A 
ATOM     81  C   UNL A   1      45.179  26.086  32.359  1.00  0.00     0.000 A 
ENDBRANCH  63  76
ENDBRANCH  37  38
ENDBRANCH  29  32
ENDBRANCH  27  28
ENDBRANCH  26  27
ENDBRANCH   1  26
TORSDOF 13
ENDMDL
MODEL 3
REMARK VINA RESULT:     -12.3      1.663      6.626
REMARK SMILES C[C@@H]1Cc2ccccc2N1S(=O)(=O)c1c[nH]c(C(=O)NCCCCNC(=O)c2ccc(-c3c4nc(c(-c5ccccc5)c5ccc([nH]5)c(-c5ccccc5)c5nc(c(-c6ccccc6)c6ccc3[nH]6)C=C5)C=C4)cc2)c1
REMARK SMILES IDX 22 1 21 2 20 3 18 4 19 5 17 7 14 8 15 9 76 10 16 11 11 13
REMARK SMILES IDX 12 14 13 15 10 16 1 17 2 18 3 19 4 20 9 21 5 22 8 23 6 24
REMARK SMILES IDX 7 25 23 26 24 27 25 28 26 29 27 31 28 32 29 33 75 34 30 35
REMARK SMILES IDX 74 36 31 37 32 38 33 39 68 40 34 41 73 42 67 43 69 44 35 45
REMARK SMILES IDX 72 46 66 47 65 48 36 50 58 51 43 52 57 53 44 54 47 55 56 56
REMARK SMILES IDX 70 57 45 58 46 59 55 61 71 62 48 63 37 64 38 65 42 66 39 67
REMARK SMILES IDX 41 68 40 69 59 70 60 71 64 72 61 73 63 74 62 75 49 76 50 77
REMARK SMILES IDX 54 78 51 79 53 80 52 81
REMARK H PARENT 20 6 16 12 25 30 69 49 47 60
REMARK Flexibility Score: inf
ROOT
ATOM      1  C   UNL A   1      33.385  28.846  24.375  1.00  0.00     0.023 C 
ENDROOT
BRANCH   1   2
ATOM      2  C   UNL A   1      32.340  28.379  23.369  1.00  0.00     0.116 C 
BRANCH   2   3
ATOM      3  N   UNL A   1      32.945  27.632  22.288  1.00  0.00    -0.351 N 
ATOM      4  C   UNL A   1      32.916  26.300  21.987  1.00  0.00     0.267 C 
ATOM      5  O   UNL A   1      33.365  25.967  20.889  1.00  0.00    -0.268 OA
ATOM      6  H   UNL A   1      33.471  28.179  21.660  1.00  0.00     0.163 HD
BRANCH   4   7
ATOM      7  C   UNL A   1      32.372  25.317  22.896  1.00  0.00     0.105 A 
ATOM      8  C   UNL A   1      31.834  23.806  24.508  1.00  0.00     0.106 A 
ATOM      9  C   UNL A   1      30.947  23.649  23.465  1.00  0.00     0.105 A 
ATOM     10  C   UNL A   1      32.726  24.849  24.153  1.00  0.00     0.055 A 
ATOM     11  N   UNL A   1      31.288  24.551  22.497  1.00  0.00    -0.356 N 
ATOM     12  H   UNL A   1      30.825  24.645  21.634  1.00  0.00     0.166 HD
BRANCH   8  13
ATOM     13  S   UNL A   1      31.938  22.837  25.931  1.00  0.00     0.266 S 
ATOM     14  O   UNL A   1      30.761  22.000  25.880  1.00  0.00    -0.201 OA
ATOM     15  O   UNL A   1      32.115  23.811  26.996  1.00  0.00    -0.201 OA
BRANCH  13  16
ATOM     16  N   UNL A   1      33.328  21.843  25.907  1.00  0.00    -0.263 N 
ATOM     17  C   UNL A   1      32.701  19.451  25.597  1.00  0.00     0.032 C 
ATOM     18  C   UNL A   1      33.196  20.709  24.903  1.00  0.00     0.101 C 
ATOM     19  C   UNL A   1      34.587  20.526  24.259  1.00  0.00     0.063 C 
ATOM     20  C   UNL A   1      35.338  21.724  24.731  1.00  0.00    -0.021 A 
ATOM     21  C   UNL A   1      34.611  22.444  25.673  1.00  0.00     0.055 A 
ATOM     22  C   UNL A   1      36.635  22.087  24.386  1.00  0.00     0.006 A 
ATOM     23  C   UNL A   1      35.222  23.472  26.372  1.00  0.00     0.027 A 
ATOM     24  C   UNL A   1      37.220  23.176  25.033  1.00  0.00     0.000 A 
ATOM     25  C   UNL A   1      36.522  23.855  26.034  1.00  0.00     0.002 A 
ENDBRANCH  13  16
ENDBRANCH   8  13
ENDBRANCH   4   7
ENDBRANCH   2   3
ENDBRANCH   1   2
BRANCH   1  26
ATOM     26  C   UNL A   1      33.034  28.512  25.828  1.00  0.00     0.023 C 
BRANCH  26  27
ATOM     27  C   UNL A   1      34.218  28.602  26.798  1.00  0.00     0.116 C 
BRANCH  27  28
ATOM     28  N   UNL A   1      34.228  29.786  27.639  1.00  0.00    -0.352 N 
ATOM     29  C   UNL A   1      35.215  30.478  28.291  1.00  0.00     0.251 C 
ATOM     30  H   UNL A   1      33.333  30.176  27.769  1.00  0.00     0.163 HD
ATOM     31  O   UNL A   1      34.900  31.536  28.840  1.00  0.00    -0.269 OA
BRANCH  29  32
ATOM     32  C   UNL A   1      36.607  29.982  28.441  1.00  0.00     0.039 A 
ATOM     33  C   UNL A   1      37.573  30.051  27.440  1.00  0.00     0.014 A 
ATOM     34  C   UNL A   1      36.941  29.374  29.666  1.00  0.00     0.014 A 
ATOM     35  C   UNL A   1      38.782  29.395  27.584  1.00  0.00     0.010 A 
ATOM     36  C   UNL A   1      38.180  28.763  29.845  1.00  0.00     0.010 A 
ATOM     37  C   UNL A   1      39.079  28.742  28.780  1.00  0.00    -0.014 A 
BRANCH  37  38
ATOM     38  C   UNL A   1      40.418  28.132  28.866  1.00  0.00     0.031 A 
ATOM     39  C   UNL A   1      41.515  29.206  28.924  1.00  0.00     0.074 A 
ATOM     40  C   UNL A   1      40.450  26.778  28.706  1.00  0.00     0.049 A 
ATOM     41  N   UNL A   1      42.684  29.255  28.355  1.00  0.00    -0.248 NA
ATOM     42  C   UNL A   1      41.192  30.480  29.621  1.00  0.00     0.031 C 
ATOM     43  C   UNL A   1      39.258  25.902  28.602  1.00  0.00     0.029 A 
ATOM     44  N   UNL A   1      41.464  25.867  28.550  1.00  0.00    -0.354 N 
ATOM     45  C   UNL A   1      43.274  30.491  28.705  1.00  0.00     0.074 A 
ATOM     46  C   UNL A   1      42.268  31.239  29.401  1.00  0.00     0.031 C 
ATOM     47  C   UNL A   1      39.614  24.635  28.303  1.00  0.00     0.029 A 
ATOM     48  C   UNL A   1      41.053  24.568  28.173  1.00  0.00     0.049 A 
ATOM     49  H   UNL A   1      42.411  26.101  28.690  1.00  0.00     0.167 HD
ATOM     50  C   UNL A   1      44.591  30.799  28.504  1.00  0.00     0.031 A 
ATOM     51  C   UNL A   1      41.813  23.549  27.669  1.00  0.00     0.031 A 
ATOM     52  C   UNL A   1      45.295  29.734  27.873  1.00  0.00     0.049 A 
ATOM     53  C   UNL A   1      43.163  24.124  27.516  1.00  0.00     0.074 A 
ATOM     54  C   UNL A   1      45.688  29.375  26.608  1.00  0.00     0.029 A 
ATOM     55  N   UNL A   1      45.730  28.754  28.724  1.00  0.00    -0.354 N 
ATOM     56  N   UNL A   1      43.979  24.441  28.474  1.00  0.00    -0.248 NA
ATOM     57  C   UNL A   1      43.503  24.632  26.188  1.00  0.00     0.031 C 
ATOM     58  C   UNL A   1      46.132  28.026  26.716  1.00  0.00     0.029 A 
ATOM     59  C   UNL A   1      45.784  27.596  27.993  1.00  0.00     0.049 A 
ATOM     60  H   UNL A   1      45.959  28.860  29.675  1.00  0.00     0.167 HD
ATOM     61  C   UNL A   1      44.789  25.412  27.921  1.00  0.00     0.074 A 
ATOM     62  C   UNL A   1      44.538  25.403  26.490  1.00  0.00     0.031 C 
ATOM     63  C   UNL A   1      45.357  26.396  28.662  1.00  0.00     0.031 A 
BRANCH  50  64
ATOM     64  C   UNL A   1      45.447  31.906  29.091  1.00  0.00    -0.014 A 
ATOM     65  C   UNL A   1      45.373  33.251  28.712  1.00  0.00     0.009 A 
ATOM     66  C   UNL A   1      46.130  31.629  30.303  1.00  0.00     0.009 A 
ATOM     67  C   UNL A   1      45.895  34.266  29.534  1.00  0.00     0.001 A 
ATOM     68  C   UNL A   1      46.611  32.637  31.142  1.00  0.00     0.001 A 
ATOM     69  C   UNL A   1      46.480  33.963  30.761  1.00  0.00     0.000 A 
ENDBRANCH  50  64
BRANCH  51  70
ATOM     70  C   UNL A   1      41.508  22.238  26.993  1.00  0.00    -0.014 A 
ATOM     71  C   UNL A   1      40.174  21.951  26.606  1.00  0.00     0.009 A 
ATOM     72  C   UNL A   1      42.442  21.228  26.737  1.00  0.00     0.009 A 
ATOM     73  C   UNL A   1      39.765  20.696  26.144  1.00  0.00     0.001 A 
ATOM     74  C   UNL A   1      42.041  19.970  26.244  1.00  0.00     0.001 A 
ATOM     75  C   UNL A   1      40.701  19.692  25.980  1.00  0.00     0.000 A 
ENDBRANCH  51  70
BRANCH  63  76
ATOM     76  C   UNL A   1      45.052  26.352  30.149  1.00  0.00    -0.014 A 
ATOM     77  C   UNL A   1      45.979  25.795  31.058  1.00  0.00     0.009 A 
ATOM     78  C   UNL A   1      43.867  26.862  30.676  1.00  0.00     0.009 A 
ATOM     79  C   UNL A   1      45.725  25.707  32.428  1.00  0.00     0.001 A 
ATOM     80  C   UNL A   1      43.611  26.788  32.054  1.00  0.00     0.001 A 
ATOM     81  C   UNL A   1      44.532  26.203  32.927  1.00  0.00     0.000 A 
ENDBRANCH  63  76
ENDBRANCH  37  38
ENDBRANCH  29  32
ENDBRANCH  27  28
ENDBRANCH  26  27
ENDBRANCH   1  26
TORSDOF 13
ENDMDL
