MODEL 1
REMARK VINA RESULT:     -11.3      0.000      0.000
REMARK SMILES C[C@@H](C(=O)NCCCCNC(=O)c1ccc(-c2c3nc(c(-c4ccccc4)c4ccc([nH]4)c(-c4ccccc4)c4nc(c(-c5ccccc5)c5ccc2[nH]5)C=C4)C=C3)cc1)c1ccc(C[C@H]2CCCC2=O)c(Br)c1
REMARK SMILES IDX 7 1 6 2 5 3 3 4 4 5 2 7 1 8 61 9 62 10 74 11 63 12 72 13
REMARK SMILES IDX 64 14 73 15 65 16 66 17 67 18 70 19 68 20 69 21 71 22 8 23
REMARK SMILES IDX 9 24 10 25 11 26 12 28 13 29 14 30 60 31 15 32 59 33 16 34
REMARK SMILES IDX 17 35 18 36 53 37 19 38 58 39 52 40 54 41 20 42 57 43 51 44
REMARK SMILES IDX 50 45 21 47 43 48 28 49 42 50 29 51 32 52 41 53 55 54 30 55
REMARK SMILES IDX 31 56 40 58 56 59 33 60 22 61 23 62 27 63 24 64 26 65 25 66
REMARK SMILES IDX 44 67 45 68 49 69 46 70 48 71 47 72 34 73 35 74 39 75 36 76
REMARK SMILES IDX 38 77 37 78
REMARK H PARENT 5 6 10 27 54 46 32 57
REMARK Flexibility Score: inf
ROOT
ATOM      1  C   UNL A   1      31.371  30.790  26.368  1.00  0.00     0.023 C 
ENDROOT
BRANCH   1   2
ATOM      2  C   UNL A   1      32.653  30.100  26.848  1.00  0.00     0.116 C 
BRANCH   2   3
ATOM      3  N   UNL A   1      32.366  28.765  27.336  1.00  0.00    -0.356 N 
ATOM      4  C   UNL A   1      32.166  27.604  26.642  1.00  0.00     0.227 C 
ATOM      5  O   UNL A   1      31.655  26.675  27.273  1.00  0.00    -0.274 OA
ATOM      6  H   UNL A   1      32.306  28.683  28.315  1.00  0.00     0.163 HD
BRANCH   4   7
ATOM      7  C   UNL A   1      32.582  27.506  25.159  1.00  0.00     0.105 C 
ATOM      8  C   UNL A   1      33.887  28.297  24.975  1.00  0.00     0.023 C 
BRANCH   7   9
ATOM      9  C   UNL A   1      31.500  27.957  24.165  1.00  0.00    -0.035 A 
ATOM     10  C   UNL A   1      31.793  28.849  23.124  1.00  0.00     0.005 A 
ATOM     11  C   UNL A   1      30.183  27.472  24.233  1.00  0.00     0.020 A 
ATOM     12  C   UNL A   1      30.792  29.346  22.289  1.00  0.00     0.005 A 
ATOM     13  C   UNL A   1      29.166  27.989  23.413  1.00  0.00     0.021 A 
ATOM     14  C   UNL A   1      29.451  28.982  22.466  1.00  0.00    -0.033 A 
ATOM     15  Br  UNL A   1      27.418  27.293  23.681  1.00  0.00    -0.051 Br
BRANCH  14  16
ATOM     16  C   UNL A   1      28.406  29.718  21.655  1.00  0.00     0.048 C 
BRANCH  16  17
ATOM     17  C   UNL A   1      27.729  30.911  22.352  1.00  0.00     0.060 C 
ATOM     18  C   UNL A   1      28.077  31.145  23.827  1.00  0.00     0.012 C 
ATOM     19  C   UNL A   1      28.096  32.245  21.734  1.00  0.00     0.136 C 
ATOM     20  C   UNL A   1      29.153  32.225  23.847  1.00  0.00     0.009 C 
ATOM     21  C   UNL A   1      28.806  33.159  22.698  1.00  0.00     0.076 C 
ATOM     22  O   UNL A   1      27.831  32.556  20.579  1.00  0.00    -0.299 OA
ENDBRANCH  16  17
ENDBRANCH  14  16
ENDBRANCH   7   9
ENDBRANCH   4   7
ENDBRANCH   2   3
ENDBRANCH   1   2
BRANCH   1  23
ATOM     23  C   UNL A   1      31.374  32.317  26.489  1.00  0.00     0.023 C 
BRANCH  23  24
ATOM     24  C   UNL A   1      32.588  32.911  27.191  1.00  0.00     0.116 C 
BRANCH  24  25
ATOM     25  N   UNL A   1      32.344  34.250  27.700  1.00  0.00    -0.352 N 
ATOM     26  C   UNL A   1      33.027  34.957  28.653  1.00  0.00     0.251 C 
ATOM     27  H   UNL A   1      31.576  34.717  27.300  1.00  0.00     0.163 HD
ATOM     28  O   UNL A   1      32.583  36.040  29.039  1.00  0.00    -0.269 OA
BRANCH  26  29
ATOM     29  C   UNL A   1      34.267  34.419  29.248  1.00  0.00     0.039 A 
ATOM     30  C   UNL A   1      34.165  33.638  30.401  1.00  0.00     0.014 A 
ATOM     31  C   UNL A   1      35.524  34.689  28.695  1.00  0.00     0.014 A 
ATOM     32  C   UNL A   1      35.313  33.081  30.966  1.00  0.00     0.010 A 
ATOM     33  C   UNL A   1      36.661  34.077  29.218  1.00  0.00     0.010 A 
ATOM     34  C   UNL A   1      36.567  33.270  30.361  1.00  0.00    -0.014 A 
BRANCH  34  35
ATOM     35  C   UNL A   1      37.774  32.609  30.916  1.00  0.00     0.031 A 
ATOM     36  C   UNL A   1      38.400  33.099  32.192  1.00  0.00     0.074 A 
ATOM     37  C   UNL A   1      38.319  31.573  30.251  1.00  0.00     0.049 A 
ATOM     38  N   UNL A   1      39.430  32.616  32.840  1.00  0.00    -0.248 NA
ATOM     39  C   UNL A   1      37.807  34.294  32.812  1.00  0.00     0.031 C 
ATOM     40  C   UNL A   1      37.843  31.040  28.973  1.00  0.00     0.029 A 
ATOM     41  N   UNL A   1      39.392  30.776  30.563  1.00  0.00    -0.354 N 
ATOM     42  C   UNL A   1      39.607  33.446  33.940  1.00  0.00     0.074 A 
ATOM     43  C   UNL A   1      38.616  34.495  33.841  1.00  0.00     0.031 C 
ATOM     44  C   UNL A   1      38.597  29.984  28.628  1.00  0.00     0.029 A 
ATOM     45  C   UNL A   1      39.623  29.781  29.645  1.00  0.00     0.049 A 
ATOM     46  H   UNL A   1      39.943  30.906  31.369  1.00  0.00     0.167 HD
ATOM     47  C   UNL A   1      40.498  33.333  34.953  1.00  0.00     0.031 A 
ATOM     48  C   UNL A   1      40.551  28.808  29.627  1.00  0.00     0.031 A 
ATOM     49  C   UNL A   1      41.487  32.292  35.054  1.00  0.00     0.049 A 
ATOM     50  C   UNL A   1      41.519  28.697  30.772  1.00  0.00     0.074 A 
ATOM     51  C   UNL A   1      42.410  32.071  36.062  1.00  0.00     0.029 A 
ATOM     52  N   UNL A   1      41.680  31.295  34.110  1.00  0.00    -0.354 N 
ATOM     53  N   UNL A   1      41.625  29.449  31.840  1.00  0.00    -0.248 NA
ATOM     54  C   UNL A   1      42.481  27.587  30.714  1.00  0.00     0.031 C 
ATOM     55  C   UNL A   1      43.188  30.964  35.708  1.00  0.00     0.029 A 
ATOM     56  C   UNL A   1      42.716  30.465  34.505  1.00  0.00     0.049 A 
ATOM     57  H   UNL A   1      41.158  31.193  33.282  1.00  0.00     0.167 HD
ATOM     58  C   UNL A   1      42.654  28.895  32.590  1.00  0.00     0.074 A 
ATOM     59  C   UNL A   1      43.118  27.727  31.868  1.00  0.00     0.031 C 
ATOM     60  C   UNL A   1      43.173  29.317  33.768  1.00  0.00     0.031 A 
BRANCH  47  61
ATOM     61  C   UNL A   1      40.435  34.364  36.045  1.00  0.00    -0.014 A 
ATOM     62  C   UNL A   1      41.250  35.507  36.006  1.00  0.00     0.009 A 
ATOM     63  C   UNL A   1      39.524  34.217  37.103  1.00  0.00     0.009 A 
ATOM     64  C   UNL A   1      41.177  36.465  37.019  1.00  0.00     0.001 A 
ATOM     65  C   UNL A   1      39.435  35.188  38.100  1.00  0.00     0.001 A 
ATOM     66  C   UNL A   1      40.265  36.307  38.062  1.00  0.00     0.000 A 
ENDBRANCH  47  61
BRANCH  48  67
ATOM     67  C   UNL A   1      40.598  27.843  28.499  1.00  0.00    -0.014 A 
ATOM     68  C   UNL A   1      41.320  28.142  27.334  1.00  0.00     0.009 A 
ATOM     69  C   UNL A   1      39.908  26.624  28.578  1.00  0.00     0.009 A 
ATOM     70  C   UNL A   1      41.325  27.251  26.257  1.00  0.00     0.001 A 
ATOM     71  C   UNL A   1      39.939  25.723  27.511  1.00  0.00     0.001 A 
ATOM     72  C   UNL A   1      40.637  26.043  26.348  1.00  0.00     0.000 A 
ENDBRANCH  48  67
BRANCH  60  73
ATOM     73  C   UNL A   1      44.290  28.497  34.350  1.00  0.00    -0.014 A 
ATOM     74  C   UNL A   1      45.632  28.791  34.063  1.00  0.00     0.009 A 
ATOM     75  C   UNL A   1      43.994  27.420  35.200  1.00  0.00     0.009 A 
ATOM     76  C   UNL A   1      46.655  27.996  34.582  1.00  0.00     0.001 A 
ATOM     77  C   UNL A   1      45.021  26.645  35.741  1.00  0.00     0.001 A 
ATOM     78  C   UNL A   1      46.349  26.925  35.422  1.00  0.00     0.000 A 
ENDBRANCH  60  73
ENDBRANCH  34  35
ENDBRANCH  26  29
ENDBRANCH  24  25
ENDBRANCH  23  24
ENDBRANCH   1  23
TORSDOF 14
ENDMDL
MODEL 2
REMARK VINA RESULT:     -11.2      2.728      4.484
REMARK SMILES C[C@@H](C(=O)NCCCCNC(=O)c1ccc(-c2c3nc(c(-c4ccccc4)c4ccc([nH]4)c(-c4ccccc4)c4nc(c(-c5ccccc5)c5ccc2[nH]5)C=C4)C=C3)cc1)c1ccc(C[C@H]2CCCC2=O)c(Br)c1
REMARK SMILES IDX 7 1 6 2 5 3 3 4 4 5 2 7 1 8 61 9 62 10 74 11 63 12 72 13
REMARK SMILES IDX 64 14 73 15 65 16 66 17 67 18 70 19 68 20 69 21 71 22 8 23
REMARK SMILES IDX 9 24 10 25 11 26 12 28 13 29 14 30 60 31 15 32 59 33 16 34
REMARK SMILES IDX 17 35 18 36 53 37 19 38 58 39 52 40 54 41 20 42 57 43 51 44
REMARK SMILES IDX 50 45 21 47 43 48 28 49 42 50 29 51 32 52 41 53 55 54 30 55
REMARK SMILES IDX 31 56 40 58 56 59 33 60 22 61 23 62 27 63 24 64 26 65 25 66
REMARK SMILES IDX 44 67 45 68 49 69 46 70 48 71 47 72 34 73 35 74 39 75 36 76
REMARK SMILES IDX 38 77 37 78
REMARK H PARENT 5 6 10 27 54 46 32 57
REMARK Flexibility Score: inf
ROOT
ATOM      1  C   UNL A   1      31.421  30.822  25.797  1.00  0.00     0.023 C 
ENDROOT
BRANCH   1   2
ATOM      2  C   UNL A   1      32.517  29.924  26.380  1.00  0.00     0.116 C 
BRANCH   2   3
ATOM      3  N   UNL A   1      31.954  28.688  26.886  1.00  0.00    -0.356 N 
ATOM      4  C   UNL A   1      31.409  27.632  26.209  1.00  0.00     0.227 C 
ATOM      5  O   UNL A   1      30.743  26.841  26.880  1.00  0.00    -0.274 OA
ATOM      6  H   UNL A   1      31.965  28.595  27.866  1.00  0.00     0.163 HD
BRANCH   4   7
ATOM      7  C   UNL A   1      31.651  27.478  24.692  1.00  0.00     0.105 C 
ATOM      8  C   UNL A   1      30.312  27.692  23.969  1.00  0.00     0.023 C 
BRANCH   7   9
ATOM      9  C   UNL A   1      32.309  26.149  24.287  1.00  0.00    -0.035 A 
ATOM     10  C   UNL A   1      31.697  25.283  23.371  1.00  0.00     0.005 A 
ATOM     11  C   UNL A   1      33.563  25.761  24.787  1.00  0.00     0.020 A 
ATOM     12  C   UNL A   1      32.235  24.029  23.085  1.00  0.00     0.005 A 
ATOM     13  C   UNL A   1      34.097  24.488  24.524  1.00  0.00     0.021 A 
ATOM     14  C   UNL A   1      33.405  23.579  23.712  1.00  0.00    -0.033 A 
ATOM     15  Br  UNL A   1      35.764  24.077  25.340  1.00  0.00    -0.051 Br
BRANCH  14  16
ATOM     16  C   UNL A   1      33.809  22.136  23.503  1.00  0.00     0.048 C 
BRANCH  16  17
ATOM     17  C   UNL A   1      33.526  21.180  24.676  1.00  0.00     0.060 C 
ATOM     18  C   UNL A   1      32.203  20.407  24.641  1.00  0.00     0.012 C 
ATOM     19  C   UNL A   1      34.536  20.057  24.782  1.00  0.00     0.136 C 
ATOM     20  C   UNL A   1      32.528  19.026  24.085  1.00  0.00     0.009 C 
ATOM     21  C   UNL A   1      33.913  18.695  24.617  1.00  0.00     0.076 C 
ATOM     22  O   UNL A   1      35.730  20.232  24.996  1.00  0.00    -0.299 OA
ENDBRANCH  16  17
ENDBRANCH  14  16
ENDBRANCH   7   9
ENDBRANCH   4   7
ENDBRANCH   2   3
ENDBRANCH   1   2
BRANCH   1  23
ATOM     23  C   UNL A   1      31.192  32.136  26.549  1.00  0.00     0.023 C 
BRANCH  23  24
ATOM     24  C   UNL A   1      32.436  32.751  27.176  1.00  0.00     0.116 C 
BRANCH  24  25
ATOM     25  N   UNL A   1      32.223  34.117  27.626  1.00  0.00    -0.352 N 
ATOM     26  C   UNL A   1      32.923  34.850  28.546  1.00  0.00     0.251 C 
ATOM     27  H   UNL A   1      31.465  34.583  27.207  1.00  0.00     0.163 HD
ATOM     28  O   UNL A   1      32.504  35.959  28.885  1.00  0.00    -0.269 OA
BRANCH  26  29
ATOM     29  C   UNL A   1      34.153  34.311  29.164  1.00  0.00     0.039 A 
ATOM     30  C   UNL A   1      34.031  33.545  30.325  1.00  0.00     0.014 A 
ATOM     31  C   UNL A   1      35.418  34.566  28.623  1.00  0.00     0.014 A 
ATOM     32  C   UNL A   1      35.167  32.988  30.911  1.00  0.00     0.010 A 
ATOM     33  C   UNL A   1      36.544  33.952  29.168  1.00  0.00     0.010 A 
ATOM     34  C   UNL A   1      36.430  33.160  30.320  1.00  0.00    -0.014 A 
BRANCH  34  35
ATOM     35  C   UNL A   1      37.625  32.499  30.898  1.00  0.00     0.031 A 
ATOM     36  C   UNL A   1      38.240  33.001  32.174  1.00  0.00     0.074 A 
ATOM     37  C   UNL A   1      38.171  31.449  30.254  1.00  0.00     0.049 A 
ATOM     38  N   UNL A   1      39.259  32.519  32.841  1.00  0.00    -0.248 NA
ATOM     39  C   UNL A   1      37.648  34.209  32.771  1.00  0.00     0.031 C 
ATOM     40  C   UNL A   1      37.705  30.902  28.977  1.00  0.00     0.029 A 
ATOM     41  N   UNL A   1      39.234  30.649  30.590  1.00  0.00    -0.354 N 
ATOM     42  C   UNL A   1      39.429  33.363  33.932  1.00  0.00     0.074 A 
ATOM     43  C   UNL A   1      38.447  34.418  33.807  1.00  0.00     0.031 C 
ATOM     44  C   UNL A   1      38.456  29.837  28.656  1.00  0.00     0.029 A 
ATOM     45  C   UNL A   1      39.469  29.640  29.688  1.00  0.00     0.049 A 
ATOM     46  H   UNL A   1      39.777  30.786  31.400  1.00  0.00     0.167 HD
ATOM     47  C   UNL A   1      40.307  33.257  34.957  1.00  0.00     0.031 A 
ATOM     48  C   UNL A   1      40.390  28.660  29.694  1.00  0.00     0.031 A 
ATOM     49  C   UNL A   1      41.286  32.211  35.084  1.00  0.00     0.049 A 
ATOM     50  C   UNL A   1      41.343  28.558  30.851  1.00  0.00     0.074 A 
ATOM     51  C   UNL A   1      42.196  31.997  36.106  1.00  0.00     0.029 A 
ATOM     52  N   UNL A   1      41.483  31.200  34.156  1.00  0.00    -0.354 N 
ATOM     53  N   UNL A   1      41.442  29.323  31.910  1.00  0.00    -0.248 NA
ATOM     54  C   UNL A   1      42.297  27.440  30.820  1.00  0.00     0.031 C 
ATOM     55  C   UNL A   1      42.970  30.879  35.777  1.00  0.00     0.029 A 
ATOM     56  C   UNL A   1      42.509  30.368  34.574  1.00  0.00     0.049 A 
ATOM     57  H   UNL A   1      40.970  31.090  33.323  1.00  0.00     0.167 HD
ATOM     58  C   UNL A   1      42.458  28.772  32.680  1.00  0.00     0.074 A 
ATOM     59  C   UNL A   1      42.921  27.591  31.980  1.00  0.00     0.031 C 
ATOM     60  C   UNL A   1      42.966  29.206  33.859  1.00  0.00     0.031 A 
BRANCH  47  61
ATOM     61  C   UNL A   1      40.238  34.304  36.034  1.00  0.00    -0.014 A 
ATOM     62  C   UNL A   1      40.994  35.483  35.943  1.00  0.00     0.009 A 
ATOM     63  C   UNL A   1      39.380  34.132  37.131  1.00  0.00     0.009 A 
ATOM     64  C   UNL A   1      40.916  36.455  36.943  1.00  0.00     0.001 A 
ATOM     65  C   UNL A   1      39.284  35.116  38.116  1.00  0.00     0.001 A 
ATOM     66  C   UNL A   1      40.057  36.272  38.025  1.00  0.00     0.000 A 
ENDBRANCH  47  61
BRANCH  48  67
ATOM     67  C   UNL A   1      40.442  27.680  28.580  1.00  0.00    -0.014 A 
ATOM     68  C   UNL A   1      41.223  27.934  27.442  1.00  0.00     0.009 A 
ATOM     69  C   UNL A   1      39.700  26.491  28.644  1.00  0.00     0.009 A 
ATOM     70  C   UNL A   1      41.235  27.030  26.376  1.00  0.00     0.001 A 
ATOM     71  C   UNL A   1      39.737  25.575  27.589  1.00  0.00     0.001 A 
ATOM     72  C   UNL A   1      40.495  25.851  26.452  1.00  0.00     0.000 A 
ENDBRANCH  48  67
BRANCH  60  73
ATOM     73  C   UNL A   1      44.069  28.386  34.465  1.00  0.00    -0.014 A 
ATOM     74  C   UNL A   1      43.792  27.370  35.393  1.00  0.00     0.009 A 
ATOM     75  C   UNL A   1      45.402  28.631  34.099  1.00  0.00     0.009 A 
ATOM     76  C   UNL A   1      44.832  26.642  35.974  1.00  0.00     0.001 A 
ATOM     77  C   UNL A   1      46.437  27.882  34.661  1.00  0.00     0.001 A 
ATOM     78  C   UNL A   1      46.153  26.898  35.607  1.00  0.00     0.000 A 
ENDBRANCH  60  73
ENDBRANCH  34  35
ENDBRANCH  26  29
ENDBRANCH  24  25
ENDBRANCH  23  24
ENDBRANCH   1  23
TORSDOF 14
ENDMDL
MODEL 3
REMARK VINA RESULT:     -11.2      0.582      5.990
REMARK SMILES C[C@@H](C(=O)NCCCCNC(=O)c1ccc(-c2c3nc(c(-c4ccccc4)c4ccc([nH]4)c(-c4ccccc4)c4nc(c(-c5ccccc5)c5ccc2[nH]5)C=C4)C=C3)cc1)c1ccc(C[C@H]2CCCC2=O)c(Br)c1
REMARK SMILES IDX 7 1 6 2 5 3 3 4 4 5 2 7 1 8 61 9 62 10 74 11 63 12 72 13
REMARK SMILES IDX 64 14 73 15 65 16 66 17 67 18 70 19 68 20 69 21 71 22 8 23
REMARK SMILES IDX 9 24 10 25 11 26 12 28 13 29 14 30 60 31 15 32 59 33 16 34
REMARK SMILES IDX 17 35 18 36 53 37 19 38 58 39 52 40 54 41 20 42 57 43 51 44
REMARK SMILES IDX 50 45 21 47 43 48 28 49 42 50 29 51 32 52 41 53 55 54 30 55
REMARK SMILES IDX 31 56 40 58 56 59 33 60 22 61 23 62 27 63 24 64 26 65 25 66
REMARK SMILES IDX 44 67 45 68 49 69 46 70 48 71 47 72 34 73 35 74 39 75 36 76
REMARK SMILES IDX 38 77 37 78
REMARK H PARENT 5 6 10 27 54 46 32 57
REMARK Flexibility Score: inf
ROOT
ATOM      1  C   UNL A   1      31.399  30.764  26.302  1.00  0.00     0.023 C 
ENDROOT
BRANCH   1   2
ATOM      2  C   UNL A   1      32.678  30.078  26.796  1.00  0.00     0.116 C 
BRANCH   2   3
ATOM      3  N   UNL A   1      32.391  28.738  27.271  1.00  0.00    -0.356 N 
ATOM      4  C   UNL A   1      32.183  27.585  26.566  1.00  0.00     0.227 C 
ATOM      5  O   UNL A   1      31.674  26.651  27.191  1.00  0.00    -0.274 OA
ATOM      6  H   UNL A   1      32.339  28.646  28.250  1.00  0.00     0.163 HD
BRANCH   4   7
ATOM      7  C   UNL A   1      32.587  27.503  25.079  1.00  0.00     0.105 C 
ATOM      8  C   UNL A   1      33.893  28.293  24.894  1.00  0.00     0.023 C 
BRANCH   7   9
ATOM      9  C   UNL A   1      31.499  27.969  24.099  1.00  0.00    -0.035 A 
ATOM     10  C   UNL A   1      31.787  28.868  23.064  1.00  0.00     0.005 A 
ATOM     11  C   UNL A   1      30.180  27.489  24.174  1.00  0.00     0.020 A 
ATOM     12  C   UNL A   1      30.782  29.378  22.242  1.00  0.00     0.005 A 
ATOM     13  C   UNL A   1      29.159  28.019  23.367  1.00  0.00     0.021 A 
ATOM     14  C   UNL A   1      29.440  29.019  22.427  1.00  0.00    -0.033 A 
ATOM     15  Br  UNL A   1      27.410  27.328  23.643  1.00  0.00    -0.051 Br
BRANCH  14  16
ATOM     16  C   UNL A   1      28.392  29.767  21.631  1.00  0.00     0.048 C 
BRANCH  16  17
ATOM     17  C   UNL A   1      27.725  30.956  22.347  1.00  0.00     0.060 C 
ATOM     18  C   UNL A   1      28.090  31.176  23.819  1.00  0.00     0.012 C 
ATOM     19  C   UNL A   1      28.087  32.293  21.736  1.00  0.00     0.136 C 
ATOM     20  C   UNL A   1      29.167  32.254  23.837  1.00  0.00     0.009 C 
ATOM     21  C   UNL A   1      28.810  33.198  22.700  1.00  0.00     0.076 C 
ATOM     22  O   UNL A   1      27.810  32.615  20.586  1.00  0.00    -0.299 OA
ENDBRANCH  16  17
ENDBRANCH  14  16
ENDBRANCH   7   9
ENDBRANCH   4   7
ENDBRANCH   2   3
ENDBRANCH   1   2
BRANCH   1  23
ATOM     23  C   UNL A   1      31.357  32.280  26.510  1.00  0.00     0.023 C 
BRANCH  23  24
ATOM     24  C   UNL A   1      32.544  32.866  27.262  1.00  0.00     0.116 C 
BRANCH  24  25
ATOM     25  N   UNL A   1      32.338  34.253  27.647  1.00  0.00    -0.352 N 
ATOM     26  C   UNL A   1      33.002  35.007  28.577  1.00  0.00     0.251 C 
ATOM     27  H   UNL A   1      31.615  34.718  27.168  1.00  0.00     0.163 HD
ATOM     28  O   UNL A   1      32.590  36.137  28.848  1.00  0.00    -0.269 OA
BRANCH  26  29
ATOM     29  C   UNL A   1      34.182  34.468  29.283  1.00  0.00     0.039 A 
ATOM     30  C   UNL A   1      33.992  33.869  30.530  1.00  0.00     0.014 A 
ATOM     31  C   UNL A   1      35.468  34.560  28.741  1.00  0.00     0.014 A 
ATOM     32  C   UNL A   1      35.079  33.314  31.207  1.00  0.00     0.010 A 
ATOM     33  C   UNL A   1      36.541  33.944  29.383  1.00  0.00     0.010 A 
ATOM     34  C   UNL A   1      36.357  33.319  30.624  1.00  0.00    -0.014 A 
BRANCH  34  35
ATOM     35  C   UNL A   1      37.495  32.655  31.307  1.00  0.00     0.031 A 
ATOM     36  C   UNL A   1      38.174  31.466  30.689  1.00  0.00     0.074 A 
ATOM     37  C   UNL A   1      37.903  33.118  32.504  1.00  0.00     0.049 A 
ATOM     38  N   UNL A   1      39.207  30.789  31.126  1.00  0.00    -0.248 NA
ATOM     39  C   UNL A   1      37.613  30.956  29.427  1.00  0.00     0.031 C 
ATOM     40  C   UNL A   1      37.290  34.227  33.238  1.00  0.00     0.029 A 
ATOM     41  N   UNL A   1      38.937  32.718  33.312  1.00  0.00    -0.354 N 
ATOM     42  C   UNL A   1      39.417  29.779  30.196  1.00  0.00     0.074 A 
ATOM     43  C   UNL A   1      38.373  29.895  29.202  1.00  0.00     0.031 C 
ATOM     44  C   UNL A   1      37.980  34.441  34.370  1.00  0.00     0.029 A 
ATOM     45  C   UNL A   1      39.066  33.470  34.453  1.00  0.00     0.049 A 
ATOM     46  H   UNL A   1      39.530  31.962  33.093  1.00  0.00     0.167 HD
ATOM     47  C   UNL A   1      40.405  28.853  30.159  1.00  0.00     0.031 A 
ATOM     48  C   UNL A   1      39.964  33.395  35.452  1.00  0.00     0.031 A 
ATOM     49  C   UNL A   1      41.445  28.733  31.146  1.00  0.00     0.049 A 
ATOM     50  C   UNL A   1      41.057  32.367  35.379  1.00  0.00     0.074 A 
ATOM     51  C   UNL A   1      42.511  27.851  31.177  1.00  0.00     0.029 A 
ATOM     52  N   UNL A   1      41.548  29.523  32.281  1.00  0.00    -0.354 N 
ATOM     53  N   UNL A   1      41.283  31.465  34.455  1.00  0.00    -0.248 NA
ATOM     54  C   UNL A   1      42.031  32.363  36.480  1.00  0.00     0.031 C 
ATOM     55  C   UNL A   1      43.237  28.081  32.350  1.00  0.00     0.029 A 
ATOM     56  C   UNL A   1      42.652  29.140  33.025  1.00  0.00     0.049 A 
ATOM     57  H   UNL A   1      40.929  30.249  32.522  1.00  0.00     0.167 HD
ATOM     58  C   UNL A   1      42.433  30.797  34.853  1.00  0.00     0.074 A 
ATOM     59  C   UNL A   1      42.874  31.419  36.086  1.00  0.00     0.031 C 
ATOM     60  C   UNL A   1      43.067  29.759  34.256  1.00  0.00     0.031 A 
BRANCH  47  61
ATOM     61  C   UNL A   1      40.410  27.897  28.999  1.00  0.00    -0.014 A 
ATOM     62  C   UNL A   1      39.708  26.683  29.062  1.00  0.00     0.009 A 
ATOM     63  C   UNL A   1      41.088  28.228  27.816  1.00  0.00     0.009 A 
ATOM     64  C   UNL A   1      39.710  25.806  27.975  1.00  0.00     0.001 A 
ATOM     65  C   UNL A   1      41.067  27.362  26.721  1.00  0.00     0.001 A 
ATOM     66  C   UNL A   1      40.385  26.149  26.804  1.00  0.00     0.000 A 
ENDBRANCH  47  61
BRANCH  48  67
ATOM     67  C   UNL A   1      39.883  34.335  36.599  1.00  0.00    -0.014 A 
ATOM     68  C   UNL A   1      40.476  35.605  36.524  1.00  0.00     0.009 A 
ATOM     69  C   UNL A   1      39.223  33.961  37.779  1.00  0.00     0.009 A 
ATOM     70  C   UNL A   1      40.435  36.470  37.621  1.00  0.00     0.001 A 
ATOM     71  C   UNL A   1      39.160  34.840  38.864  1.00  0.00     0.001 A 
ATOM     72  C   UNL A   1      39.776  36.088  38.787  1.00  0.00     0.000 A 
ENDBRANCH  48  67
BRANCH  60  73
ATOM     73  C   UNL A   1      44.310  29.247  34.926  1.00  0.00    -0.014 A 
ATOM     74  C   UNL A   1      44.249  28.224  35.884  1.00  0.00     0.009 A 
ATOM     75  C   UNL A   1      45.559  29.792  34.589  1.00  0.00     0.009 A 
ATOM     76  C   UNL A   1      45.410  27.785  36.524  1.00  0.00     0.001 A 
ATOM     77  C   UNL A   1      46.721  29.331  35.209  1.00  0.00     0.001 A 
ATOM     78  C   UNL A   1      46.645  28.338  36.185  1.00  0.00     0.000 A 
ENDBRANCH  60  73
ENDBRANCH  34  35
ENDBRANCH  26  29
ENDBRANCH  24  25
ENDBRANCH  23  24
ENDBRANCH   1  23
TORSDOF 14
ENDMDL
