MODEL 1
REMARK VINA RESULT:     -11.5      0.000      0.000
REMARK SMILES COc1cccc(NC(=O)[C@@H]2[C@@H](C(=O)NCCCCNC(=O)c3ccc(-c4c5nc(c(-c6ccccc6)c6ccc([nH]6)c(-c6ccccc6)c6nc(c(-c7ccccc7)c7ccc4[nH]7)C=C6)C=C5)cc3)[C@H]3C=C[C@@H]2C3)c1
REMARK SMILES IDX 17 1 16 2 15 3 13 4 14 5 12 7 11 8 74 9 71 10 73 11 75 12
REMARK SMILES IDX 72 13 9 14 8 15 10 17 7 18 3 19 4 20 76 21 5 22 6 23 2 24
REMARK SMILES IDX 1 25 18 26 19 27 20 28 21 29 22 31 23 32 24 33 70 34 25 35
REMARK SMILES IDX 69 36 26 37 27 38 28 39 63 40 29 41 68 42 62 43 64 44 30 45
REMARK SMILES IDX 67 46 61 47 60 48 31 50 53 51 38 52 52 53 39 54 42 55 51 56
REMARK SMILES IDX 65 57 40 58 41 59 50 61 66 62 43 63 32 64 33 65 37 66 34 67
REMARK SMILES IDX 36 68 35 69 54 70 55 71 59 72 56 73 58 74 57 75 44 76 45 77
REMARK SMILES IDX 49 78 46 79 48 80 47 81
REMARK H PARENT 15 6 8 16 20 30 64 49 42 60
REMARK Flexibility Score: inf
ROOT
ATOM      1  C   UNL A   1      39.434  22.847  26.700  1.00  0.00     0.023 C 
ENDROOT
BRANCH   1   2
ATOM      2  C   UNL A   1      38.273  23.690  26.178  1.00  0.00     0.116 C 
BRANCH   2   3
ATOM      3  N   UNL A   1      37.737  23.222  24.914  1.00  0.00    -0.356 N 
ATOM      4  C   UNL A   1      36.441  23.173  24.492  1.00  0.00     0.224 C 
ATOM      5  O   UNL A   1      36.251  22.952  23.297  1.00  0.00    -0.275 OA
ATOM      6  H   UNL A   1      38.405  22.894  24.269  1.00  0.00     0.163 HD
BRANCH   4   7
ATOM      7  C   UNL A   1      35.317  23.369  25.495  1.00  0.00     0.098 C 
ATOM      8  C   UNL A   1      34.043  22.480  25.239  1.00  0.00     0.099 C 
ATOM      9  C   UNL A   1      32.909  23.551  25.218  1.00  0.00     0.025 C 
ATOM     10  C   UNL A   1      34.736  24.810  25.435  1.00  0.00     0.025 C 
ATOM     11  C   UNL A   1      33.070  24.327  23.927  1.00  0.00    -0.027 C 
ATOM     12  C   UNL A   1      33.420  24.623  26.187  1.00  0.00     0.017 C 
ATOM     13  C   UNL A   1      34.174  25.079  24.057  1.00  0.00    -0.027 C 
BRANCH   8  14
ATOM     14  C   UNL A   1      33.816  21.473  26.354  1.00  0.00     0.228 C 
ATOM     15  N   UNL A   1      33.521  20.158  26.164  1.00  0.00    -0.326 N 
ATOM     16  H   UNL A   1      33.496  19.669  27.017  1.00  0.00     0.169 HD
ATOM     17  O   UNL A   1      33.947  21.816  27.536  1.00  0.00    -0.274 OA
BRANCH  15  18
ATOM     18  C   UNL A   1      33.244  19.309  25.076  1.00  0.00     0.044 A 
ATOM     19  C   UNL A   1      33.570  17.084  24.128  1.00  0.00     0.120 A 
ATOM     20  C   UNL A   1      32.897  17.454  22.972  1.00  0.00     0.046 A 
ATOM     21  C   UNL A   1      33.759  18.003  25.165  1.00  0.00     0.072 A 
ATOM     22  C   UNL A   1      32.348  18.726  22.891  1.00  0.00     0.006 A 
ATOM     23  C   UNL A   1      32.504  19.636  23.945  1.00  0.00     0.026 A 
BRANCH  19  24
ATOM     24  O   UNL A   1      34.094  15.821  24.172  1.00  0.00    -0.497 OA
ATOM     25  C   UNL A   1      35.115  15.717  25.164  1.00  0.00     0.278 C 
ENDBRANCH  19  24
ENDBRANCH  15  18
ENDBRANCH   8  14
ENDBRANCH   4   7
ENDBRANCH   2   3
ENDBRANCH   1   2
BRANCH   1  26
ATOM     26  C   UNL A   1      39.623  21.479  26.043  1.00  0.00     0.023 C 
BRANCH  26  27
ATOM     27  C   UNL A   1      40.430  20.464  26.846  1.00  0.00     0.116 C 
BRANCH  27  28
ATOM     28  N   UNL A   1      41.579  19.949  26.118  1.00  0.00    -0.352 N 
ATOM     29  C   UNL A   1      42.737  20.589  25.738  1.00  0.00     0.251 C 
ATOM     30  H   UNL A   1      41.520  19.001  25.858  1.00  0.00     0.163 HD
ATOM     31  O   UNL A   1      43.539  20.026  25.004  1.00  0.00    -0.269 OA
BRANCH  29  32
ATOM     32  C   UNL A   1      43.002  21.972  26.191  1.00  0.00     0.039 A 
ATOM     33  C   UNL A   1      43.099  22.990  25.238  1.00  0.00     0.014 A 
ATOM     34  C   UNL A   1      43.144  22.268  27.549  1.00  0.00     0.014 A 
ATOM     35  C   UNL A   1      43.258  24.317  25.651  1.00  0.00     0.010 A 
ATOM     36  C   UNL A   1      43.225  23.594  27.962  1.00  0.00     0.010 A 
ATOM     37  C   UNL A   1      43.279  24.633  27.018  1.00  0.00    -0.014 A 
BRANCH  37  38
ATOM     38  C   UNL A   1      43.350  26.038  27.497  1.00  0.00     0.031 A 
ATOM     39  C   UNL A   1      44.681  26.649  27.835  1.00  0.00     0.074 A 
ATOM     40  C   UNL A   1      42.216  26.724  27.738  1.00  0.00     0.049 A 
ATOM     41  N   UNL A   1      44.943  27.800  28.402  1.00  0.00    -0.248 NA
ATOM     42  C   UNL A   1      45.872  25.844  27.524  1.00  0.00     0.031 C 
ATOM     43  C   UNL A   1      40.859  26.233  27.493  1.00  0.00     0.029 A 
ATOM     44  N   UNL A   1      42.027  27.976  28.270  1.00  0.00    -0.354 N 
ATOM     45  C   UNL A   1      46.324  27.839  28.550  1.00  0.00     0.074 A 
ATOM     46  C   UNL A   1      46.839  26.583  28.047  1.00  0.00     0.031 C 
ATOM     47  C   UNL A   1      39.978  27.174  27.870  1.00  0.00     0.029 A 
ATOM     48  C   UNL A   1      40.704  28.313  28.423  1.00  0.00     0.049 A 
ATOM     49  H   UNL A   1      42.769  28.574  28.518  1.00  0.00     0.167 HD
ATOM     50  C   UNL A   1      47.095  28.834  29.049  1.00  0.00     0.031 A 
ATOM     51  C   UNL A   1      40.135  29.406  28.967  1.00  0.00     0.031 A 
ATOM     52  C   UNL A   1      46.584  30.088  29.531  1.00  0.00     0.049 A 
ATOM     53  C   UNL A   1      41.007  30.500  29.513  1.00  0.00     0.074 A 
ATOM     54  C   UNL A   1      47.290  31.190  29.982  1.00  0.00     0.029 A 
ATOM     55  N   UNL A   1      45.239  30.405  29.633  1.00  0.00    -0.354 N 
ATOM     56  N   UNL A   1      42.315  30.556  29.577  1.00  0.00    -0.248 NA
ATOM     57  C   UNL A   1      40.326  31.687  30.052  1.00  0.00     0.031 C 
ATOM     58  C   UNL A   1      46.370  32.154  30.407  1.00  0.00     0.029 A 
ATOM     59  C   UNL A   1      45.092  31.674  30.166  1.00  0.00     0.049 A 
ATOM     60  H   UNL A   1      44.496  29.815  29.365  1.00  0.00     0.167 HD
ATOM     61  C   UNL A   1      42.616  31.791  30.137  1.00  0.00     0.074 A 
ATOM     62  C   UNL A   1      41.353  32.456  30.390  1.00  0.00     0.031 C 
ATOM     63  C   UNL A   1      43.831  32.326  30.411  1.00  0.00     0.031 A 
BRANCH  50  64
ATOM     64  C   UNL A   1      48.577  28.586  29.120  1.00  0.00    -0.014 A 
ATOM     65  C   UNL A   1      49.428  28.910  28.052  1.00  0.00     0.009 A 
ATOM     66  C   UNL A   1      49.131  28.023  30.281  1.00  0.00     0.009 A 
ATOM     67  C   UNL A   1      50.794  28.629  28.124  1.00  0.00     0.001 A 
ATOM     68  C   UNL A   1      50.502  27.774  30.364  1.00  0.00     0.001 A 
ATOM     69  C   UNL A   1      51.330  28.062  29.280  1.00  0.00     0.000 A 
ENDBRANCH  50  64
BRANCH  51  70
ATOM     70  C   UNL A   1      38.654  29.511  29.014  1.00  0.00    -0.014 A 
ATOM     71  C   UNL A   1      37.958  29.242  30.202  1.00  0.00     0.009 A 
ATOM     72  C   UNL A   1      37.931  29.918  27.881  1.00  0.00     0.009 A 
ATOM     73  C   UNL A   1      36.567  29.367  30.250  1.00  0.00     0.001 A 
ATOM     74  C   UNL A   1      36.545  30.067  27.941  1.00  0.00     0.001 A 
ATOM     75  C   UNL A   1      35.863  29.786  29.123  1.00  0.00     0.000 A 
ENDBRANCH  51  70
BRANCH  63  76
ATOM     76  C   UNL A   1      43.867  33.715  30.982  1.00  0.00    -0.014 A 
ATOM     77  C   UNL A   1      43.867  34.845  30.152  1.00  0.00     0.009 A 
ATOM     78  C   UNL A   1      43.823  33.891  32.375  1.00  0.00     0.009 A 
ATOM     79  C   UNL A   1      43.838  36.127  30.708  1.00  0.00     0.001 A 
ATOM     80  C   UNL A   1      43.769  35.171  32.926  1.00  0.00     0.001 A 
ATOM     81  C   UNL A   1      43.781  36.288  32.093  1.00  0.00     0.000 A 
ENDBRANCH  63  76
ENDBRANCH  37  38
ENDBRANCH  29  32
ENDBRANCH  27  28
ENDBRANCH  26  27
ENDBRANCH   1  26
TORSDOF 14
ENDMDL
MODEL 2
REMARK VINA RESULT:     -11.4      5.418     10.122
REMARK SMILES COc1cccc(NC(=O)[C@@H]2[C@@H](C(=O)NCCCCNC(=O)c3ccc(-c4c5nc(c(-c6ccccc6)c6ccc([nH]6)c(-c6ccccc6)c6nc(c(-c7ccccc7)c7ccc4[nH]7)C=C6)C=C5)cc3)[C@H]3C=C[C@@H]2C3)c1
REMARK SMILES IDX 17 1 16 2 15 3 13 4 14 5 12 7 11 8 74 9 71 10 73 11 75 12
REMARK SMILES IDX 72 13 9 14 8 15 10 17 7 18 3 19 4 20 76 21 5 22 6 23 2 24
REMARK SMILES IDX 1 25 18 26 19 27 20 28 21 29 22 31 23 32 24 33 70 34 25 35
REMARK SMILES IDX 69 36 26 37 27 38 28 39 63 40 29 41 68 42 62 43 64 44 30 45
REMARK SMILES IDX 67 46 61 47 60 48 31 50 53 51 38 52 52 53 39 54 42 55 51 56
REMARK SMILES IDX 65 57 40 58 41 59 50 61 66 62 43 63 32 64 33 65 37 66 34 67
REMARK SMILES IDX 36 68 35 69 54 70 55 71 59 72 56 73 58 74 57 75 44 76 45 77
REMARK SMILES IDX 49 78 46 79 48 80 47 81
REMARK H PARENT 15 6 8 16 20 30 64 49 42 60
REMARK Flexibility Score: inf
ROOT
ATOM      1  C   UNL A   1      31.839  30.537  26.091  1.00  0.00     0.023 C 
ENDROOT
BRANCH   1   2
ATOM      2  C   UNL A   1      32.272  29.558  27.181  1.00  0.00     0.116 C 
BRANCH   2   3
ATOM      3  N   UNL A   1      31.465  28.355  27.235  1.00  0.00    -0.356 N 
ATOM      4  C   UNL A   1      31.643  27.167  26.588  1.00  0.00     0.224 C 
ATOM      5  O   UNL A   1      30.961  26.217  26.966  1.00  0.00    -0.275 OA
ATOM      6  H   UNL A   1      30.677  28.402  27.823  1.00  0.00     0.163 HD
BRANCH   4   7
ATOM      7  C   UNL A   1      32.639  27.078  25.444  1.00  0.00     0.098 C 
ATOM      8  C   UNL A   1      31.990  26.995  24.011  1.00  0.00     0.099 C 
ATOM      9  C   UNL A   1      32.675  25.721  23.427  1.00  0.00     0.025 C 
ATOM     10  C   UNL A   1      33.475  25.768  25.507  1.00  0.00     0.025 C 
ATOM     11  C   UNL A   1      32.081  24.536  24.159  1.00  0.00    -0.027 C 
ATOM     12  C   UNL A   1      34.054  25.726  24.095  1.00  0.00     0.017 C 
ATOM     13  C   UNL A   1      32.557  24.570  25.412  1.00  0.00    -0.027 C 
BRANCH   8  14
ATOM     14  C   UNL A   1      32.311  28.217  23.167  1.00  0.00     0.228 C 
ATOM     15  N   UNL A   1      31.404  29.155  22.783  1.00  0.00    -0.326 N 
ATOM     16  H   UNL A   1      31.837  29.904  22.313  1.00  0.00     0.169 HD
ATOM     17  O   UNL A   1      33.479  28.444  22.822  1.00  0.00    -0.274 OA
BRANCH  15  18
ATOM     18  C   UNL A   1      30.012  29.346  22.877  1.00  0.00     0.044 A 
ATOM     19  C   UNL A   1      28.212  30.988  23.017  1.00  0.00     0.120 A 
ATOM     20  C   UNL A   1      27.272  29.977  23.158  1.00  0.00     0.046 A 
ATOM     21  C   UNL A   1      29.571  30.681  22.896  1.00  0.00     0.072 A 
ATOM     22  C   UNL A   1      27.690  28.655  23.099  1.00  0.00     0.006 A 
ATOM     23  C   UNL A   1      29.048  28.346  22.939  1.00  0.00     0.026 A 
BRANCH  19  24
ATOM     24  O   UNL A   1      27.761  32.277  23.076  1.00  0.00    -0.497 OA
ATOM     25  C   UNL A   1      28.835  33.210  22.952  1.00  0.00     0.278 C 
ENDBRANCH  19  24
ENDBRANCH  15  18
ENDBRANCH   8  14
ENDBRANCH   4   7
ENDBRANCH   2   3
ENDBRANCH   1   2
BRANCH   1  26
ATOM     26  C   UNL A   1      31.537  31.964  26.548  1.00  0.00     0.023 C 
BRANCH  26  27
ATOM     27  C   UNL A   1      32.636  32.649  27.353  1.00  0.00     0.116 C 
BRANCH  27  28
ATOM     28  N   UNL A   1      32.335  34.040  27.656  1.00  0.00    -0.352 N 
ATOM     29  C   UNL A   1      32.947  34.899  28.540  1.00  0.00     0.251 C 
ATOM     30  H   UNL A   1      31.580  34.423  27.154  1.00  0.00     0.163 HD
ATOM     31  O   UNL A   1      32.463  36.001  28.762  1.00  0.00    -0.269 OA
BRANCH  29  32
ATOM     32  C   UNL A   1      34.177  34.481  29.248  1.00  0.00     0.039 A 
ATOM     33  C   UNL A   1      34.069  33.940  30.532  1.00  0.00     0.014 A 
ATOM     34  C   UNL A   1      35.431  34.613  28.646  1.00  0.00     0.014 A 
ATOM     35  C   UNL A   1      35.208  33.456  31.182  1.00  0.00     0.010 A 
ATOM     36  C   UNL A   1      36.552  34.061  29.260  1.00  0.00     0.010 A 
ATOM     37  C   UNL A   1      36.452  33.474  30.532  1.00  0.00    -0.014 A 
BRANCH  37  38
ATOM     38  C   UNL A   1      37.668  32.882  31.149  1.00  0.00     0.031 A 
ATOM     39  C   UNL A   1      38.318  31.681  30.523  1.00  0.00     0.074 A 
ATOM     40  C   UNL A   1      38.118  33.351  32.328  1.00  0.00     0.049 A 
ATOM     41  N   UNL A   1      39.290  30.933  30.981  1.00  0.00    -0.248 NA
ATOM     42  C   UNL A   1      37.780  31.242  29.225  1.00  0.00     0.031 C 
ATOM     43  C   UNL A   1      37.554  34.485  33.062  1.00  0.00     0.029 A 
ATOM     44  N   UNL A   1      39.142  32.910  33.131  1.00  0.00    -0.354 N 
ATOM     45  C   UNL A   1      39.453  29.916  30.049  1.00  0.00     0.074 A 
ATOM     46  C   UNL A   1      38.456  30.123  29.019  1.00  0.00     0.031 C 
ATOM     47  C   UNL A   1      38.241  34.653  34.204  1.00  0.00     0.029 A 
ATOM     48  C   UNL A   1      39.262  33.614  34.304  1.00  0.00     0.049 A 
ATOM     49  H   UNL A   1      39.734  32.162  32.887  1.00  0.00     0.167 HD
ATOM     50  C   UNL A   1      40.357  28.908  30.043  1.00  0.00     0.031 A 
ATOM     51  C   UNL A   1      40.085  33.433  35.355  1.00  0.00     0.031 A 
ATOM     52  C   UNL A   1      41.358  28.714  31.057  1.00  0.00     0.049 A 
ATOM     53  C   UNL A   1      41.083  32.311  35.329  1.00  0.00     0.074 A 
ATOM     54  C   UNL A   1      42.369  27.770  31.100  1.00  0.00     0.029 A 
ATOM     55  N   UNL A   1      41.470  29.473  32.211  1.00  0.00    -0.354 N 
ATOM     56  N   UNL A   1      41.276  31.403  34.405  1.00  0.00    -0.248 NA
ATOM     57  C   UNL A   1      41.983  32.195  36.486  1.00  0.00     0.031 C 
ATOM     58  C   UNL A   1      43.060  27.924  32.305  1.00  0.00     0.029 A 
ATOM     59  C   UNL A   1      42.514  29.002  32.987  1.00  0.00     0.049 A 
ATOM     60  H   UNL A   1      40.891  30.236  32.444  1.00  0.00     0.167 HD
ATOM     61  C   UNL A   1      42.335  30.623  34.853  1.00  0.00     0.074 A 
ATOM     62  C   UNL A   1      42.747  31.170  36.130  1.00  0.00     0.031 C 
ATOM     63  C   UNL A   1      42.916  29.555  34.255  1.00  0.00     0.031 A 
BRANCH  50  64
ATOM     64  C   UNL A   1      40.280  27.921  28.911  1.00  0.00    -0.014 A 
ATOM     65  C   UNL A   1      39.528  26.739  29.017  1.00  0.00     0.009 A 
ATOM     66  C   UNL A   1      40.967  28.181  27.715  1.00  0.00     0.009 A 
ATOM     67  C   UNL A   1      39.509  25.816  27.969  1.00  0.00     0.001 A 
ATOM     68  C   UNL A   1      40.919  27.273  26.656  1.00  0.00     0.001 A 
ATOM     69  C   UNL A   1      40.203  26.084  26.789  1.00  0.00     0.000 A 
ENDBRANCH  50  64
BRANCH  51  70
ATOM     70  C   UNL A   1      39.994  34.351  36.520  1.00  0.00    -0.014 A 
ATOM     71  C   UNL A   1      40.663  35.583  36.510  1.00  0.00     0.009 A 
ATOM     72  C   UNL A   1      39.206  34.014  37.633  1.00  0.00     0.009 A 
ATOM     73  C   UNL A   1      40.555  36.455  37.597  1.00  0.00     0.001 A 
ATOM     74  C   UNL A   1      39.080  34.899  38.705  1.00  0.00     0.001 A 
ATOM     75  C   UNL A   1      39.758  36.116  38.689  1.00  0.00     0.000 A 
ENDBRANCH  51  70
BRANCH  63  76
ATOM     76  C   UNL A   1      44.087  28.920  34.949  1.00  0.00    -0.014 A 
ATOM     77  C   UNL A   1      43.916  27.847  35.836  1.00  0.00     0.009 A 
ATOM     78  C   UNL A   1      45.387  29.356  34.649  1.00  0.00     0.009 A 
ATOM     79  C   UNL A   1      45.026  27.233  36.421  1.00  0.00     0.001 A 
ATOM     80  C   UNL A   1      46.495  28.725  35.215  1.00  0.00     0.001 A 
ATOM     81  C   UNL A   1      46.314  27.667  36.105  1.00  0.00     0.000 A 
ENDBRANCH  63  76
ENDBRANCH  37  38
ENDBRANCH  29  32
ENDBRANCH  27  28
ENDBRANCH  26  27
ENDBRANCH   1  26
TORSDOF 14
ENDMDL
MODEL 3
REMARK VINA RESULT:     -11.4      3.547      8.355
REMARK SMILES COc1cccc(NC(=O)[C@@H]2[C@@H](C(=O)NCCCCNC(=O)c3ccc(-c4c5nc(c(-c6ccccc6)c6ccc([nH]6)c(-c6ccccc6)c6nc(c(-c7ccccc7)c7ccc4[nH]7)C=C6)C=C5)cc3)[C@H]3C=C[C@@H]2C3)c1
REMARK SMILES IDX 17 1 16 2 15 3 13 4 14 5 12 7 11 8 74 9 71 10 73 11 75 12
REMARK SMILES IDX 72 13 9 14 8 15 10 17 7 18 3 19 4 20 76 21 5 22 6 23 2 24
REMARK SMILES IDX 1 25 18 26 19 27 20 28 21 29 22 31 23 32 24 33 70 34 25 35
REMARK SMILES IDX 69 36 26 37 27 38 28 39 63 40 29 41 68 42 62 43 64 44 30 45
REMARK SMILES IDX 67 46 61 47 60 48 31 50 53 51 38 52 52 53 39 54 42 55 51 56
REMARK SMILES IDX 65 57 40 58 41 59 50 61 66 62 43 63 32 64 33 65 37 66 34 67
REMARK SMILES IDX 36 68 35 69 54 70 55 71 59 72 56 73 58 74 57 75 44 76 45 77
REMARK SMILES IDX 49 78 46 79 48 80 47 81
REMARK H PARENT 15 6 8 16 20 30 64 49 42 60
REMARK Flexibility Score: inf
ROOT
ATOM      1  C   UNL A   1      31.686  30.343  25.893  1.00  0.00     0.023 C 
ENDROOT
BRANCH   1   2
ATOM      2  C   UNL A   1      32.573  29.329  26.613  1.00  0.00     0.116 C 
BRANCH   2   3
ATOM      3  N   UNL A   1      33.405  28.547  25.719  1.00  0.00    -0.356 N 
ATOM      4  C   UNL A   1      33.187  27.302  25.206  1.00  0.00     0.224 C 
ATOM      5  O   UNL A   1      33.922  26.939  24.290  1.00  0.00    -0.275 OA
ATOM      6  H   UNL A   1      34.247  28.977  25.443  1.00  0.00     0.163 HD
BRANCH   4   7
ATOM      7  C   UNL A   1      32.084  26.433  25.788  1.00  0.00     0.098 C 
ATOM      8  C   UNL A   1      32.143  24.920  25.359  1.00  0.00     0.099 C 
ATOM      9  C   UNL A   1      30.703  24.691  24.805  1.00  0.00     0.025 C 
ATOM     10  C   UNL A   1      30.679  26.869  25.281  1.00  0.00     0.025 C 
ATOM     11  C   UNL A   1      30.624  25.434  23.488  1.00  0.00    -0.027 C 
ATOM     12  C   UNL A   1      29.847  25.642  25.648  1.00  0.00     0.017 C 
ATOM     13  C   UNL A   1      30.617  26.744  23.775  1.00  0.00    -0.027 C 
BRANCH   8  14
ATOM     14  C   UNL A   1      32.421  24.002  26.539  1.00  0.00     0.228 C 
ATOM     15  N   UNL A   1      33.562  23.282  26.709  1.00  0.00    -0.326 N 
ATOM     16  H   UNL A   1      33.569  22.820  27.579  1.00  0.00     0.169 HD
ATOM     17  O   UNL A   1      31.599  23.911  27.461  1.00  0.00    -0.274 OA
BRANCH  15  18
ATOM     18  C   UNL A   1      34.736  23.018  25.979  1.00  0.00     0.044 A 
ATOM     19  C   UNL A   1      36.200  21.283  25.082  1.00  0.00     0.120 A 
ATOM     20  C   UNL A   1      37.092  22.242  24.624  1.00  0.00     0.046 A 
ATOM     21  C   UNL A   1      35.042  21.661  25.769  1.00  0.00     0.072 A 
ATOM     22  C   UNL A   1      36.781  23.585  24.789  1.00  0.00     0.006 A 
ATOM     23  C   UNL A   1      35.601  23.965  25.443  1.00  0.00     0.026 A 
BRANCH  19  24
ATOM     24  O   UNL A   1      36.540  19.971  24.898  1.00  0.00    -0.497 OA
ATOM     25  C   UNL A   1      37.952  19.782  24.990  1.00  0.00     0.278 C 
ENDBRANCH  19  24
ENDBRANCH  15  18
ENDBRANCH   8  14
ENDBRANCH   4   7
ENDBRANCH   2   3
ENDBRANCH   1   2
BRANCH   1  26
ATOM     26  C   UNL A   1      31.481  31.682  26.601  1.00  0.00     0.023 C 
BRANCH  26  27
ATOM     27  C   UNL A   1      32.745  32.356  27.125  1.00  0.00     0.116 C 
BRANCH  27  28
ATOM     28  N   UNL A   1      32.505  33.700  27.628  1.00  0.00    -0.352 N 
ATOM     29  C   UNL A   1      33.216  34.433  28.550  1.00  0.00     0.251 C 
ATOM     30  H   UNL A   1      31.716  34.152  27.252  1.00  0.00     0.163 HD
ATOM     31  O   UNL A   1      32.780  35.503  28.954  1.00  0.00    -0.269 OA
BRANCH  29  32
ATOM     32  C   UNL A   1      34.497  33.915  29.080  1.00  0.00     0.039 A 
ATOM     33  C   UNL A   1      34.495  33.210  30.287  1.00  0.00     0.014 A 
ATOM     34  C   UNL A   1      35.693  34.114  28.386  1.00  0.00     0.014 A 
ATOM     35  C   UNL A   1      35.679  32.635  30.758  1.00  0.00     0.010 A 
ATOM     36  C   UNL A   1      36.853  33.477  28.815  1.00  0.00     0.010 A 
ATOM     37  C   UNL A   1      36.858  32.728  30.003  1.00  0.00    -0.014 A 
BRANCH  37  38
ATOM     38  C   UNL A   1      38.113  32.050  30.422  1.00  0.00     0.031 A 
ATOM     39  C   UNL A   1      39.081  32.756  31.329  1.00  0.00     0.074 A 
ATOM     40  C   UNL A   1      38.436  30.852  29.898  1.00  0.00     0.049 A 
ATOM     41  N   UNL A   1      40.288  32.400  31.689  1.00  0.00    -0.248 NA
ATOM     42  C   UNL A   1      38.646  34.051  31.875  1.00  0.00     0.031 C 
ATOM     43  C   UNL A   1      37.605  30.077  28.975  1.00  0.00     0.029 A 
ATOM     44  N   UNL A   1      39.567  30.088  30.049  1.00  0.00    -0.354 N 
ATOM     45  C   UNL A   1      40.769  33.442  32.471  1.00  0.00     0.074 A 
ATOM     46  C   UNL A   1      39.739  34.459  32.501  1.00  0.00     0.031 C 
ATOM     47  C   UNL A   1      38.252  28.947  28.645  1.00  0.00     0.029 A 
ATOM     48  C   UNL A   1      39.559  28.939  29.297  1.00  0.00     0.049 A 
ATOM     49  H   UNL A   1      40.313  30.340  30.641  1.00  0.00     0.167 HD
ATOM     50  C   UNL A   1      41.956  33.542  33.115  1.00  0.00     0.031 A 
ATOM     51  C   UNL A   1      40.504  27.994  29.129  1.00  0.00     0.031 A 
ATOM     52  C   UNL A   1      42.972  32.524  33.098  1.00  0.00     0.049 A 
ATOM     53  C   UNL A   1      41.814  28.120  29.853  1.00  0.00     0.074 A 
ATOM     54  C   UNL A   1      44.175  32.496  33.783  1.00  0.00     0.029 A 
ATOM     55  N   UNL A   1      42.907  31.357  32.354  1.00  0.00    -0.354 N 
ATOM     56  N   UNL A   1      42.225  29.075  30.650  1.00  0.00    -0.248 NA
ATOM     57  C   UNL A   1      42.785  27.032  29.664  1.00  0.00     0.031 C 
ATOM     58  C   UNL A   1      44.862  31.337  33.410  1.00  0.00     0.029 A 
ATOM     59  C   UNL A   1      44.061  30.615  32.538  1.00  0.00     0.049 A 
ATOM     60  H   UNL A   1      42.152  31.094  31.778  1.00  0.00     0.167 HD
ATOM     61  C   UNL A   1      43.490  28.694  31.079  1.00  0.00     0.074 A 
ATOM     62  C   UNL A   1      43.776  27.416  30.458  1.00  0.00     0.031 C 
ATOM     63  C   UNL A   1      44.334  29.344  31.917  1.00  0.00     0.031 A 
BRANCH  50  64
ATOM     64  C   UNL A   1      42.226  34.814  33.869  1.00  0.00    -0.014 A 
ATOM     65  C   UNL A   1      41.880  34.952  35.223  1.00  0.00     0.009 A 
ATOM     66  C   UNL A   1      42.843  35.892  33.214  1.00  0.00     0.009 A 
ATOM     67  C   UNL A   1      42.099  36.160  35.890  1.00  0.00     0.001 A 
ATOM     68  C   UNL A   1      43.092  37.086  33.893  1.00  0.00     0.001 A 
ATOM     69  C   UNL A   1      42.706  37.225  35.225  1.00  0.00     0.000 A 
ENDBRANCH  50  64
BRANCH  51  70
ATOM     70  C   UNL A   1      40.232  26.841  28.233  1.00  0.00    -0.014 A 
ATOM     71  C   UNL A   1      40.780  26.796  26.942  1.00  0.00     0.009 A 
ATOM     72  C   UNL A   1      39.451  25.760  28.676  1.00  0.00     0.009 A 
ATOM     73  C   UNL A   1      40.544  25.698  26.111  1.00  0.00     0.001 A 
ATOM     74  C   UNL A   1      39.239  24.654  27.852  1.00  0.00     0.001 A 
ATOM     75  C   UNL A   1      39.780  24.626  26.569  1.00  0.00     0.000 A 
ENDBRANCH  51  70
BRANCH  63  76
ATOM     76  C   UNL A   1      45.637  28.675  32.249  1.00  0.00    -0.014 A 
ATOM     77  C   UNL A   1      46.798  28.927  31.504  1.00  0.00     0.009 A 
ATOM     78  C   UNL A   1      45.716  27.837  33.373  1.00  0.00     0.009 A 
ATOM     79  C   UNL A   1      48.012  28.340  31.871  1.00  0.00     0.001 A 
ATOM     80  C   UNL A   1      46.934  27.273  33.753  1.00  0.00     0.001 A 
ATOM     81  C   UNL A   1      48.081  27.520  32.999  1.00  0.00     0.000 A 
ENDBRANCH  63  76
ENDBRANCH  37  38
ENDBRANCH  29  32
ENDBRANCH  27  28
ENDBRANCH  26  27
ENDBRANCH   1  26
TORSDOF 14
ENDMDL
