MODEL 1
REMARK VINA RESULT:     -11.0      0.000      0.000
REMARK SMILES O=C(NCCCCNC(=O)[C@H](CO)NC(=O)[C@H](CS)NC(=O)[C@H](Cc1ccccc1)NC(=O)c1ccc(F)cc1)c1ccc(-c2c3nc(c(-c4ccccc4)c4ccc([nH]4)c(-c4ccccc4)c4nc(c(-c5ccccc5)c5ccc2[nH]5)C=C4)C=C3)cc1
REMARK SMILES IDX 8 1 9 2 10 3 7 5 6 6 5 7 4 8 3 9 1 10 2 11 41 13 42 14 88 15
REMARK SMILES IDX 43 16 87 17 44 18 45 19 46 20 81 21 47 22 86 23 80 24 82 25
REMARK SMILES IDX 48 26 85 27 79 28 78 29 49 31 71 32 56 33 70 34 57 35 60 36
REMARK SMILES IDX 69 37 83 38 58 39 59 40 68 42 84 43 61 44 50 45 51 46 55 47
REMARK SMILES IDX 52 48 54 49 53 50 72 51 73 52 77 53 74 54 76 55 75 56 62 57
REMARK SMILES IDX 63 58 67 59 64 60 66 61 65 62 11 63 14 64 15 65 16 67 17 68
REMARK SMILES IDX 20 69 21 70 22 72 23 73 31 74 32 75 33 77 34 78 35 79 40 80
REMARK SMILES IDX 36 81 39 82 37 83 38 84 24 85 25 86 26 87 30 88 27 89 29 90
REMARK SMILES IDX 28 91 18 92 19 93 12 95 13 96
REMARK H PARENT 8 4 3 12 82 30 60 41 14 66 20 71 31 76 19 94 13 97
REMARK Flexibility Score: inf
ROOT
ATOM      1  N   UNL A   1      35.673  18.894  24.626  1.00  0.00    -0.354 N 
ATOM      2  C   UNL A   1      34.399  18.518  24.321  1.00  0.00     0.244 C 
ATOM      3  O   UNL A   1      34.234  17.315  24.086  1.00  0.00    -0.273 OA
ATOM      4  H   UNL A   1      36.322  18.154  24.588  1.00  0.00     0.163 HD
ENDROOT
BRANCH   1   5
ATOM      5  C   UNL A   1      36.268  20.169  24.998  1.00  0.00     0.116 C 
BRANCH   5   6
ATOM      6  C   UNL A   1      37.751  20.228  24.661  1.00  0.00     0.023 C 
BRANCH   6   7
ATOM      7  C   UNL A   1      38.590  21.203  25.476  1.00  0.00     0.023 C 
BRANCH   7   8
ATOM      8  C   UNL A   1      39.488  20.542  26.500  1.00  0.00     0.116 C 
BRANCH   8   9
ATOM      9  N   UNL A   1      40.532  19.699  25.928  1.00  0.00    -0.352 N 
ATOM     10  O   UNL A   1      42.644  19.207  25.256  1.00  0.00    -0.269 OA
ATOM     11  C   UNL A   1      41.880  19.978  25.824  1.00  0.00     0.251 C 
ATOM     12  H   UNL A   1      40.241  18.829  25.573  1.00  0.00     0.163 HD
BRANCH  11  13
ATOM     13  C   UNL A   1      42.377  21.260  26.367  1.00  0.00     0.039 A 
ATOM     14  C   UNL A   1      42.548  21.403  27.743  1.00  0.00     0.014 A 
ATOM     15  C   UNL A   1      42.573  22.349  25.514  1.00  0.00     0.014 A 
ATOM     16  C   UNL A   1      42.694  22.670  28.279  1.00  0.00     0.010 A 
ATOM     17  C   UNL A   1      42.862  23.607  26.053  1.00  0.00     0.010 A 
ATOM     18  C   UNL A   1      42.883  23.786  27.443  1.00  0.00    -0.014 A 
BRANCH  18  19
ATOM     19  C   UNL A   1      43.164  25.092  28.090  1.00  0.00     0.031 A 
ATOM     20  C   UNL A   1      44.566  25.596  28.289  1.00  0.00     0.074 A 
ATOM     21  C   UNL A   1      42.110  25.874  28.396  1.00  0.00     0.049 A 
ATOM     22  N   UNL A   1      44.956  26.759  28.750  1.00  0.00    -0.248 NA
ATOM     23  C   UNL A   1      45.671  24.689  27.945  1.00  0.00     0.031 C 
ATOM     24  C   UNL A   1      40.704  25.482  28.251  1.00  0.00     0.029 A 
ATOM     25  N   UNL A   1      42.046  27.176  28.817  1.00  0.00    -0.354 N 
ATOM     26  C   UNL A   1      46.343  26.711  28.785  1.00  0.00     0.074 A 
ATOM     27  C   UNL A   1      46.732  25.403  28.304  1.00  0.00     0.031 C 
ATOM     28  C   UNL A   1      39.925  26.550  28.460  1.00  0.00     0.029 A 
ATOM     29  C   UNL A   1      40.766  27.674  28.846  1.00  0.00     0.049 A 
ATOM     30  H   UNL A   1      42.839  27.702  29.072  1.00  0.00     0.167 HD
ATOM     31  C   UNL A   1      47.211  27.670  29.191  1.00  0.00     0.031 A 
ATOM     32  C   UNL A   1      40.311  28.901  29.154  1.00  0.00     0.031 A 
ATOM     33  C   UNL A   1      46.818  28.974  29.656  1.00  0.00     0.049 A 
ATOM     34  C   UNL A   1      41.296  29.950  29.562  1.00  0.00     0.074 A 
ATOM     35  C   UNL A   1      47.619  30.010  30.107  1.00  0.00     0.029 A 
ATOM     36  N   UNL A   1      45.509  29.428  29.720  1.00  0.00    -0.354 N 
ATOM     37  N   UNL A   1      42.602  29.873  29.618  1.00  0.00    -0.248 NA
ATOM     38  C   UNL A   1      40.743  31.247  29.967  1.00  0.00     0.031 C 
ATOM     39  C   UNL A   1      46.792  31.080  30.468  1.00  0.00     0.029 A 
ATOM     40  C   UNL A   1      45.480  30.725  30.206  1.00  0.00     0.049 A 
ATOM     41  H   UNL A   1      44.717  28.905  29.459  1.00  0.00     0.167 HD
ATOM     42  C   UNL A   1      43.030  31.104  30.087  1.00  0.00     0.074 A 
ATOM     43  C   UNL A   1      41.846  31.926  30.250  1.00  0.00     0.031 C 
ATOM     44  C   UNL A   1      44.288  31.512  30.380  1.00  0.00     0.031 A 
BRANCH  31  45
ATOM     45  C   UNL A   1      48.676  27.334  29.180  1.00  0.00    -0.014 A 
ATOM     46  C   UNL A   1      49.290  26.707  30.275  1.00  0.00     0.009 A 
ATOM     47  C   UNL A   1      49.441  27.599  28.032  1.00  0.00     0.009 A 
ATOM     48  C   UNL A   1      50.646  26.371  30.227  1.00  0.00     0.001 A 
ATOM     49  C   UNL A   1      50.790  27.243  27.981  1.00  0.00     0.001 A 
ATOM     50  C   UNL A   1      51.393  26.634  29.080  1.00  0.00     0.000 A 
ENDBRANCH  31  45
BRANCH  32  51
ATOM     51  C   UNL A   1      38.852  29.175  29.114  1.00  0.00    -0.014 A 
ATOM     52  C   UNL A   1      38.065  29.038  30.266  1.00  0.00     0.009 A 
ATOM     53  C   UNL A   1      38.250  29.616  27.925  1.00  0.00     0.009 A 
ATOM     54  C   UNL A   1      36.698  29.328  30.223  1.00  0.00     0.001 A 
ATOM     55  C   UNL A   1      36.892  29.935  27.893  1.00  0.00     0.001 A 
ATOM     56  C   UNL A   1      36.116  29.785  29.040  1.00  0.00     0.000 A 
ENDBRANCH  32  51
BRANCH  44  57
ATOM     57  C   UNL A   1      44.426  32.906  30.915  1.00  0.00    -0.014 A 
ATOM     58  C   UNL A   1      44.357  33.152  32.296  1.00  0.00     0.009 A 
ATOM     59  C   UNL A   1      44.616  33.980  30.034  1.00  0.00     0.009 A 
ATOM     60  C   UNL A   1      44.437  34.458  32.781  1.00  0.00     0.001 A 
ATOM     61  C   UNL A   1      44.718  35.282  30.526  1.00  0.00     0.001 A 
ATOM     62  C   UNL A   1      44.617  35.520  31.896  1.00  0.00     0.000 A 
ENDBRANCH  44  57
ENDBRANCH  18  19
ENDBRANCH  11  13
ENDBRANCH   8   9
ENDBRANCH   7   8
ENDBRANCH   6   7
ENDBRANCH   5   6
ENDBRANCH   1   5
BRANCH   2  63
ATOM     63  C   UNL A   1      33.168  19.457  24.446  1.00  0.00     0.197 C 
BRANCH  63  64
ATOM     64  N   UNL A   1      32.474  19.766  23.205  1.00  0.00    -0.340 N 
ATOM     65  C   UNL A   1      32.152  20.978  22.668  1.00  0.00     0.244 C 
ATOM     66  H   UNL A   1      32.197  18.984  22.675  1.00  0.00     0.164 HD
ATOM     67  O   UNL A   1      31.800  20.993  21.485  1.00  0.00    -0.273 OA
BRANCH  65  68
ATOM     68  C   UNL A   1      32.337  22.292  23.477  1.00  0.00     0.181 C 
BRANCH  68  69
ATOM     69  N   UNL A   1      31.444  22.265  24.649  1.00  0.00    -0.342 N 
ATOM     70  C   UNL A   1      30.984  23.176  25.550  1.00  0.00     0.243 C 
ATOM     71  H   UNL A   1      31.092  21.362  24.824  1.00  0.00     0.164 HD
ATOM     72  O   UNL A   1      30.307  22.708  26.476  1.00  0.00    -0.273 OA
BRANCH  70  73
ATOM     73  C   UNL A   1      31.078  24.716  25.400  1.00  0.00     0.176 C 
BRANCH  73  74
ATOM     74  N   UNL A   1      29.832  25.265  24.862  1.00  0.00    -0.340 N 
ATOM     75  C   UNL A   1      29.660  26.215  23.888  1.00  0.00     0.251 C 
ATOM     76  H   UNL A   1      29.004  24.902  25.252  1.00  0.00     0.164 HD
ATOM     77  O   UNL A   1      28.528  26.552  23.569  1.00  0.00    -0.269 OA
BRANCH  75  78
ATOM     78  C   UNL A   1      30.838  26.906  23.328  1.00  0.00     0.040 A 
ATOM     79  C   UNL A   1      30.951  28.280  23.572  1.00  0.00     0.017 A 
ATOM     80  C   UNL A   1      31.843  26.217  22.636  1.00  0.00     0.017 A 
ATOM     81  C   UNL A   1      32.104  28.955  23.178  1.00  0.00     0.040 A 
ATOM     82  C   UNL A   1      33.003  26.896  22.261  1.00  0.00     0.040 A 
ATOM     83  C   UNL A   1      33.126  28.255  22.543  1.00  0.00     0.123 A 
ATOM     84  F   UNL A   1      34.249  28.899  22.202  1.00  0.00    -0.207 F 
ENDBRANCH  75  78
ENDBRANCH  73  74
BRANCH  73  85
ATOM     85  C   UNL A   1      31.505  25.445  26.687  1.00  0.00     0.070 C 
BRANCH  85  86
ATOM     86  C   UNL A   1      32.154  26.813  26.605  1.00  0.00    -0.045 A 
ATOM     87  C   UNL A   1      33.441  27.032  26.103  1.00  0.00     0.004 A 
ATOM     88  C   UNL A   1      31.475  27.900  27.188  1.00  0.00     0.004 A 
ATOM     89  C   UNL A   1      34.026  28.302  26.170  1.00  0.00     0.000 A 
ATOM     90  C   UNL A   1      32.058  29.167  27.251  1.00  0.00     0.000 A 
ATOM     91  C   UNL A   1      33.336  29.368  26.742  1.00  0.00     0.000 A 
ENDBRANCH  85  86
ENDBRANCH  73  85
ENDBRANCH  70  73
ENDBRANCH  68  69
BRANCH  68  92
ATOM     92  C   UNL A   1      33.818  22.303  23.929  1.00  0.00     0.101 C 
BRANCH  92  93
ATOM     93  S   UNL A   1      34.523  23.964  24.169  1.00  0.00    -0.177 SA
ATOM     94  H   UNL A   1      34.071  24.483  25.342  1.00  0.00     0.102 HD
ENDBRANCH  92  93
ENDBRANCH  68  92
ENDBRANCH  65  68
ENDBRANCH  63  64
BRANCH  63  95
ATOM     95  C   UNL A   1      32.201  18.909  25.510  1.00  0.00     0.191 C 
BRANCH  95  96
ATOM     96  O   UNL A   1      32.903  18.394  26.638  1.00  0.00    -0.394 OA
ATOM     97  H   UNL A   1      32.422  17.632  26.997  1.00  0.00     0.210 HD
ENDBRANCH  95  96
ENDBRANCH  63  95
ENDBRANCH   2  63
TORSDOF 23
ENDMDL
MODEL 2
REMARK VINA RESULT:     -10.9      1.245      5.601
REMARK SMILES O=C(NCCCCNC(=O)[C@H](CO)NC(=O)[C@H](CS)NC(=O)[C@H](Cc1ccccc1)NC(=O)c1ccc(F)cc1)c1ccc(-c2c3nc(c(-c4ccccc4)c4ccc([nH]4)c(-c4ccccc4)c4nc(c(-c5ccccc5)c5ccc2[nH]5)C=C4)C=C3)cc1
REMARK SMILES IDX 8 1 9 2 10 3 7 5 6 6 5 7 4 8 3 9 1 10 2 11 41 13 42 14 88 15
REMARK SMILES IDX 43 16 87 17 44 18 45 19 46 20 81 21 47 22 86 23 80 24 82 25
REMARK SMILES IDX 48 26 85 27 79 28 78 29 49 31 71 32 56 33 70 34 57 35 60 36
REMARK SMILES IDX 69 37 83 38 58 39 59 40 68 42 84 43 61 44 50 45 51 46 55 47
REMARK SMILES IDX 52 48 54 49 53 50 72 51 73 52 77 53 74 54 76 55 75 56 62 57
REMARK SMILES IDX 63 58 67 59 64 60 66 61 65 62 11 63 14 64 15 65 16 67 17 68
REMARK SMILES IDX 20 69 21 70 22 72 23 73 31 74 32 75 33 77 34 78 35 79 40 80
REMARK SMILES IDX 36 81 39 82 37 83 38 84 24 85 25 86 26 87 30 88 27 89 29 90
REMARK SMILES IDX 28 91 18 92 19 93 12 95 13 96
REMARK H PARENT 8 4 3 12 82 30 60 41 14 66 20 71 31 76 19 94 13 97
REMARK Flexibility Score: inf
ROOT
ATOM      1  N   UNL A   1      35.756  19.448  24.870  1.00  0.00    -0.354 N 
ATOM      2  C   UNL A   1      34.587  18.880  24.462  1.00  0.00     0.244 C 
ATOM      3  O   UNL A   1      34.655  17.695  24.113  1.00  0.00    -0.273 OA
ATOM      4  H   UNL A   1      36.532  18.844  24.804  1.00  0.00     0.163 HD
ENDROOT
BRANCH   1   5
ATOM      5  C   UNL A   1      36.090  20.767  25.385  1.00  0.00     0.116 C 
BRANCH   5   6
ATOM      6  C   UNL A   1      37.526  21.159  25.066  1.00  0.00     0.023 C 
BRANCH   6   7
ATOM      7  C   UNL A   1      38.541  20.026  25.022  1.00  0.00     0.023 C 
BRANCH   7   8
ATOM      8  C   UNL A   1      39.594  20.093  26.108  1.00  0.00     0.116 C 
BRANCH   8   9
ATOM      9  N   UNL A   1      40.581  19.021  26.053  1.00  0.00    -0.352 N 
ATOM     10  O   UNL A   1      42.679  18.154  26.005  1.00  0.00    -0.269 OA
ATOM     11  C   UNL A   1      41.954  19.133  26.134  1.00  0.00     0.251 C 
ATOM     12  H   UNL A   1      40.226  18.110  25.946  1.00  0.00     0.163 HD
BRANCH  11  13
ATOM     13  C   UNL A   1      42.540  20.477  26.325  1.00  0.00     0.039 A 
ATOM     14  C   UNL A   1      42.577  21.036  27.601  1.00  0.00     0.014 A 
ATOM     15  C   UNL A   1      42.958  21.219  25.217  1.00  0.00     0.014 A 
ATOM     16  C   UNL A   1      42.816  22.391  27.741  1.00  0.00     0.010 A 
ATOM     17  C   UNL A   1      43.336  22.556  25.383  1.00  0.00     0.010 A 
ATOM     18  C   UNL A   1      43.227  23.165  26.640  1.00  0.00    -0.014 A 
BRANCH  18  19
ATOM     19  C   UNL A   1      43.591  24.582  26.891  1.00  0.00     0.031 A 
ATOM     20  C   UNL A   1      42.593  25.581  27.404  1.00  0.00     0.074 A 
ATOM     21  C   UNL A   1      44.887  24.925  26.751  1.00  0.00     0.049 A 
ATOM     22  N   UNL A   1      42.796  26.826  27.760  1.00  0.00    -0.248 NA
ATOM     23  C   UNL A   1      41.193  25.147  27.524  1.00  0.00     0.031 C 
ATOM     24  C   UNL A   1      45.942  24.036  26.252  1.00  0.00     0.029 A 
ATOM     25  N   UNL A   1      45.556  26.075  27.080  1.00  0.00    -0.354 N 
ATOM     26  C   UNL A   1      41.550  27.332  28.110  1.00  0.00     0.074 A 
ATOM     27  C   UNL A   1      40.594  26.263  27.921  1.00  0.00     0.031 C 
ATOM     28  C   UNL A   1      47.131  24.626  26.419  1.00  0.00     0.029 A 
ATOM     29  C   UNL A   1      46.919  25.966  26.946  1.00  0.00     0.049 A 
ATOM     30  H   UNL A   1      45.104  26.896  27.382  1.00  0.00     0.167 HD
ATOM     31  C   UNL A   1      41.236  28.577  28.542  1.00  0.00     0.031 A 
ATOM     32  C   UNL A   1      47.897  26.848  27.212  1.00  0.00     0.031 A 
ATOM     33  C   UNL A   1      42.196  29.632  28.740  1.00  0.00     0.049 A 
ATOM     34  C   UNL A   1      47.523  28.203  27.723  1.00  0.00     0.074 A 
ATOM     35  C   UNL A   1      41.976  30.935  29.158  1.00  0.00     0.029 A 
ATOM     36  N   UNL A   1      43.562  29.503  28.547  1.00  0.00    -0.354 N 
ATOM     37  N   UNL A   1      46.335  28.670  28.017  1.00  0.00    -0.248 NA
ATOM     38  C   UNL A   1      48.620  29.157  27.920  1.00  0.00     0.031 C 
ATOM     39  C   UNL A   1      43.207  31.600  29.190  1.00  0.00     0.029 A 
ATOM     40  C   UNL A   1      44.197  30.700  28.831  1.00  0.00     0.049 A 
ATOM     41  H   UNL A   1      44.015  28.680  28.251  1.00  0.00     0.167 HD
ATOM     42  C   UNL A   1      46.536  29.982  28.414  1.00  0.00     0.074 A 
ATOM     43  C   UNL A   1      47.966  30.219  28.371  1.00  0.00     0.031 C 
ATOM     44  C   UNL A   1      45.618  30.916  28.760  1.00  0.00     0.031 A 
BRANCH  31  45
ATOM     45  C   UNL A   1      39.787  28.881  28.800  1.00  0.00    -0.014 A 
ATOM     46  C   UNL A   1      38.937  29.316  27.772  1.00  0.00     0.009 A 
ATOM     47  C   UNL A   1      39.251  28.672  30.082  1.00  0.00     0.009 A 
ATOM     48  C   UNL A   1      37.584  29.557  28.028  1.00  0.00     0.001 A 
ATOM     49  C   UNL A   1      37.894  28.893  30.328  1.00  0.00     0.001 A 
ATOM     50  C   UNL A   1      37.063  29.340  29.302  1.00  0.00     0.000 A 
ENDBRANCH  31  45
BRANCH  32  51
ATOM     51  C   UNL A   1      49.313  26.473  26.964  1.00  0.00    -0.014 A 
ATOM     52  C   UNL A   1      50.167  26.154  28.029  1.00  0.00     0.009 A 
ATOM     53  C   UNL A   1      49.802  26.396  25.650  1.00  0.00     0.009 A 
ATOM     54  C   UNL A   1      51.489  25.774  27.781  1.00  0.00     0.001 A 
ATOM     55  C   UNL A   1      51.112  25.986  25.404  1.00  0.00     0.001 A 
ATOM     56  C   UNL A   1      51.957  25.682  26.470  1.00  0.00     0.000 A 
ENDBRANCH  32  51
BRANCH  44  57
ATOM     57  C   UNL A   1      46.151  32.275  29.104  1.00  0.00    -0.014 A 
ATOM     58  C   UNL A   1      46.509  32.589  30.425  1.00  0.00     0.009 A 
ATOM     59  C   UNL A   1      46.288  33.248  28.105  1.00  0.00     0.009 A 
ATOM     60  C   UNL A   1      46.958  33.871  30.745  1.00  0.00     0.001 A 
ATOM     61  C   UNL A   1      46.759  34.522  28.426  1.00  0.00     0.001 A 
ATOM     62  C   UNL A   1      47.082  34.835  29.746  1.00  0.00     0.000 A 
ENDBRANCH  44  57
ENDBRANCH  18  19
ENDBRANCH  11  13
ENDBRANCH   8   9
ENDBRANCH   7   8
ENDBRANCH   6   7
ENDBRANCH   5   6
ENDBRANCH   1   5
BRANCH   2  63
ATOM     63  C   UNL A   1      33.199  19.565  24.599  1.00  0.00     0.197 C 
BRANCH  63  64
ATOM     64  N   UNL A   1      32.498  19.837  23.354  1.00  0.00    -0.340 N 
ATOM     65  C   UNL A   1      32.155  21.032  22.793  1.00  0.00     0.244 C 
ATOM     66  H   UNL A   1      32.233  19.041  22.840  1.00  0.00     0.164 HD
ATOM     67  O   UNL A   1      31.800  21.018  21.612  1.00  0.00    -0.273 OA
BRANCH  65  68
ATOM     68  C   UNL A   1      32.321  22.365  23.576  1.00  0.00     0.181 C 
BRANCH  68  69
ATOM     69  N   UNL A   1      31.523  22.299  24.813  1.00  0.00    -0.342 N 
ATOM     70  C   UNL A   1      31.069  23.193  25.734  1.00  0.00     0.243 C 
ATOM     71  H   UNL A   1      31.251  21.377  25.027  1.00  0.00     0.164 HD
ATOM     72  O   UNL A   1      30.500  22.697  26.716  1.00  0.00    -0.273 OA
BRANCH  70  73
ATOM     73  C   UNL A   1      31.042  24.733  25.555  1.00  0.00     0.176 C 
BRANCH  73  74
ATOM     74  N   UNL A   1      29.737  25.177  25.063  1.00  0.00    -0.340 N 
ATOM     75  C   UNL A   1      29.453  26.133  24.121  1.00  0.00     0.251 C 
ATOM     76  H   UNL A   1      28.957  24.729  25.462  1.00  0.00     0.164 HD
ATOM     77  O   UNL A   1      28.286  26.371  23.838  1.00  0.00    -0.269 OA
BRANCH  75  78
ATOM     78  C   UNL A   1      30.547  26.945  23.553  1.00  0.00     0.040 A 
ATOM     79  C   UNL A   1      30.569  28.306  23.876  1.00  0.00     0.017 A 
ATOM     80  C   UNL A   1      31.564  26.377  22.775  1.00  0.00     0.017 A 
ATOM     81  C   UNL A   1      31.648  29.091  23.474  1.00  0.00     0.040 A 
ATOM     82  C   UNL A   1      32.651  27.165  22.392  1.00  0.00     0.040 A 
ATOM     83  C   UNL A   1      32.686  28.510  22.752  1.00  0.00     0.123 A 
ATOM     84  F   UNL A   1      33.740  29.258  22.402  1.00  0.00    -0.207 F 
ENDBRANCH  75  78
ENDBRANCH  73  74
BRANCH  73  85
ATOM     85  C   UNL A   1      31.467  25.516  26.810  1.00  0.00     0.070 C 
BRANCH  85  86
ATOM     86  C   UNL A   1      32.196  26.838  26.670  1.00  0.00    -0.045 A 
ATOM     87  C   UNL A   1      33.477  26.962  26.123  1.00  0.00     0.004 A 
ATOM     88  C   UNL A   1      31.605  27.980  27.243  1.00  0.00     0.004 A 
ATOM     89  C   UNL A   1      34.143  28.194  26.136  1.00  0.00     0.000 A 
ATOM     90  C   UNL A   1      32.268  29.209  27.252  1.00  0.00     0.000 A 
ATOM     91  C   UNL A   1      33.539  29.315  26.699  1.00  0.00     0.000 A 
ENDBRANCH  85  86
ENDBRANCH  73  85
ENDBRANCH  70  73
ENDBRANCH  68  69
BRANCH  68  92
ATOM     92  C   UNL A   1      33.828  22.472  23.911  1.00  0.00     0.101 C 
BRANCH  92  93
ATOM     93  S   UNL A   1      34.494  24.166  23.868  1.00  0.00    -0.177 SA
ATOM     94  H   UNL A   1      34.656  24.557  22.575  1.00  0.00     0.102 HD
ENDBRANCH  92  93
ENDBRANCH  68  92
ENDBRANCH  65  68
ENDBRANCH  63  64
BRANCH  63  95
ATOM     95  C   UNL A   1      32.319  18.768  25.578  1.00  0.00     0.191 C 
BRANCH  95  96
ATOM     96  O   UNL A   1      32.904  18.709  26.876  1.00  0.00    -0.394 OA
ATOM     97  H   UNL A   1      32.211  18.547  27.535  1.00  0.00     0.210 HD
ENDBRANCH  95  96
ENDBRANCH  63  95
ENDBRANCH   2  63
TORSDOF 23
ENDMDL
MODEL 3
REMARK VINA RESULT:     -10.6      2.086      6.196
REMARK SMILES O=C(NCCCCNC(=O)[C@H](CO)NC(=O)[C@H](CS)NC(=O)[C@H](Cc1ccccc1)NC(=O)c1ccc(F)cc1)c1ccc(-c2c3nc(c(-c4ccccc4)c4ccc([nH]4)c(-c4ccccc4)c4nc(c(-c5ccccc5)c5ccc2[nH]5)C=C4)C=C3)cc1
REMARK SMILES IDX 8 1 9 2 10 3 7 5 6 6 5 7 4 8 3 9 1 10 2 11 41 13 42 14 88 15
REMARK SMILES IDX 43 16 87 17 44 18 45 19 46 20 81 21 47 22 86 23 80 24 82 25
REMARK SMILES IDX 48 26 85 27 79 28 78 29 49 31 71 32 56 33 70 34 57 35 60 36
REMARK SMILES IDX 69 37 83 38 58 39 59 40 68 42 84 43 61 44 50 45 51 46 55 47
REMARK SMILES IDX 52 48 54 49 53 50 72 51 73 52 77 53 74 54 76 55 75 56 62 57
REMARK SMILES IDX 63 58 67 59 64 60 66 61 65 62 11 63 14 64 15 65 16 67 17 68
REMARK SMILES IDX 20 69 21 70 22 72 23 73 31 74 32 75 33 77 34 78 35 79 40 80
REMARK SMILES IDX 36 81 39 82 37 83 38 84 24 85 25 86 26 87 30 88 27 89 29 90
REMARK SMILES IDX 28 91 18 92 19 93 12 95 13 96
REMARK H PARENT 8 4 3 12 82 30 60 41 14 66 20 71 31 76 19 94 13 97
REMARK Flexibility Score: inf
ROOT
ATOM      1  N   UNL A   1      35.600  21.579  26.599  1.00  0.00    -0.354 N 
ATOM      2  C   UNL A   1      34.258  21.727  26.414  1.00  0.00     0.244 C 
ATOM      3  O   UNL A   1      33.587  21.892  27.440  1.00  0.00    -0.273 OA
ATOM      4  H   UNL A   1      35.870  21.589  27.546  1.00  0.00     0.163 HD
ENDROOT
BRANCH   1   5
ATOM      5  C   UNL A   1      36.715  21.411  25.680  1.00  0.00     0.116 C 
BRANCH   5   6
ATOM      6  C   UNL A   1      36.696  20.050  24.999  1.00  0.00     0.023 C 
BRANCH   6   7
ATOM      7  C   UNL A   1      38.038  19.345  24.862  1.00  0.00     0.023 C 
BRANCH   7   8
ATOM      8  C   UNL A   1      39.072  19.775  25.880  1.00  0.00     0.116 C 
BRANCH   8   9
ATOM      9  N   UNL A   1      40.298  18.985  25.860  1.00  0.00    -0.352 N 
ATOM     10  O   UNL A   1      42.539  18.657  26.007  1.00  0.00    -0.269 OA
ATOM     11  C   UNL A   1      41.583  19.413  26.125  1.00  0.00     0.251 C 
ATOM     12  H   UNL A   1      40.197  18.034  25.630  1.00  0.00     0.163 HD
BRANCH  11  13
ATOM     13  C   UNL A   1      41.789  20.826  26.505  1.00  0.00     0.039 A 
ATOM     14  C   UNL A   1      41.820  21.807  25.516  1.00  0.00     0.014 A 
ATOM     15  C   UNL A   1      42.054  21.158  27.837  1.00  0.00     0.014 A 
ATOM     16  C   UNL A   1      42.327  23.058  25.817  1.00  0.00     0.010 A 
ATOM     17  C   UNL A   1      42.431  22.465  28.162  1.00  0.00     0.010 A 
ATOM     18  C   UNL A   1      42.612  23.416  27.147  1.00  0.00    -0.014 A 
BRANCH  18  19
ATOM     19  C   UNL A   1      43.028  24.816  27.411  1.00  0.00     0.031 A 
ATOM     20  C   UNL A   1      42.082  25.833  27.984  1.00  0.00     0.074 A 
ATOM     21  C   UNL A   1      44.327  25.124  27.225  1.00  0.00     0.049 A 
ATOM     22  N   UNL A   1      42.335  27.064  28.356  1.00  0.00    -0.248 NA
ATOM     23  C   UNL A   1      40.676  25.437  28.152  1.00  0.00     0.031 C 
ATOM     24  C   UNL A   1      45.334  24.216  26.665  1.00  0.00     0.029 A 
ATOM     25  N   UNL A   1      45.042  26.247  27.549  1.00  0.00    -0.354 N 
ATOM     26  C   UNL A   1      41.121  27.598  28.766  1.00  0.00     0.074 A 
ATOM     27  C   UNL A   1      40.126  26.561  28.595  1.00  0.00     0.031 C 
ATOM     28  C   UNL A   1      46.546  24.767  26.796  1.00  0.00     0.029 A 
ATOM     29  C   UNL A   1      46.395  26.102  27.357  1.00  0.00     0.049 A 
ATOM     30  H   UNL A   1      44.627  27.074  27.885  1.00  0.00     0.167 HD
ATOM     31  C   UNL A   1      40.861  28.843  29.235  1.00  0.00     0.031 A 
ATOM     32  C   UNL A   1      47.409  26.950  27.600  1.00  0.00     0.031 A 
ATOM     33  C   UNL A   1      41.859  29.865  29.415  1.00  0.00     0.049 A 
ATOM     34  C   UNL A   1      47.096  28.304  28.153  1.00  0.00     0.074 A 
ATOM     35  C   UNL A   1      41.695  31.164  29.866  1.00  0.00     0.029 A 
ATOM     36  N   UNL A   1      43.213  29.700  29.163  1.00  0.00    -0.354 N 
ATOM     37  N   UNL A   1      45.935  28.799  28.505  1.00  0.00    -0.248 NA
ATOM     38  C   UNL A   1      48.228  29.221  28.324  1.00  0.00     0.031 C 
ATOM     39  C   UNL A   1      42.946  31.792  29.861  1.00  0.00     0.029 A 
ATOM     40  C   UNL A   1      43.894  30.873  29.445  1.00  0.00     0.049 A 
ATOM     41  H   UNL A   1      43.628  28.871  28.833  1.00  0.00     0.167 HD
ATOM     42  C   UNL A   1      46.191  30.096  28.918  1.00  0.00     0.074 A 
ATOM     43  C   UNL A   1      47.625  30.292  28.821  1.00  0.00     0.031 C 
ATOM     44  C   UNL A   1      45.316  31.049  29.320  1.00  0.00     0.031 A 
BRANCH  31  45
ATOM     45  C   UNL A   1      39.433  29.183  29.558  1.00  0.00    -0.014 A 
ATOM     46  C   UNL A   1      38.858  28.827  30.787  1.00  0.00     0.009 A 
ATOM     47  C   UNL A   1      38.670  29.921  28.639  1.00  0.00     0.009 A 
ATOM     48  C   UNL A   1      37.539  29.186  31.080  1.00  0.00     0.001 A 
ATOM     49  C   UNL A   1      37.360  30.297  28.944  1.00  0.00     0.001 A 
ATOM     50  C   UNL A   1      36.794  29.925  30.162  1.00  0.00     0.000 A 
ENDBRANCH  31  45
BRANCH  32  51
ATOM     51  C   UNL A   1      48.802  26.539  27.287  1.00  0.00    -0.014 A 
ATOM     52  C   UNL A   1      49.597  25.907  28.253  1.00  0.00     0.009 A 
ATOM     53  C   UNL A   1      49.326  26.746  26.001  1.00  0.00     0.009 A 
ATOM     54  C   UNL A   1      50.896  25.499  27.937  1.00  0.00     0.001 A 
ATOM     55  C   UNL A   1      50.611  26.309  25.680  1.00  0.00     0.001 A 
ATOM     56  C   UNL A   1      51.398  25.692  26.650  1.00  0.00     0.000 A 
ENDBRANCH  32  51
BRANCH  44  57
ATOM     57  C   UNL A   1      45.903  32.384  29.668  1.00  0.00    -0.014 A 
ATOM     58  C   UNL A   1      46.349  32.651  30.973  1.00  0.00     0.009 A 
ATOM     59  C   UNL A   1      46.003  33.383  28.691  1.00  0.00     0.009 A 
ATOM     60  C   UNL A   1      46.848  33.911  31.301  1.00  0.00     0.001 A 
ATOM     61  C   UNL A   1      46.524  34.636  29.017  1.00  0.00     0.001 A 
ATOM     62  C   UNL A   1      46.935  34.902  30.323  1.00  0.00     0.000 A 
ENDBRANCH  44  57
ENDBRANCH  18  19
ENDBRANCH  11  13
ENDBRANCH   8   9
ENDBRANCH   7   8
ENDBRANCH   6   7
ENDBRANCH   5   6
ENDBRANCH   1   5
BRANCH   2  63
ATOM     63  C   UNL A   1      33.590  21.888  25.020  1.00  0.00     0.197 C 
BRANCH  63  64
ATOM     64  N   UNL A   1      34.420  22.479  23.982  1.00  0.00    -0.340 N 
ATOM     65  C   UNL A   1      34.385  23.735  23.452  1.00  0.00     0.244 C 
ATOM     66  H   UNL A   1      35.109  21.884  23.607  1.00  0.00     0.164 HD
ATOM     67  O   UNL A   1      35.354  24.086  22.773  1.00  0.00    -0.273 OA
BRANCH  65  68
ATOM     68  C   UNL A   1      33.231  24.720  23.790  1.00  0.00     0.181 C 
BRANCH  68  69
ATOM     69  N   UNL A   1      33.714  26.102  23.629  1.00  0.00    -0.342 N 
ATOM     70  C   UNL A   1      33.142  27.330  23.491  1.00  0.00     0.243 C 
ATOM     71  H   UNL A   1      34.698  26.150  23.619  1.00  0.00     0.164 HD
ATOM     72  O   UNL A   1      33.931  28.260  23.272  1.00  0.00    -0.273 OA
BRANCH  70  73
ATOM     73  C   UNL A   1      31.654  27.665  23.771  1.00  0.00     0.176 C 
BRANCH  73  74
ATOM     74  N   UNL A   1      31.212  27.063  25.030  1.00  0.00    -0.340 N 
ATOM     75  C   UNL A   1      31.457  27.477  26.314  1.00  0.00     0.251 C 
ATOM     76  H   UNL A   1      30.664  26.250  24.943  1.00  0.00     0.164 HD
ATOM     77  O   UNL A   1      31.000  26.835  27.250  1.00  0.00    -0.269 OA
BRANCH  75  78
ATOM     78  C   UNL A   1      32.368  28.613  26.552  1.00  0.00     0.040 A 
ATOM     79  C   UNL A   1      31.788  29.878  26.705  1.00  0.00     0.017 A 
ATOM     80  C   UNL A   1      33.751  28.440  26.686  1.00  0.00     0.017 A 
ATOM     81  C   UNL A   1      32.587  30.963  27.058  1.00  0.00     0.040 A 
ATOM     82  C   UNL A   1      34.543  29.527  27.058  1.00  0.00     0.040 A 
ATOM     83  C   UNL A   1      33.953  30.775  27.248  1.00  0.00     0.123 A 
ATOM     84  F   UNL A   1      34.712  31.811  27.626  1.00  0.00    -0.207 F 
ENDBRANCH  75  78
ENDBRANCH  73  74
BRANCH  73  85
ATOM     85  C   UNL A   1      31.332  29.170  23.723  1.00  0.00     0.070 C 
BRANCH  85  86
ATOM     86  C   UNL A   1      29.899  29.635  23.556  1.00  0.00    -0.045 A 
ATOM     87  C   UNL A   1      28.892  28.853  22.981  1.00  0.00     0.004 A 
ATOM     88  C   UNL A   1      29.599  30.972  23.877  1.00  0.00     0.004 A 
ATOM     89  C   UNL A   1      27.620  29.388  22.744  1.00  0.00     0.000 A 
ATOM     90  C   UNL A   1      28.329  31.504  23.645  1.00  0.00     0.000 A 
ATOM     91  C   UNL A   1      27.339  30.710  23.076  1.00  0.00     0.000 A 
ENDBRANCH  85  86
ENDBRANCH  73  85
ENDBRANCH  70  73
ENDBRANCH  68  69
BRANCH  68  92
ATOM     92  C   UNL A   1      32.108  24.419  22.767  1.00  0.00     0.101 C 
BRANCH  92  93
ATOM     93  S   UNL A   1      30.607  23.682  23.487  1.00  0.00    -0.177 SA
ATOM     94  H   UNL A   1      30.677  23.746  24.843  1.00  0.00     0.102 HD
ENDBRANCH  92  93
ENDBRANCH  68  92
ENDBRANCH  65  68
ENDBRANCH  63  64
BRANCH  63  95
ATOM     95  C   UNL A   1      32.996  20.543  24.569  1.00  0.00     0.191 C 
BRANCH  95  96
ATOM     96  O   UNL A   1      31.980  20.095  25.462  1.00  0.00    -0.394 OA
ATOM     97  H   UNL A   1      31.939  20.689  26.228  1.00  0.00     0.210 HD
ENDBRANCH  95  96
ENDBRANCH  63  95
ENDBRANCH   2  63
TORSDOF 23
ENDMDL
