MODEL 1
REMARK VINA RESULT:     -10.4      0.000      0.000
REMARK SMILES CCC[C@@H](CNC(=O)N1C[C@@H](C)[C@H](C(=O)OC)C1)C(=O)NCCCCNC(=O)c1ccc(-c2c3nc(c(-c4ccccc4)c4ccc([nH]4)c(-c4ccccc4)c4nc(c(-c5ccccc5)c5ccc2[nH]5)C=C4)C=C3)cc1
REMARK SMILES IDX 22 1 21 2 19 3 20 4 4 6 3 7 2 8 1 9 5 10 6 11 7 12 8 14 9 15
REMARK SMILES IDX 10 16 18 17 11 18 13 19 12 20 14 21 15 22 16 23 17 24 23 25
REMARK SMILES IDX 24 26 25 27 26 28 27 29 28 31 29 32 30 33 76 34 31 35 75 36
REMARK SMILES IDX 32 37 33 38 34 39 69 40 35 41 74 42 68 43 70 44 36 45 73 46
REMARK SMILES IDX 67 47 66 48 37 50 59 51 44 52 58 53 45 54 48 55 57 56 71 57
REMARK SMILES IDX 46 58 47 59 56 61 72 62 49 63 38 64 39 65 43 66 40 67 42 68
REMARK SMILES IDX 41 69 60 70 61 71 65 72 62 73 64 74 63 75 50 76 51 77 55 78
REMARK SMILES IDX 52 79 54 80 53 81
REMARK H PARENT 21 5 6 13 26 30 70 49 48 60
REMARK Flexibility Score: inf
ROOT
ATOM      1  C   UNL A   1      33.140  29.437  26.656  1.00  0.00     0.116 C 
ENDROOT
BRANCH   1   2
ATOM      2  N   UNL A   1      33.495  29.418  25.252  1.00  0.00    -0.356 N 
ATOM      3  C   UNL A   1      32.775  29.086  24.151  1.00  0.00     0.224 C 
ATOM      4  O   UNL A   1      33.292  29.311  23.052  1.00  0.00    -0.275 OA
ATOM      5  H   UNL A   1      34.421  29.697  25.064  1.00  0.00     0.163 HD
BRANCH   3   6
ATOM      6  C   UNL A   1      31.384  28.463  24.210  1.00  0.00     0.097 C 
BRANCH   6   7
ATOM      7  C   UNL A   1      30.269  29.345  23.622  1.00  0.00     0.015 C 
BRANCH   7   8
ATOM      8  C   UNL A   1      29.187  28.604  22.823  1.00  0.00    -0.003 C 
ATOM      9  C   UNL A   1      27.824  29.276  22.833  1.00  0.00     0.004 C 
ENDBRANCH   7   8
ENDBRANCH   6   7
BRANCH   6  10
ATOM     10  C   UNL A   1      31.365  26.966  23.854  1.00  0.00     0.131 C 
BRANCH  10  11
ATOM     11  N   UNL A   1      32.188  26.533  22.736  1.00  0.00    -0.337 N 
ATOM     12  C   UNL A   1      32.966  25.420  22.629  1.00  0.00     0.317 C 
ATOM     13  H   UNL A   1      32.183  27.126  21.950  1.00  0.00     0.165 HD
ATOM     14  O   UNL A   1      33.866  25.403  21.792  1.00  0.00    -0.249 OA
BRANCH  12  15
ATOM     15  N   UNL A   1      32.791  24.431  23.545  1.00  0.00    -0.324 N 
ATOM     16  C   UNL A   1      32.434  23.070  23.219  1.00  0.00     0.125 C 
ATOM     17  C   UNL A   1      33.489  24.431  24.813  1.00  0.00     0.137 C 
ATOM     18  C   UNL A   1      32.000  22.508  24.565  1.00  0.00     0.021 C 
ATOM     19  C   UNL A   1      32.856  23.283  25.607  1.00  0.00     0.123 C 
ATOM     20  C   UNL A   1      32.172  21.000  24.646  1.00  0.00     0.010 C 
BRANCH  19  21
ATOM     21  C   UNL A   1      31.981  23.702  26.778  1.00  0.00     0.310 C 
ATOM     22  O   UNL A   1      31.166  24.614  26.692  1.00  0.00    -0.252 OA
BRANCH  21  23
ATOM     23  O   UNL A   1      32.154  22.924  27.879  1.00  0.00    -0.469 OA
ATOM     24  C   UNL A   1      33.398  22.219  27.943  1.00  0.00     0.282 C 
ENDBRANCH  21  23
ENDBRANCH  19  21
ENDBRANCH  12  15
ENDBRANCH  10  11
ENDBRANCH   6  10
ENDBRANCH   3   6
ENDBRANCH   1   2
BRANCH   1  25
ATOM     25  C   UNL A   1      31.783  30.083  26.901  1.00  0.00     0.023 C 
BRANCH  25  26
ATOM     26  C   UNL A   1      31.765  31.598  26.688  1.00  0.00     0.023 C 
BRANCH  26  27
ATOM     27  C   UNL A   1      32.930  32.365  27.311  1.00  0.00     0.116 C 
BRANCH  27  28
ATOM     28  N   UNL A   1      32.586  33.724  27.708  1.00  0.00    -0.352 N 
ATOM     29  C   UNL A   1      33.227  34.555  28.597  1.00  0.00     0.251 C 
ATOM     30  H   UNL A   1      31.782  34.099  27.280  1.00  0.00     0.163 HD
ATOM     31  O   UNL A   1      32.749  35.636  28.908  1.00  0.00    -0.269 OA
BRANCH  29  32
ATOM     32  C   UNL A   1      34.493  34.101  29.206  1.00  0.00     0.039 A 
ATOM     33  C   UNL A   1      34.453  33.437  30.433  1.00  0.00     0.014 A 
ATOM     34  C   UNL A   1      35.702  34.277  28.528  1.00  0.00     0.014 A 
ATOM     35  C   UNL A   1      35.619  32.860  30.939  1.00  0.00     0.010 A 
ATOM     36  C   UNL A   1      36.847  33.648  29.000  1.00  0.00     0.010 A 
ATOM     37  C   UNL A   1      36.812  32.919  30.200  1.00  0.00    -0.014 A 
BRANCH  37  38
ATOM     38  C   UNL A   1      38.035  32.204  30.638  1.00  0.00     0.031 A 
ATOM     39  C   UNL A   1      38.960  32.842  31.634  1.00  0.00     0.074 A 
ATOM     40  C   UNL A   1      38.368  31.034  30.059  1.00  0.00     0.049 A 
ATOM     41  N   UNL A   1      40.146  32.451  32.028  1.00  0.00    -0.248 NA
ATOM     42  C   UNL A   1      38.504  34.099  32.247  1.00  0.00     0.031 C 
ATOM     43  C   UNL A   1      37.573  30.325  29.053  1.00  0.00     0.029 A 
ATOM     44  N   UNL A   1      39.478  30.243  30.222  1.00  0.00    -0.354 N 
ATOM     45  C   UNL A   1      40.589  33.429  32.908  1.00  0.00     0.074 A 
ATOM     46  C   UNL A   1      39.561  34.447  32.965  1.00  0.00     0.031 C 
ATOM     47  C   UNL A   1      38.214  29.198  28.700  1.00  0.00     0.029 A 
ATOM     48  C   UNL A   1      39.482  29.128  29.419  1.00  0.00     0.049 A 
ATOM     49  H   UNL A   1      40.202  30.454  30.855  1.00  0.00     0.167 HD
ATOM     50  C   UNL A   1      41.742  33.471  33.616  1.00  0.00     0.031 A 
ATOM     51  C   UNL A   1      40.411  28.165  29.265  1.00  0.00     0.031 A 
ATOM     52  C   UNL A   1      42.754  32.450  33.576  1.00  0.00     0.049 A 
ATOM     53  C   UNL A   1      41.685  28.239  30.056  1.00  0.00     0.074 A 
ATOM     54  C   UNL A   1      43.930  32.375  34.302  1.00  0.00     0.029 A 
ATOM     55  N   UNL A   1      42.707  31.326  32.768  1.00  0.00    -0.354 N 
ATOM     56  N   UNL A   1      42.068  29.144  30.922  1.00  0.00    -0.248 NA
ATOM     57  C   UNL A   1      42.655  27.153  29.850  1.00  0.00     0.031 C 
ATOM     58  C   UNL A   1      44.614  31.222  33.904  1.00  0.00     0.029 A 
ATOM     59  C   UNL A   1      43.842  30.559  32.964  1.00  0.00     0.049 A 
ATOM     60  H   UNL A   1      41.976  31.106  32.146  1.00  0.00     0.167 HD
ATOM     61  C   UNL A   1      43.308  28.725  31.385  1.00  0.00     0.074 A 
ATOM     62  C   UNL A   1      43.611  27.479  30.710  1.00  0.00     0.031 C 
ATOM     63  C   UNL A   1      44.123  29.319  32.289  1.00  0.00     0.031 A 
BRANCH  50  64
ATOM     64  C   UNL A   1      41.971  34.671  34.488  1.00  0.00    -0.014 A 
ATOM     65  C   UNL A   1      41.554  34.685  35.828  1.00  0.00     0.009 A 
ATOM     66  C   UNL A   1      42.637  35.793  33.971  1.00  0.00     0.009 A 
ATOM     67  C   UNL A   1      41.766  35.814  36.622  1.00  0.00     0.001 A 
ATOM     68  C   UNL A   1      42.872  36.909  34.775  1.00  0.00     0.001 A 
ATOM     69  C   UNL A   1      42.428  36.923  36.097  1.00  0.00     0.000 A 
ENDBRANCH  50  64
BRANCH  51  70
ATOM     70  C   UNL A   1      40.169  27.043  28.324  1.00  0.00    -0.014 A 
ATOM     71  C   UNL A   1      39.434  25.921  28.735  1.00  0.00     0.009 A 
ATOM     72  C   UNL A   1      40.673  27.083  27.014  1.00  0.00     0.009 A 
ATOM     73  C   UNL A   1      39.228  24.850  27.862  1.00  0.00     0.001 A 
ATOM     74  C   UNL A   1      40.443  26.022  26.135  1.00  0.00     0.001 A 
ATOM     75  C   UNL A   1      39.729  24.903  26.562  1.00  0.00     0.000 A 
ENDBRANCH  51  70
BRANCH  63  76
ATOM     76  C   UNL A   1      45.400  28.610  32.635  1.00  0.00    -0.014 A 
ATOM     77  C   UNL A   1      45.445  27.650  33.657  1.00  0.00     0.009 A 
ATOM     78  C   UNL A   1      46.560  28.869  31.888  1.00  0.00     0.009 A 
ATOM     79  C   UNL A   1      46.635  26.977  33.938  1.00  0.00     0.001 A 
ATOM     80  C   UNL A   1      47.742  28.179  32.157  1.00  0.00     0.001 A 
ATOM     81  C   UNL A   1      47.780  27.239  33.185  1.00  0.00     0.000 A 
ENDBRANCH  63  76
ENDBRANCH  37  38
ENDBRANCH  29  32
ENDBRANCH  27  28
ENDBRANCH  26  27
ENDBRANCH  25  26
ENDBRANCH   1  25
TORSDOF 18
ENDMDL
MODEL 2
REMARK VINA RESULT:     -10.3      1.243      6.677
REMARK SMILES CCC[C@@H](CNC(=O)N1C[C@@H](C)[C@H](C(=O)OC)C1)C(=O)NCCCCNC(=O)c1ccc(-c2c3nc(c(-c4ccccc4)c4ccc([nH]4)c(-c4ccccc4)c4nc(c(-c5ccccc5)c5ccc2[nH]5)C=C4)C=C3)cc1
REMARK SMILES IDX 22 1 21 2 19 3 20 4 4 6 3 7 2 8 1 9 5 10 6 11 7 12 8 14 9 15
REMARK SMILES IDX 10 16 18 17 11 18 13 19 12 20 14 21 15 22 16 23 17 24 23 25
REMARK SMILES IDX 24 26 25 27 26 28 27 29 28 31 29 32 30 33 76 34 31 35 75 36
REMARK SMILES IDX 32 37 33 38 34 39 69 40 35 41 74 42 68 43 70 44 36 45 73 46
REMARK SMILES IDX 67 47 66 48 37 50 59 51 44 52 58 53 45 54 48 55 57 56 71 57
REMARK SMILES IDX 46 58 47 59 56 61 72 62 49 63 38 64 39 65 43 66 40 67 42 68
REMARK SMILES IDX 41 69 60 70 61 71 65 72 62 73 64 74 63 75 50 76 51 77 55 78
REMARK SMILES IDX 52 79 54 80 53 81
REMARK H PARENT 21 5 6 13 26 30 70 49 48 60
REMARK Flexibility Score: inf
ROOT
ATOM      1  C   UNL A   1      31.897  27.577  26.327  1.00  0.00     0.116 C 
ENDROOT
BRANCH   1   2
ATOM      2  N   UNL A   1      30.939  26.520  26.578  1.00  0.00    -0.356 N 
ATOM      3  C   UNL A   1      31.012  25.180  26.377  1.00  0.00     0.224 C 
ATOM      4  O   UNL A   1      30.089  24.493  26.829  1.00  0.00    -0.275 OA
ATOM      5  H   UNL A   1      30.086  26.828  26.962  1.00  0.00     0.163 HD
BRANCH   3   6
ATOM      6  C   UNL A   1      32.159  24.500  25.637  1.00  0.00     0.097 C 
BRANCH   6   7
ATOM      7  C   UNL A   1      33.298  24.009  26.547  1.00  0.00     0.015 C 
BRANCH   7   8
ATOM      8  C   UNL A   1      33.116  22.607  27.143  1.00  0.00    -0.003 C 
ATOM      9  C   UNL A   1      34.291  21.668  26.920  1.00  0.00     0.004 C 
ENDBRANCH   7   8
ENDBRANCH   6   7
BRANCH   6  10
ATOM     10  C   UNL A   1      31.692  23.555  24.516  1.00  0.00     0.131 C 
BRANCH  10  11
ATOM     11  N   UNL A   1      32.656  23.218  23.480  1.00  0.00    -0.337 N 
ATOM     12  C   UNL A   1      33.080  23.973  22.429  1.00  0.00     0.317 C 
ATOM     13  H   UNL A   1      33.055  22.321  23.548  1.00  0.00     0.165 HD
ATOM     14  O   UNL A   1      33.592  23.413  21.463  1.00  0.00    -0.249 OA
BRANCH  12  15
ATOM     15  N   UNL A   1      32.794  25.302  22.445  1.00  0.00    -0.324 N 
ATOM     16  C   UNL A   1      33.704  26.328  22.900  1.00  0.00     0.125 C 
ATOM     17  C   UNL A   1      31.867  25.897  21.506  1.00  0.00     0.137 C 
ATOM     18  C   UNL A   1      32.791  27.533  23.072  1.00  0.00     0.021 C 
ATOM     19  C   UNL A   1      31.680  27.336  22.000  1.00  0.00     0.123 C 
ATOM     20  C   UNL A   1      33.537  28.850  22.931  1.00  0.00     0.010 C 
BRANCH  19  21
ATOM     21  C   UNL A   1      30.322  27.648  22.608  1.00  0.00     0.310 C 
ATOM     22  O   UNL A   1      29.899  27.062  23.599  1.00  0.00    -0.252 OA
BRANCH  21  23
ATOM     23  O   UNL A   1      29.679  28.670  21.985  1.00  0.00    -0.469 OA
ATOM     24  C   UNL A   1      28.568  29.221  22.700  1.00  0.00     0.282 C 
ENDBRANCH  21  23
ENDBRANCH  19  21
ENDBRANCH  12  15
ENDBRANCH  10  11
ENDBRANCH   6  10
ENDBRANCH   3   6
ENDBRANCH   1   2
BRANCH   1  25
ATOM     25  C   UNL A   1      31.801  28.700  27.352  1.00  0.00     0.023 C 
BRANCH  25  26
ATOM     26  C   UNL A   1      31.759  30.102  26.739  1.00  0.00     0.023 C 
BRANCH  26  27
ATOM     27  C   UNL A   1      32.848  31.062  27.215  1.00  0.00     0.116 C 
BRANCH  27  28
ATOM     28  N   UNL A   1      32.378  32.429  27.400  1.00  0.00    -0.352 N 
ATOM     29  C   UNL A   1      32.985  33.471  28.061  1.00  0.00     0.251 C 
ATOM     30  H   UNL A   1      31.503  32.634  26.996  1.00  0.00     0.163 HD
ATOM     31  O   UNL A   1      32.409  34.537  28.223  1.00  0.00    -0.269 OA
BRANCH  29  32
ATOM     32  C   UNL A   1      34.340  33.270  28.609  1.00  0.00     0.039 A 
ATOM     33  C   UNL A   1      34.481  32.666  29.860  1.00  0.00     0.014 A 
ATOM     34  C   UNL A   1      35.463  33.620  27.855  1.00  0.00     0.014 A 
ATOM     35  C   UNL A   1      35.754  32.322  30.316  1.00  0.00     0.010 A 
ATOM     36  C   UNL A   1      36.723  33.219  28.281  1.00  0.00     0.010 A 
ATOM     37  C   UNL A   1      36.878  32.550  29.507  1.00  0.00    -0.014 A 
BRANCH  37  38
ATOM     38  C   UNL A   1      38.228  32.078  29.897  1.00  0.00     0.031 A 
ATOM     39  C   UNL A   1      38.734  30.756  29.396  1.00  0.00     0.074 A 
ATOM     40  C   UNL A   1      38.952  32.786  30.788  1.00  0.00     0.049 A 
ATOM     41  N   UNL A   1      39.815  30.101  29.739  1.00  0.00    -0.248 NA
ATOM     42  C   UNL A   1      37.901  30.067  28.398  1.00  0.00     0.031 C 
ATOM     43  C   UNL A   1      38.559  34.068  31.376  1.00  0.00     0.029 A 
ATOM     44  N   UNL A   1      40.165  32.512  31.367  1.00  0.00    -0.354 N 
ATOM     45  C   UNL A   1      39.775  28.912  29.024  1.00  0.00     0.074 A 
ATOM     46  C   UNL A   1      38.549  28.920  28.255  1.00  0.00     0.031 C 
ATOM     47  C   UNL A   1      39.519  34.476  32.222  1.00  0.00     0.029 A 
ATOM     48  C   UNL A   1      40.572  33.466  32.270  1.00  0.00     0.049 A 
ATOM     49  H   UNL A   1      40.695  31.709  31.156  1.00  0.00     0.167 HD
ATOM     50  C   UNL A   1      40.683  27.909  29.000  1.00  0.00     0.031 A 
ATOM     51  C   UNL A   1      41.661  33.513  33.060  1.00  0.00     0.031 A 
ATOM     52  C   UNL A   1      41.911  27.909  29.748  1.00  0.00     0.049 A 
ATOM     53  C   UNL A   1      42.649  32.384  33.020  1.00  0.00     0.074 A 
ATOM     54  C   UNL A   1      42.922  26.965  29.744  1.00  0.00     0.029 A 
ATOM     55  N   UNL A   1      42.295  28.906  30.630  1.00  0.00    -0.354 N 
ATOM     56  N   UNL A   1      42.622  31.288  32.302  1.00  0.00    -0.248 NA
ATOM     57  C   UNL A   1      43.822  32.500  33.899  1.00  0.00     0.031 C 
ATOM     58  C   UNL A   1      43.902  27.372  30.654  1.00  0.00     0.029 A 
ATOM     59  C   UNL A   1      43.520  28.591  31.191  1.00  0.00     0.049 A 
ATOM     60  H   UNL A   1      41.773  29.717  30.830  1.00  0.00     0.167 HD
ATOM     61  C   UNL A   1      43.784  30.598  32.620  1.00  0.00     0.074 A 
ATOM     62  C   UNL A   1      44.499  31.402  33.590  1.00  0.00     0.031 C 
ATOM     63  C   UNL A   1      44.220  29.405  32.149  1.00  0.00     0.031 A 
BRANCH  50  64
ATOM     64  C   UNL A   1      40.370  26.718  28.140  1.00  0.00    -0.014 A 
ATOM     65  C   UNL A   1      40.851  26.627  26.825  1.00  0.00     0.009 A 
ATOM     66  C   UNL A   1      39.608  25.661  28.661  1.00  0.00     0.009 A 
ATOM     67  C   UNL A   1      40.543  25.517  26.036  1.00  0.00     0.001 A 
ATOM     68  C   UNL A   1      39.324  24.541  27.879  1.00  0.00     0.001 A 
ATOM     69  C   UNL A   1      39.783  24.474  26.564  1.00  0.00     0.000 A 
ENDBRANCH  50  64
BRANCH  51  70
ATOM     70  C   UNL A   1      41.878  34.677  33.956  1.00  0.00    -0.014 A 
ATOM     71  C   UNL A   1      41.273  34.719  35.221  1.00  0.00     0.009 A 
ATOM     72  C   UNL A   1      42.685  35.753  33.552  1.00  0.00     0.009 A 
ATOM     73  C   UNL A   1      41.451  35.825  36.055  1.00  0.00     0.001 A 
ATOM     74  C   UNL A   1      42.882  36.846  34.399  1.00  0.00     0.001 A 
ATOM     75  C   UNL A   1      42.259  36.885  35.645  1.00  0.00     0.000 A 
ENDBRANCH  51  70
BRANCH  63  76
ATOM     76  C   UNL A   1      45.549  28.915  32.643  1.00  0.00    -0.014 A 
ATOM     77  C   UNL A   1      45.644  28.082  33.768  1.00  0.00     0.009 A 
ATOM     78  C   UNL A   1      46.717  29.248  31.938  1.00  0.00     0.009 A 
ATOM     79  C   UNL A   1      46.888  27.609  34.190  1.00  0.00     0.001 A 
ATOM     80  C   UNL A   1      47.955  28.755  32.350  1.00  0.00     0.001 A 
ATOM     81  C   UNL A   1      48.041  27.941  33.478  1.00  0.00     0.000 A 
ENDBRANCH  63  76
ENDBRANCH  37  38
ENDBRANCH  29  32
ENDBRANCH  27  28
ENDBRANCH  26  27
ENDBRANCH  25  26
ENDBRANCH   1  25
TORSDOF 18
ENDMDL
MODEL 3
REMARK VINA RESULT:     -10.1      1.251      6.129
REMARK SMILES CCC[C@@H](CNC(=O)N1C[C@@H](C)[C@H](C(=O)OC)C1)C(=O)NCCCCNC(=O)c1ccc(-c2c3nc(c(-c4ccccc4)c4ccc([nH]4)c(-c4ccccc4)c4nc(c(-c5ccccc5)c5ccc2[nH]5)C=C4)C=C3)cc1
REMARK SMILES IDX 22 1 21 2 19 3 20 4 4 6 3 7 2 8 1 9 5 10 6 11 7 12 8 14 9 15
REMARK SMILES IDX 10 16 18 17 11 18 13 19 12 20 14 21 15 22 16 23 17 24 23 25
REMARK SMILES IDX 24 26 25 27 26 28 27 29 28 31 29 32 30 33 76 34 31 35 75 36
REMARK SMILES IDX 32 37 33 38 34 39 69 40 35 41 74 42 68 43 70 44 36 45 73 46
REMARK SMILES IDX 67 47 66 48 37 50 59 51 44 52 58 53 45 54 48 55 57 56 71 57
REMARK SMILES IDX 46 58 47 59 56 61 72 62 49 63 38 64 39 65 43 66 40 67 42 68
REMARK SMILES IDX 41 69 60 70 61 71 65 72 62 73 64 74 63 75 50 76 51 77 55 78
REMARK SMILES IDX 52 79 54 80 53 81
REMARK H PARENT 21 5 6 13 26 30 70 49 48 60
REMARK Flexibility Score: inf
ROOT
ATOM      1  C   UNL A   1      32.396  29.397  24.481  1.00  0.00     0.116 C 
ENDROOT
BRANCH   1   2
ATOM      2  N   UNL A   1      31.714  28.927  23.294  1.00  0.00    -0.356 N 
ATOM      3  C   UNL A   1      31.069  27.761  23.034  1.00  0.00     0.224 C 
ATOM      4  O   UNL A   1      30.442  27.691  21.972  1.00  0.00    -0.275 OA
ATOM      5  H   UNL A   1      31.718  29.565  22.543  1.00  0.00     0.163 HD
BRANCH   3   6
ATOM      6  C   UNL A   1      31.084  26.562  23.976  1.00  0.00     0.097 C 
BRANCH   6   7
ATOM      7  C   UNL A   1      30.276  26.763  25.270  1.00  0.00     0.015 C 
BRANCH   7   8
ATOM      8  C   UNL A   1      31.010  26.418  26.573  1.00  0.00    -0.003 C 
ATOM      9  C   UNL A   1      32.521  26.570  26.506  1.00  0.00     0.004 C 
ENDBRANCH   7   8
ENDBRANCH   6   7
BRANCH   6  10
ATOM     10  C   UNL A   1      30.939  25.211  23.254  1.00  0.00     0.131 C 
BRANCH  10  11
ATOM     11  N   UNL A   1      31.637  25.051  21.988  1.00  0.00    -0.337 N 
ATOM     12  C   UNL A   1      32.652  24.200  21.674  1.00  0.00     0.317 C 
ATOM     13  H   UNL A   1      31.333  25.638  21.258  1.00  0.00     0.165 HD
ATOM     14  O   UNL A   1      33.361  24.452  20.702  1.00  0.00    -0.249 OA
BRANCH  12  15
ATOM     15  N   UNL A   1      32.915  23.179  22.533  1.00  0.00    -0.324 N 
ATOM     16  C   UNL A   1      32.228  21.908  22.525  1.00  0.00     0.125 C 
ATOM     17  C   UNL A   1      34.226  22.987  23.115  1.00  0.00     0.137 C 
ATOM     18  C   UNL A   1      32.613  21.313  23.872  1.00  0.00     0.021 C 
ATOM     19  C   UNL A   1      34.032  21.882  24.159  1.00  0.00     0.123 C 
ATOM     20  C   UNL A   1      32.563  19.793  23.870  1.00  0.00     0.010 C 
BRANCH  19  21
ATOM     21  C   UNL A   1      34.120  22.329  25.609  1.00  0.00     0.310 C 
ATOM     22  O   UNL A   1      33.385  23.195  26.073  1.00  0.00    -0.252 OA
BRANCH  21  23
ATOM     23  O   UNL A   1      35.034  21.629  26.331  1.00  0.00    -0.469 OA
ATOM     24  C   UNL A   1      36.339  21.542  25.747  1.00  0.00     0.282 C 
ENDBRANCH  21  23
ENDBRANCH  19  21
ENDBRANCH  12  15
ENDBRANCH  10  11
ENDBRANCH   6  10
ENDBRANCH   3   6
ENDBRANCH   1   2
BRANCH   1  25
ATOM     25  C   UNL A   1      31.488  30.226  25.381  1.00  0.00     0.023 C 
BRANCH  25  26
ATOM     26  C   UNL A   1      31.956  30.306  26.835  1.00  0.00     0.023 C 
BRANCH  26  27
ATOM     27  C   UNL A   1      33.060  31.324  27.118  1.00  0.00     0.116 C 
BRANCH  27  28
ATOM     28  N   UNL A   1      32.557  32.655  27.431  1.00  0.00    -0.352 N 
ATOM     29  C   UNL A   1      33.121  33.629  28.221  1.00  0.00     0.251 C 
ATOM     30  H   UNL A   1      31.693  32.889  27.020  1.00  0.00     0.163 HD
ATOM     31  O   UNL A   1      32.519  34.662  28.476  1.00  0.00    -0.269 OA
BRANCH  29  32
ATOM     32  C   UNL A   1      34.460  33.392  28.794  1.00  0.00     0.039 A 
ATOM     33  C   UNL A   1      34.567  32.681  29.991  1.00  0.00     0.014 A 
ATOM     34  C   UNL A   1      35.602  33.815  28.110  1.00  0.00     0.014 A 
ATOM     35  C   UNL A   1      35.829  32.309  30.457  1.00  0.00     0.010 A 
ATOM     36  C   UNL A   1      36.853  33.388  28.541  1.00  0.00     0.010 A 
ATOM     37  C   UNL A   1      36.975  32.616  29.707  1.00  0.00    -0.014 A 
BRANCH  37  38
ATOM     38  C   UNL A   1      38.318  32.121  30.099  1.00  0.00     0.031 A 
ATOM     39  C   UNL A   1      38.824  30.817  29.556  1.00  0.00     0.074 A 
ATOM     40  C   UNL A   1      39.032  32.791  31.025  1.00  0.00     0.049 A 
ATOM     41  N   UNL A   1      39.896  30.143  29.889  1.00  0.00    -0.248 NA
ATOM     42  C   UNL A   1      38.002  30.169  28.521  1.00  0.00     0.031 C 
ATOM     43  C   UNL A   1      38.638  34.054  31.655  1.00  0.00     0.029 A 
ATOM     44  N   UNL A   1      40.236  32.490  31.611  1.00  0.00    -0.354 N 
ATOM     45  C   UNL A   1      39.860  28.982  29.130  1.00  0.00     0.074 A 
ATOM     46  C   UNL A   1      38.645  29.025  28.345  1.00  0.00     0.031 C 
ATOM     47  C   UNL A   1      39.588  34.424  32.529  1.00  0.00     0.029 A 
ATOM     48  C   UNL A   1      40.634  33.407  32.554  1.00  0.00     0.049 A 
ATOM     49  H   UNL A   1      40.764  31.692  31.378  1.00  0.00     0.167 HD
ATOM     50  C   UNL A   1      40.763  27.975  29.082  1.00  0.00     0.031 A 
ATOM     51  C   UNL A   1      41.712  33.419  33.360  1.00  0.00     0.031 A 
ATOM     52  C   UNL A   1      41.980  27.940  29.846  1.00  0.00     0.049 A 
ATOM     53  C   UNL A   1      42.695  32.286  33.292  1.00  0.00     0.074 A 
ATOM     54  C   UNL A   1      42.987  26.991  29.821  1.00  0.00     0.029 A 
ATOM     55  N   UNL A   1      42.357  28.901  30.770  1.00  0.00    -0.354 N 
ATOM     56  N   UNL A   1      42.673  31.218  32.533  1.00  0.00    -0.248 NA
ATOM     57  C   UNL A   1      43.856  32.363  34.191  1.00  0.00     0.031 C 
ATOM     58  C   UNL A   1      43.956  27.359  30.759  1.00  0.00     0.029 A 
ATOM     59  C   UNL A   1      43.572  28.559  31.335  1.00  0.00     0.049 A 
ATOM     60  H   UNL A   1      41.836  29.707  30.993  1.00  0.00     0.167 HD
ATOM     61  C   UNL A   1      43.827  30.510  32.842  1.00  0.00     0.074 A 
ATOM     62  C   UNL A   1      44.532  31.273  33.851  1.00  0.00     0.031 C 
ATOM     63  C   UNL A   1      44.263  29.333  32.332  1.00  0.00     0.031 A 
BRANCH  50  64
ATOM     64  C   UNL A   1      40.456  26.819  28.174  1.00  0.00    -0.014 A 
ATOM     65  C   UNL A   1      40.957  26.773  26.863  1.00  0.00     0.009 A 
ATOM     66  C   UNL A   1      39.679  25.749  28.643  1.00  0.00     0.009 A 
ATOM     67  C   UNL A   1      40.655  25.695  26.029  1.00  0.00     0.001 A 
ATOM     68  C   UNL A   1      39.400  24.660  27.816  1.00  0.00     0.001 A 
ATOM     69  C   UNL A   1      39.880  24.638  26.506  1.00  0.00     0.000 A 
ENDBRANCH  50  64
BRANCH  51  70
ATOM     70  C   UNL A   1      41.923  34.547  34.302  1.00  0.00    -0.014 A 
ATOM     71  C   UNL A   1      42.613  35.697  33.885  1.00  0.00     0.009 A 
ATOM     72  C   UNL A   1      41.443  34.483  35.619  1.00  0.00     0.009 A 
ATOM     73  C   UNL A   1      42.838  36.748  34.776  1.00  0.00     0.001 A 
ATOM     74  C   UNL A   1      41.647  35.547  36.500  1.00  0.00     0.001 A 
ATOM     75  C   UNL A   1      42.352  36.674  36.081  1.00  0.00     0.000 A 
ENDBRANCH  51  70
BRANCH  63  76
ATOM     76  C   UNL A   1      45.583  28.817  32.827  1.00  0.00    -0.014 A 
ATOM     77  C   UNL A   1      46.789  29.225  32.237  1.00  0.00     0.009 A 
ATOM     78  C   UNL A   1      45.620  27.955  33.933  1.00  0.00     0.009 A 
ATOM     79  C   UNL A   1      48.008  28.760  32.735  1.00  0.00     0.001 A 
ATOM     80  C   UNL A   1      46.840  27.510  34.442  1.00  0.00     0.001 A 
ATOM     81  C   UNL A   1      48.032  27.907  33.839  1.00  0.00     0.000 A 
ENDBRANCH  63  76
ENDBRANCH  37  38
ENDBRANCH  29  32
ENDBRANCH  27  28
ENDBRANCH  26  27
ENDBRANCH  25  26
ENDBRANCH   1  25
TORSDOF 18
ENDMDL
