MODEL 1
REMARK VINA RESULT:     -12.5      0.000      0.000
REMARK SMILES COc1cccc([C@@H]2[NH2+][C@@](C)(C(=O)NCCCCNC(=O)c3ccc(-c4c5nc(c(-c6ccccc6)c6ccc([nH]6)c(-c6ccccc6)c6nc(c(-c7ccccc7)c7ccc4[nH]7)C=C6)C=C5)cc3)[C@@H]3C(=O)N(C)C(=O)[C@@H]32)c1O
REMARK SMILES IDX 16 1 15 2 14 3 12 4 13 5 10 7 8 8 9 9 77 10 70 13 75 14
REMARK SMILES IDX 11 15 71 16 73 17 76 18 72 19 74 20 7 21 3 22 4 23 78 24
REMARK SMILES IDX 5 25 6 26 2 27 1 28 79 29 17 31 18 32 19 33 20 34 21 36
REMARK SMILES IDX 22 37 23 38 69 39 24 40 68 41 25 42 26 43 27 44 62 45 28 46
REMARK SMILES IDX 67 47 61 48 63 49 29 50 66 51 60 52 59 53 30 55 52 56 37 57
REMARK SMILES IDX 51 58 38 59 41 60 50 61 64 62 39 63 40 64 49 66 65 67 42 68
REMARK SMILES IDX 31 69 32 70 36 71 33 72 35 73 34 74 53 75 54 76 58 77 55 78
REMARK SMILES IDX 57 79 56 80 43 81 44 82 48 83 45 84 47 85 46 86
REMARK H PARENT 14 6 9 11 9 12 79 30 19 35 63 54 41 65
REMARK Flexibility Score: inf
ROOT
ATOM      1  C   UNL A   1      35.307  21.767  24.635  1.00  0.00     0.023 C 
ENDROOT
BRANCH   1   2
ATOM      2  C   UNL A   1      34.025  22.511  24.276  1.00  0.00     0.116 C 
BRANCH   2   3
ATOM      3  N   UNL A   1      34.046  23.011  22.911  1.00  0.00    -0.351 N 
ATOM      4  C   UNL A   1      33.202  23.883  22.281  1.00  0.00     0.281 C 
ATOM      5  O   UNL A   1      33.419  24.106  21.086  1.00  0.00    -0.268 OA
ATOM      6  H   UNL A   1      34.784  22.671  22.355  1.00  0.00     0.163 HD
BRANCH   4   7
ATOM      7  C   UNL A   1      32.046  24.592  23.058  1.00  0.00     0.185 C 
ATOM      8  C   UNL A   1      31.755  26.886  22.345  1.00  0.00     0.232 C 
ATOM      9  N   UNL A   1      31.342  25.487  22.101  1.00  0.00    -0.326 N 
ATOM     10  C   UNL A   1      32.838  26.849  23.432  1.00  0.00     0.161 C 
ATOM     11  H   UNL A   1      31.583  25.221  21.147  1.00  0.00     0.347 HD
ATOM     12  H   UNL A   1      30.334  25.400  22.232  1.00  0.00     0.347 HD
ATOM     13  C   UNL A   1      32.643  25.510  24.130  1.00  0.00     0.169 C 
ATOM     14  C   UNL A   1      32.677  27.845  24.546  1.00  0.00     0.239 C 
ATOM     15  C   UNL A   1      31.150  23.485  23.639  1.00  0.00     0.091 C 
ATOM     16  C   UNL A   1      31.812  25.898  25.330  1.00  0.00     0.240 C 
ATOM     17  N   UNL A   1      32.023  27.226  25.576  1.00  0.00    -0.285 N 
ATOM     18  O   UNL A   1      33.018  29.014  24.497  1.00  0.00    -0.274 OA
ATOM     19  O   UNL A   1      31.074  25.169  25.976  1.00  0.00    -0.274 OA
ATOM     20  C   UNL A   1      31.507  27.938  26.721  1.00  0.00     0.156 C 
BRANCH   8  21
ATOM     21  C   UNL A   1      30.568  27.815  22.597  1.00  0.00     0.056 A 
ATOM     22  C   UNL A   1      29.352  29.924  22.275  1.00  0.00     0.161 A 
ATOM     23  C   UNL A   1      28.239  29.357  22.899  1.00  0.00     0.050 A 
ATOM     24  C   UNL A   1      30.524  29.165  22.180  1.00  0.00     0.166 A 
ATOM     25  C   UNL A   1      28.276  28.049  23.381  1.00  0.00     0.005 A 
ATOM     26  C   UNL A   1      29.425  27.277  23.213  1.00  0.00     0.014 A 
BRANCH  22  27
ATOM     27  O   UNL A   1      29.161  31.222  21.884  1.00  0.00    -0.493 OA
ATOM     28  C   UNL A   1      28.105  31.491  20.973  1.00  0.00     0.278 C 
ENDBRANCH  22  27
BRANCH  24  29
ATOM     29  O   UNL A   1      31.704  29.727  21.781  1.00  0.00    -0.504 OA
ATOM     30  H   UNL A   1      32.040  30.479  22.227  1.00  0.00     0.293 HD
ENDBRANCH  24  29
ENDBRANCH   8  21
ENDBRANCH   4   7
ENDBRANCH   2   3
ENDBRANCH   1   2
BRANCH   1  31
ATOM     31  C   UNL A   1      36.593  22.520  24.300  1.00  0.00     0.023 C 
BRANCH  31  32
ATOM     32  C   UNL A   1      37.359  23.063  25.504  1.00  0.00     0.116 C 
BRANCH  32  33
ATOM     33  N   UNL A   1      38.634  22.394  25.715  1.00  0.00    -0.352 N 
ATOM     34  C   UNL A   1      39.803  22.887  26.244  1.00  0.00     0.251 C 
ATOM     35  H   UNL A   1      38.663  21.448  25.439  1.00  0.00     0.163 HD
ATOM     36  O   UNL A   1      40.829  22.216  26.217  1.00  0.00    -0.269 OA
BRANCH  34  37
ATOM     37  C   UNL A   1      39.829  24.253  26.806  1.00  0.00     0.039 A 
ATOM     38  C   UNL A   1      39.299  24.464  28.080  1.00  0.00     0.014 A 
ATOM     39  C   UNL A   1      40.418  25.306  26.102  1.00  0.00     0.014 A 
ATOM     40  C   UNL A   1      39.453  25.710  28.693  1.00  0.00     0.010 A 
ATOM     41  C   UNL A   1      40.636  26.524  26.741  1.00  0.00     0.010 A 
ATOM     42  C   UNL A   1      40.177  26.729  28.052  1.00  0.00    -0.014 A 
BRANCH  42  43
ATOM     43  C   UNL A   1      40.529  27.985  28.763  1.00  0.00     0.031 A 
ATOM     44  C   UNL A   1      41.848  28.123  29.469  1.00  0.00     0.074 A 
ATOM     45  C   UNL A   1      39.614  28.972  28.844  1.00  0.00     0.049 A 
ATOM     46  N   UNL A   1      42.286  29.113  30.206  1.00  0.00    -0.248 NA
ATOM     47  C   UNL A   1      42.789  26.999  29.350  1.00  0.00     0.031 C 
ATOM     48  C   UNL A   1      38.280  28.945  28.238  1.00  0.00     0.029 A 
ATOM     49  N   UNL A   1      39.660  30.188  29.482  1.00  0.00    -0.354 N 
ATOM     50  C   UNL A   1      43.545  28.726  30.648  1.00  0.00     0.074 A 
ATOM     51  C   UNL A   1      43.785  27.396  30.130  1.00  0.00     0.031 C 
ATOM     52  C   UNL A   1      37.645  30.094  28.516  1.00  0.00     0.029 A 
ATOM     53  C   UNL A   1      38.502  30.917  29.362  1.00  0.00     0.049 A 
ATOM     54  H   UNL A   1      40.449  30.506  29.977  1.00  0.00     0.167 HD
ATOM     55  C   UNL A   1      44.425  29.421  31.405  1.00  0.00     0.031 A 
ATOM     56  C   UNL A   1      38.154  32.106  29.892  1.00  0.00     0.031 A 
ATOM     57  C   UNL A   1      44.186  30.745  31.919  1.00  0.00     0.049 A 
ATOM     58  C   UNL A   1      39.138  32.835  30.764  1.00  0.00     0.074 A 
ATOM     59  C   UNL A   1      45.047  31.554  32.641  1.00  0.00     0.029 A 
ATOM     60  N   UNL A   1      43.000  31.447  31.780  1.00  0.00    -0.354 N 
ATOM     61  N   UNL A   1      40.358  32.493  31.098  1.00  0.00    -0.248 NA
ATOM     62  C   UNL A   1      38.696  34.119  31.329  1.00  0.00     0.031 C 
ATOM     63  C   UNL A   1      44.358  32.717  32.996  1.00  0.00     0.029 A 
ATOM     64  C   UNL A   1      43.091  32.661  32.440  1.00  0.00     0.049 A 
ATOM     65  H   UNL A   1      42.211  31.129  31.285  1.00  0.00     0.167 HD
ATOM     66  C   UNL A   1      40.835  33.524  31.896  1.00  0.00     0.074 A 
ATOM     67  C   UNL A   1      39.784  34.517  31.972  1.00  0.00     0.031 C 
ATOM     68  C   UNL A   1      42.035  33.636  32.515  1.00  0.00     0.031 A 
BRANCH  55  69
ATOM     69  C   UNL A   1      45.733  28.761  31.743  1.00  0.00    -0.014 A 
ATOM     70  C   UNL A   1      46.864  28.923  30.928  1.00  0.00     0.009 A 
ATOM     71  C   UNL A   1      45.854  28.025  32.933  1.00  0.00     0.009 A 
ATOM     72  C   UNL A   1      48.082  28.339  31.284  1.00  0.00     0.001 A 
ATOM     73  C   UNL A   1      47.080  27.467  33.301  1.00  0.00     0.001 A 
ATOM     74  C   UNL A   1      48.191  27.620  32.473  1.00  0.00     0.000 A 
ENDBRANCH  55  69
BRANCH  56  75
ATOM     75  C   UNL A   1      36.803  32.675  29.638  1.00  0.00    -0.014 A 
ATOM     76  C   UNL A   1      36.544  33.416  28.476  1.00  0.00     0.009 A 
ATOM     77  C   UNL A   1      35.770  32.501  30.573  1.00  0.00     0.009 A 
ATOM     78  C   UNL A   1      35.292  34.000  28.272  1.00  0.00     0.001 A 
ATOM     79  C   UNL A   1      34.508  33.055  30.350  1.00  0.00     0.001 A 
ATOM     80  C   UNL A   1      34.274  33.816  29.206  1.00  0.00     0.000 A 
ENDBRANCH  56  75
BRANCH  68  81
ATOM     81  C   UNL A   1      42.281  34.883  33.318  1.00  0.00    -0.014 A 
ATOM     82  C   UNL A   1      42.997  35.965  32.780  1.00  0.00     0.009 A 
ATOM     83  C   UNL A   1      41.752  34.995  34.613  1.00  0.00     0.009 A 
ATOM     84  C   UNL A   1      43.206  37.120  33.536  1.00  0.00     0.001 A 
ATOM     85  C   UNL A   1      41.934  36.164  35.355  1.00  0.00     0.001 A 
ATOM     86  C   UNL A   1      42.669  37.221  34.820  1.00  0.00     0.000 A 
ENDBRANCH  68  81
ENDBRANCH  42  43
ENDBRANCH  34  37
ENDBRANCH  32  33
ENDBRANCH  31  32
ENDBRANCH   1  31
TORSDOF 14
ENDMDL
MODEL 2
REMARK VINA RESULT:     -12.5      2.815      8.424
REMARK SMILES COc1cccc([C@@H]2[NH2+][C@@](C)(C(=O)NCCCCNC(=O)c3ccc(-c4c5nc(c(-c6ccccc6)c6ccc([nH]6)c(-c6ccccc6)c6nc(c(-c7ccccc7)c7ccc4[nH]7)C=C6)C=C5)cc3)[C@@H]3C(=O)N(C)C(=O)[C@@H]32)c1O
REMARK SMILES IDX 16 1 15 2 14 3 12 4 13 5 10 7 8 8 9 9 77 10 70 13 75 14
REMARK SMILES IDX 11 15 71 16 73 17 76 18 72 19 74 20 7 21 3 22 4 23 78 24
REMARK SMILES IDX 5 25 6 26 2 27 1 28 79 29 17 31 18 32 19 33 20 34 21 36
REMARK SMILES IDX 22 37 23 38 69 39 24 40 68 41 25 42 26 43 27 44 62 45 28 46
REMARK SMILES IDX 67 47 61 48 63 49 29 50 66 51 60 52 59 53 30 55 52 56 37 57
REMARK SMILES IDX 51 58 38 59 41 60 50 61 64 62 39 63 40 64 49 66 65 67 42 68
REMARK SMILES IDX 31 69 32 70 36 71 33 72 35 73 34 74 53 75 54 76 58 77 55 78
REMARK SMILES IDX 57 79 56 80 43 81 44 82 48 83 45 84 47 85 46 86
REMARK H PARENT 14 6 9 11 9 12 79 30 19 35 63 54 41 65
REMARK Flexibility Score: inf
ROOT
ATOM      1  C   UNL A   1      31.440  28.549  25.875  1.00  0.00     0.023 C 
ENDROOT
BRANCH   1   2
ATOM      2  C   UNL A   1      31.553  27.092  25.440  1.00  0.00     0.116 C 
BRANCH   2   3
ATOM      3  N   UNL A   1      30.742  26.210  26.262  1.00  0.00    -0.351 N 
ATOM      4  C   UNL A   1      30.466  24.878  26.117  1.00  0.00     0.281 C 
ATOM      5  O   UNL A   1      29.698  24.373  26.942  1.00  0.00    -0.268 OA
ATOM      6  H   UNL A   1      30.328  26.637  27.047  1.00  0.00     0.163 HD
BRANCH   4   7
ATOM      7  C   UNL A   1      31.135  24.035  24.984  1.00  0.00     0.185 C 
ATOM      8  C   UNL A   1      31.899  21.885  25.792  1.00  0.00     0.232 C 
ATOM      9  N   UNL A   1      30.756  22.612  25.198  1.00  0.00    -0.326 N 
ATOM     10  C   UNL A   1      33.001  22.922  26.052  1.00  0.00     0.161 C 
ATOM     11  H   UNL A   1      29.957  22.564  25.829  1.00  0.00     0.347 HD
ATOM     12  H   UNL A   1      30.508  22.187  24.304  1.00  0.00     0.347 HD
ATOM     13  C   UNL A   1      32.659  24.091  25.140  1.00  0.00     0.169 C 
ATOM     14  C   UNL A   1      34.382  22.530  25.607  1.00  0.00     0.239 C 
ATOM     15  C   UNL A   1      30.641  24.608  23.646  1.00  0.00     0.091 C 
ATOM     16  C   UNL A   1      33.543  23.828  23.944  1.00  0.00     0.240 C 
ATOM     17  N   UNL A   1      34.586  23.047  24.357  1.00  0.00    -0.285 N 
ATOM     18  O   UNL A   1      35.148  21.822  26.237  1.00  0.00    -0.274 OA
ATOM     19  O   UNL A   1      33.371  24.231  22.803  1.00  0.00    -0.274 OA
ATOM     20  C   UNL A   1      35.716  22.689  23.532  1.00  0.00     0.156 C 
BRANCH   8  21
ATOM     21  C   UNL A   1      32.301  20.654  24.980  1.00  0.00     0.056 A 
ATOM     22  C   UNL A   1      32.974  18.300  24.792  1.00  0.00     0.161 A 
ATOM     23  C   UNL A   1      32.775  18.372  23.412  1.00  0.00     0.050 A 
ATOM     24  C   UNL A   1      32.787  19.458  25.555  1.00  0.00     0.166 A 
ATOM     25  C   UNL A   1      32.360  19.559  22.808  1.00  0.00     0.005 A 
ATOM     26  C   UNL A   1      32.105  20.685  23.590  1.00  0.00     0.014 A 
BRANCH  22  27
ATOM     27  O   UNL A   1      33.406  17.075  25.221  1.00  0.00    -0.493 OA
ATOM     28  C   UNL A   1      34.612  16.565  24.670  1.00  0.00     0.278 C 
ENDBRANCH  22  27
BRANCH  24  29
ATOM     29  O   UNL A   1      33.170  19.514  26.866  1.00  0.00    -0.504 OA
ATOM     30  H   UNL A   1      32.568  19.815  27.518  1.00  0.00     0.293 HD
ENDBRANCH  24  29
ENDBRANCH   8  21
ENDBRANCH   4   7
ENDBRANCH   2   3
ENDBRANCH   1   2
BRANCH   1  31
ATOM     31  C   UNL A   1      32.009  28.844  27.262  1.00  0.00     0.023 C 
BRANCH  31  32
ATOM     32  C   UNL A   1      33.464  29.302  27.281  1.00  0.00     0.116 C 
BRANCH  32  33
ATOM     33  N   UNL A   1      33.632  30.636  27.838  1.00  0.00    -0.352 N 
ATOM     34  C   UNL A   1      34.704  31.174  28.511  1.00  0.00     0.251 C 
ATOM     35  H   UNL A   1      32.866  31.243  27.713  1.00  0.00     0.163 HD
ATOM     36  O   UNL A   1      34.616  32.279  29.035  1.00  0.00    -0.269 OA
BRANCH  34  37
ATOM     37  C   UNL A   1      35.950  30.392  28.639  1.00  0.00     0.039 A 
ATOM     38  C   UNL A   1      36.859  30.399  27.578  1.00  0.00     0.014 A 
ATOM     39  C   UNL A   1      36.244  29.700  29.817  1.00  0.00     0.014 A 
ATOM     40  C   UNL A   1      38.109  29.797  27.738  1.00  0.00     0.010 A 
ATOM     41  C   UNL A   1      37.517  29.165  30.001  1.00  0.00     0.010 A 
ATOM     42  C   UNL A   1      38.469  29.230  28.972  1.00  0.00    -0.014 A 
BRANCH  42  43
ATOM     43  C   UNL A   1      39.858  28.770  29.229  1.00  0.00     0.031 A 
ATOM     44  C   UNL A   1      40.878  29.702  29.820  1.00  0.00     0.074 A 
ATOM     45  C   UNL A   1      40.220  27.529  28.846  1.00  0.00     0.049 A 
ATOM     46  N   UNL A   1      42.153  29.496  30.036  1.00  0.00    -0.248 NA
ATOM     47  C   UNL A   1      40.413  31.045  30.199  1.00  0.00     0.031 C 
ATOM     48  C   UNL A   1      39.336  26.541  28.223  1.00  0.00     0.029 A 
ATOM     49  N   UNL A   1      41.434  26.890  28.910  1.00  0.00    -0.354 N 
ATOM     50  C   UNL A   1      42.644  30.684  30.563  1.00  0.00     0.074 A 
ATOM     51  C   UNL A   1      41.540  31.619  30.597  1.00  0.00     0.031 C 
ATOM     52  C   UNL A   1      40.029  25.418  27.981  1.00  0.00     0.029 A 
ATOM     53  C   UNL A   1      41.417  25.621  28.381  1.00  0.00     0.049 A 
ATOM     54  H   UNL A   1      42.239  27.301  29.300  1.00  0.00     0.167 HD
ATOM     55  C   UNL A   1      43.897  30.964  30.989  1.00  0.00     0.031 A 
ATOM     56  C   UNL A   1      42.410  24.727  28.213  1.00  0.00     0.031 A 
ATOM     57  C   UNL A   1      44.994  30.033  30.955  1.00  0.00     0.049 A 
ATOM     58  C   UNL A   1      43.801  25.083  28.659  1.00  0.00     0.074 A 
ATOM     59  C   UNL A   1      46.284  30.207  31.428  1.00  0.00     0.029 A 
ATOM     60  N   UNL A   1      44.937  28.761  30.408  1.00  0.00    -0.354 N 
ATOM     61  N   UNL A   1      44.228  26.180  29.236  1.00  0.00    -0.248 NA
ATOM     62  C   UNL A   1      44.847  24.075  28.434  1.00  0.00     0.031 C 
ATOM     63  C   UNL A   1      47.025  29.067  31.106  1.00  0.00     0.029 A 
ATOM     64  C   UNL A   1      46.181  28.156  30.492  1.00  0.00     0.049 A 
ATOM     65  H   UNL A   1      44.133  28.349  30.019  1.00  0.00     0.167 HD
ATOM     66  C   UNL A   1      45.584  25.987  29.458  1.00  0.00     0.074 A 
ATOM     67  C   UNL A   1      45.904  24.659  28.980  1.00  0.00     0.031 C 
ATOM     68  C   UNL A   1      46.487  26.837  30.004  1.00  0.00     0.031 A 
BRANCH  55  69
ATOM     69  C   UNL A   1      44.163  32.345  31.521  1.00  0.00    -0.014 A 
ATOM     70  C   UNL A   1      44.516  33.401  30.666  1.00  0.00     0.009 A 
ATOM     71  C   UNL A   1      43.990  32.609  32.890  1.00  0.00     0.009 A 
ATOM     72  C   UNL A   1      44.715  34.687  31.175  1.00  0.00     0.001 A 
ATOM     73  C   UNL A   1      44.160  33.901  33.391  1.00  0.00     0.001 A 
ATOM     74  C   UNL A   1      44.528  34.937  32.534  1.00  0.00     0.000 A 
ENDBRANCH  55  69
BRANCH  56  75
ATOM     75  C   UNL A   1      42.137  23.414  27.569  1.00  0.00    -0.014 A 
ATOM     76  C   UNL A   1      41.585  22.355  28.305  1.00  0.00     0.009 A 
ATOM     77  C   UNL A   1      42.453  23.204  26.217  1.00  0.00     0.009 A 
ATOM     78  C   UNL A   1      41.388  21.106  27.712  1.00  0.00     0.001 A 
ATOM     79  C   UNL A   1      42.222  21.966  25.616  1.00  0.00     0.001 A 
ATOM     80  C   UNL A   1      41.702  20.914  26.367  1.00  0.00     0.000 A 
ENDBRANCH  56  75
BRANCH  68  81
ATOM     81  C   UNL A   1      47.904  26.350  30.127  1.00  0.00    -0.014 A 
ATOM     82  C   UNL A   1      48.377  25.782  31.321  1.00  0.00     0.009 A 
ATOM     83  C   UNL A   1      48.765  26.420  29.021  1.00  0.00     0.009 A 
ATOM     84  C   UNL A   1      49.693  25.325  31.413  1.00  0.00     0.001 A 
ATOM     85  C   UNL A   1      50.070  25.932  29.106  1.00  0.00     0.001 A 
ATOM     86  C   UNL A   1      50.535  25.394  30.304  1.00  0.00     0.000 A 
ENDBRANCH  68  81
ENDBRANCH  42  43
ENDBRANCH  34  37
ENDBRANCH  32  33
ENDBRANCH  31  32
ENDBRANCH   1  31
TORSDOF 14
ENDMDL
MODEL 3
REMARK VINA RESULT:     -12.4      2.271      6.593
REMARK SMILES COc1cccc([C@@H]2[NH2+][C@@](C)(C(=O)NCCCCNC(=O)c3ccc(-c4c5nc(c(-c6ccccc6)c6ccc([nH]6)c(-c6ccccc6)c6nc(c(-c7ccccc7)c7ccc4[nH]7)C=C6)C=C5)cc3)[C@@H]3C(=O)N(C)C(=O)[C@@H]32)c1O
REMARK SMILES IDX 16 1 15 2 14 3 12 4 13 5 10 7 8 8 9 9 77 10 70 13 75 14
REMARK SMILES IDX 11 15 71 16 73 17 76 18 72 19 74 20 7 21 3 22 4 23 78 24
REMARK SMILES IDX 5 25 6 26 2 27 1 28 79 29 17 31 18 32 19 33 20 34 21 36
REMARK SMILES IDX 22 37 23 38 69 39 24 40 68 41 25 42 26 43 27 44 62 45 28 46
REMARK SMILES IDX 67 47 61 48 63 49 29 50 66 51 60 52 59 53 30 55 52 56 37 57
REMARK SMILES IDX 51 58 38 59 41 60 50 61 64 62 39 63 40 64 49 66 65 67 42 68
REMARK SMILES IDX 31 69 32 70 36 71 33 72 35 73 34 74 53 75 54 76 58 77 55 78
REMARK SMILES IDX 57 79 56 80 43 81 44 82 48 83 45 84 47 85 46 86
REMARK H PARENT 14 6 9 11 9 12 79 30 19 35 63 54 41 65
REMARK Flexibility Score: inf
ROOT
ATOM      1  C   UNL A   1      35.697  21.507  26.098  1.00  0.00     0.023 C 
ENDROOT
BRANCH   1   2
ATOM      2  C   UNL A   1      34.732  22.616  25.694  1.00  0.00     0.116 C 
BRANCH   2   3
ATOM      3  N   UNL A   1      34.877  22.985  24.295  1.00  0.00    -0.351 N 
ATOM      4  C   UNL A   1      34.048  23.715  23.487  1.00  0.00     0.281 C 
ATOM      5  O   UNL A   1      34.389  23.843  22.307  1.00  0.00    -0.268 OA
ATOM      6  H   UNL A   1      35.699  22.660  23.862  1.00  0.00     0.163 HD
BRANCH   4   7
ATOM      7  C   UNL A   1      32.757  24.389  24.054  1.00  0.00     0.185 C 
ATOM      8  C   UNL A   1      32.348  26.548  23.039  1.00  0.00     0.232 C 
ATOM      9  N   UNL A   1      32.088  25.096  22.930  1.00  0.00    -0.326 N 
ATOM     10  C   UNL A   1      33.305  26.741  24.224  1.00  0.00     0.161 C 
ATOM     11  H   UNL A   1      32.453  24.750  22.044  1.00  0.00     0.347 HD
ATOM     12  H   UNL A   1      31.082  24.926  22.970  1.00  0.00     0.347 HD
ATOM     13  C   UNL A   1      33.152  25.478  25.059  1.00  0.00     0.169 C 
ATOM     14  C   UNL A   1      32.937  27.837  25.186  1.00  0.00     0.239 C 
ATOM     15  C   UNL A   1      31.902  23.272  24.676  1.00  0.00     0.091 C 
ATOM     16  C   UNL A   1      32.164  25.915  26.114  1.00  0.00     0.240 C 
ATOM     17  N   UNL A   1      32.231  27.276  26.215  1.00  0.00    -0.285 N 
ATOM     18  O   UNL A   1      33.179  29.020  25.028  1.00  0.00    -0.274 OA
ATOM     19  O   UNL A   1      31.426  25.194  26.769  1.00  0.00    -0.274 OA
ATOM     20  C   UNL A   1      31.532  28.059  27.207  1.00  0.00     0.156 C 
BRANCH   8  21
ATOM     21  C   UNL A   1      31.065  27.378  23.058  1.00  0.00     0.056 A 
ATOM     22  C   UNL A   1      29.721  29.317  22.376  1.00  0.00     0.161 A 
ATOM     23  C   UNL A   1      28.594  28.708  22.933  1.00  0.00     0.050 A 
ATOM     24  C   UNL A   1      30.956  28.669  22.493  1.00  0.00     0.166 A 
ATOM     25  C   UNL A   1      28.685  27.464  23.557  1.00  0.00     0.005 A 
ATOM     26  C   UNL A   1      29.907  26.795  23.600  1.00  0.00     0.014 A 
BRANCH  22  27
ATOM     27  O   UNL A   1      29.467  30.544  21.827  1.00  0.00    -0.493 OA
ATOM     28  C   UNL A   1      28.194  30.755  21.234  1.00  0.00     0.278 C 
ENDBRANCH  22  27
BRANCH  24  29
ATOM     29  O   UNL A   1      32.123  29.301  22.166  1.00  0.00    -0.504 OA
ATOM     30  H   UNL A   1      32.200  29.749  21.347  1.00  0.00     0.293 HD
ENDBRANCH  24  29
ENDBRANCH   8  21
ENDBRANCH   4   7
ENDBRANCH   2   3
ENDBRANCH   1   2
BRANCH   1  31
ATOM     31  C   UNL A   1      36.744  21.159  25.041  1.00  0.00     0.023 C 
BRANCH  31  32
ATOM     32  C   UNL A   1      38.191  21.410  25.454  1.00  0.00     0.116 C 
BRANCH  32  33
ATOM     33  N   UNL A   1      38.996  20.198  25.467  1.00  0.00    -0.352 N 
ATOM     34  C   UNL A   1      40.296  20.016  25.878  1.00  0.00     0.251 C 
ATOM     35  H   UNL A   1      38.543  19.389  25.134  1.00  0.00     0.163 HD
ATOM     36  O   UNL A   1      40.864  18.947  25.686  1.00  0.00    -0.269 OA
BRANCH  34  37
ATOM     37  C   UNL A   1      41.022  21.134  26.513  1.00  0.00     0.039 A 
ATOM     38  C   UNL A   1      41.709  22.038  25.699  1.00  0.00     0.014 A 
ATOM     39  C   UNL A   1      40.984  21.318  27.897  1.00  0.00     0.014 A 
ATOM     40  C   UNL A   1      42.270  23.185  26.264  1.00  0.00     0.010 A 
ATOM     41  C   UNL A   1      41.479  22.498  28.448  1.00  0.00     0.010 A 
ATOM     42  C   UNL A   1      42.104  23.454  27.633  1.00  0.00    -0.014 A 
BRANCH  42  43
ATOM     43  C   UNL A   1      42.511  24.759  28.214  1.00  0.00     0.031 A 
ATOM     44  C   UNL A   1      41.504  25.856  28.417  1.00  0.00     0.074 A 
ATOM     45  C   UNL A   1      43.814  24.983  28.478  1.00  0.00     0.049 A 
ATOM     46  N   UNL A   1      41.697  27.082  28.834  1.00  0.00    -0.248 NA
ATOM     47  C   UNL A   1      40.104  25.543  28.093  1.00  0.00     0.031 C 
ATOM     48  C   UNL A   1      44.898  24.015  28.285  1.00  0.00     0.029 A 
ATOM     49  N   UNL A   1      44.454  26.102  28.952  1.00  0.00    -0.354 N 
ATOM     50  C   UNL A   1      40.448  27.689  28.810  1.00  0.00     0.074 A 
ATOM     51  C   UNL A   1      39.511  26.710  28.300  1.00  0.00     0.031 C 
ATOM     52  C   UNL A   1      46.061  24.575  28.654  1.00  0.00     0.029 A 
ATOM     53  C   UNL A   1      45.816  25.954  29.060  1.00  0.00     0.049 A 
ATOM     54  H   UNL A   1      43.981  26.931  29.192  1.00  0.00     0.167 HD
ATOM     55  C   UNL A   1      40.112  28.944  29.189  1.00  0.00     0.031 A 
ATOM     56  C   UNL A   1      46.769  26.836  29.421  1.00  0.00     0.031 A 
ATOM     57  C   UNL A   1      41.043  29.916  29.697  1.00  0.00     0.049 A 
ATOM     58  C   UNL A   1      46.368  28.235  29.798  1.00  0.00     0.074 A 
ATOM     59  C   UNL A   1      40.782  31.191  30.170  1.00  0.00     0.029 A 
ATOM     60  N   UNL A   1      42.413  29.729  29.787  1.00  0.00    -0.354 N 
ATOM     61  N   UNL A   1      45.171  28.765  29.853  1.00  0.00    -0.248 NA
ATOM     62  C   UNL A   1      47.453  29.157  30.166  1.00  0.00     0.031 C 
ATOM     63  C   UNL A   1      42.002  31.800  30.481  1.00  0.00     0.029 A 
ATOM     64  C   UNL A   1      43.016  30.881  30.265  1.00  0.00     0.049 A 
ATOM     65  H   UNL A   1      42.887  28.901  29.547  1.00  0.00     0.167 HD
ATOM     66  C   UNL A   1      45.356  30.073  30.278  1.00  0.00     0.074 A 
ATOM     67  C   UNL A   1      46.777  30.249  30.493  1.00  0.00     0.031 C 
ATOM     68  C   UNL A   1      44.431  31.046  30.466  1.00  0.00     0.031 A 
BRANCH  55  69
ATOM     69  C   UNL A   1      38.670  29.353  29.058  1.00  0.00    -0.014 A 
ATOM     70  C   UNL A   1      38.159  29.847  27.848  1.00  0.00     0.009 A 
ATOM     71  C   UNL A   1      37.795  29.175  30.142  1.00  0.00     0.009 A 
ATOM     72  C   UNL A   1      36.807  30.178  27.734  1.00  0.00     0.001 A 
ATOM     73  C   UNL A   1      36.438  29.479  30.017  1.00  0.00     0.001 A 
ATOM     74  C   UNL A   1      35.947  29.986  28.815  1.00  0.00     0.000 A 
ENDBRANCH  55  69
BRANCH  56  75
ATOM     75  C   UNL A   1      48.201  26.434  29.422  1.00  0.00    -0.014 A 
ATOM     76  C   UNL A   1      48.792  25.886  30.570  1.00  0.00     0.009 A 
ATOM     77  C   UNL A   1      48.994  26.623  28.278  1.00  0.00     0.009 A 
ATOM     78  C   UNL A   1      50.153  25.568  30.584  1.00  0.00     0.001 A 
ATOM     79  C   UNL A   1      50.345  26.271  28.283  1.00  0.00     0.001 A 
ATOM     80  C   UNL A   1      50.926  25.757  29.440  1.00  0.00     0.000 A 
ENDBRANCH  56  75
BRANCH  68  81
ATOM     81  C   UNL A   1      44.927  32.382  30.944  1.00  0.00    -0.014 A 
ATOM     82  C   UNL A   1      45.065  32.660  32.314  1.00  0.00     0.009 A 
ATOM     83  C   UNL A   1      45.302  33.362  30.011  1.00  0.00     0.009 A 
ATOM     84  C   UNL A   1      45.537  33.903  32.738  1.00  0.00     0.001 A 
ATOM     85  C   UNL A   1      45.805  34.592  30.438  1.00  0.00     0.001 A 
ATOM     86  C   UNL A   1      45.913  34.865  31.801  1.00  0.00     0.000 A 
ENDBRANCH  68  81
ENDBRANCH  42  43
ENDBRANCH  34  37
ENDBRANCH  32  33
ENDBRANCH  31  32
ENDBRANCH   1  31
TORSDOF 14
ENDMDL
