MODEL 1
REMARK VINA RESULT:     -10.0      0.000      0.000
REMARK SMILES COC(=O)c1cccnc1N[C@](C)(C(=O)NCCCCNC(=O)c1ccc(-c2c3nc(c(-c4ccccc4)c4ccc([nH]4)c(-c4ccccc4)c4nc(c(-c5ccccc5)c5ccc2[nH]5)C=C4)C=C3)cc1)C(F)(F)F
REMARK SMILES IDX 17 1 16 2 14 3 15 4 12 6 13 7 11 8 10 10 5 11 6 12 7 13 9 14
REMARK SMILES IDX 8 15 3 16 4 17 2 18 1 19 72 20 73 21 74 22 75 23 18 24 19 25
REMARK SMILES IDX 20 26 21 27 22 28 23 30 24 31 25 32 71 33 26 34 70 35 27 36
REMARK SMILES IDX 28 37 29 38 64 39 30 40 69 41 63 42 65 43 31 44 68 45 62 46
REMARK SMILES IDX 61 47 32 49 54 50 39 51 53 52 40 53 43 54 52 55 66 56 41 57
REMARK SMILES IDX 42 58 51 60 67 61 44 62 33 63 34 64 38 65 35 66 37 67 36 68
REMARK SMILES IDX 55 69 56 70 60 71 57 72 59 73 58 74 45 75 46 76 50 77 47 78
REMARK SMILES IDX 49 79 48 80
REMARK H PARENT 16 5 11 9 21 29 65 48 43 59
REMARK Flexibility Score: inf
ROOT
ATOM      1  C   UNL A   1      34.129  28.877  26.839  1.00  0.00     0.116 C 
ENDROOT
BRANCH   1   2
ATOM      2  N   UNL A   1      34.376  28.966  25.422  1.00  0.00    -0.354 N 
ATOM      3  C   UNL A   1      33.677  28.418  24.377  1.00  0.00     0.254 C 
ATOM      4  O   UNL A   1      34.024  28.837  23.266  1.00  0.00    -0.272 OA
ATOM      5  H   UNL A   1      35.163  29.499  25.167  1.00  0.00     0.163 HD
BRANCH   3   6
ATOM      6  C   UNL A   1      32.545  27.357  24.555  1.00  0.00     0.211 C 
ATOM      7  C   UNL A   1      32.193  26.666  23.232  1.00  0.00     0.055 C 
BRANCH   6   8
ATOM      8  N   UNL A   1      32.856  26.429  25.691  1.00  0.00    -0.348 N 
ATOM      9  H   UNL A   1      32.595  26.782  26.572  1.00  0.00     0.163 HD
BRANCH   8  10
ATOM     10  C   UNL A   1      33.433  25.180  25.747  1.00  0.00     0.141 A 
ATOM     11  C   UNL A   1      32.729  24.080  26.274  1.00  0.00     0.102 A 
ATOM     12  C   UNL A   1      33.426  22.902  26.586  1.00  0.00     0.021 A 
ATOM     13  C   UNL A   1      34.786  22.819  26.333  1.00  0.00     0.021 A 
ATOM     14  N   UNL A   1      34.737  25.048  25.420  1.00  0.00    -0.239 NA
ATOM     15  C   UNL A   1      35.386  23.899  25.723  1.00  0.00     0.113 A 
BRANCH  11  16
ATOM     16  C   UNL A   1      31.254  24.165  26.445  1.00  0.00     0.341 C 
ATOM     17  O   UNL A   1      30.532  24.833  25.721  1.00  0.00    -0.246 OA
BRANCH  16  18
ATOM     18  O   UNL A   1      30.834  23.380  27.469  1.00  0.00    -0.465 OA
ATOM     19  C   UNL A   1      29.546  22.793  27.263  1.00  0.00     0.282 C 
ENDBRANCH  16  18
ENDBRANCH  11  16
ENDBRANCH   8  10
ENDBRANCH   6   8
BRANCH   6  20
ATOM     20  C   UNL A   1      31.280  28.191  24.941  1.00  0.00     0.420 C 
ATOM     21  F   UNL A   1      31.037  28.218  26.271  1.00  0.00    -0.168 F 
ATOM     22  F   UNL A   1      31.434  29.490  24.558  1.00  0.00    -0.168 F 
ATOM     23  F   UNL A   1      30.162  27.753  24.312  1.00  0.00    -0.168 F 
ENDBRANCH   6  20
ENDBRANCH   3   6
ENDBRANCH   1   2
BRANCH   1  24
ATOM     24  C   UNL A   1      34.350  30.177  27.596  1.00  0.00     0.023 C 
BRANCH  24  25
ATOM     25  C   UNL A   1      33.149  31.110  27.636  1.00  0.00     0.023 C 
BRANCH  25  26
ATOM     26  C   UNL A   1      33.346  32.463  26.960  1.00  0.00     0.116 C 
BRANCH  26  27
ATOM     27  N   UNL A   1      32.746  33.582  27.675  1.00  0.00    -0.352 N 
ATOM     28  C   UNL A   1      33.227  34.261  28.773  1.00  0.00     0.251 C 
ATOM     29  H   UNL A   1      31.880  33.896  27.326  1.00  0.00     0.163 HD
ATOM     30  O   UNL A   1      32.567  35.148  29.302  1.00  0.00    -0.269 OA
BRANCH  28  31
ATOM     31  C   UNL A   1      34.535  33.868  29.335  1.00  0.00     0.039 A 
ATOM     32  C   UNL A   1      34.570  33.046  30.463  1.00  0.00     0.014 A 
ATOM     33  C   UNL A   1      35.717  34.238  28.688  1.00  0.00     0.014 A 
ATOM     34  C   UNL A   1      35.788  32.509  30.884  1.00  0.00     0.010 A 
ATOM     35  C   UNL A   1      36.914  33.636  29.057  1.00  0.00     0.010 A 
ATOM     36  C   UNL A   1      36.962  32.757  30.151  1.00  0.00    -0.014 A 
BRANCH  36  37
ATOM     37  C   UNL A   1      38.247  32.097  30.492  1.00  0.00     0.031 A 
ATOM     38  C   UNL A   1      39.225  32.783  31.403  1.00  0.00     0.074 A 
ATOM     39  C   UNL A   1      38.576  30.926  29.909  1.00  0.00     0.049 A 
ATOM     40  N   UNL A   1      40.438  32.419  31.737  1.00  0.00    -0.248 NA
ATOM     41  C   UNL A   1      38.798  34.063  31.990  1.00  0.00     0.031 C 
ATOM     42  C   UNL A   1      37.740  30.179  28.966  1.00  0.00     0.029 A 
ATOM     43  N   UNL A   1      39.713  30.165  30.018  1.00  0.00    -0.354 N 
ATOM     44  C   UNL A   1      40.924  33.437  32.547  1.00  0.00     0.074 A 
ATOM     45  C   UNL A   1      39.897  34.452  32.616  1.00  0.00     0.031 C 
ATOM     46  C   UNL A   1      38.381  29.055  28.605  1.00  0.00     0.029 A 
ATOM     47  C   UNL A   1      39.685  29.021  29.257  1.00  0.00     0.049 A 
ATOM     48  H   UNL A   1      40.476  30.414  30.589  1.00  0.00     0.167 HD
ATOM     49  C   UNL A   1      42.112  33.512  33.192  1.00  0.00     0.031 A 
ATOM     50  C   UNL A   1      40.611  28.056  29.097  1.00  0.00     0.031 A 
ATOM     51  C   UNL A   1      43.125  32.494  33.148  1.00  0.00     0.049 A 
ATOM     52  C   UNL A   1      41.917  28.157  29.831  1.00  0.00     0.074 A 
ATOM     53  C   UNL A   1      44.333  32.448  33.821  1.00  0.00     0.029 A 
ATOM     54  N   UNL A   1      43.047  31.339  32.386  1.00  0.00    -0.354 N 
ATOM     55  N   UNL A   1      42.334  29.094  30.647  1.00  0.00    -0.248 NA
ATOM     56  C   UNL A   1      42.876  27.061  29.631  1.00  0.00     0.031 C 
ATOM     57  C   UNL A   1      45.003  31.282  33.437  1.00  0.00     0.029 A 
ATOM     58  C   UNL A   1      44.192  30.581  32.559  1.00  0.00     0.049 A 
ATOM     59  H   UNL A   1      42.289  31.094  31.806  1.00  0.00     0.167 HD
ATOM     60  C   UNL A   1      43.592  28.689  31.077  1.00  0.00     0.074 A 
ATOM     61  C   UNL A   1      43.863  27.416  30.442  1.00  0.00     0.031 C 
ATOM     62  C   UNL A   1      44.444  29.316  31.923  1.00  0.00     0.031 A 
BRANCH  49  63
ATOM     63  C   UNL A   1      42.374  34.748  34.007  1.00  0.00    -0.014 A 
ATOM     64  C   UNL A   1      42.931  35.897  33.423  1.00  0.00     0.009 A 
ATOM     65  C   UNL A   1      42.039  34.770  35.369  1.00  0.00     0.009 A 
ATOM     66  C   UNL A   1      43.184  37.030  34.197  1.00  0.00     0.001 A 
ATOM     67  C   UNL A   1      42.267  35.916  36.134  1.00  0.00     0.001 A 
ATOM     68  C   UNL A   1      42.849  37.040  35.551  1.00  0.00     0.000 A 
ENDBRANCH  49  63
BRANCH  50  69
ATOM     69  C   UNL A   1      40.328  26.891  28.218  1.00  0.00    -0.014 A 
ATOM     70  C   UNL A   1      40.836  26.853  26.909  1.00  0.00     0.009 A 
ATOM     71  C   UNL A   1      39.547  25.820  28.674  1.00  0.00     0.009 A 
ATOM     72  C   UNL A   1      40.547  25.776  26.069  1.00  0.00     0.001 A 
ATOM     73  C   UNL A   1      39.280  24.733  27.839  1.00  0.00     0.001 A 
ATOM     74  C   UNL A   1      39.772  24.715  26.535  1.00  0.00     0.000 A 
ENDBRANCH  50  69
BRANCH  62  75
ATOM     75  C   UNL A   1      45.735  28.617  32.240  1.00  0.00    -0.014 A 
ATOM     76  C   UNL A   1      45.826  27.704  33.302  1.00  0.00     0.009 A 
ATOM     77  C   UNL A   1      46.863  28.844  31.436  1.00  0.00     0.009 A 
ATOM     78  C   UNL A   1      47.031  27.052  33.568  1.00  0.00     0.001 A 
ATOM     79  C   UNL A   1      48.059  28.172  31.689  1.00  0.00     0.001 A 
ATOM     80  C   UNL A   1      48.144  27.282  32.759  1.00  0.00     0.000 A 
ENDBRANCH  62  75
ENDBRANCH  36  37
ENDBRANCH  28  31
ENDBRANCH  26  27
ENDBRANCH  25  26
ENDBRANCH  24  25
ENDBRANCH   1  24
TORSDOF 16
ENDMDL
MODEL 2
REMARK VINA RESULT:     -10.0      3.507      8.585
REMARK SMILES COC(=O)c1cccnc1N[C@](C)(C(=O)NCCCCNC(=O)c1ccc(-c2c3nc(c(-c4ccccc4)c4ccc([nH]4)c(-c4ccccc4)c4nc(c(-c5ccccc5)c5ccc2[nH]5)C=C4)C=C3)cc1)C(F)(F)F
REMARK SMILES IDX 17 1 16 2 14 3 15 4 12 6 13 7 11 8 10 10 5 11 6 12 7 13 9 14
REMARK SMILES IDX 8 15 3 16 4 17 2 18 1 19 72 20 73 21 74 22 75 23 18 24 19 25
REMARK SMILES IDX 20 26 21 27 22 28 23 30 24 31 25 32 71 33 26 34 70 35 27 36
REMARK SMILES IDX 28 37 29 38 64 39 30 40 69 41 63 42 65 43 31 44 68 45 62 46
REMARK SMILES IDX 61 47 32 49 54 50 39 51 53 52 40 53 43 54 52 55 66 56 41 57
REMARK SMILES IDX 42 58 51 60 67 61 44 62 33 63 34 64 38 65 35 66 37 67 36 68
REMARK SMILES IDX 55 69 56 70 60 71 57 72 59 73 58 74 45 75 46 76 50 77 47 78
REMARK SMILES IDX 49 79 48 80
REMARK H PARENT 16 5 11 9 21 29 65 48 43 59
REMARK Flexibility Score: inf
ROOT
ATOM      1  C   UNL A   1      36.471  23.296  25.282  1.00  0.00     0.116 C 
ENDROOT
BRANCH   1   2
ATOM      2  N   UNL A   1      35.791  22.748  26.428  1.00  0.00    -0.354 N 
ATOM      3  C   UNL A   1      34.460  22.471  26.604  1.00  0.00     0.254 C 
ATOM      4  O   UNL A   1      34.213  21.822  27.628  1.00  0.00    -0.272 OA
ATOM      5  H   UNL A   1      36.368  22.540  27.198  1.00  0.00     0.163 HD
BRANCH   3   6
ATOM      6  C   UNL A   1      33.342  22.930  25.615  1.00  0.00     0.211 C 
ATOM      7  C   UNL A   1      31.954  22.904  26.265  1.00  0.00     0.055 C 
BRANCH   6   8
ATOM      8  N   UNL A   1      33.709  24.228  24.959  1.00  0.00    -0.348 N 
ATOM      9  H   UNL A   1      34.443  24.147  24.307  1.00  0.00     0.163 HD
BRANCH   8  10
ATOM     10  C   UNL A   1      33.224  25.510  25.086  1.00  0.00     0.141 A 
ATOM     11  C   UNL A   1      32.422  26.084  24.081  1.00  0.00     0.102 A 
ATOM     12  C   UNL A   1      32.186  27.468  24.095  1.00  0.00     0.021 A 
ATOM     13  C   UNL A   1      32.706  28.245  25.118  1.00  0.00     0.021 A 
ATOM     14  N   UNL A   1      33.642  26.266  26.125  1.00  0.00    -0.239 NA
ATOM     15  C   UNL A   1      33.394  27.598  26.121  1.00  0.00     0.113 A 
BRANCH  11  16
ATOM     16  C   UNL A   1      31.799  25.212  23.050  1.00  0.00     0.341 C 
ATOM     17  O   UNL A   1      30.623  24.884  23.072  1.00  0.00    -0.246 OA
BRANCH  16  18
ATOM     18  O   UNL A   1      32.693  24.879  22.085  1.00  0.00    -0.465 OA
ATOM     19  C   UNL A   1      32.514  25.587  20.855  1.00  0.00     0.282 C 
ENDBRANCH  16  18
ENDBRANCH  11  16
ENDBRANCH   8  10
ENDBRANCH   6   8
BRANCH   6  20
ATOM     20  C   UNL A   1      33.309  21.821  24.514  1.00  0.00     0.420 C 
ATOM     21  F   UNL A   1      32.058  21.470  24.139  1.00  0.00    -0.168 F 
ATOM     22  F   UNL A   1      33.934  22.257  23.384  1.00  0.00    -0.168 F 
ATOM     23  F   UNL A   1      33.972  20.700  24.891  1.00  0.00    -0.168 F 
ENDBRANCH   6  20
ENDBRANCH   3   6
ENDBRANCH   1   2
BRANCH   1  24
ATOM     24  C   UNL A   1      37.033  22.253  24.329  1.00  0.00     0.023 C 
BRANCH  24  25
ATOM     25  C   UNL A   1      37.535  20.979  24.993  1.00  0.00     0.023 C 
BRANCH  25  26
ATOM     26  C   UNL A   1      38.818  21.125  25.803  1.00  0.00     0.116 C 
BRANCH  26  27
ATOM     27  N   UNL A   1      39.695  19.962  25.750  1.00  0.00    -0.352 N 
ATOM     28  C   UNL A   1      41.025  19.868  26.096  1.00  0.00     0.251 C 
ATOM     29  H   UNL A   1      39.280  19.130  25.423  1.00  0.00     0.163 HD
ATOM     30  O   UNL A   1      41.645  18.824  25.932  1.00  0.00    -0.269 OA
BRANCH  28  31
ATOM     31  C   UNL A   1      41.708  21.066  26.624  1.00  0.00     0.039 A 
ATOM     32  C   UNL A   1      42.220  22.007  25.728  1.00  0.00     0.014 A 
ATOM     33  C   UNL A   1      41.755  21.299  28.001  1.00  0.00     0.014 A 
ATOM     34  C   UNL A   1      42.689  23.230  26.209  1.00  0.00     0.010 A 
ATOM     35  C   UNL A   1      42.143  22.548  28.470  1.00  0.00     0.010 A 
ATOM     36  C   UNL A   1      42.603  23.531  27.579  1.00  0.00    -0.014 A 
BRANCH  36  37
ATOM     37  C   UNL A   1      42.968  24.869  28.107  1.00  0.00     0.031 A 
ATOM     38  C   UNL A   1      41.902  25.904  28.335  1.00  0.00     0.074 A 
ATOM     39  C   UNL A   1      44.265  25.188  28.292  1.00  0.00     0.049 A 
ATOM     40  N   UNL A   1      42.029  27.157  28.690  1.00  0.00    -0.248 NA
ATOM     41  C   UNL A   1      40.511  25.484  28.100  1.00  0.00     0.031 C 
ATOM     42  C   UNL A   1      45.403  24.295  28.060  1.00  0.00     0.029 A 
ATOM     43  N   UNL A   1      44.845  26.361  28.708  1.00  0.00    -0.354 N 
ATOM     44  C   UNL A   1      40.742  27.679  28.694  1.00  0.00     0.074 A 
ATOM     45  C   UNL A   1      39.855  26.622  28.260  1.00  0.00     0.031 C 
ATOM     46  C   UNL A   1      46.540  24.943  28.362  1.00  0.00     0.029 A 
ATOM     47  C   UNL A   1      46.216  26.306  28.770  1.00  0.00     0.049 A 
ATOM     48  H   UNL A   1      44.327  27.165  28.940  1.00  0.00     0.167 HD
ATOM     49  C   UNL A   1      40.332  28.920  29.044  1.00  0.00     0.031 A 
ATOM     50  C   UNL A   1      47.114  27.250  29.111  1.00  0.00     0.031 A 
ATOM     51  C   UNL A   1      41.206  29.965  29.500  1.00  0.00     0.049 A 
ATOM     52  C   UNL A   1      46.632  28.617  29.506  1.00  0.00     0.074 A 
ATOM     53  C   UNL A   1      40.877  31.234  29.943  1.00  0.00     0.029 A 
ATOM     54  N   UNL A   1      42.586  29.860  29.574  1.00  0.00    -0.354 N 
ATOM     55  N   UNL A   1      45.406  29.073  29.569  1.00  0.00    -0.248 NA
ATOM     56  C   UNL A   1      47.660  29.596  29.888  1.00  0.00     0.031 C 
ATOM     57  C   UNL A   1      42.062  31.910  30.248  1.00  0.00     0.029 A 
ATOM     58  C   UNL A   1      43.125  31.047  30.039  1.00  0.00     0.049 A 
ATOM     59  H   UNL A   1      43.106  29.060  29.331  1.00  0.00     0.167 HD
ATOM     60  C   UNL A   1      45.512  30.383  30.020  1.00  0.00     0.074 A 
ATOM     61  C   UNL A   1      46.922  30.642  30.229  1.00  0.00     0.031 C 
ATOM     62  C   UNL A   1      44.529  31.288  30.244  1.00  0.00     0.031 A 
BRANCH  49  63
ATOM     63  C   UNL A   1      38.860  29.210  28.946  1.00  0.00    -0.014 A 
ATOM     64  C   UNL A   1      38.015  29.057  30.057  1.00  0.00     0.009 A 
ATOM     65  C   UNL A   1      38.317  29.661  27.734  1.00  0.00     0.009 A 
ATOM     66  C   UNL A   1      36.647  29.314  29.943  1.00  0.00     0.001 A 
ATOM     67  C   UNL A   1      36.954  29.944  27.632  1.00  0.00     0.001 A 
ATOM     68  C   UNL A   1      36.118  29.760  28.733  1.00  0.00     0.000 A 
ENDBRANCH  49  63
BRANCH  50  69
ATOM     69  C   UNL A   1      48.566  26.930  29.118  1.00  0.00    -0.014 A 
ATOM     70  C   UNL A   1      49.346  27.164  27.974  1.00  0.00     0.009 A 
ATOM     71  C   UNL A   1      49.176  26.386  30.257  1.00  0.00     0.009 A 
ATOM     72  C   UNL A   1      50.703  26.836  27.965  1.00  0.00     0.001 A 
ATOM     73  C   UNL A   1      50.539  26.082  30.252  1.00  0.00     0.001 A 
ATOM     74  C   UNL A   1      51.300  26.298  29.104  1.00  0.00     0.000 A 
ENDBRANCH  50  69
BRANCH  62  75
ATOM     75  C   UNL A   1      44.939  32.631  30.774  1.00  0.00    -0.014 A 
ATOM     76  C   UNL A   1      45.212  33.702  29.909  1.00  0.00     0.009 A 
ATOM     77  C   UNL A   1      45.010  32.838  32.160  1.00  0.00     0.009 A 
ATOM     78  C   UNL A   1      45.574  34.947  30.424  1.00  0.00     0.001 A 
ATOM     79  C   UNL A   1      45.347  34.091  32.673  1.00  0.00     0.001 A 
ATOM     80  C   UNL A   1      45.637  35.142  31.804  1.00  0.00     0.000 A 
ENDBRANCH  62  75
ENDBRANCH  36  37
ENDBRANCH  28  31
ENDBRANCH  26  27
ENDBRANCH  25  26
ENDBRANCH  24  25
ENDBRANCH   1  24
TORSDOF 16
ENDMDL
MODEL 3
REMARK VINA RESULT:     -10.0      3.304      8.420
REMARK SMILES COC(=O)c1cccnc1N[C@](C)(C(=O)NCCCCNC(=O)c1ccc(-c2c3nc(c(-c4ccccc4)c4ccc([nH]4)c(-c4ccccc4)c4nc(c(-c5ccccc5)c5ccc2[nH]5)C=C4)C=C3)cc1)C(F)(F)F
REMARK SMILES IDX 17 1 16 2 14 3 15 4 12 6 13 7 11 8 10 10 5 11 6 12 7 13 9 14
REMARK SMILES IDX 8 15 3 16 4 17 2 18 1 19 72 20 73 21 74 22 75 23 18 24 19 25
REMARK SMILES IDX 20 26 21 27 22 28 23 30 24 31 25 32 71 33 26 34 70 35 27 36
REMARK SMILES IDX 28 37 29 38 64 39 30 40 69 41 63 42 65 43 31 44 68 45 62 46
REMARK SMILES IDX 61 47 32 49 54 50 39 51 53 52 40 53 43 54 52 55 66 56 41 57
REMARK SMILES IDX 42 58 51 60 67 61 44 62 33 63 34 64 38 65 35 66 37 67 36 68
REMARK SMILES IDX 55 69 56 70 60 71 57 72 59 73 58 74 45 75 46 76 50 77 47 78
REMARK SMILES IDX 49 79 48 80
REMARK H PARENT 16 5 11 9 21 29 65 48 43 59
REMARK Flexibility Score: inf
ROOT
ATOM      1  C   UNL A   1      36.359  23.178  25.035  1.00  0.00     0.116 C 
ENDROOT
BRANCH   1   2
ATOM      2  N   UNL A   1      35.720  22.596  26.188  1.00  0.00    -0.354 N 
ATOM      3  C   UNL A   1      34.404  22.267  26.384  1.00  0.00     0.254 C 
ATOM      4  O   UNL A   1      34.199  21.601  27.407  1.00  0.00    -0.272 OA
ATOM      5  H   UNL A   1      36.318  22.405  26.946  1.00  0.00     0.163 HD
BRANCH   3   6
ATOM      6  C   UNL A   1      33.252  22.690  25.417  1.00  0.00     0.211 C 
ATOM      7  C   UNL A   1      31.872  22.532  26.064  1.00  0.00     0.055 C 
BRANCH   6   8
ATOM      8  N   UNL A   1      33.522  24.040  24.823  1.00  0.00    -0.348 N 
ATOM      9  H   UNL A   1      34.185  24.026  24.095  1.00  0.00     0.163 HD
BRANCH   8  10
ATOM     10  C   UNL A   1      33.027  25.296  25.093  1.00  0.00     0.141 A 
ATOM     11  C   UNL A   1      32.073  25.896  24.248  1.00  0.00     0.102 A 
ATOM     12  C   UNL A   1      31.805  27.268  24.377  1.00  0.00     0.021 A 
ATOM     13  C   UNL A   1      32.448  28.006  25.359  1.00  0.00     0.021 A 
ATOM     14  N   UNL A   1      33.571  26.009  26.104  1.00  0.00    -0.239 NA
ATOM     15  C   UNL A   1      33.291  27.329  26.213  1.00  0.00     0.113 A 
BRANCH  11  16
ATOM     16  C   UNL A   1      31.331  25.059  23.268  1.00  0.00     0.341 C 
ATOM     17  O   UNL A   1      30.125  24.872  23.324  1.00  0.00    -0.246 OA
BRANCH  16  18
ATOM     18  O   UNL A   1      32.159  24.584  22.303  1.00  0.00    -0.465 OA
ATOM     19  C   UNL A   1      32.572  25.569  21.352  1.00  0.00     0.282 C 
ENDBRANCH  16  18
ENDBRANCH  11  16
ENDBRANCH   8  10
ENDBRANCH   6   8
BRANCH   6  20
ATOM     20  C   UNL A   1      33.298  21.634  24.264  1.00  0.00     0.420 C 
ATOM     21  F   UNL A   1      32.075  21.191  23.890  1.00  0.00    -0.168 F 
ATOM     22  F   UNL A   1      33.861  22.176  23.148  1.00  0.00    -0.168 F 
ATOM     23  F   UNL A   1      34.063  20.561  24.578  1.00  0.00    -0.168 F 
ENDBRANCH   6  20
ENDBRANCH   3   6
ENDBRANCH   1   2
BRANCH   1  24
ATOM     24  C   UNL A   1      37.032  22.170  24.116  1.00  0.00     0.023 C 
BRANCH  24  25
ATOM     25  C   UNL A   1      37.475  20.880  24.792  1.00  0.00     0.023 C 
BRANCH  25  26
ATOM     26  C   UNL A   1      38.677  21.007  25.721  1.00  0.00     0.116 C 
BRANCH  26  27
ATOM     27  N   UNL A   1      39.611  19.890  25.647  1.00  0.00    -0.352 N 
ATOM     28  C   UNL A   1      40.942  19.855  26.000  1.00  0.00     0.251 C 
ATOM     29  H   UNL A   1      39.240  19.047  25.299  1.00  0.00     0.163 HD
ATOM     30  O   UNL A   1      41.614  18.846  25.817  1.00  0.00    -0.269 OA
BRANCH  28  31
ATOM     31  C   UNL A   1      41.562  21.073  26.560  1.00  0.00     0.039 A 
ATOM     32  C   UNL A   1      42.115  22.015  25.690  1.00  0.00     0.014 A 
ATOM     33  C   UNL A   1      41.508  21.320  27.934  1.00  0.00     0.014 A 
ATOM     34  C   UNL A   1      42.524  23.253  26.188  1.00  0.00     0.010 A 
ATOM     35  C   UNL A   1      41.837  22.583  28.413  1.00  0.00     0.010 A 
ATOM     36  C   UNL A   1      42.337  23.566  27.545  1.00  0.00    -0.014 A 
BRANCH  36  37
ATOM     37  C   UNL A   1      42.637  24.917  28.081  1.00  0.00     0.031 A 
ATOM     38  C   UNL A   1      44.031  25.256  28.527  1.00  0.00     0.074 A 
ATOM     39  C   UNL A   1      41.639  25.808  28.254  1.00  0.00     0.049 A 
ATOM     40  N   UNL A   1      44.469  26.341  29.115  1.00  0.00    -0.248 NA
ATOM     41  C   UNL A   1      45.062  24.228  28.316  1.00  0.00     0.031 C 
ATOM     42  C   UNL A   1      40.232  25.589  27.910  1.00  0.00     0.029 A 
ATOM     43  N   UNL A   1      41.658  27.077  28.776  1.00  0.00    -0.354 N 
ATOM     44  C   UNL A   1      45.816  26.113  29.367  1.00  0.00     0.074 A 
ATOM     45  C   UNL A   1      46.111  24.772  28.913  1.00  0.00     0.031 C 
ATOM     46  C   UNL A   1      39.529  26.694  28.206  1.00  0.00     0.029 A 
ATOM     47  C   UNL A   1      40.425  27.684  28.795  1.00  0.00     0.049 A 
ATOM     48  H   UNL A   1      42.477  27.512  29.106  1.00  0.00     0.167 HD
ATOM     49  C   UNL A   1      46.730  26.950  29.911  1.00  0.00     0.031 A 
ATOM     50  C   UNL A   1      40.056  28.899  29.243  1.00  0.00     0.031 A 
ATOM     51  C   UNL A   1      46.447  28.292  30.340  1.00  0.00     0.049 A 
ATOM     52  C   UNL A   1      41.091  29.813  29.833  1.00  0.00     0.074 A 
ATOM     53  C   UNL A   1      47.322  29.240  30.840  1.00  0.00     0.029 A 
ATOM     54  N   UNL A   1      45.191  28.877  30.317  1.00  0.00    -0.354 N 
ATOM     55  N   UNL A   1      42.374  29.607  30.002  1.00  0.00    -0.248 NA
ATOM     56  C   UNL A   1      40.628  31.134  30.283  1.00  0.00     0.031 C 
ATOM     57  C   UNL A   1      46.587  30.387  31.156  1.00  0.00     0.029 A 
ATOM     58  C   UNL A   1      45.264  30.168  30.810  1.00  0.00     0.049 A 
ATOM     59  H   UNL A   1      44.369  28.439  29.998  1.00  0.00     0.167 HD
ATOM     60  C   UNL A   1      42.876  30.778  30.555  1.00  0.00     0.074 A 
ATOM     61  C   UNL A   1      41.762  31.696  30.679  1.00  0.00     0.031 C 
ATOM     62  C   UNL A   1      44.147  31.068  30.924  1.00  0.00     0.031 A 
BRANCH  49  63
ATOM     63  C   UNL A   1      48.131  26.427  30.069  1.00  0.00    -0.014 A 
ATOM     64  C   UNL A   1      49.069  26.542  29.031  1.00  0.00     0.009 A 
ATOM     65  C   UNL A   1      48.522  25.834  31.278  1.00  0.00     0.009 A 
ATOM     66  C   UNL A   1      50.360  26.036  29.188  1.00  0.00     0.001 A 
ATOM     67  C   UNL A   1      49.823  25.354  31.442  1.00  0.00     0.001 A 
ATOM     68  C   UNL A   1      50.738  25.446  30.394  1.00  0.00     0.000 A 
ENDBRANCH  49  63
BRANCH  50  69
ATOM     69  C   UNL A   1      38.639  29.335  29.131  1.00  0.00    -0.014 A 
ATOM     70  C   UNL A   1      38.161  29.887  27.932  1.00  0.00     0.009 A 
ATOM     71  C   UNL A   1      37.762  29.211  30.219  1.00  0.00     0.009 A 
ATOM     72  C   UNL A   1      36.840  30.328  27.833  1.00  0.00     0.001 A 
ATOM     73  C   UNL A   1      36.435  29.630  30.108  1.00  0.00     0.001 A 
ATOM     74  C   UNL A   1      35.976  30.197  28.920  1.00  0.00     0.000 A 
ENDBRANCH  50  69
BRANCH  62  75
ATOM     75  C   UNL A   1      44.409  32.444  31.464  1.00  0.00    -0.014 A 
ATOM     76  C   UNL A   1      44.369  32.704  32.843  1.00  0.00     0.009 A 
ATOM     77  C   UNL A   1      44.742  33.484  30.582  1.00  0.00     0.009 A 
ATOM     78  C   UNL A   1      44.634  33.987  33.324  1.00  0.00     0.001 A 
ATOM     79  C   UNL A   1      45.031  34.759  31.069  1.00  0.00     0.001 A 
ATOM     80  C   UNL A   1      44.969  35.011  32.439  1.00  0.00     0.000 A 
ENDBRANCH  62  75
ENDBRANCH  36  37
ENDBRANCH  28  31
ENDBRANCH  26  27
ENDBRANCH  25  26
ENDBRANCH  24  25
ENDBRANCH   1  24
TORSDOF 16
ENDMDL
