MODEL 1
REMARK VINA RESULT:     -10.6      0.000      0.000
REMARK SMILES C[C@@H](C(=O)NCCCCNC(=O)c1ccc(-c2c3nc(c(-c4ccccc4)c4ccc([nH]4)c(-c4ccccc4)c4nc(c(-c5ccccc5)c5ccc2[nH]5)C=C4)C=C3)cc1)c1ccc(Cc2cccs2)cc1F
REMARK SMILES IDX 7 1 6 2 5 3 3 4 4 5 2 7 1 8 61 9 62 10 72 11 63 12 71 13
REMARK SMILES IDX 73 14 64 15 65 16 66 17 67 18 70 19 68 20 69 21 8 22 9 23
REMARK SMILES IDX 10 24 11 25 12 27 13 28 14 29 60 30 15 31 59 32 16 33 17 34
REMARK SMILES IDX 18 35 53 36 19 37 58 38 52 39 54 40 20 41 57 42 51 43 50 44
REMARK SMILES IDX 21 46 43 47 28 48 42 49 29 50 32 51 41 52 55 53 30 54 31 55
REMARK SMILES IDX 40 57 56 58 33 59 22 60 23 61 27 62 24 63 26 64 25 65 44 66
REMARK SMILES IDX 45 67 49 68 46 69 48 70 47 71 34 72 35 73 39 74 36 75 38 76
REMARK SMILES IDX 37 77
REMARK H PARENT 5 6 10 26 54 45 32 56
REMARK Flexibility Score: inf
ROOT
ATOM      1  C   UNL A   1      33.871  28.137  24.403  1.00  0.00     0.023 C 
ENDROOT
BRANCH   1   2
ATOM      2  C   UNL A   1      33.040  28.731  23.264  1.00  0.00     0.116 C 
BRANCH   2   3
ATOM      3  N   UNL A   1      31.972  29.564  23.772  1.00  0.00    -0.356 N 
ATOM      4  C   UNL A   1      30.618  29.424  23.685  1.00  0.00     0.227 C 
ATOM      5  O   UNL A   1      29.959  30.327  24.205  1.00  0.00    -0.274 OA
ATOM      6  H   UNL A   1      32.272  30.363  24.262  1.00  0.00     0.163 HD
BRANCH   4   7
ATOM      7  C   UNL A   1      30.002  28.180  23.015  1.00  0.00     0.108 C 
ATOM      8  C   UNL A   1      28.478  28.250  22.900  1.00  0.00     0.023 C 
BRANCH   7   9
ATOM      9  C   UNL A   1      30.343  26.857  23.692  1.00  0.00    -0.000 A 
ATOM     10  C   UNL A   1      29.894  26.535  24.980  1.00  0.00     0.008 A 
ATOM     11  C   UNL A   1      31.033  25.871  22.979  1.00  0.00     0.127 A 
ATOM     12  C   UNL A   1      30.164  25.287  25.543  1.00  0.00     0.004 A 
ATOM     13  C   UNL A   1      31.308  24.621  23.532  1.00  0.00     0.043 A 
ATOM     14  F   UNL A   1      31.414  26.110  21.715  1.00  0.00    -0.207 F 
ATOM     15  C   UNL A   1      30.881  24.317  24.830  1.00  0.00    -0.040 A 
BRANCH  15  16
ATOM     16  C   UNL A   1      31.171  22.969  25.453  1.00  0.00     0.082 C 
BRANCH  16  17
ATOM     17  C   UNL A   1      32.614  22.769  25.829  1.00  0.00     0.009 A 
ATOM     18  C   UNL A   1      33.494  23.664  26.410  1.00  0.00     0.016 A 
ATOM     19  S   UNL A   1      33.356  21.239  25.597  1.00  0.00    -0.149 S 
ATOM     20  C   UNL A   1      34.773  23.092  26.663  1.00  0.00     0.012 A 
ATOM     21  C   UNL A   1      34.831  21.773  26.275  1.00  0.00     0.065 A 
ENDBRANCH  16  17
ENDBRANCH  15  16
ENDBRANCH   7   9
ENDBRANCH   4   7
ENDBRANCH   2   3
ENDBRANCH   1   2
BRANCH   1  22
ATOM     22  C   UNL A   1      33.107  27.914  25.710  1.00  0.00     0.023 C 
BRANCH  22  23
ATOM     23  C   UNL A   1      33.863  28.303  26.971  1.00  0.00     0.116 C 
BRANCH  23  24
ATOM     24  N   UNL A   1      33.633  29.686  27.358  1.00  0.00    -0.352 N 
ATOM     25  C   UNL A   1      34.472  30.546  28.022  1.00  0.00     0.251 C 
ATOM     26  H   UNL A   1      32.756  30.057  27.109  1.00  0.00     0.163 HD
ATOM     27  O   UNL A   1      34.062  31.639  28.402  1.00  0.00    -0.269 OA
BRANCH  25  28
ATOM     28  C   UNL A   1      35.865  30.140  28.297  1.00  0.00     0.039 A 
ATOM     29  C   UNL A   1      36.178  29.604  29.549  1.00  0.00     0.014 A 
ATOM     30  C   UNL A   1      36.858  30.281  27.323  1.00  0.00     0.014 A 
ATOM     31  C   UNL A   1      37.479  29.172  29.809  1.00  0.00     0.010 A 
ATOM     32  C   UNL A   1      38.128  29.767  27.552  1.00  0.00     0.010 A 
ATOM     33  C   UNL A   1      38.458  29.228  28.804  1.00  0.00    -0.014 A 
BRANCH  33  34
ATOM     34  C   UNL A   1      39.847  28.769  29.057  1.00  0.00     0.031 A 
ATOM     35  C   UNL A   1      40.830  29.689  29.730  1.00  0.00     0.074 A 
ATOM     36  C   UNL A   1      40.238  27.549  28.643  1.00  0.00     0.049 A 
ATOM     37  N   UNL A   1      42.090  29.484  30.018  1.00  0.00    -0.248 NA
ATOM     38  C   UNL A   1      40.339  31.026  30.101  1.00  0.00     0.031 C 
ATOM     39  C   UNL A   1      39.393  26.576  27.949  1.00  0.00     0.029 A 
ATOM     40  N   UNL A   1      41.452  26.920  28.750  1.00  0.00    -0.354 N 
ATOM     41  C   UNL A   1      42.544  30.671  30.581  1.00  0.00     0.074 A 
ATOM     42  C   UNL A   1      41.445  31.608  30.536  1.00  0.00     0.031 C 
ATOM     43  C   UNL A   1      40.102  25.457  27.731  1.00  0.00     0.029 A 
ATOM     44  C   UNL A   1      41.460  25.649  28.231  1.00  0.00     0.049 A 
ATOM     45  H   UNL A   1      42.243  27.339  29.161  1.00  0.00     0.167 HD
ATOM     46  C   UNL A   1      43.760  30.952  31.108  1.00  0.00     0.031 A 
ATOM     47  C   UNL A   1      42.450  24.738  28.168  1.00  0.00     0.031 A 
ATOM     48  C   UNL A   1      44.851  30.016  31.157  1.00  0.00     0.049 A 
ATOM     49  C   UNL A   1      43.797  25.077  28.743  1.00  0.00     0.074 A 
ATOM     50  C   UNL A   1      46.104  30.180  31.722  1.00  0.00     0.029 A 
ATOM     51  N   UNL A   1      44.821  28.741  30.612  1.00  0.00    -0.354 N 
ATOM     52  N   UNL A   1      44.191  26.176  29.337  1.00  0.00    -0.248 NA
ATOM     53  C   UNL A   1      44.831  24.037  28.652  1.00  0.00     0.031 C 
ATOM     54  C   UNL A   1      46.852  29.027  31.463  1.00  0.00     0.029 A 
ATOM     55  C   UNL A   1      46.042  28.117  30.803  1.00  0.00     0.049 A 
ATOM     56  H   UNL A   1      44.045  28.338  30.159  1.00  0.00     0.167 HD
ATOM     57  C   UNL A   1      45.505  25.948  29.727  1.00  0.00     0.074 A 
ATOM     58  C   UNL A   1      45.834  24.600  29.308  1.00  0.00     0.031 C 
ATOM     59  C   UNL A   1      46.357  26.775  30.380  1.00  0.00     0.031 A 
BRANCH  46  60
ATOM     60  C   UNL A   1      43.969  32.340  31.652  1.00  0.00    -0.014 A 
ATOM     61  C   UNL A   1      43.752  32.639  33.007  1.00  0.00     0.009 A 
ATOM     62  C   UNL A   1      44.389  33.367  30.793  1.00  0.00     0.009 A 
ATOM     63  C   UNL A   1      43.895  33.947  33.477  1.00  0.00     0.001 A 
ATOM     64  C   UNL A   1      44.569  34.667  31.273  1.00  0.00     0.001 A 
ATOM     65  C   UNL A   1      44.306  34.958  32.610  1.00  0.00     0.000 A 
ENDBRANCH  46  60
BRANCH  47  66
ATOM     66  C   UNL A   1      42.191  23.400  27.573  1.00  0.00    -0.014 A 
ATOM     67  C   UNL A   1      42.588  23.122  26.256  1.00  0.00     0.009 A 
ATOM     68  C   UNL A   1      41.555  22.394  28.316  1.00  0.00     0.009 A 
ATOM     69  C   UNL A   1      42.329  21.873  25.685  1.00  0.00     0.001 A 
ATOM     70  C   UNL A   1      41.324  21.136  27.754  1.00  0.00     0.001 A 
ATOM     71  C   UNL A   1      41.702  20.880  26.437  1.00  0.00     0.000 A 
ENDBRANCH  47  66
BRANCH  59  72
ATOM     72  C   UNL A   1      47.714  26.228  30.733  1.00  0.00    -0.014 A 
ATOM     73  C   UNL A   1      48.774  26.230  29.814  1.00  0.00     0.009 A 
ATOM     74  C   UNL A   1      47.939  25.729  32.027  1.00  0.00     0.009 A 
ATOM     75  C   UNL A   1      50.019  25.705  30.170  1.00  0.00     0.001 A 
ATOM     76  C   UNL A   1      49.193  25.238  32.391  1.00  0.00     0.001 A 
ATOM     77  C   UNL A   1      50.228  25.214  31.459  1.00  0.00     0.000 A 
ENDBRANCH  59  72
ENDBRANCH  33  34
ENDBRANCH  25  28
ENDBRANCH  23  24
ENDBRANCH  22  23
ENDBRANCH   1  22
TORSDOF 14
ENDMDL
MODEL 2
REMARK VINA RESULT:     -10.5      2.972      7.759
REMARK SMILES C[C@@H](C(=O)NCCCCNC(=O)c1ccc(-c2c3nc(c(-c4ccccc4)c4ccc([nH]4)c(-c4ccccc4)c4nc(c(-c5ccccc5)c5ccc2[nH]5)C=C4)C=C3)cc1)c1ccc(Cc2cccs2)cc1F
REMARK SMILES IDX 7 1 6 2 5 3 3 4 4 5 2 7 1 8 61 9 62 10 72 11 63 12 71 13
REMARK SMILES IDX 73 14 64 15 65 16 66 17 67 18 70 19 68 20 69 21 8 22 9 23
REMARK SMILES IDX 10 24 11 25 12 27 13 28 14 29 60 30 15 31 59 32 16 33 17 34
REMARK SMILES IDX 18 35 53 36 19 37 58 38 52 39 54 40 20 41 57 42 51 43 50 44
REMARK SMILES IDX 21 46 43 47 28 48 42 49 29 50 32 51 41 52 55 53 30 54 31 55
REMARK SMILES IDX 40 57 56 58 33 59 22 60 23 61 27 62 24 63 26 64 25 65 44 66
REMARK SMILES IDX 45 67 49 68 46 69 48 70 47 71 34 72 35 73 39 74 36 75 38 76
REMARK SMILES IDX 37 77
REMARK H PARENT 5 6 10 26 54 45 32 56
REMARK Flexibility Score: inf
ROOT
ATOM      1  C   UNL A   1      39.026  22.337  26.149  1.00  0.00     0.023 C 
ENDROOT
BRANCH   1   2
ATOM      2  C   UNL A   1      37.743  23.128  25.887  1.00  0.00     0.116 C 
BRANCH   2   3
ATOM      3  N   UNL A   1      37.437  23.181  24.474  1.00  0.00    -0.356 N 
ATOM      4  C   UNL A   1      36.258  23.003  23.813  1.00  0.00     0.227 C 
ATOM      5  O   UNL A   1      36.323  23.086  22.584  1.00  0.00    -0.274 OA
ATOM      6  H   UNL A   1      38.208  23.378  23.894  1.00  0.00     0.163 HD
BRANCH   4   7
ATOM      7  C   UNL A   1      34.951  22.765  24.595  1.00  0.00     0.108 C 
ATOM      8  C   UNL A   1      33.961  21.863  23.854  1.00  0.00     0.023 C 
BRANCH   7   9
ATOM      9  C   UNL A   1      34.201  24.034  24.982  1.00  0.00    -0.000 A 
ATOM     10  C   UNL A   1      34.382  25.250  24.309  1.00  0.00     0.008 A 
ATOM     11  C   UNL A   1      33.212  23.980  25.971  1.00  0.00     0.127 A 
ATOM     12  C   UNL A   1      33.628  26.375  24.644  1.00  0.00     0.004 A 
ATOM     13  C   UNL A   1      32.453  25.098  26.312  1.00  0.00     0.043 A 
ATOM     14  F   UNL A   1      32.952  22.817  26.587  1.00  0.00    -0.207 F 
ATOM     15  C   UNL A   1      32.659  26.317  25.654  1.00  0.00    -0.040 A 
BRANCH  15  16
ATOM     16  C   UNL A   1      31.851  27.545  26.010  1.00  0.00     0.082 C 
BRANCH  16  17
ATOM     17  C   UNL A   1      31.014  28.073  24.877  1.00  0.00     0.009 A 
ATOM     18  C   UNL A   1      30.970  29.351  24.350  1.00  0.00     0.016 A 
ATOM     19  S   UNL A   1      29.973  27.015  24.015  1.00  0.00    -0.149 S 
ATOM     20  C   UNL A   1      30.083  29.458  23.240  1.00  0.00     0.012 A 
ATOM     21  C   UNL A   1      29.482  28.256  22.947  1.00  0.00     0.065 A 
ENDBRANCH  16  17
ENDBRANCH  15  16
ENDBRANCH   7   9
ENDBRANCH   4   7
ENDBRANCH   2   3
ENDBRANCH   1   2
BRANCH   1  22
ATOM     22  C   UNL A   1      39.092  20.971  25.463  1.00  0.00     0.023 C 
BRANCH  22  23
ATOM     23  C   UNL A   1      39.586  19.833  26.343  1.00  0.00     0.116 C 
BRANCH  23  24
ATOM     24  N   UNL A   1      40.806  19.223  25.837  1.00  0.00    -0.352 N 
ATOM     25  C   UNL A   1      42.065  19.759  25.751  1.00  0.00     0.251 C 
ATOM     26  H   UNL A   1      40.715  18.298  25.513  1.00  0.00     0.163 HD
ATOM     27  O   UNL A   1      42.955  19.156  25.157  1.00  0.00    -0.269 OA
BRANCH  25  28
ATOM     28  C   UNL A   1      42.341  21.079  26.355  1.00  0.00     0.039 A 
ATOM     29  C   UNL A   1      42.667  22.149  25.520  1.00  0.00     0.014 A 
ATOM     30  C   UNL A   1      42.271  21.260  27.739  1.00  0.00     0.014 A 
ATOM     31  C   UNL A   1      42.884  23.413  26.071  1.00  0.00     0.010 A 
ATOM     32  C   UNL A   1      42.395  22.536  28.276  1.00  0.00     0.010 A 
ATOM     33  C   UNL A   1      42.726  23.621  27.451  1.00  0.00    -0.014 A 
BRANCH  33  34
ATOM     34  C   UNL A   1      42.946  24.958  28.057  1.00  0.00     0.031 A 
ATOM     35  C   UNL A   1      44.325  25.359  28.506  1.00  0.00     0.074 A 
ATOM     36  C   UNL A   1      41.906  25.790  28.246  1.00  0.00     0.049 A 
ATOM     37  N   UNL A   1      44.718  26.470  29.078  1.00  0.00    -0.248 NA
ATOM     38  C   UNL A   1      45.399  24.371  28.315  1.00  0.00     0.031 C 
ATOM     39  C   UNL A   1      40.515  25.507  27.887  1.00  0.00     0.029 A 
ATOM     40  N   UNL A   1      41.860  27.049  28.789  1.00  0.00    -0.354 N 
ATOM     41  C   UNL A   1      46.074  26.302  29.333  1.00  0.00     0.074 A 
ATOM     42  C   UNL A   1      46.421  24.963  28.913  1.00  0.00     0.031 C 
ATOM     43  C   UNL A   1      39.760  26.578  28.179  1.00  0.00     0.029 A 
ATOM     44  C   UNL A   1      40.604  27.604  28.784  1.00  0.00     0.049 A 
ATOM     45  H   UNL A   1      42.652  27.511  29.148  1.00  0.00     0.167 HD
ATOM     46  C   UNL A   1      46.958  27.187  29.850  1.00  0.00     0.031 A 
ATOM     47  C   UNL A   1      40.180  28.808  29.215  1.00  0.00     0.031 A 
ATOM     48  C   UNL A   1      46.613  28.521  30.264  1.00  0.00     0.049 A 
ATOM     49  C   UNL A   1      41.175  29.769  29.804  1.00  0.00     0.074 A 
ATOM     50  C   UNL A   1      47.443  29.518  30.746  1.00  0.00     0.029 A 
ATOM     51  N   UNL A   1      45.327  29.042  30.249  1.00  0.00    -0.354 N 
ATOM     52  N   UNL A   1      42.467  29.624  29.972  1.00  0.00    -0.248 NA
ATOM     53  C   UNL A   1      40.651  31.068  30.245  1.00  0.00     0.031 C 
ATOM     54  C   UNL A   1      46.650  30.620  31.082  1.00  0.00     0.029 A 
ATOM     55  C   UNL A   1      45.338  30.337  30.740  1.00  0.00     0.049 A 
ATOM     56  H   UNL A   1      44.527  28.563  29.935  1.00  0.00     0.167 HD
ATOM     57  C   UNL A   1      42.918  30.827  30.501  1.00  0.00     0.074 A 
ATOM     58  C   UNL A   1      41.761  31.691  30.616  1.00  0.00     0.031 C 
ATOM     59  C   UNL A   1      44.177  31.186  30.851  1.00  0.00     0.031 A 
BRANCH  46  60
ATOM     60  C   UNL A   1      48.380  26.722  30.016  1.00  0.00    -0.014 A 
ATOM     61  C   UNL A   1      48.809  26.071  31.185  1.00  0.00     0.009 A 
ATOM     62  C   UNL A   1      49.308  26.939  28.986  1.00  0.00     0.009 A 
ATOM     63  C   UNL A   1      50.147  25.701  31.342  1.00  0.00     0.001 A 
ATOM     64  C   UNL A   1      50.637  26.534  29.129  1.00  0.00     0.001 A 
ATOM     65  C   UNL A   1      51.058  25.931  30.313  1.00  0.00     0.000 A 
ENDBRANCH  46  60
BRANCH  47  66
ATOM     66  C   UNL A   1      38.750  29.188  29.067  1.00  0.00    -0.014 A 
ATOM     67  C   UNL A   1      38.278  29.707  27.851  1.00  0.00     0.009 A 
ATOM     68  C   UNL A   1      37.850  29.030  30.132  1.00  0.00     0.009 A 
ATOM     69  C   UNL A   1      36.941  30.085  27.713  1.00  0.00     0.001 A 
ATOM     70  C   UNL A   1      36.506  29.381  29.981  1.00  0.00     0.001 A 
ATOM     71  C   UNL A   1      36.054  29.916  28.776  1.00  0.00     0.000 A 
ENDBRANCH  47  66
BRANCH  59  72
ATOM     72  C   UNL A   1      44.382  32.594  31.341  1.00  0.00    -0.014 A 
ATOM     73  C   UNL A   1      44.577  33.664  30.456  1.00  0.00     0.009 A 
ATOM     74  C   UNL A   1      44.345  32.854  32.721  1.00  0.00     0.009 A 
ATOM     75  C   UNL A   1      44.774  34.958  30.944  1.00  0.00     0.001 A 
ATOM     76  C   UNL A   1      44.507  34.152  33.205  1.00  0.00     0.001 A 
ATOM     77  C   UNL A   1      44.734  35.201  32.317  1.00  0.00     0.000 A 
ENDBRANCH  59  72
ENDBRANCH  33  34
ENDBRANCH  25  28
ENDBRANCH  23  24
ENDBRANCH  22  23
ENDBRANCH   1  22
TORSDOF 14
ENDMDL
MODEL 3
REMARK VINA RESULT:     -10.5      2.474      3.854
REMARK SMILES C[C@@H](C(=O)NCCCCNC(=O)c1ccc(-c2c3nc(c(-c4ccccc4)c4ccc([nH]4)c(-c4ccccc4)c4nc(c(-c5ccccc5)c5ccc2[nH]5)C=C4)C=C3)cc1)c1ccc(Cc2cccs2)cc1F
REMARK SMILES IDX 7 1 6 2 5 3 3 4 4 5 2 7 1 8 61 9 62 10 72 11 63 12 71 13
REMARK SMILES IDX 73 14 64 15 65 16 66 17 67 18 70 19 68 20 69 21 8 22 9 23
REMARK SMILES IDX 10 24 11 25 12 27 13 28 14 29 60 30 15 31 59 32 16 33 17 34
REMARK SMILES IDX 18 35 53 36 19 37 58 38 52 39 54 40 20 41 57 42 51 43 50 44
REMARK SMILES IDX 21 46 43 47 28 48 42 49 29 50 32 51 41 52 55 53 30 54 31 55
REMARK SMILES IDX 40 57 56 58 33 59 22 60 23 61 27 62 24 63 26 64 25 65 44 66
REMARK SMILES IDX 45 67 49 68 46 69 48 70 47 71 34 72 35 73 39 74 36 75 38 76
REMARK SMILES IDX 37 77
REMARK H PARENT 5 6 10 26 54 45 32 56
REMARK Flexibility Score: inf
ROOT
ATOM      1  C   UNL A   1      34.241  30.984  27.575  1.00  0.00     0.023 C 
ENDROOT
BRANCH   1   2
ATOM      2  C   UNL A   1      34.104  29.543  27.078  1.00  0.00     0.116 C 
BRANCH   2   3
ATOM      3  N   UNL A   1      32.939  28.900  27.647  1.00  0.00    -0.356 N 
ATOM      4  C   UNL A   1      32.012  28.078  27.077  1.00  0.00     0.227 C 
ATOM      5  O   UNL A   1      31.106  27.704  27.826  1.00  0.00    -0.274 OA
ATOM      6  H   UNL A   1      32.792  29.087  28.601  1.00  0.00     0.163 HD
BRANCH   4   7
ATOM      7  C   UNL A   1      32.157  27.634  25.608  1.00  0.00     0.108 C 
ATOM      8  C   UNL A   1      30.813  27.422  24.907  1.00  0.00     0.023 C 
BRANCH   7   9
ATOM      9  C   UNL A   1      32.978  26.366  25.404  1.00  0.00    -0.000 A 
ATOM     10  C   UNL A   1      32.941  25.294  26.305  1.00  0.00     0.008 A 
ATOM     11  C   UNL A   1      33.716  26.200  24.226  1.00  0.00     0.127 A 
ATOM     12  C   UNL A   1      33.650  24.119  26.052  1.00  0.00     0.004 A 
ATOM     13  C   UNL A   1      34.426  25.030  23.963  1.00  0.00     0.043 A 
ATOM     14  F   UNL A   1      33.715  27.171  23.300  1.00  0.00    -0.207 F 
ATOM     15  C   UNL A   1      34.408  23.974  24.882  1.00  0.00    -0.040 A 
BRANCH  15  16
ATOM     16  C   UNL A   1      35.175  22.697  24.622  1.00  0.00     0.082 C 
BRANCH  16  17
ATOM     17  C   UNL A   1      34.301  21.484  24.454  1.00  0.00     0.009 A 
ATOM     18  C   UNL A   1      34.485  20.203  24.943  1.00  0.00     0.016 A 
ATOM     19  S   UNL A   1      32.817  21.609  23.600  1.00  0.00    -0.149 S 
ATOM     20  C   UNL A   1      33.410  19.329  24.615  1.00  0.00     0.012 A 
ATOM     21  C   UNL A   1      32.430  19.970  23.892  1.00  0.00     0.065 A 
ENDBRANCH  16  17
ENDBRANCH  15  16
ENDBRANCH   7   9
ENDBRANCH   4   7
ENDBRANCH   2   3
ENDBRANCH   1   2
BRANCH   1  22
ATOM     22  C   UNL A   1      32.928  31.764  27.659  1.00  0.00     0.023 C 
BRANCH  22  23
ATOM     23  C   UNL A   1      32.983  33.178  27.101  1.00  0.00     0.116 C 
BRANCH  23  24
ATOM     24  N   UNL A   1      32.597  34.182  28.080  1.00  0.00    -0.352 N 
ATOM     25  C   UNL A   1      33.217  34.524  29.255  1.00  0.00     0.251 C 
ATOM     26  H   UNL A   1      31.778  34.686  27.869  1.00  0.00     0.163 HD
ATOM     27  O   UNL A   1      32.672  35.295  30.040  1.00  0.00    -0.269 OA
BRANCH  25  28
ATOM     28  C   UNL A   1      34.534  33.940  29.582  1.00  0.00     0.039 A 
ATOM     29  C   UNL A   1      34.632  33.056  30.659  1.00  0.00     0.014 A 
ATOM     30  C   UNL A   1      35.665  34.259  28.826  1.00  0.00     0.014 A 
ATOM     31  C   UNL A   1      35.860  32.460  30.952  1.00  0.00     0.010 A 
ATOM     32  C   UNL A   1      36.863  33.596  29.062  1.00  0.00     0.010 A 
ATOM     33  C   UNL A   1      36.979  32.707  30.141  1.00  0.00    -0.014 A 
BRANCH  33  34
ATOM     34  C   UNL A   1      38.292  32.080  30.431  1.00  0.00     0.031 A 
ATOM     35  C   UNL A   1      39.263  32.765  31.355  1.00  0.00     0.074 A 
ATOM     36  C   UNL A   1      38.633  30.924  29.832  1.00  0.00     0.049 A 
ATOM     37  N   UNL A   1      40.464  32.392  31.716  1.00  0.00    -0.248 NA
ATOM     38  C   UNL A   1      38.837  34.053  31.926  1.00  0.00     0.031 C 
ATOM     39  C   UNL A   1      37.797  30.177  28.890  1.00  0.00     0.029 A 
ATOM     40  N   UNL A   1      39.776  30.172  29.931  1.00  0.00    -0.354 N 
ATOM     41  C   UNL A   1      40.943  33.409  32.534  1.00  0.00     0.074 A 
ATOM     42  C   UNL A   1      39.931  34.440  32.565  1.00  0.00     0.031 C 
ATOM     43  C   UNL A   1      38.438  29.053  28.531  1.00  0.00     0.029 A 
ATOM     44  C   UNL A   1      39.744  29.021  29.184  1.00  0.00     0.049 A 
ATOM     45  H   UNL A   1      40.546  30.433  30.486  1.00  0.00     0.167 HD
ATOM     46  C   UNL A   1      42.111  33.473  33.216  1.00  0.00     0.031 A 
ATOM     47  C   UNL A   1      40.662  28.047  29.041  1.00  0.00     0.031 A 
ATOM     48  C   UNL A   1      43.117  32.444  33.189  1.00  0.00     0.049 A 
ATOM     49  C   UNL A   1      41.960  28.146  29.794  1.00  0.00     0.074 A 
ATOM     50  C   UNL A   1      44.309  32.383  33.889  1.00  0.00     0.029 A 
ATOM     51  N   UNL A   1      43.049  31.297  32.412  1.00  0.00    -0.354 N 
ATOM     52  N   UNL A   1      42.370  29.077  30.620  1.00  0.00    -0.248 NA
ATOM     53  C   UNL A   1      42.915  27.046  29.604  1.00  0.00     0.031 C 
ATOM     54  C   UNL A   1      44.990  31.229  33.487  1.00  0.00     0.029 A 
ATOM     55  C   UNL A   1      44.191  30.536  32.594  1.00  0.00     0.049 A 
ATOM     56  H   UNL A   1      42.299  31.059  31.820  1.00  0.00     0.167 HD
ATOM     57  C   UNL A   1      43.611  28.658  31.081  1.00  0.00     0.074 A 
ATOM     58  C   UNL A   1      43.881  27.383  30.447  1.00  0.00     0.031 C 
ATOM     59  C   UNL A   1      44.447  29.268  31.956  1.00  0.00     0.031 A 
BRANCH  46  60
ATOM     60  C   UNL A   1      42.365  34.714  34.030  1.00  0.00    -0.014 A 
ATOM     61  C   UNL A   1      42.009  34.788  35.387  1.00  0.00     0.009 A 
ATOM     62  C   UNL A   1      42.969  35.828  33.429  1.00  0.00     0.009 A 
ATOM     63  C   UNL A   1      42.200  35.970  36.107  1.00  0.00     0.001 A 
ATOM     64  C   UNL A   1      43.194  36.997  34.161  1.00  0.00     0.001 A 
ATOM     65  C   UNL A   1      42.794  37.071  35.494  1.00  0.00     0.000 A 
ENDBRANCH  46  60
BRANCH  47  66
ATOM     66  C   UNL A   1      40.369  26.869  28.182  1.00  0.00    -0.014 A 
ATOM     67  C   UNL A   1      39.614  25.797  28.684  1.00  0.00     0.009 A 
ATOM     68  C   UNL A   1      40.833  26.810  26.859  1.00  0.00     0.009 A 
ATOM     69  C   UNL A   1      39.353  24.679  27.888  1.00  0.00     0.001 A 
ATOM     70  C   UNL A   1      40.544  25.705  26.055  1.00  0.00     0.001 A 
ATOM     71  C   UNL A   1      39.813  24.637  26.572  1.00  0.00     0.000 A 
ENDBRANCH  47  66
BRANCH  59  72
ATOM     72  C   UNL A   1      45.711  28.540  32.324  1.00  0.00    -0.014 A 
ATOM     73  C   UNL A   1      46.911  28.739  31.624  1.00  0.00     0.009 A 
ATOM     74  C   UNL A   1      45.704  27.658  33.418  1.00  0.00     0.009 A 
ATOM     75  C   UNL A   1      48.064  28.038  31.984  1.00  0.00     0.001 A 
ATOM     76  C   UNL A   1      46.866  26.987  33.799  1.00  0.00     0.001 A 
ATOM     77  C   UNL A   1      48.041  27.168  33.074  1.00  0.00     0.000 A 
ENDBRANCH  59  72
ENDBRANCH  33  34
ENDBRANCH  25  28
ENDBRANCH  23  24
ENDBRANCH  22  23
ENDBRANCH   1  22
TORSDOF 14
ENDMDL
