MODEL 1
REMARK VINA RESULT:     -11.8      0.000      0.000
REMARK SMILES O=C(NCCCCNC(=O)c1ccc(-c2cccc(O)c2)cc1Cl)c1ccc(-c2c3nc(c(-c4ccccc4)c4ccc([nH]4)c(-c4ccccc4)c4nc(c(-c5ccccc5)c5ccc2[nH]5)C=C4)C=C3)cc1
REMARK SMILES IDX 5 1 4 2 3 3 1 4 2 5 25 7 26 8 72 9 27 10 71 11 28 12 29 13
REMARK SMILES IDX 30 14 65 15 31 16 70 17 64 18 66 19 32 20 69 21 63 22 62 23
REMARK SMILES IDX 33 25 55 26 40 27 54 28 41 29 44 30 53 31 67 32 42 33 43 34
REMARK SMILES IDX 52 36 68 37 45 38 34 39 35 40 39 41 36 42 38 43 37 44 56 45
REMARK SMILES IDX 57 46 61 47 58 48 60 49 59 50 46 51 47 52 51 53 48 54 50 55
REMARK SMILES IDX 49 56 6 57 7 58 8 59 9 60 10 62 11 63 12 64 23 65 13 66
REMARK SMILES IDX 22 67 24 68 14 69 15 70 16 71 21 72 17 73 19 74 18 75 20 76
REMARK H PARENT 3 6 66 24 44 35 8 61 20 77
REMARK Flexibility Score: inf
ROOT
ATOM      1  C   UNL A   1      33.640  28.068  25.903  1.00  0.00     0.023 C 
ENDROOT
BRANCH   1   2
ATOM      2  C   UNL A   1      33.546  28.464  27.372  1.00  0.00     0.116 C 
BRANCH   2   3
ATOM      3  N   UNL A   1      33.541  29.905  27.568  1.00  0.00    -0.352 N 
ATOM      4  O   UNL A   1      34.265  31.905  28.313  1.00  0.00    -0.269 OA
ATOM      5  C   UNL A   1      34.516  30.726  28.078  1.00  0.00     0.251 C 
ATOM      6  H   UNL A   1      32.713  30.360  27.293  1.00  0.00     0.163 HD
BRANCH   5   7
ATOM      7  C   UNL A   1      35.862  30.190  28.372  1.00  0.00     0.039 A 
ATOM      8  C   UNL A   1      36.168  29.659  29.628  1.00  0.00     0.014 A 
ATOM      9  C   UNL A   1      36.825  30.203  27.361  1.00  0.00     0.014 A 
ATOM     10  C   UNL A   1      37.474  29.267  29.915  1.00  0.00     0.010 A 
ATOM     11  C   UNL A   1      38.115  29.741  27.628  1.00  0.00     0.010 A 
ATOM     12  C   UNL A   1      38.457  29.297  28.915  1.00  0.00    -0.014 A 
BRANCH  12  13
ATOM     13  C   UNL A   1      39.836  28.830  29.202  1.00  0.00     0.031 A 
ATOM     14  C   UNL A   1      40.843  29.753  29.829  1.00  0.00     0.074 A 
ATOM     15  C   UNL A   1      40.192  27.580  28.855  1.00  0.00     0.049 A 
ATOM     16  N   UNL A   1      42.116  29.550  30.061  1.00  0.00    -0.248 NA
ATOM     17  C   UNL A   1      40.360  31.079  30.241  1.00  0.00     0.031 C 
ATOM     18  C   UNL A   1      39.304  26.588  28.246  1.00  0.00     0.029 A 
ATOM     19  N   UNL A   1      41.399  26.935  28.952  1.00  0.00    -0.354 N 
ATOM     20  C   UNL A   1      42.591  30.729  30.619  1.00  0.00     0.074 A 
ATOM     21  C   UNL A   1      41.476  31.650  30.669  1.00  0.00     0.031 C 
ATOM     22  C   UNL A   1      39.994  25.458  28.031  1.00  0.00     0.029 A 
ATOM     23  C   UNL A   1      41.382  25.668  28.425  1.00  0.00     0.049 A 
ATOM     24  H   UNL A   1      42.198  27.341  29.359  1.00  0.00     0.167 HD
ATOM     25  C   UNL A   1      43.845  31.018  31.046  1.00  0.00     0.031 A 
ATOM     26  C   UNL A   1      42.379  24.782  28.240  1.00  0.00     0.031 A 
ATOM     27  C   UNL A   1      44.953  30.102  30.982  1.00  0.00     0.049 A 
ATOM     28  C   UNL A   1      43.771  25.141  28.670  1.00  0.00     0.074 A 
ATOM     29  C   UNL A   1      46.252  30.287  31.420  1.00  0.00     0.029 A 
ATOM     30  N   UNL A   1      44.896  28.830  30.430  1.00  0.00    -0.354 N 
ATOM     31  N   UNL A   1      44.200  26.248  29.227  1.00  0.00    -0.248 NA
ATOM     32  C   UNL A   1      44.814  24.131  28.453  1.00  0.00     0.031 C 
ATOM     33  C   UNL A   1      46.996  29.152  31.080  1.00  0.00     0.029 A 
ATOM     34  C   UNL A   1      46.144  28.232  30.491  1.00  0.00     0.049 A 
ATOM     35  H   UNL A   1      44.087  28.414  30.052  1.00  0.00     0.167 HD
ATOM     36  C   UNL A   1      45.556  26.057  29.453  1.00  0.00     0.074 A 
ATOM     37  C   UNL A   1      45.877  24.726  28.976  1.00  0.00     0.031 C 
ATOM     38  C   UNL A   1      46.450  26.907  30.014  1.00  0.00     0.031 A 
BRANCH  25  39
ATOM     39  C   UNL A   1      44.090  32.406  31.576  1.00  0.00    -0.014 A 
ATOM     40  C   UNL A   1      43.910  32.719  32.933  1.00  0.00     0.009 A 
ATOM     41  C   UNL A   1      44.527  33.414  30.703  1.00  0.00     0.009 A 
ATOM     42  C   UNL A   1      44.112  34.023  33.392  1.00  0.00     0.001 A 
ATOM     43  C   UNL A   1      44.760  34.709  31.170  1.00  0.00     0.001 A 
ATOM     44  C   UNL A   1      44.539  35.016  32.510  1.00  0.00     0.000 A 
ENDBRANCH  25  39
BRANCH  26  45
ATOM     45  C   UNL A   1      42.079  23.479  27.595  1.00  0.00    -0.014 A 
ATOM     46  C   UNL A   1      42.322  23.286  26.228  1.00  0.00     0.009 A 
ATOM     47  C   UNL A   1      41.602  22.401  28.360  1.00  0.00     0.009 A 
ATOM     48  C   UNL A   1      42.084  22.043  25.638  1.00  0.00     0.001 A 
ATOM     49  C   UNL A   1      41.393  21.152  27.774  1.00  0.00     0.001 A 
ATOM     50  C   UNL A   1      41.629  20.976  26.412  1.00  0.00     0.000 A 
ENDBRANCH  26  45
BRANCH  38  51
ATOM     51  C   UNL A   1      47.858  26.413  30.193  1.00  0.00    -0.014 A 
ATOM     52  C   UNL A   1      48.279  25.813  31.390  1.00  0.00     0.009 A 
ATOM     53  C   UNL A   1      48.756  26.487  29.116  1.00  0.00     0.009 A 
ATOM     54  C   UNL A   1      49.577  25.313  31.507  1.00  0.00     0.001 A 
ATOM     55  C   UNL A   1      50.043  25.962  29.227  1.00  0.00     0.001 A 
ATOM     56  C   UNL A   1      50.455  25.380  30.424  1.00  0.00     0.000 A 
ENDBRANCH  38  51
ENDBRANCH  12  13
ENDBRANCH   5   7
ENDBRANCH   2   3
ENDBRANCH   1   2
BRANCH   1  57
ATOM     57  C   UNL A   1      33.464  26.577  25.613  1.00  0.00     0.023 C 
BRANCH  57  58
ATOM     58  C   UNL A   1      32.100  25.998  25.979  1.00  0.00     0.116 C 
BRANCH  58  59
ATOM     59  N   UNL A   1      31.712  24.879  25.136  1.00  0.00    -0.352 N 
ATOM     60  C   UNL A   1      30.993  24.905  23.966  1.00  0.00     0.252 C 
ATOM     61  H   UNL A   1      32.001  23.989  25.444  1.00  0.00     0.163 HD
ATOM     62  O   UNL A   1      30.715  23.868  23.374  1.00  0.00    -0.269 OA
BRANCH  60  63
ATOM     63  C   UNL A   1      30.485  26.192  23.465  1.00  0.00     0.058 A 
ATOM     64  C   UNL A   1      29.201  26.572  23.868  1.00  0.00     0.016 A 
ATOM     65  C   UNL A   1      31.246  27.038  22.656  1.00  0.00     0.054 A 
ATOM     66  C   UNL A   1      28.710  27.835  23.526  1.00  0.00     0.009 A 
ATOM     67  C   UNL A   1      30.756  28.307  22.337  1.00  0.00     0.030 A 
ATOM     68  Cl  UNL A   1      32.789  26.589  22.023  1.00  0.00    -0.083 Cl
ATOM     69  C   UNL A   1      29.490  28.735  22.780  1.00  0.00    -0.017 A 
BRANCH  69  70
ATOM     70  C   UNL A   1      29.017  30.099  22.485  1.00  0.00    -0.015 A 
ATOM     71  C   UNL A   1      29.050  31.107  23.466  1.00  0.00     0.009 A 
ATOM     72  C   UNL A   1      28.481  30.423  21.228  1.00  0.00     0.054 A 
ATOM     73  C   UNL A   1      28.555  32.387  23.203  1.00  0.00     0.004 A 
ATOM     74  C   UNL A   1      27.989  31.701  20.975  1.00  0.00     0.116 A 
ATOM     75  C   UNL A   1      28.018  32.686  21.953  1.00  0.00     0.046 A 
BRANCH  74  76
ATOM     76  O   UNL A   1      27.469  31.945  19.737  1.00  0.00    -0.508 OA
ATOM     77  H   UNL A   1      28.031  32.221  19.039  1.00  0.00     0.293 HD
ENDBRANCH  74  76
ENDBRANCH  69  70
ENDBRANCH  60  63
ENDBRANCH  58  59
ENDBRANCH  57  58
ENDBRANCH   1  57
TORSDOF 13
ENDMDL
MODEL 2
REMARK VINA RESULT:     -11.7      2.135      4.588
REMARK SMILES O=C(NCCCCNC(=O)c1ccc(-c2cccc(O)c2)cc1Cl)c1ccc(-c2c3nc(c(-c4ccccc4)c4ccc([nH]4)c(-c4ccccc4)c4nc(c(-c5ccccc5)c5ccc2[nH]5)C=C4)C=C3)cc1
REMARK SMILES IDX 5 1 4 2 3 3 1 4 2 5 25 7 26 8 72 9 27 10 71 11 28 12 29 13
REMARK SMILES IDX 30 14 65 15 31 16 70 17 64 18 66 19 32 20 69 21 63 22 62 23
REMARK SMILES IDX 33 25 55 26 40 27 54 28 41 29 44 30 53 31 67 32 42 33 43 34
REMARK SMILES IDX 52 36 68 37 45 38 34 39 35 40 39 41 36 42 38 43 37 44 56 45
REMARK SMILES IDX 57 46 61 47 58 48 60 49 59 50 46 51 47 52 51 53 48 54 50 55
REMARK SMILES IDX 49 56 6 57 7 58 8 59 9 60 10 62 11 63 12 64 23 65 13 66
REMARK SMILES IDX 22 67 24 68 14 69 15 70 16 71 21 72 17 73 19 74 18 75 20 76
REMARK H PARENT 3 6 66 24 44 35 8 61 20 77
REMARK Flexibility Score: inf
ROOT
ATOM      1  C   UNL A   1      34.100  28.514  25.759  1.00  0.00     0.023 C 
ENDROOT
BRANCH   1   2
ATOM      2  C   UNL A   1      33.760  28.670  27.237  1.00  0.00     0.116 C 
BRANCH   2   3
ATOM      3  N   UNL A   1      33.707  30.061  27.660  1.00  0.00    -0.352 N 
ATOM      4  O   UNL A   1      34.346  31.933  28.739  1.00  0.00    -0.269 OA
ATOM      5  C   UNL A   1      34.639  30.813  28.329  1.00  0.00     0.251 C 
ATOM      6  H   UNL A   1      32.874  30.534  27.430  1.00  0.00     0.163 HD
BRANCH   5   7
ATOM      7  C   UNL A   1      35.990  30.270  28.585  1.00  0.00     0.039 A 
ATOM      8  C   UNL A   1      36.318  29.703  29.818  1.00  0.00     0.014 A 
ATOM      9  C   UNL A   1      36.935  30.312  27.557  1.00  0.00     0.014 A 
ATOM     10  C   UNL A   1      37.628  29.302  30.071  1.00  0.00     0.010 A 
ATOM     11  C   UNL A   1      38.229  29.843  27.788  1.00  0.00     0.010 A 
ATOM     12  C   UNL A   1      38.594  29.362  29.056  1.00  0.00    -0.014 A 
BRANCH  12  13
ATOM     13  C   UNL A   1      39.978  28.888  29.304  1.00  0.00     0.031 A 
ATOM     14  C   UNL A   1      41.004  29.802  29.912  1.00  0.00     0.074 A 
ATOM     15  C   UNL A   1      40.320  27.638  28.940  1.00  0.00     0.049 A 
ATOM     16  N   UNL A   1      42.281  29.592  30.112  1.00  0.00    -0.248 NA
ATOM     17  C   UNL A   1      40.537  31.127  30.345  1.00  0.00     0.031 C 
ATOM     18  C   UNL A   1      39.413  26.654  28.348  1.00  0.00     0.029 A 
ATOM     19  N   UNL A   1      41.526  26.987  29.003  1.00  0.00    -0.354 N 
ATOM     20  C   UNL A   1      42.776  30.765  30.665  1.00  0.00     0.074 A 
ATOM     21  C   UNL A   1      41.666  31.691  30.749  1.00  0.00     0.031 C 
ATOM     22  C   UNL A   1      40.092  25.523  28.107  1.00  0.00     0.029 A 
ATOM     23  C   UNL A   1      41.491  25.724  28.468  1.00  0.00     0.049 A 
ATOM     24  H   UNL A   1      42.337  27.388  29.392  1.00  0.00     0.167 HD
ATOM     25  C   UNL A   1      44.041  31.047  31.063  1.00  0.00     0.031 A 
ATOM     26  C   UNL A   1      42.479  24.836  28.253  1.00  0.00     0.031 A 
ATOM     27  C   UNL A   1      45.143  30.126  30.964  1.00  0.00     0.049 A 
ATOM     28  C   UNL A   1      43.882  25.186  28.650  1.00  0.00     0.074 A 
ATOM     29  C   UNL A   1      46.454  30.303  31.371  1.00  0.00     0.029 A 
ATOM     30  N   UNL A   1      45.067  28.858  30.406  1.00  0.00    -0.354 N 
ATOM     31  N   UNL A   1      44.330  26.288  29.203  1.00  0.00    -0.248 NA
ATOM     32  C   UNL A   1      44.915  24.173  28.399  1.00  0.00     0.031 C 
ATOM     33  C   UNL A   1      47.183  29.168  31.005  1.00  0.00     0.029 A 
ATOM     34  C   UNL A   1      46.313  28.255  30.431  1.00  0.00     0.049 A 
ATOM     35  H   UNL A   1      44.247  28.448  30.046  1.00  0.00     0.167 HD
ATOM     36  C   UNL A   1      45.690  26.089  29.394  1.00  0.00     0.074 A 
ATOM     37  C   UNL A   1      45.994  24.761  28.900  1.00  0.00     0.031 C 
ATOM     38  C   UNL A   1      46.602  26.932  29.938  1.00  0.00     0.031 A 
BRANCH  25  39
ATOM     39  C   UNL A   1      44.305  32.429  31.596  1.00  0.00    -0.014 A 
ATOM     40  C   UNL A   1      44.194  32.726  32.964  1.00  0.00     0.009 A 
ATOM     41  C   UNL A   1      44.690  33.451  30.712  1.00  0.00     0.009 A 
ATOM     42  C   UNL A   1      44.412  34.026  33.427  1.00  0.00     0.001 A 
ATOM     43  C   UNL A   1      44.939  34.741  31.182  1.00  0.00     0.001 A 
ATOM     44  C   UNL A   1      44.786  35.031  32.536  1.00  0.00     0.000 A 
ENDBRANCH  25  39
BRANCH  26  45
ATOM     45  C   UNL A   1      42.157  23.538  27.606  1.00  0.00    -0.014 A 
ATOM     46  C   UNL A   1      42.397  23.343  26.239  1.00  0.00     0.009 A 
ATOM     47  C   UNL A   1      41.662  22.468  28.370  1.00  0.00     0.009 A 
ATOM     48  C   UNL A   1      42.139  22.103  25.649  1.00  0.00     0.001 A 
ATOM     49  C   UNL A   1      41.432  21.224  27.783  1.00  0.00     0.001 A 
ATOM     50  C   UNL A   1      41.666  21.044  26.421  1.00  0.00     0.000 A 
ENDBRANCH  26  45
BRANCH  38  51
ATOM     51  C   UNL A   1      48.011  26.431  30.078  1.00  0.00    -0.014 A 
ATOM     52  C   UNL A   1      48.451  25.792  31.248  1.00  0.00     0.009 A 
ATOM     53  C   UNL A   1      48.893  26.540  28.990  1.00  0.00     0.009 A 
ATOM     54  C   UNL A   1      49.750  25.287  31.328  1.00  0.00     0.001 A 
ATOM     55  C   UNL A   1      50.181  26.010  29.064  1.00  0.00     0.001 A 
ATOM     56  C   UNL A   1      50.611  25.389  30.234  1.00  0.00     0.000 A 
ENDBRANCH  38  51
ENDBRANCH  12  13
ENDBRANCH   5   7
ENDBRANCH   2   3
ENDBRANCH   1   2
BRANCH   1  57
ATOM     57  C   UNL A   1      33.075  29.100  24.786  1.00  0.00     0.023 C 
BRANCH  57  58
ATOM     58  C   UNL A   1      32.978  28.392  23.438  1.00  0.00     0.116 C 
BRANCH  58  59
ATOM     59  N   UNL A   1      31.717  27.692  23.252  1.00  0.00    -0.352 N 
ATOM     60  C   UNL A   1      31.439  26.366  23.480  1.00  0.00     0.252 C 
ATOM     61  H   UNL A   1      30.967  28.238  22.922  1.00  0.00     0.163 HD
ATOM     62  O   UNL A   1      30.326  25.907  23.249  1.00  0.00    -0.269 OA
BRANCH  60  63
ATOM     63  C   UNL A   1      32.520  25.473  23.930  1.00  0.00     0.058 A 
ATOM     64  C   UNL A   1      33.334  24.909  22.943  1.00  0.00     0.016 A 
ATOM     65  C   UNL A   1      32.771  25.218  25.279  1.00  0.00     0.054 A 
ATOM     66  C   UNL A   1      34.449  24.151  23.312  1.00  0.00     0.009 A 
ATOM     67  C   UNL A   1      33.901  24.478  25.639  1.00  0.00     0.030 A 
ATOM     68  Cl  UNL A   1      31.743  25.783  26.546  1.00  0.00    -0.083 Cl
ATOM     69  C   UNL A   1      34.769  23.948  24.665  1.00  0.00    -0.017 A 
BRANCH  69  70
ATOM     70  C   UNL A   1      35.988  23.223  25.066  1.00  0.00    -0.015 A 
ATOM     71  C   UNL A   1      37.047  23.886  25.710  1.00  0.00     0.009 A 
ATOM     72  C   UNL A   1      36.144  21.857  24.779  1.00  0.00     0.054 A 
ATOM     73  C   UNL A   1      38.225  23.210  26.045  1.00  0.00     0.004 A 
ATOM     74  C   UNL A   1      37.320  21.192  25.116  1.00  0.00     0.116 A 
ATOM     75  C   UNL A   1      38.365  21.858  25.744  1.00  0.00     0.046 A 
BRANCH  74  76
ATOM     76  O   UNL A   1      37.412  19.868  24.797  1.00  0.00    -0.508 OA
ATOM     77  H   UNL A   1      37.892  19.601  24.038  1.00  0.00     0.293 HD
ENDBRANCH  74  76
ENDBRANCH  69  70
ENDBRANCH  60  63
ENDBRANCH  58  59
ENDBRANCH  57  58
ENDBRANCH   1  57
TORSDOF 13
ENDMDL
MODEL 3
REMARK VINA RESULT:     -11.5      3.724      8.858
REMARK SMILES O=C(NCCCCNC(=O)c1ccc(-c2cccc(O)c2)cc1Cl)c1ccc(-c2c3nc(c(-c4ccccc4)c4ccc([nH]4)c(-c4ccccc4)c4nc(c(-c5ccccc5)c5ccc2[nH]5)C=C4)C=C3)cc1
REMARK SMILES IDX 5 1 4 2 3 3 1 4 2 5 25 7 26 8 72 9 27 10 71 11 28 12 29 13
REMARK SMILES IDX 30 14 65 15 31 16 70 17 64 18 66 19 32 20 69 21 63 22 62 23
REMARK SMILES IDX 33 25 55 26 40 27 54 28 41 29 44 30 53 31 67 32 42 33 43 34
REMARK SMILES IDX 52 36 68 37 45 38 34 39 35 40 39 41 36 42 38 43 37 44 56 45
REMARK SMILES IDX 57 46 61 47 58 48 60 49 59 50 46 51 47 52 51 53 48 54 50 55
REMARK SMILES IDX 49 56 6 57 7 58 8 59 9 60 10 62 11 63 12 64 23 65 13 66
REMARK SMILES IDX 22 67 24 68 14 69 15 70 16 71 21 72 17 73 19 74 18 75 20 76
REMARK H PARENT 3 6 66 24 44 35 8 61 20 77
REMARK Flexibility Score: inf
ROOT
ATOM      1  C   UNL A   1      35.705  23.510  25.489  1.00  0.00     0.023 C 
ENDROOT
BRANCH   1   2
ATOM      2  C   UNL A   1      37.131  23.723  24.991  1.00  0.00     0.116 C 
BRANCH   2   3
ATOM      3  N   UNL A   1      38.059  22.724  25.496  1.00  0.00    -0.352 N 
ATOM      4  O   UNL A   1      39.927  21.926  26.471  1.00  0.00    -0.269 OA
ATOM      5  C   UNL A   1      39.177  22.879  26.278  1.00  0.00     0.251 C 
ATOM      6  H   UNL A   1      37.854  21.796  25.238  1.00  0.00     0.163 HD
BRANCH   5   7
ATOM      7  C   UNL A   1      39.499  24.196  26.866  1.00  0.00     0.039 A 
ATOM      8  C   UNL A   1      40.200  25.160  26.137  1.00  0.00     0.014 A 
ATOM      9  C   UNL A   1      39.068  24.473  28.165  1.00  0.00     0.014 A 
ATOM     10  C   UNL A   1      40.589  26.347  26.753  1.00  0.00     0.010 A 
ATOM     11  C   UNL A   1      39.395  25.695  28.757  1.00  0.00     0.010 A 
ATOM     12  C   UNL A   1      40.184  26.629  28.066  1.00  0.00    -0.014 A 
BRANCH  12  13
ATOM     13  C   UNL A   1      40.552  27.915  28.708  1.00  0.00     0.031 A 
ATOM     14  C   UNL A   1      41.905  28.101  29.333  1.00  0.00     0.074 A 
ATOM     15  C   UNL A   1      39.642  28.906  28.762  1.00  0.00     0.049 A 
ATOM     16  N   UNL A   1      42.364  29.117  30.020  1.00  0.00    -0.248 NA
ATOM     17  C   UNL A   1      42.865  26.999  29.173  1.00  0.00     0.031 C 
ATOM     18  C   UNL A   1      38.298  28.850  28.186  1.00  0.00     0.029 A 
ATOM     19  N   UNL A   1      39.707  30.148  29.341  1.00  0.00    -0.354 N 
ATOM     20  C   UNL A   1      43.653  28.766  30.398  1.00  0.00     0.074 A 
ATOM     21  C   UNL A   1      43.895  27.435  29.883  1.00  0.00     0.031 C 
ATOM     22  C   UNL A   1      37.667  30.007  28.434  1.00  0.00     0.029 A 
ATOM     23  C   UNL A   1      38.537  30.857  29.239  1.00  0.00     0.049 A 
ATOM     24  H   UNL A   1      40.514  30.495  29.786  1.00  0.00     0.167 HD
ATOM     25  C   UNL A   1      44.551  29.487  31.114  1.00  0.00     0.031 A 
ATOM     26  C   UNL A   1      38.183  32.044  29.765  1.00  0.00     0.031 A 
ATOM     27  C   UNL A   1      44.299  30.805  31.634  1.00  0.00     0.049 A 
ATOM     28  C   UNL A   1      39.172  32.803  30.600  1.00  0.00     0.074 A 
ATOM     29  C   UNL A   1      45.156  31.631  32.340  1.00  0.00     0.029 A 
ATOM     30  N   UNL A   1      43.096  31.485  31.517  1.00  0.00    -0.354 N 
ATOM     31  N   UNL A   1      40.400  32.474  30.922  1.00  0.00    -0.248 NA
ATOM     32  C   UNL A   1      38.732  34.096  31.139  1.00  0.00     0.031 C 
ATOM     33  C   UNL A   1      44.453  32.785  32.702  1.00  0.00     0.029 A 
ATOM     34  C   UNL A   1      43.178  32.706  32.164  1.00  0.00     0.049 A 
ATOM     35  H   UNL A   1      42.300  31.147  31.043  1.00  0.00     0.167 HD
ATOM     36  C   UNL A   1      40.890  33.531  31.676  1.00  0.00     0.074 A 
ATOM     37  C   UNL A   1      39.827  34.513  31.761  1.00  0.00     0.031 C 
ATOM     38  C   UNL A   1      42.114  33.676  32.239  1.00  0.00     0.031 A 
BRANCH  25  39
ATOM     39  C   UNL A   1      45.875  28.836  31.415  1.00  0.00    -0.014 A 
ATOM     40  C   UNL A   1      46.069  28.060  32.569  1.00  0.00     0.009 A 
ATOM     41  C   UNL A   1      46.943  28.989  30.516  1.00  0.00     0.009 A 
ATOM     42  C   UNL A   1      47.317  27.495  32.841  1.00  0.00     0.001 A 
ATOM     43  C   UNL A   1      48.180  28.397  30.775  1.00  0.00     0.001 A 
ATOM     44  C   UNL A   1      48.371  27.663  31.943  1.00  0.00     0.000 A 
ENDBRANCH  25  39
BRANCH  26  45
ATOM     45  C   UNL A   1      36.813  32.563  29.525  1.00  0.00    -0.014 A 
ATOM     46  C   UNL A   1      35.791  32.341  30.459  1.00  0.00     0.009 A 
ATOM     47  C   UNL A   1      36.536  33.335  28.384  1.00  0.00     0.009 A 
ATOM     48  C   UNL A   1      34.517  32.875  30.250  1.00  0.00     0.001 A 
ATOM     49  C   UNL A   1      35.271  33.890  28.193  1.00  0.00     0.001 A 
ATOM     50  C   UNL A   1      34.261  33.655  29.124  1.00  0.00     0.000 A 
ENDBRANCH  26  45
BRANCH  38  51
ATOM     51  C   UNL A   1      42.398  34.964  32.959  1.00  0.00    -0.014 A 
ATOM     52  C   UNL A   1      41.980  35.173  34.282  1.00  0.00     0.009 A 
ATOM     53  C   UNL A   1      43.161  35.956  32.321  1.00  0.00     0.009 A 
ATOM     54  C   UNL A   1      42.307  36.359  34.944  1.00  0.00     0.001 A 
ATOM     55  C   UNL A   1      43.509  37.126  32.995  1.00  0.00     0.001 A 
ATOM     56  C   UNL A   1      43.078  37.329  34.304  1.00  0.00     0.000 A 
ENDBRANCH  38  51
ENDBRANCH  12  13
ENDBRANCH   5   7
ENDBRANCH   2   3
ENDBRANCH   1   2
BRANCH   1  57
ATOM     57  C   UNL A   1      34.740  24.666  25.225  1.00  0.00     0.023 C 
BRANCH  57  58
ATOM     58  C   UNL A   1      34.220  24.767  23.794  1.00  0.00     0.116 C 
BRANCH  58  59
ATOM     59  N   UNL A   1      32.827  25.179  23.722  1.00  0.00    -0.352 N 
ATOM     60  C   UNL A   1      31.703  24.401  23.854  1.00  0.00     0.252 C 
ATOM     61  H   UNL A   1      32.670  26.137  23.558  1.00  0.00     0.163 HD
ATOM     62  O   UNL A   1      30.583  24.887  23.741  1.00  0.00    -0.269 OA
BRANCH  60  63
ATOM     63  C   UNL A   1      31.853  22.950  24.054  1.00  0.00     0.058 A 
ATOM     64  C   UNL A   1      31.989  22.159  22.910  1.00  0.00     0.016 A 
ATOM     65  C   UNL A   1      31.905  22.367  25.321  1.00  0.00     0.054 A 
ATOM     66  C   UNL A   1      32.257  20.793  23.037  1.00  0.00     0.009 A 
ATOM     67  C   UNL A   1      32.195  21.005  25.440  1.00  0.00     0.030 A 
ATOM     68  Cl  UNL A   1      31.629  23.260  26.774  1.00  0.00    -0.083 Cl
ATOM     69  C   UNL A   1      32.394  20.198  24.303  1.00  0.00    -0.017 A 
BRANCH  69  70
ATOM     70  C   UNL A   1      32.758  18.778  24.449  1.00  0.00    -0.015 A 
ATOM     71  C   UNL A   1      32.554  18.098  25.663  1.00  0.00     0.009 A 
ATOM     72  C   UNL A   1      33.358  18.073  23.393  1.00  0.00     0.054 A 
ATOM     73  C   UNL A   1      32.946  16.765  25.819  1.00  0.00     0.004 A 
ATOM     74  C   UNL A   1      33.746  16.746  23.557  1.00  0.00     0.116 A 
ATOM     75  C   UNL A   1      33.548  16.086  24.763  1.00  0.00     0.046 A 
BRANCH  74  76
ATOM     76  O   UNL A   1      34.336  16.123  22.496  1.00  0.00    -0.508 OA
ATOM     77  H   UNL A   1      34.518  16.603  21.712  1.00  0.00     0.293 HD
ENDBRANCH  74  76
ENDBRANCH  69  70
ENDBRANCH  60  63
ENDBRANCH  58  59
ENDBRANCH  57  58
ENDBRANCH   1  57
TORSDOF 13
ENDMDL
