MODEL 1
REMARK VINA RESULT:     -12.8      0.000      0.000
REMARK SMILES C[C@@H](CCC(=O)NCCCCNC(=O)c1ccc(-c2c3nc(c(-c4ccccc4)c4ccc([nH]4)c(-c4ccccc4)c4nc(c(-c5ccccc5)c5ccc2[nH]5)C=C4)C=C3)cc1)[C@@H]1CC[C@H]2[C@@H]3CC[C@H]4CC(=O)CC[C@@]4(C)[C@H]3CC(=O)[C@@]21C
REMARK SMILES IDX 9 1 8 2 7 3 5 4 6 5 4 7 3 8 2 9 1 10 63 11 64 12 82 13 65 14
REMARK SMILES IDX 66 15 80 16 83 17 67 18 79 19 81 20 68 21 78 22 69 23 76 24
REMARK SMILES IDX 70 25 75 26 77 27 71 28 74 29 72 30 73 31 10 32 11 33 12 34
REMARK SMILES IDX 13 35 14 37 15 38 16 39 62 40 17 41 61 42 18 43 19 44 20 45
REMARK SMILES IDX 55 46 21 47 60 48 54 49 56 50 22 51 59 52 53 53 52 54 23 56
REMARK SMILES IDX 45 57 30 58 44 59 31 60 34 61 43 62 57 63 32 64 33 65 42 67
REMARK SMILES IDX 58 68 35 69 24 70 25 71 29 72 26 73 28 74 27 75 46 76 47 77
REMARK SMILES IDX 51 78 48 79 50 80 49 81 36 82 37 83 41 84 38 85 40 86 39 87
REMARK H PARENT 7 6 12 36 56 55 34 66
REMARK Flexibility Score: inf
ROOT
ATOM      1  C   UNL A   1      41.144  21.226  26.126  1.00  0.00     0.023 C 
ENDROOT
BRANCH   1   2
ATOM      2  C   UNL A   1      39.783  21.619  26.692  1.00  0.00     0.116 C 
BRANCH   2   3
ATOM      3  N   UNL A   1      39.020  22.504  25.829  1.00  0.00    -0.356 N 
ATOM      4  C   UNL A   1      37.781  22.359  25.276  1.00  0.00     0.220 C 
ATOM      5  O   UNL A   1      37.306  23.319  24.664  1.00  0.00    -0.275 OA
ATOM      6  H   UNL A   1      39.473  23.350  25.604  1.00  0.00     0.163 HD
BRANCH   4   7
ATOM      7  C   UNL A   1      37.029  21.045  25.382  1.00  0.00     0.100 C 
BRANCH   7   8
ATOM      8  C   UNL A   1      35.700  20.981  24.593  1.00  0.00     0.013 C 
BRANCH   8   9
ATOM      9  C   UNL A   1      34.530  20.092  25.167  1.00  0.00    -0.010 C 
ATOM     10  C   UNL A   1      34.705  18.677  24.627  1.00  0.00     0.008 C 
BRANCH   9  11
ATOM     11  C   UNL A   1      33.187  20.898  25.076  1.00  0.00     0.005 C 
ATOM     12  C   UNL A   1      32.602  20.601  23.641  1.00  0.00     0.005 C 
ATOM     13  C   UNL A   1      32.862  22.422  25.239  1.00  0.00     0.032 C 
ATOM     14  C   UNL A   1      32.290  21.937  22.969  1.00  0.00     0.005 C 
ATOM     15  C   UNL A   1      33.035  22.964  23.812  1.00  0.00     0.006 C 
ATOM     16  C   UNL A   1      33.644  23.390  26.122  1.00  0.00     0.139 C 
ATOM     17  C   UNL A   1      31.370  22.481  25.726  1.00  0.00     0.020 C 
ATOM     18  C   UNL A   1      32.561  24.421  23.616  1.00  0.00    -0.003 C 
ATOM     19  C   UNL A   1      33.166  24.842  26.097  1.00  0.00     0.080 C 
ATOM     20  O   UNL A   1      34.584  23.064  26.839  1.00  0.00    -0.299 OA
ATOM     21  C   UNL A   1      32.928  24.908  22.205  1.00  0.00     0.004 C 
ATOM     22  C   UNL A   1      33.177  25.395  24.664  1.00  0.00     0.006 C 
ATOM     23  C   UNL A   1      32.549  26.363  21.963  1.00  0.00     0.005 C 
ATOM     24  C   UNL A   1      32.609  26.865  24.496  1.00  0.00    -0.025 C 
ATOM     25  C   UNL A   1      33.024  27.328  23.070  1.00  0.00     0.002 C 
ATOM     26  C   UNL A   1      31.067  26.986  24.691  1.00  0.00     0.015 C 
ATOM     27  C   UNL A   1      33.260  27.785  25.566  1.00  0.00     0.012 C 
ATOM     28  C   UNL A   1      32.554  28.748  22.767  1.00  0.00     0.079 C 
ATOM     29  C   UNL A   1      30.289  27.939  23.768  1.00  0.00     0.076 C 
ATOM     30  C   UNL A   1      31.058  28.859  22.845  1.00  0.00     0.133 C 
ATOM     31  O   UNL A   1      30.459  29.696  22.163  1.00  0.00    -0.300 OA
ENDBRANCH   9  11
ENDBRANCH   8   9
ENDBRANCH   7   8
ENDBRANCH   4   7
ENDBRANCH   2   3
ENDBRANCH   1   2
BRANCH   1  32
ATOM     32  C   UNL A   1      41.301  19.740  25.857  1.00  0.00     0.023 C 
BRANCH  32  33
ATOM     33  C   UNL A   1      42.673  19.170  26.163  1.00  0.00     0.116 C 
BRANCH  33  34
ATOM     34  N   UNL A   1      43.498  18.806  25.022  1.00  0.00    -0.352 N 
ATOM     35  C   UNL A   1      44.541  19.466  24.407  1.00  0.00     0.251 C 
ATOM     36  H   UNL A   1      43.273  17.937  24.618  1.00  0.00     0.163 HD
ATOM     37  O   UNL A   1      45.180  18.892  23.526  1.00  0.00    -0.269 OA
BRANCH  35  38
ATOM     38  C   UNL A   1      44.859  20.891  24.706  1.00  0.00     0.039 A 
ATOM     39  C   UNL A   1      44.309  21.888  23.888  1.00  0.00     0.014 A 
ATOM     40  C   UNL A   1      45.630  21.282  25.795  1.00  0.00     0.014 A 
ATOM     41  C   UNL A   1      44.451  23.241  24.222  1.00  0.00     0.010 A 
ATOM     42  C   UNL A   1      45.620  22.603  26.224  1.00  0.00     0.010 A 
ATOM     43  C   UNL A   1      45.056  23.610  25.433  1.00  0.00    -0.014 A 
BRANCH  43  44
ATOM     44  C   UNL A   1      45.170  25.024  25.885  1.00  0.00     0.031 A 
ATOM     45  C   UNL A   1      46.505  25.727  25.809  1.00  0.00     0.074 A 
ATOM     46  C   UNL A   1      44.121  25.645  26.461  1.00  0.00     0.049 A 
ATOM     47  N   UNL A   1      46.867  26.879  26.316  1.00  0.00    -0.248 NA
ATOM     48  C   UNL A   1      47.596  25.010  25.124  1.00  0.00     0.031 C 
ATOM     49  C   UNL A   1      42.786  25.072  26.656  1.00  0.00     0.029 A 
ATOM     50  N   UNL A   1      44.018  26.904  26.999  1.00  0.00    -0.354 N 
ATOM     51  C   UNL A   1      48.230  26.988  26.064  1.00  0.00     0.074 A 
ATOM     52  C   UNL A   1      48.644  25.762  25.422  1.00  0.00     0.031 C 
ATOM     53  C   UNL A   1      41.991  25.989  27.229  1.00  0.00     0.029 A 
ATOM     54  C   UNL A   1      42.769  27.196  27.489  1.00  0.00     0.049 A 
ATOM     55  H   UNL A   1      44.770  27.538  27.031  1.00  0.00     0.167 HD
ATOM     56  C   UNL A   1      49.063  28.027  26.310  1.00  0.00     0.031 A 
ATOM     57  C   UNL A   1      42.300  28.309  28.084  1.00  0.00     0.031 A 
ATOM     58  C   UNL A   1      48.639  29.278  26.875  1.00  0.00     0.049 A 
ATOM     59  C   UNL A   1      43.224  29.477  28.286  1.00  0.00     0.074 A 
ATOM     60  C   UNL A   1      49.382  30.427  27.083  1.00  0.00     0.029 A 
ATOM     61  N   UNL A   1      47.348  29.550  27.297  1.00  0.00    -0.354 N 
ATOM     62  N   UNL A   1      44.497  29.582  27.997  1.00  0.00    -0.248 NA
ATOM     63  C   UNL A   1      42.640  30.686  28.886  1.00  0.00     0.031 C 
ATOM     64  C   UNL A   1      48.544  31.387  27.660  1.00  0.00     0.029 A 
ATOM     65  C   UNL A   1      47.272  30.848  27.771  1.00  0.00     0.049 A 
ATOM     66  H   UNL A   1      46.598  28.914  27.266  1.00  0.00     0.167 HD
ATOM     67  C   UNL A   1      44.862  30.873  28.355  1.00  0.00     0.074 A 
ATOM     68  C   UNL A   1      43.671  31.518  28.867  1.00  0.00     0.031 C 
ATOM     69  C   UNL A   1      46.074  31.471  28.270  1.00  0.00     0.031 A 
BRANCH  56  70
ATOM     70  C   UNL A   1      50.513  27.853  25.947  1.00  0.00    -0.014 A 
ATOM     71  C   UNL A   1      50.989  28.178  24.666  1.00  0.00     0.009 A 
ATOM     72  C   UNL A   1      51.418  27.361  26.900  1.00  0.00     0.009 A 
ATOM     73  C   UNL A   1      52.328  27.965  24.332  1.00  0.00     0.001 A 
ATOM     74  C   UNL A   1      52.765  27.183  26.574  1.00  0.00     0.001 A 
ATOM     75  C   UNL A   1      53.215  27.471  25.287  1.00  0.00     0.000 A 
ENDBRANCH  56  70
BRANCH  57  76
ATOM     76  C   UNL A   1      40.874  28.386  28.493  1.00  0.00    -0.014 A 
ATOM     77  C   UNL A   1      39.918  28.938  27.625  1.00  0.00     0.009 A 
ATOM     78  C   UNL A   1      40.455  27.896  29.739  1.00  0.00     0.009 A 
ATOM     79  C   UNL A   1      38.577  29.017  28.005  1.00  0.00     0.001 A 
ATOM     80  C   UNL A   1      39.108  27.948  30.104  1.00  0.00     0.001 A 
ATOM     81  C   UNL A   1      38.172  28.517  29.241  1.00  0.00     0.000 A 
ENDBRANCH  57  76
BRANCH  69  82
ATOM     82  C   UNL A   1      46.165  32.905  28.706  1.00  0.00    -0.014 A 
ATOM     83  C   UNL A   1      45.914  33.953  27.809  1.00  0.00     0.009 A 
ATOM     84  C   UNL A   1      46.457  33.204  30.045  1.00  0.00     0.009 A 
ATOM     85  C   UNL A   1      45.983  35.279  28.241  1.00  0.00     0.001 A 
ATOM     86  C   UNL A   1      46.500  34.530  30.479  1.00  0.00     0.001 A 
ATOM     87  C   UNL A   1      46.271  35.565  29.575  1.00  0.00     0.000 A 
ENDBRANCH  69  82
ENDBRANCH  43  44
ENDBRANCH  35  38
ENDBRANCH  33  34
ENDBRANCH  32  33
ENDBRANCH   1  32
TORSDOF 14
ENDMDL
MODEL 2
REMARK VINA RESULT:     -12.8      6.295     11.736
REMARK SMILES C[C@@H](CCC(=O)NCCCCNC(=O)c1ccc(-c2c3nc(c(-c4ccccc4)c4ccc([nH]4)c(-c4ccccc4)c4nc(c(-c5ccccc5)c5ccc2[nH]5)C=C4)C=C3)cc1)[C@@H]1CC[C@H]2[C@@H]3CC[C@H]4CC(=O)CC[C@@]4(C)[C@H]3CC(=O)[C@@]21C
REMARK SMILES IDX 9 1 8 2 7 3 5 4 6 5 4 7 3 8 2 9 1 10 63 11 64 12 82 13 65 14
REMARK SMILES IDX 66 15 80 16 83 17 67 18 79 19 81 20 68 21 78 22 69 23 76 24
REMARK SMILES IDX 70 25 75 26 77 27 71 28 74 29 72 30 73 31 10 32 11 33 12 34
REMARK SMILES IDX 13 35 14 37 15 38 16 39 62 40 17 41 61 42 18 43 19 44 20 45
REMARK SMILES IDX 55 46 21 47 60 48 54 49 56 50 22 51 59 52 53 53 52 54 23 56
REMARK SMILES IDX 45 57 30 58 44 59 31 60 34 61 43 62 57 63 32 64 33 65 42 67
REMARK SMILES IDX 58 68 35 69 24 70 25 71 29 72 26 73 28 74 27 75 46 76 47 77
REMARK SMILES IDX 51 78 48 79 50 80 49 81 36 82 37 83 41 84 38 85 40 86 39 87
REMARK H PARENT 7 6 12 36 56 55 34 66
REMARK Flexibility Score: inf
ROOT
ATOM      1  C   UNL A   1      34.030  33.162  28.804  1.00  0.00     0.023 C 
ENDROOT
BRANCH   1   2
ATOM      2  C   UNL A   1      34.282  32.194  27.651  1.00  0.00     0.116 C 
BRANCH   2   3
ATOM      3  N   UNL A   1      33.886  30.826  27.936  1.00  0.00    -0.356 N 
ATOM      4  C   UNL A   1      33.071  29.974  27.250  1.00  0.00     0.220 C 
ATOM      5  O   UNL A   1      32.985  28.809  27.648  1.00  0.00    -0.275 OA
ATOM      6  H   UNL A   1      34.270  30.451  28.762  1.00  0.00     0.163 HD
BRANCH   4   7
ATOM      7  C   UNL A   1      32.267  30.455  26.055  1.00  0.00     0.100 C 
BRANCH   7   8
ATOM      8  C   UNL A   1      31.405  29.374  25.362  1.00  0.00     0.013 C 
BRANCH   8   9
ATOM      9  C   UNL A   1      30.912  29.642  23.887  1.00  0.00    -0.010 C 
ATOM     10  C   UNL A   1      29.813  30.696  23.942  1.00  0.00     0.008 C 
BRANCH   9  11
ATOM     11  C   UNL A   1      30.763  28.268  23.143  1.00  0.00     0.005 C 
ATOM     12  C   UNL A   1      29.311  27.751  23.479  1.00  0.00     0.005 C 
ATOM     13  C   UNL A   1      31.593  26.941  23.209  1.00  0.00     0.032 C 
ATOM     14  C   UNL A   1      29.425  26.321  24.004  1.00  0.00     0.005 C 
ATOM     15  C   UNL A   1      30.902  26.161  24.339  1.00  0.00     0.006 C 
ATOM     16  C   UNL A   1      33.082  26.859  23.533  1.00  0.00     0.139 C 
ATOM     17  C   UNL A   1      31.404  26.260  21.807  1.00  0.00     0.020 C 
ATOM     18  C   UNL A   1      31.371  24.696  24.489  1.00  0.00    -0.003 C 
ATOM     19  C   UNL A   1      33.674  25.450  23.577  1.00  0.00     0.080 C 
ATOM     20  O   UNL A   1      33.800  27.834  23.728  1.00  0.00    -0.299 OA
ATOM     21  C   UNL A   1      30.739  24.067  25.740  1.00  0.00     0.004 C 
ATOM     22  C   UNL A   1      32.921  24.574  24.590  1.00  0.00     0.006 C 
ATOM     23  C   UNL A   1      31.209  22.641  25.989  1.00  0.00     0.005 C 
ATOM     24  C   UNL A   1      33.382  23.059  24.655  1.00  0.00    -0.025 C 
ATOM     25  C   UNL A   1      32.743  22.470  25.946  1.00  0.00     0.002 C 
ATOM     26  C   UNL A   1      32.991  22.212  23.407  1.00  0.00     0.015 C 
ATOM     27  C   UNL A   1      34.932  23.005  24.755  1.00  0.00     0.012 C 
ATOM     28  C   UNL A   1      33.114  21.004  26.153  1.00  0.00     0.079 C 
ATOM     29  C   UNL A   1      32.527  20.763  23.626  1.00  0.00     0.076 C 
ATOM     30  C   UNL A   1      32.649  20.152  25.006  1.00  0.00     0.133 C 
ATOM     31  O   UNL A   1      32.371  18.963  25.185  1.00  0.00    -0.300 OA
ENDBRANCH   9  11
ENDBRANCH   8   9
ENDBRANCH   7   8
ENDBRANCH   4   7
ENDBRANCH   2   3
ENDBRANCH   1   2
BRANCH   1  32
ATOM     32  C   UNL A   1      33.043  34.270  28.483  1.00  0.00     0.023 C 
BRANCH  32  33
ATOM     33  C   UNL A   1      33.346  35.611  29.124  1.00  0.00     0.116 C 
BRANCH  33  34
ATOM     34  N   UNL A   1      32.508  36.003  30.245  1.00  0.00    -0.352 N 
ATOM     35  C   UNL A   1      32.724  35.945  31.606  1.00  0.00     0.251 C 
ATOM     36  H   UNL A   1      31.633  36.374  29.989  1.00  0.00     0.163 HD
ATOM     37  O   UNL A   1      31.907  36.464  32.367  1.00  0.00    -0.269 OA
BRANCH  35  38
ATOM     38  C   UNL A   1      33.865  35.188  32.193  1.00  0.00     0.039 A 
ATOM     39  C   UNL A   1      33.646  33.873  32.629  1.00  0.00     0.014 A 
ATOM     40  C   UNL A   1      35.153  35.704  32.275  1.00  0.00     0.014 A 
ATOM     41  C   UNL A   1      34.719  33.072  33.040  1.00  0.00     0.010 A 
ATOM     42  C   UNL A   1      36.232  34.863  32.509  1.00  0.00     0.010 A 
ATOM     43  C   UNL A   1      36.035  33.541  32.923  1.00  0.00    -0.014 A 
BRANCH  43  44
ATOM     44  C   UNL A   1      37.224  32.714  33.268  1.00  0.00     0.031 A 
ATOM     45  C   UNL A   1      37.942  32.948  34.577  1.00  0.00     0.074 A 
ATOM     46  C   UNL A   1      37.729  31.836  32.378  1.00  0.00     0.049 A 
ATOM     47  N   UNL A   1      39.093  32.477  34.989  1.00  0.00    -0.248 NA
ATOM     48  C   UNL A   1      37.310  33.884  35.524  1.00  0.00     0.031 C 
ATOM     49  C   UNL A   1      37.178  31.546  31.052  1.00  0.00     0.029 A 
ATOM     50  N   UNL A   1      38.835  31.025  32.458  1.00  0.00    -0.354 N 
ATOM     51  C   UNL A   1      39.343  33.108  36.202  1.00  0.00     0.074 A 
ATOM     52  C   UNL A   1      38.263  34.041  36.428  1.00  0.00     0.031 C 
ATOM     53  C   UNL A   1      37.920  30.596  30.463  1.00  0.00     0.029 A 
ATOM     54  C   UNL A   1      39.029  30.244  31.344  1.00  0.00     0.049 A 
ATOM     55  H   UNL A   1      39.433  31.006  33.239  1.00  0.00     0.167 HD
ATOM     56  C   UNL A   1      40.361  32.909  37.074  1.00  0.00     0.031 A 
ATOM     57  C   UNL A   1      39.993  29.348  31.062  1.00  0.00     0.031 A 
ATOM     58  C   UNL A   1      41.392  31.926  36.891  1.00  0.00     0.049 A 
ATOM     59  C   UNL A   1      41.076  29.091  32.072  1.00  0.00     0.074 A 
ATOM     60  C   UNL A   1      42.418  31.580  37.754  1.00  0.00     0.029 A 
ATOM     61  N   UNL A   1      41.511  31.113  35.776  1.00  0.00    -0.354 N 
ATOM     62  N   UNL A   1      41.270  29.660  33.236  1.00  0.00    -0.248 NA
ATOM     63  C   UNL A   1      42.065  28.058  31.733  1.00  0.00     0.031 C 
ATOM     64  C   UNL A   1      43.177  30.575  37.144  1.00  0.00     0.029 A 
ATOM     65  C   UNL A   1      42.597  30.268  35.923  1.00  0.00     0.049 A 
ATOM     66  H   UNL A   1      40.913  31.135  34.994  1.00  0.00     0.167 HD
ATOM     67  C   UNL A   1      42.386  29.039  33.780  1.00  0.00     0.074 A 
ATOM     68  C   UNL A   1      42.816  28.039  32.825  1.00  0.00     0.031 C 
ATOM     69  C   UNL A   1      43.002  29.276  34.963  1.00  0.00     0.031 A 
BRANCH  56  70
ATOM     70  C   UNL A   1      40.387  33.762  38.313  1.00  0.00    -0.014 A 
ATOM     71  C   UNL A   1      41.088  34.979  38.347  1.00  0.00     0.009 A 
ATOM     72  C   UNL A   1      39.698  33.348  39.463  1.00  0.00     0.009 A 
ATOM     73  C   UNL A   1      41.142  35.735  39.520  1.00  0.00     0.001 A 
ATOM     74  C   UNL A   1      39.723  34.124  40.624  1.00  0.00     0.001 A 
ATOM     75  C   UNL A   1      40.456  35.308  40.656  1.00  0.00     0.000 A 
ENDBRANCH  56  70
BRANCH  57  76
ATOM     76  C   UNL A   1      39.952  28.596  29.781  1.00  0.00    -0.014 A 
ATOM     77  C   UNL A   1      40.572  29.118  28.635  1.00  0.00     0.009 A 
ATOM     78  C   UNL A   1      39.312  27.350  29.698  1.00  0.00     0.009 A 
ATOM     79  C   UNL A   1      40.534  28.418  27.427  1.00  0.00     0.001 A 
ATOM     80  C   UNL A   1      39.302  26.638  28.496  1.00  0.00     0.001 A 
ATOM     81  C   UNL A   1      39.905  27.177  27.360  1.00  0.00     0.000 A 
ENDBRANCH  57  76
BRANCH  69  82
ATOM     82  C   UNL A   1      44.183  28.416  35.306  1.00  0.00    -0.014 A 
ATOM     83  C   UNL A   1      44.022  27.197  35.981  1.00  0.00     0.009 A 
ATOM     84  C   UNL A   1      45.468  28.809  34.902  1.00  0.00     0.009 A 
ATOM     85  C   UNL A   1      45.132  26.402  36.273  1.00  0.00     0.001 A 
ATOM     86  C   UNL A   1      46.572  28.000  35.173  1.00  0.00     0.001 A 
ATOM     87  C   UNL A   1      46.404  26.802  35.864  1.00  0.00     0.000 A 
ENDBRANCH  69  82
ENDBRANCH  43  44
ENDBRANCH  35  38
ENDBRANCH  33  34
ENDBRANCH  32  33
ENDBRANCH   1  32
TORSDOF 14
ENDMDL
MODEL 3
REMARK VINA RESULT:     -12.5      5.032     10.398
REMARK SMILES C[C@@H](CCC(=O)NCCCCNC(=O)c1ccc(-c2c3nc(c(-c4ccccc4)c4ccc([nH]4)c(-c4ccccc4)c4nc(c(-c5ccccc5)c5ccc2[nH]5)C=C4)C=C3)cc1)[C@@H]1CC[C@H]2[C@@H]3CC[C@H]4CC(=O)CC[C@@]4(C)[C@H]3CC(=O)[C@@]21C
REMARK SMILES IDX 9 1 8 2 7 3 5 4 6 5 4 7 3 8 2 9 1 10 63 11 64 12 82 13 65 14
REMARK SMILES IDX 66 15 80 16 83 17 67 18 79 19 81 20 68 21 78 22 69 23 76 24
REMARK SMILES IDX 70 25 75 26 77 27 71 28 74 29 72 30 73 31 10 32 11 33 12 34
REMARK SMILES IDX 13 35 14 37 15 38 16 39 62 40 17 41 61 42 18 43 19 44 20 45
REMARK SMILES IDX 55 46 21 47 60 48 54 49 56 50 22 51 59 52 53 53 52 54 23 56
REMARK SMILES IDX 45 57 30 58 44 59 31 60 34 61 43 62 57 63 32 64 33 65 42 67
REMARK SMILES IDX 58 68 35 69 24 70 25 71 29 72 26 73 28 74 27 75 46 76 47 77
REMARK SMILES IDX 51 78 48 79 50 80 49 81 36 82 37 83 41 84 38 85 40 86 39 87
REMARK H PARENT 7 6 12 36 56 55 34 66
REMARK Flexibility Score: inf
ROOT
ATOM      1  C   UNL A   1      30.158  32.513  24.912  1.00  0.00     0.023 C 
ENDROOT
BRANCH   1   2
ATOM      2  C   UNL A   1      29.024  31.932  24.073  1.00  0.00     0.116 C 
BRANCH   2   3
ATOM      3  N   UNL A   1      28.633  32.769  22.952  1.00  0.00    -0.356 N 
ATOM      4  C   UNL A   1      28.158  32.438  21.717  1.00  0.00     0.220 C 
ATOM      5  O   UNL A   1      27.788  33.352  20.976  1.00  0.00    -0.275 OA
ATOM      6  H   UNL A   1      28.729  33.736  23.109  1.00  0.00     0.163 HD
BRANCH   4   7
ATOM      7  C   UNL A   1      28.118  30.991  21.258  1.00  0.00     0.100 C 
BRANCH   7   8
ATOM      8  C   UNL A   1      29.334  30.133  21.677  1.00  0.00     0.013 C 
BRANCH   8   9
ATOM      9  C   UNL A   1      29.072  28.817  22.507  1.00  0.00    -0.010 C 
ATOM     10  C   UNL A   1      27.605  28.806  22.921  1.00  0.00     0.008 C 
BRANCH   9  11
ATOM     11  C   UNL A   1      30.261  28.603  23.509  1.00  0.00     0.005 C 
ATOM     12  C   UNL A   1      31.561  29.054  22.738  1.00  0.00     0.005 C 
ATOM     13  C   UNL A   1      30.773  27.338  24.278  1.00  0.00     0.032 C 
ATOM     14  C   UNL A   1      32.586  27.926  22.834  1.00  0.00     0.005 C 
ATOM     15  C   UNL A   1      31.776  26.719  23.290  1.00  0.00     0.006 C 
ATOM     16  C   UNL A   1      29.895  26.173  24.722  1.00  0.00     0.139 C 
ATOM     17  C   UNL A   1      31.470  27.890  25.573  1.00  0.00     0.020 C 
ATOM     18  C   UNL A   1      32.618  25.562  23.870  1.00  0.00    -0.003 C 
ATOM     19  C   UNL A   1      30.621  25.027  25.427  1.00  0.00     0.080 C 
ATOM     20  O   UNL A   1      28.679  26.127  24.567  1.00  0.00    -0.299 OA
ATOM     21  C   UNL A   1      33.462  24.918  22.759  1.00  0.00     0.004 C 
ATOM     22  C   UNL A   1      31.740  24.462  24.540  1.00  0.00     0.006 C 
ATOM     23  C   UNL A   1      34.271  23.723  23.245  1.00  0.00     0.005 C 
ATOM     24  C   UNL A   1      32.630  23.331  25.202  1.00  0.00    -0.025 C 
ATOM     25  C   UNL A   1      33.446  22.690  24.042  1.00  0.00     0.002 C 
ATOM     26  C   UNL A   1      33.577  23.835  26.333  1.00  0.00     0.015 C 
ATOM     27  C   UNL A   1      31.699  22.268  25.849  1.00  0.00     0.012 C 
ATOM     28  C   UNL A   1      34.349  21.560  24.530  1.00  0.00     0.079 C 
ATOM     29  C   UNL A   1      34.989  23.233  26.422  1.00  0.00     0.076 C 
ATOM     30  C   UNL A   1      35.342  22.051  25.545  1.00  0.00     0.133 C 
ATOM     31  O   UNL A   1      36.437  21.494  25.666  1.00  0.00    -0.300 OA
ENDBRANCH   9  11
ENDBRANCH   8   9
ENDBRANCH   7   8
ENDBRANCH   4   7
ENDBRANCH   2   3
ENDBRANCH   1   2
BRANCH   1  32
ATOM     32  C   UNL A   1      30.762  31.536  25.906  1.00  0.00     0.023 C 
BRANCH  32  33
ATOM     33  C   UNL A   1      32.035  32.007  26.582  1.00  0.00     0.116 C 
BRANCH  33  34
ATOM     34  N   UNL A   1      31.969  33.278  27.286  1.00  0.00    -0.352 N 
ATOM     35  C   UNL A   1      32.924  33.974  27.997  1.00  0.00     0.251 C 
ATOM     36  H   UNL A   1      31.089  33.718  27.249  1.00  0.00     0.163 HD
ATOM     37  O   UNL A   1      32.665  35.108  28.401  1.00  0.00    -0.269 OA
BRANCH  35  38
ATOM     38  C   UNL A   1      34.226  33.360  28.381  1.00  0.00     0.039 A 
ATOM     39  C   UNL A   1      35.411  33.991  27.976  1.00  0.00     0.014 A 
ATOM     40  C   UNL A   1      34.322  32.221  29.172  1.00  0.00     0.014 A 
ATOM     41  C   UNL A   1      36.653  33.540  28.443  1.00  0.00     0.010 A 
ATOM     42  C   UNL A   1      35.526  31.885  29.776  1.00  0.00     0.010 A 
ATOM     43  C   UNL A   1      36.717  32.518  29.402  1.00  0.00    -0.014 A 
BRANCH  43  44
ATOM     44  C   UNL A   1      37.997  32.045  29.998  1.00  0.00     0.031 A 
ATOM     45  C   UNL A   1      38.647  30.788  29.469  1.00  0.00     0.074 A 
ATOM     46  C   UNL A   1      38.523  32.666  31.073  1.00  0.00     0.049 A 
ATOM     47  N   UNL A   1      39.650  30.102  29.959  1.00  0.00    -0.248 NA
ATOM     48  C   UNL A   1      38.050  30.187  28.263  1.00  0.00     0.031 C 
ATOM     49  C   UNL A   1      37.974  33.856  31.729  1.00  0.00     0.029 A 
ATOM     50  N   UNL A   1      39.642  32.371  31.812  1.00  0.00    -0.354 N 
ATOM     51  C   UNL A   1      39.756  28.969  29.160  1.00  0.00     0.074 A 
ATOM     52  C   UNL A   1      38.678  29.024  28.199  1.00  0.00     0.031 C 
ATOM     53  C   UNL A   1      38.780  34.213  32.742  1.00  0.00     0.029 A 
ATOM     54  C   UNL A   1      39.872  33.251  32.842  1.00  0.00     0.049 A 
ATOM     55  H   UNL A   1      40.225  31.601  31.621  1.00  0.00     0.167 HD
ATOM     56  C   UNL A   1      40.685  27.985  29.193  1.00  0.00     0.031 A 
ATOM     57  C   UNL A   1      40.851  33.280  33.765  1.00  0.00     0.031 A 
ATOM     58  C   UNL A   1      41.803  27.968  30.095  1.00  0.00     0.049 A 
ATOM     59  C   UNL A   1      41.912  32.215  33.744  1.00  0.00     0.074 A 
ATOM     60  C   UNL A   1      42.852  27.067  30.154  1.00  0.00     0.029 A 
ATOM     61  N   UNL A   1      42.030  28.916  31.080  1.00  0.00    -0.354 N 
ATOM     62  N   UNL A   1      42.025  31.179  32.950  1.00  0.00    -0.248 NA
ATOM     63  C   UNL A   1      42.988  32.334  34.738  1.00  0.00     0.031 C 
ATOM     64  C   UNL A   1      43.699  27.454  31.197  1.00  0.00     0.029 A 
ATOM     65  C   UNL A   1      43.200  28.619  31.757  1.00  0.00     0.049 A 
ATOM     66  H   UNL A   1      41.445  29.685  31.270  1.00  0.00     0.167 HD
ATOM     67  C   UNL A   1      43.195  30.536  33.331  1.00  0.00     0.074 A 
ATOM     68  C   UNL A   1      43.763  31.308  34.416  1.00  0.00     0.031 C 
ATOM     69  C   UNL A   1      43.750  29.406  32.829  1.00  0.00     0.031 A 
BRANCH  56  70
ATOM     70  C   UNL A   1      40.534  26.857  28.209  1.00  0.00    -0.014 A 
ATOM     71  C   UNL A   1      39.819  25.693  28.535  1.00  0.00     0.009 A 
ATOM     72  C   UNL A   1      41.111  26.961  26.933  1.00  0.00     0.009 A 
ATOM     73  C   UNL A   1      39.729  24.637  27.626  1.00  0.00     0.001 A 
ATOM     74  C   UNL A   1      40.989  25.917  26.013  1.00  0.00     0.001 A 
ATOM     75  C   UNL A   1      40.311  24.751  26.365  1.00  0.00     0.000 A 
ENDBRANCH  56  70
BRANCH  57  76
ATOM     76  C   UNL A   1      40.896  34.379  34.763  1.00  0.00    -0.014 A 
ATOM     77  C   UNL A   1      40.268  34.228  36.010  1.00  0.00     0.009 A 
ATOM     78  C   UNL A   1      41.575  35.575  34.487  1.00  0.00     0.009 A 
ATOM     79  C   UNL A   1      40.302  35.259  36.951  1.00  0.00     0.001 A 
ATOM     80  C   UNL A   1      41.635  36.593  35.442  1.00  0.00     0.001 A 
ATOM     81  C   UNL A   1      40.991  36.437  36.669  1.00  0.00     0.000 A 
ENDBRANCH  57  76
BRANCH  69  82
ATOM     82  C   UNL A   1      45.053  28.958  33.424  1.00  0.00    -0.014 A 
ATOM     83  C   UNL A   1      46.278  29.417  32.919  1.00  0.00     0.009 A 
ATOM     84  C   UNL A   1      45.049  28.104  34.538  1.00  0.00     0.009 A 
ATOM     85  C   UNL A   1      47.477  29.004  33.501  1.00  0.00     0.001 A 
ATOM     86  C   UNL A   1      46.249  27.714  35.133  1.00  0.00     0.001 A 
ATOM     87  C   UNL A   1      47.462  28.158  34.609  1.00  0.00     0.000 A 
ENDBRANCH  69  82
ENDBRANCH  43  44
ENDBRANCH  35  38
ENDBRANCH  33  34
ENDBRANCH  32  33
ENDBRANCH   1  32
TORSDOF 14
ENDMDL
