MODEL 1
REMARK VINA RESULT:     -10.9      0.000      0.000
REMARK SMILES C[NH+](C)Cc1ccccc1[C@H]1[NH2+][C@@H](C(=O)NCCCCNC(=O)c2ccc(-c3c4nc(c(-c5ccccc5)c5ccc([nH]5)c(-c5ccccc5)c5nc(c(-c6ccccc6)c6ccc3[nH]6)C=C5)C=C4)cc2)C(C)(C)S1
REMARK SMILES IDX 18 1 17 2 16 3 14 4 15 5 13 7 11 8 12 9 75 10 72 13 73 14
REMARK SMILES IDX 74 15 10 16 5 17 6 18 7 19 9 20 8 21 4 22 2 23 1 24 3 25
REMARK SMILES IDX 19 27 20 28 21 29 22 30 23 32 24 33 25 34 71 35 26 36 70 37
REMARK SMILES IDX 27 38 28 39 29 40 64 41 30 42 69 43 63 44 65 45 31 46 68 47
REMARK SMILES IDX 62 48 61 49 32 51 54 52 39 53 53 54 40 55 43 56 52 57 66 58
REMARK SMILES IDX 41 59 42 60 51 62 67 63 44 64 33 65 34 66 38 67 35 68 37 69
REMARK SMILES IDX 36 70 55 71 56 72 60 73 57 74 59 75 58 76 45 77 46 78 50 79
REMARK SMILES IDX 47 80 49 81 48 82
REMARK H PARENT 16 6 12 11 12 12 2 26 21 31 65 50 43 61
REMARK Flexibility Score: inf
ROOT
ATOM      1  C   UNL A   1      31.878  29.648  25.363  1.00  0.00     0.023 C 
ENDROOT
BRANCH   1   2
ATOM      2  C   UNL A   1      33.077  29.238  24.512  1.00  0.00     0.116 C 
BRANCH   2   3
ATOM      3  N   UNL A   1      32.782  28.396  23.386  1.00  0.00    -0.351 N 
ATOM      4  C   UNL A   1      32.624  27.039  23.376  1.00  0.00     0.279 C 
ATOM      5  O   UNL A   1      32.171  26.552  22.332  1.00  0.00    -0.268 OA
ATOM      6  H   UNL A   1      32.680  28.851  22.519  1.00  0.00     0.163 HD
BRANCH   4   7
ATOM      7  C   UNL A   1      33.032  26.091  24.540  1.00  0.00     0.289 C 
ATOM      8  C   UNL A   1      34.324  24.368  25.495  1.00  0.00     0.275 C 
ATOM      9  N   UNL A   1      34.133  25.112  24.228  1.00  0.00    -0.320 N 
ATOM     10  S   UNL A   1      32.712  24.034  26.219  1.00  0.00    -0.081 SA
ATOM     11  H   UNL A   1      33.855  24.482  23.477  1.00  0.00     0.348 HD
ATOM     12  H   UNL A   1      34.986  25.572  23.911  1.00  0.00     0.348 HD
ATOM     13  C   UNL A   1      31.858  25.371  25.262  1.00  0.00     0.077 C 
ATOM     14  C   UNL A   1      30.792  24.701  24.394  1.00  0.00     0.030 C 
ATOM     15  C   UNL A   1      31.153  26.336  26.227  1.00  0.00     0.030 C 
BRANCH   8  16
ATOM     16  C   UNL A   1      35.460  23.331  25.603  1.00  0.00     0.029 A 
ATOM     17  C   UNL A   1      35.504  21.908  25.571  1.00  0.00     0.016 A 
ATOM     18  C   UNL A   1      36.807  21.286  25.597  1.00  0.00     0.010 A 
ATOM     19  C   UNL A   1      38.010  21.966  25.709  1.00  0.00     0.001 A 
ATOM     20  C   UNL A   1      36.737  23.985  25.758  1.00  0.00     0.011 A 
ATOM     21  C   UNL A   1      37.972  23.332  25.817  1.00  0.00     0.001 A 
BRANCH  17  22
ATOM     22  C   UNL A   1      34.490  20.760  25.563  1.00  0.00     0.299 C 
BRANCH  22  23
ATOM     23  N   UNL A   1      33.805  20.194  24.430  1.00  0.00    -0.336 N 
ATOM     24  C   UNL A   1      33.674  18.752  24.448  1.00  0.00     0.332 C 
ATOM     25  C   UNL A   1      32.640  20.920  24.045  1.00  0.00     0.332 C 
ATOM     26  H   UNL A   1      34.444  20.330  23.647  1.00  0.00     0.347 HD
ENDBRANCH  22  23
ENDBRANCH  17  22
ENDBRANCH   8  16
ENDBRANCH   4   7
ENDBRANCH   2   3
ENDBRANCH   1   2
BRANCH   1  27
ATOM     27  C   UNL A   1      32.148  29.761  26.858  1.00  0.00     0.023 C 
BRANCH  27  28
ATOM     28  C   UNL A   1      33.588  30.055  27.268  1.00  0.00     0.116 C 
BRANCH  28  29
ATOM     29  N   UNL A   1      33.760  31.149  28.217  1.00  0.00    -0.352 N 
ATOM     30  C   UNL A   1      34.868  31.429  28.993  1.00  0.00     0.251 C 
ATOM     31  H   UNL A   1      32.995  31.761  28.318  1.00  0.00     0.163 HD
ATOM     32  O   UNL A   1      34.892  32.389  29.755  1.00  0.00    -0.269 OA
BRANCH  30  33
ATOM     33  C   UNL A   1      36.010  30.495  28.941  1.00  0.00     0.039 A 
ATOM     34  C   UNL A   1      36.844  30.519  27.821  1.00  0.00     0.014 A 
ATOM     35  C   UNL A   1      36.345  29.741  30.067  1.00  0.00     0.014 A 
ATOM     36  C   UNL A   1      38.089  29.891  27.882  1.00  0.00     0.010 A 
ATOM     37  C   UNL A   1      37.621  29.197  30.156  1.00  0.00     0.010 A 
ATOM     38  C   UNL A   1      38.517  29.290  29.077  1.00  0.00    -0.014 A 
BRANCH  38  39
ATOM     39  C   UNL A   1      39.899  28.770  29.247  1.00  0.00     0.031 A 
ATOM     40  C   UNL A   1      40.976  29.686  29.754  1.00  0.00     0.074 A 
ATOM     41  C   UNL A   1      40.211  27.519  28.848  1.00  0.00     0.049 A 
ATOM     42  N   UNL A   1      42.270  29.497  29.798  1.00  0.00    -0.248 NA
ATOM     43  C   UNL A   1      40.542  31.005  30.242  1.00  0.00     0.031 C 
ATOM     44  C   UNL A   1      39.272  26.532  28.309  1.00  0.00     0.029 A 
ATOM     45  N   UNL A   1      41.421  26.870  28.820  1.00  0.00    -0.354 N 
ATOM     46  C   UNL A   1      42.804  30.684  30.284  1.00  0.00     0.074 A 
ATOM     47  C   UNL A   1      41.701  31.600  30.474  1.00  0.00     0.031 C 
ATOM     48  C   UNL A   1      39.936  25.396  28.031  1.00  0.00     0.029 A 
ATOM     49  C   UNL A   1      41.352  25.590  28.321  1.00  0.00     0.049 A 
ATOM     50  H   UNL A   1      42.260  27.281  29.130  1.00  0.00     0.167 HD
ATOM     51  C   UNL A   1      44.094  30.979  30.569  1.00  0.00     0.031 A 
ATOM     52  C   UNL A   1      42.322  24.681  28.107  1.00  0.00     0.031 A 
ATOM     53  C   UNL A   1      45.189  30.063  30.413  1.00  0.00     0.049 A 
ATOM     54  C   UNL A   1      43.749  25.037  28.426  1.00  0.00     0.074 A 
ATOM     55  C   UNL A   1      46.526  30.259  30.706  1.00  0.00     0.029 A 
ATOM     56  N   UNL A   1      45.066  28.768  29.935  1.00  0.00    -0.354 N 
ATOM     57  N   UNL A   1      44.233  26.155  28.908  1.00  0.00    -0.248 NA
ATOM     58  C   UNL A   1      44.763  24.001  28.174  1.00  0.00     0.031 C 
ATOM     59  C   UNL A   1      47.219  29.088  30.382  1.00  0.00     0.029 A 
ATOM     60  C   UNL A   1      46.306  28.152  29.926  1.00  0.00     0.049 A 
ATOM     61  H   UNL A   1      44.224  28.348  29.645  1.00  0.00     0.167 HD
ATOM     62  C   UNL A   1      45.598  25.945  29.053  1.00  0.00     0.074 A 
ATOM     63  C   UNL A   1      45.866  24.592  28.613  1.00  0.00     0.031 C 
ATOM     64  C   UNL A   1      46.547  26.797  29.509  1.00  0.00     0.031 A 
BRANCH  51  65
ATOM     65  C   UNL A   1      44.380  32.359  31.089  1.00  0.00    -0.014 A 
ATOM     66  C   UNL A   1      44.381  32.624  32.468  1.00  0.00     0.009 A 
ATOM     67  C   UNL A   1      44.667  33.401  30.195  1.00  0.00     0.009 A 
ATOM     68  C   UNL A   1      44.623  33.914  32.939  1.00  0.00     0.001 A 
ATOM     69  C   UNL A   1      44.939  34.685  30.671  1.00  0.00     0.001 A 
ATOM     70  C   UNL A   1      44.906  34.943  32.041  1.00  0.00     0.000 A 
ENDBRANCH  51  65
BRANCH  52  71
ATOM     71  C   UNL A   1      41.992  23.333  27.571  1.00  0.00    -0.014 A 
ATOM     72  C   UNL A   1      41.663  22.287  28.447  1.00  0.00     0.009 A 
ATOM     73  C   UNL A   1      42.038  23.075  26.193  1.00  0.00     0.009 A 
ATOM     74  C   UNL A   1      41.422  21.001  27.956  1.00  0.00     0.001 A 
ATOM     75  C   UNL A   1      41.770  21.794  25.703  1.00  0.00     0.001 A 
ATOM     76  C   UNL A   1      41.474  20.756  26.585  1.00  0.00     0.000 A 
ENDBRANCH  52  71
BRANCH  64  77
ATOM     77  C   UNL A   1      47.949  26.276  29.620  1.00  0.00    -0.014 A 
ATOM     78  C   UNL A   1      48.458  25.803  30.839  1.00  0.00     0.009 A 
ATOM     79  C   UNL A   1      48.750  26.202  28.469  1.00  0.00     0.009 A 
ATOM     80  C   UNL A   1      49.753  25.285  30.906  1.00  0.00     0.001 A 
ATOM     81  C   UNL A   1      50.034  25.661  28.536  1.00  0.00     0.001 A 
ATOM     82  C   UNL A   1      50.537  25.209  29.754  1.00  0.00     0.000 A 
ENDBRANCH  64  77
ENDBRANCH  38  39
ENDBRANCH  30  33
ENDBRANCH  28  29
ENDBRANCH  27  28
ENDBRANCH   1  27
TORSDOF 14
ENDMDL
MODEL 2
REMARK VINA RESULT:     -10.7      2.681      8.194
REMARK SMILES C[NH+](C)Cc1ccccc1[C@H]1[NH2+][C@@H](C(=O)NCCCCNC(=O)c2ccc(-c3c4nc(c(-c5ccccc5)c5ccc([nH]5)c(-c5ccccc5)c5nc(c(-c6ccccc6)c6ccc3[nH]6)C=C5)C=C4)cc2)C(C)(C)S1
REMARK SMILES IDX 18 1 17 2 16 3 14 4 15 5 13 7 11 8 12 9 75 10 72 13 73 14
REMARK SMILES IDX 74 15 10 16 5 17 6 18 7 19 9 20 8 21 4 22 2 23 1 24 3 25
REMARK SMILES IDX 19 27 20 28 21 29 22 30 23 32 24 33 25 34 71 35 26 36 70 37
REMARK SMILES IDX 27 38 28 39 29 40 64 41 30 42 69 43 63 44 65 45 31 46 68 47
REMARK SMILES IDX 62 48 61 49 32 51 54 52 39 53 53 54 40 55 43 56 52 57 66 58
REMARK SMILES IDX 41 59 42 60 51 62 67 63 44 64 33 65 34 66 38 67 35 68 37 69
REMARK SMILES IDX 36 70 55 71 56 72 60 73 57 74 59 75 58 76 45 77 46 78 50 79
REMARK SMILES IDX 47 80 49 81 48 82
REMARK H PARENT 16 6 12 11 12 12 2 26 21 31 65 50 43 61
REMARK Flexibility Score: inf
ROOT
ATOM      1  C   UNL A   1      35.682  21.132  25.236  1.00  0.00     0.023 C 
ENDROOT
BRANCH   1   2
ATOM      2  C   UNL A   1      35.145  21.850  26.472  1.00  0.00     0.116 C 
BRANCH   2   3
ATOM      3  N   UNL A   1      33.714  21.904  26.586  1.00  0.00    -0.351 N 
ATOM      4  C   UNL A   1      32.862  22.791  25.992  1.00  0.00     0.279 C 
ATOM      5  O   UNL A   1      31.655  22.521  26.069  1.00  0.00    -0.268 OA
ATOM      6  H   UNL A   1      33.299  21.220  27.160  1.00  0.00     0.163 HD
BRANCH   4   7
ATOM      7  C   UNL A   1      33.298  24.116  25.305  1.00  0.00     0.289 C 
ATOM      8  C   UNL A   1      33.397  26.464  25.133  1.00  0.00     0.275 C 
ATOM      9  N   UNL A   1      32.829  25.382  25.972  1.00  0.00    -0.320 N 
ATOM     10  S   UNL A   1      33.242  25.996  23.404  1.00  0.00    -0.081 SA
ATOM     11  H   UNL A   1      31.811  25.429  25.984  1.00  0.00     0.348 HD
ATOM     12  H   UNL A   1      33.126  25.444  26.946  1.00  0.00     0.348 HD
ATOM     13  C   UNL A   1      33.052  24.190  23.772  1.00  0.00     0.077 C 
ATOM     14  C   UNL A   1      31.680  23.761  23.249  1.00  0.00     0.030 C 
ATOM     15  C   UNL A   1      34.124  23.388  23.020  1.00  0.00     0.030 C 
BRANCH   8  16
ATOM     16  C   UNL A   1      33.217  27.933  25.565  1.00  0.00     0.029 A 
ATOM     17  C   UNL A   1      32.396  29.003  25.108  1.00  0.00     0.016 A 
ATOM     18  C   UNL A   1      32.436  30.236  25.859  1.00  0.00     0.010 A 
ATOM     19  C   UNL A   1      33.256  30.473  26.953  1.00  0.00     0.001 A 
ATOM     20  C   UNL A   1      34.076  28.248  26.682  1.00  0.00     0.011 A 
ATOM     21  C   UNL A   1      34.105  29.474  27.351  1.00  0.00     0.001 A 
BRANCH  17  22
ATOM     22  C   UNL A   1      31.444  29.257  23.935  1.00  0.00     0.299 C 
BRANCH  22  23
ATOM     23  N   UNL A   1      30.052  28.903  23.833  1.00  0.00    -0.336 N 
ATOM     24  C   UNL A   1      29.227  29.851  23.115  1.00  0.00     0.332 C 
ATOM     25  C   UNL A   1      29.833  27.528  23.525  1.00  0.00     0.332 C 
ATOM     26  H   UNL A   1      29.690  28.998  24.782  1.00  0.00     0.347 HD
ENDBRANCH  22  23
ENDBRANCH  17  22
ENDBRANCH   8  16
ENDBRANCH   4   7
ENDBRANCH   2   3
ENDBRANCH   1   2
BRANCH   1  27
ATOM     27  C   UNL A   1      36.954  21.722  24.641  1.00  0.00     0.023 C 
BRANCH  27  28
ATOM     28  C   UNL A   1      37.839  22.526  25.589  1.00  0.00     0.116 C 
BRANCH  28  29
ATOM     29  N   UNL A   1      39.211  22.049  25.722  1.00  0.00    -0.352 N 
ATOM     30  C   UNL A   1      40.281  22.704  26.301  1.00  0.00     0.251 C 
ATOM     31  H   UNL A   1      39.398  21.155  25.355  1.00  0.00     0.163 HD
ATOM     32  O   UNL A   1      41.393  22.192  26.357  1.00  0.00    -0.269 OA
BRANCH  30  33
ATOM     33  C   UNL A   1      40.073  24.081  26.792  1.00  0.00     0.039 A 
ATOM     34  C   UNL A   1      39.532  24.263  28.067  1.00  0.00     0.014 A 
ATOM     35  C   UNL A   1      40.580  25.162  26.069  1.00  0.00     0.014 A 
ATOM     36  C   UNL A   1      39.620  25.516  28.675  1.00  0.00     0.010 A 
ATOM     37  C   UNL A   1      40.749  26.382  26.713  1.00  0.00     0.010 A 
ATOM     38  C   UNL A   1      40.297  26.565  28.032  1.00  0.00    -0.014 A 
BRANCH  38  39
ATOM     39  C   UNL A   1      40.575  27.857  28.711  1.00  0.00     0.031 A 
ATOM     40  C   UNL A   1      41.878  28.047  29.434  1.00  0.00     0.074 A 
ATOM     41  C   UNL A   1      39.625  28.814  28.773  1.00  0.00     0.049 A 
ATOM     42  N   UNL A   1      42.244  29.009  30.242  1.00  0.00    -0.248 NA
ATOM     43  C   UNL A   1      42.890  26.993  29.254  1.00  0.00     0.031 C 
ATOM     44  C   UNL A   1      38.304  28.751  28.143  1.00  0.00     0.029 A 
ATOM     45  N   UNL A   1      39.625  30.027  29.417  1.00  0.00    -0.354 N 
ATOM     46  C   UNL A   1      43.511  28.658  30.690  1.00  0.00     0.074 A 
ATOM     47  C   UNL A   1      43.830  27.374  30.104  1.00  0.00     0.031 C 
ATOM     48  C   UNL A   1      37.634  29.886  28.409  1.00  0.00     0.029 A 
ATOM     49  C   UNL A   1      38.453  30.732  29.269  1.00  0.00     0.049 A 
ATOM     50  H   UNL A   1      40.391  30.362  29.936  1.00  0.00     0.167 HD
ATOM     51  C   UNL A   1      44.346  29.350  31.500  1.00  0.00     0.031 A 
ATOM     52  C   UNL A   1      38.076  31.919  29.781  1.00  0.00     0.031 A 
ATOM     53  C   UNL A   1      44.049  30.640  32.058  1.00  0.00     0.049 A 
ATOM     54  C   UNL A   1      39.020  32.666  30.683  1.00  0.00     0.074 A 
ATOM     55  C   UNL A   1      44.844  31.436  32.863  1.00  0.00     0.029 A 
ATOM     56  N   UNL A   1      42.864  31.329  31.855  1.00  0.00    -0.354 N 
ATOM     57  N   UNL A   1      40.225  32.331  31.077  1.00  0.00    -0.248 NA
ATOM     58  C   UNL A   1      38.553  33.958  31.208  1.00  0.00     0.031 C 
ATOM     59  C   UNL A   1      44.130  32.599  33.168  1.00  0.00     0.029 A 
ATOM     60  C   UNL A   1      42.907  32.542  32.519  1.00  0.00     0.049 A 
ATOM     61  H   UNL A   1      42.105  31.004  31.318  1.00  0.00     0.167 HD
ATOM     62  C   UNL A   1      40.672  33.385  31.863  1.00  0.00     0.074 A 
ATOM     63  C   UNL A   1      39.614  34.373  31.887  1.00  0.00     0.031 C 
ATOM     64  C   UNL A   1      41.855  33.522  32.508  1.00  0.00     0.031 A 
BRANCH  51  65
ATOM     65  C   UNL A   1      45.671  28.717  31.817  1.00  0.00    -0.014 A 
ATOM     66  C   UNL A   1      46.797  28.960  31.015  1.00  0.00     0.009 A 
ATOM     67  C   UNL A   1      45.800  27.884  32.939  1.00  0.00     0.009 A 
ATOM     68  C   UNL A   1      48.016  28.347  31.305  1.00  0.00     0.001 A 
ATOM     69  C   UNL A   1      47.029  27.297  33.244  1.00  0.00     0.001 A 
ATOM     70  C   UNL A   1      48.132  27.519  32.421  1.00  0.00     0.000 A 
ENDBRANCH  51  65
BRANCH  52  71
ATOM     71  C   UNL A   1      36.745  32.496  29.453  1.00  0.00    -0.014 A 
ATOM     72  C   UNL A   1      35.638  32.228  30.273  1.00  0.00     0.009 A 
ATOM     73  C   UNL A   1      36.564  33.282  28.306  1.00  0.00     0.009 A 
ATOM     74  C   UNL A   1      34.370  32.707  29.932  1.00  0.00     0.001 A 
ATOM     75  C   UNL A   1      35.300  33.783  27.981  1.00  0.00     0.001 A 
ATOM     76  C   UNL A   1      34.203  33.485  28.788  1.00  0.00     0.000 A 
ENDBRANCH  52  71
BRANCH  64  77
ATOM     77  C   UNL A   1      42.098  34.810  33.239  1.00  0.00    -0.014 A 
ATOM     78  C   UNL A   1      41.618  35.011  34.542  1.00  0.00     0.009 A 
ATOM     79  C   UNL A   1      42.874  35.811  32.634  1.00  0.00     0.009 A 
ATOM     80  C   UNL A   1      41.893  36.202  35.217  1.00  0.00     0.001 A 
ATOM     81  C   UNL A   1      43.167  36.990  33.320  1.00  0.00     0.001 A 
ATOM     82  C   UNL A   1      42.672  37.187  34.608  1.00  0.00     0.000 A 
ENDBRANCH  64  77
ENDBRANCH  38  39
ENDBRANCH  30  33
ENDBRANCH  28  29
ENDBRANCH  27  28
ENDBRANCH   1  27
TORSDOF 14
ENDMDL
MODEL 3
REMARK VINA RESULT:     -10.7      2.596      6.857
REMARK SMILES C[NH+](C)Cc1ccccc1[C@H]1[NH2+][C@@H](C(=O)NCCCCNC(=O)c2ccc(-c3c4nc(c(-c5ccccc5)c5ccc([nH]5)c(-c5ccccc5)c5nc(c(-c6ccccc6)c6ccc3[nH]6)C=C5)C=C4)cc2)C(C)(C)S1
REMARK SMILES IDX 18 1 17 2 16 3 14 4 15 5 13 7 11 8 12 9 75 10 72 13 73 14
REMARK SMILES IDX 74 15 10 16 5 17 6 18 7 19 9 20 8 21 4 22 2 23 1 24 3 25
REMARK SMILES IDX 19 27 20 28 21 29 22 30 23 32 24 33 25 34 71 35 26 36 70 37
REMARK SMILES IDX 27 38 28 39 29 40 64 41 30 42 69 43 63 44 65 45 31 46 68 47
REMARK SMILES IDX 62 48 61 49 32 51 54 52 39 53 53 54 40 55 43 56 52 57 66 58
REMARK SMILES IDX 41 59 42 60 51 62 67 63 44 64 33 65 34 66 38 67 35 68 37 69
REMARK SMILES IDX 36 70 55 71 56 72 60 73 57 74 59 75 58 76 45 77 46 78 50 79
REMARK SMILES IDX 47 80 49 81 48 82
REMARK H PARENT 16 6 12 11 12 12 2 26 21 31 65 50 43 61
REMARK Flexibility Score: inf
ROOT
ATOM      1  C   UNL A   1      32.782  28.828  26.052  1.00  0.00     0.023 C 
ENDROOT
BRANCH   1   2
ATOM      2  C   UNL A   1      32.321  29.347  24.692  1.00  0.00     0.116 C 
BRANCH   2   3
ATOM      3  N   UNL A   1      33.265  29.205  23.620  1.00  0.00    -0.351 N 
ATOM      4  C   UNL A   1      33.575  28.070  22.925  1.00  0.00     0.279 C 
ATOM      5  O   UNL A   1      34.266  28.226  21.908  1.00  0.00    -0.268 OA
ATOM      6  H   UNL A   1      33.745  30.021  23.353  1.00  0.00     0.163 HD
BRANCH   4   7
ATOM      7  C   UNL A   1      33.182  26.629  23.359  1.00  0.00     0.289 C 
ATOM      8  C   UNL A   1      33.674  24.402  23.949  1.00  0.00     0.275 C 
ATOM      9  N   UNL A   1      34.325  25.662  23.519  1.00  0.00    -0.320 N 
ATOM     10  S   UNL A   1      32.157  24.184  23.007  1.00  0.00    -0.081 SA
ATOM     11  H   UNL A   1      34.816  25.532  22.636  1.00  0.00     0.348 HD
ATOM     12  H   UNL A   1      35.023  25.989  24.186  1.00  0.00     0.348 HD
ATOM     13  C   UNL A   1      32.030  25.974  22.546  1.00  0.00     0.077 C 
ATOM     14  C   UNL A   1      32.098  26.057  21.020  1.00  0.00     0.030 C 
ATOM     15  C   UNL A   1      30.673  26.535  22.996  1.00  0.00     0.030 C 
BRANCH   8  16
ATOM     16  C   UNL A   1      34.544  23.185  24.321  1.00  0.00     0.029 A 
ATOM     17  C   UNL A   1      34.284  21.948  24.975  1.00  0.00     0.016 A 
ATOM     18  C   UNL A   1      35.367  20.994  25.044  1.00  0.00     0.010 A 
ATOM     19  C   UNL A   1      36.652  21.218  24.573  1.00  0.00     0.001 A 
ATOM     20  C   UNL A   1      35.907  23.378  23.886  1.00  0.00     0.011 A 
ATOM     21  C   UNL A   1      36.931  22.435  24.011  1.00  0.00     0.001 A 
BRANCH  17  22
ATOM     22  C   UNL A   1      33.111  21.305  25.724  1.00  0.00     0.299 C 
BRANCH  22  23
ATOM     23  N   UNL A   1      32.330  21.869  26.794  1.00  0.00    -0.336 N 
ATOM     24  C   UNL A   1      33.096  22.364  27.919  1.00  0.00     0.332 C 
ATOM     25  C   UNL A   1      31.269  22.709  26.345  1.00  0.00     0.332 C 
ATOM     26  H   UNL A   1      31.849  21.073  27.211  1.00  0.00     0.347 HD
ENDBRANCH  22  23
ENDBRANCH  17  22
ENDBRANCH   8  16
ENDBRANCH   4   7
ENDBRANCH   2   3
ENDBRANCH   1   2
BRANCH   1  27
ATOM     27  C   UNL A   1      32.560  29.778  27.222  1.00  0.00     0.023 C 
BRANCH  27  28
ATOM     28  C   UNL A   1      33.433  31.028  27.258  1.00  0.00     0.116 C 
BRANCH  28  29
ATOM     29  N   UNL A   1      32.721  32.287  27.444  1.00  0.00    -0.352 N 
ATOM     30  C   UNL A   1      33.160  33.417  28.107  1.00  0.00     0.251 C 
ATOM     31  H   UNL A   1      31.820  32.338  27.051  1.00  0.00     0.163 HD
ATOM     32  O   UNL A   1      32.465  34.423  28.191  1.00  0.00    -0.269 OA
BRANCH  30  33
ATOM     33  C   UNL A   1      34.471  33.363  28.784  1.00  0.00     0.039 A 
ATOM     34  C   UNL A   1      34.573  32.670  29.992  1.00  0.00     0.014 A 
ATOM     35  C   UNL A   1      35.611  33.838  28.132  1.00  0.00     0.014 A 
ATOM     36  C   UNL A   1      35.835  32.333  30.482  1.00  0.00     0.010 A 
ATOM     37  C   UNL A   1      36.861  33.421  28.575  1.00  0.00     0.010 A 
ATOM     38  C   UNL A   1      36.986  32.641  29.738  1.00  0.00    -0.014 A 
BRANCH  38  39
ATOM     39  C   UNL A   1      38.332  32.147  30.126  1.00  0.00     0.031 A 
ATOM     40  C   UNL A   1      38.820  30.832  29.587  1.00  0.00     0.074 A 
ATOM     41  C   UNL A   1      39.067  32.815  31.040  1.00  0.00     0.049 A 
ATOM     42  N   UNL A   1      39.868  30.131  29.939  1.00  0.00    -0.248 NA
ATOM     43  C   UNL A   1      38.000  30.205  28.539  1.00  0.00     0.031 C 
ATOM     44  C   UNL A   1      38.702  34.087  31.669  1.00  0.00     0.029 A 
ATOM     45  N   UNL A   1      40.276  32.500  31.612  1.00  0.00    -0.354 N 
ATOM     46  C   UNL A   1      39.810  28.968  29.180  1.00  0.00     0.074 A 
ATOM     47  C   UNL A   1      38.603  29.037  28.387  1.00  0.00     0.031 C 
ATOM     48  C   UNL A   1      39.678  34.456  32.517  1.00  0.00     0.029 A 
ATOM     49  C   UNL A   1      40.711  33.426  32.532  1.00  0.00     0.049 A 
ATOM     50  H   UNL A   1      40.785  31.689  31.384  1.00  0.00     0.167 HD
ATOM     51  C   UNL A   1      40.694  27.944  29.130  1.00  0.00     0.031 A 
ATOM     52  C   UNL A   1      41.809  33.435  33.311  1.00  0.00     0.031 A 
ATOM     53  C   UNL A   1      41.911  27.886  29.891  1.00  0.00     0.049 A 
ATOM     54  C   UNL A   1      42.772  32.282  33.241  1.00  0.00     0.074 A 
ATOM     55  C   UNL A   1      42.887  26.906  29.883  1.00  0.00     0.029 A 
ATOM     56  N   UNL A   1      42.325  28.861  30.784  1.00  0.00    -0.354 N 
ATOM     57  N   UNL A   1      42.715  31.202  32.500  1.00  0.00    -0.248 NA
ATOM     58  C   UNL A   1      43.955  32.351  34.113  1.00  0.00     0.031 C 
ATOM     59  C   UNL A   1      43.883  27.275  30.792  1.00  0.00     0.029 A 
ATOM     60  C   UNL A   1      43.544  28.505  31.334  1.00  0.00     0.049 A 
ATOM     61  H   UNL A   1      41.827  29.683  30.997  1.00  0.00     0.167 HD
ATOM     62  C   UNL A   1      43.869  30.484  32.788  1.00  0.00     0.074 A 
ATOM     63  C   UNL A   1      44.611  31.252  33.766  1.00  0.00     0.031 C 
ATOM     64  C   UNL A   1      44.278  29.295  32.286  1.00  0.00     0.031 A 
BRANCH  51  65
ATOM     65  C   UNL A   1      40.368  26.806  28.206  1.00  0.00    -0.014 A 
ATOM     66  C   UNL A   1      40.929  26.738  26.920  1.00  0.00     0.009 A 
ATOM     67  C   UNL A   1      39.508  25.783  28.629  1.00  0.00     0.009 A 
ATOM     68  C   UNL A   1      40.600  25.689  26.061  1.00  0.00     0.001 A 
ATOM     69  C   UNL A   1      39.205  24.718  27.778  1.00  0.00     0.001 A 
ATOM     70  C   UNL A   1      39.741  24.678  26.492  1.00  0.00     0.000 A 
ENDBRANCH  51  65
BRANCH  52  71
ATOM     71  C   UNL A   1      42.078  34.577  34.225  1.00  0.00    -0.014 A 
ATOM     72  C   UNL A   1      41.659  34.523  35.564  1.00  0.00     0.009 A 
ATOM     73  C   UNL A   1      42.719  35.735  33.762  1.00  0.00     0.009 A 
ATOM     74  C   UNL A   1      41.844  35.620  36.409  1.00  0.00     0.001 A 
ATOM     75  C   UNL A   1      42.927  36.821  34.617  1.00  0.00     0.001 A 
ATOM     76  C   UNL A   1      42.479  36.767  35.936  1.00  0.00     0.000 A 
ENDBRANCH  52  71
BRANCH  64  77
ATOM     77  C   UNL A   1      45.615  28.779  32.733  1.00  0.00    -0.014 A 
ATOM     78  C   UNL A   1      45.734  27.924  33.840  1.00  0.00     0.009 A 
ATOM     79  C   UNL A   1      46.763  29.106  31.995  1.00  0.00     0.009 A 
ATOM     80  C   UNL A   1      46.984  27.425  34.210  1.00  0.00     0.001 A 
ATOM     81  C   UNL A   1      48.006  28.586  32.354  1.00  0.00     0.001 A 
ATOM     82  C   UNL A   1      48.117  27.750  33.464  1.00  0.00     0.000 A 
ENDBRANCH  64  77
ENDBRANCH  38  39
ENDBRANCH  30  33
ENDBRANCH  28  29
ENDBRANCH  27  28
ENDBRANCH   1  27
TORSDOF 14
ENDMDL
