MODEL 1
REMARK VINA RESULT:     -12.5      0.000      0.000
REMARK SMILES C=C[C@@H]1[C@@H](O)C[C@@H]2[C@@]3(CC[C@@]4(C)[C@@H]([C@H](C)CCC=C(C)C)CC[C@@]24C)C[C@@]13CCC(=O)NCCCCNC(=O)c1ccc(-c2c3nc(c(-c4ccccc4)c4ccc([nH]4)c(-c4ccccc4)c4nc(c(-c5ccccc5)c5ccc2[nH]5)C=C4)C=C3)cc1
REMARK SMILES IDX 30 1 31 2 32 3 29 5 28 6 27 7 3 8 4 9 6 10 8 11 26 12 7 13
REMARK SMILES IDX 9 14 24 15 10 16 11 17 23 18 25 19 12 20 13 21 22 22 2 23
REMARK SMILES IDX 1 24 5 25 14 27 15 28 16 29 17 30 18 31 19 32 20 33 21 34
REMARK SMILES IDX 33 35 34 36 35 37 36 38 37 39 38 40 39 42 40 43 41 44 87 45
REMARK SMILES IDX 42 46 86 47 43 48 44 49 45 50 80 51 46 52 85 53 79 54 81 55
REMARK SMILES IDX 47 56 84 57 78 58 77 59 48 61 70 62 55 63 69 64 56 65 59 66
REMARK SMILES IDX 68 67 82 68 57 69 58 70 67 72 83 73 60 74 49 75 50 76 54 77
REMARK SMILES IDX 51 78 53 79 52 80 71 81 72 82 76 83 73 84 75 85 74 86 61 87
REMARK SMILES IDX 62 88 66 89 63 90 65 91 64 92
REMARK H PARENT 32 4 5 26 37 41 81 60 59 71
REMARK Flexibility Score: inf
ROOT
ATOM      1  C   UNL A   1      39.407  24.023  26.481  1.00  0.00     0.220 C 
ATOM      2  O   UNL A   1      39.264  25.219  26.722  1.00  0.00    -0.275 OA
ATOM      3  N   UNL A   1      40.639  23.556  26.138  1.00  0.00    -0.356 N 
ATOM      4  H   UNL A   1      41.271  24.241  25.818  1.00  0.00     0.163 HD
ENDROOT
BRANCH   1   5
ATOM      5  C   UNL A   1      38.292  23.032  26.601  1.00  0.00     0.100 C 
BRANCH   5   6
ATOM      6  C   UNL A   1      37.191  23.284  25.581  1.00  0.00     0.018 C 
BRANCH   6   7
ATOM      7  C   UNL A   1      35.819  22.643  25.897  1.00  0.00    -0.014 C 
ATOM      8  C   UNL A   1      35.690  20.769  25.361  1.00  0.00     0.047 C 
ATOM      9  C   UNL A   1      34.158  20.292  24.209  1.00  0.00     0.122 C 
ATOM     10  C   UNL A   1      32.678  21.581  23.945  1.00  0.00     0.037 C 
ATOM     11  C   UNL A   1      34.346  23.846  25.782  1.00  0.00    -0.019 C 
ATOM     12  C   UNL A   1      35.068  23.282  27.078  1.00  0.00     0.016 C 
ATOM     13  C   UNL A   1      32.807  23.360  24.733  1.00  0.00     0.005 C 
ATOM     14  C   UNL A   1      34.431  25.376  25.746  1.00  0.00     0.008 C 
ATOM     15  C   UNL A   1      31.546  24.123  25.300  1.00  0.00    -0.023 C 
ATOM     16  C   UNL A   1      33.100  26.147  25.817  1.00  0.00     0.008 C 
ATOM     17  C   UNL A   1      31.786  25.681  25.118  1.00  0.00    -0.024 C 
ATOM     18  C   UNL A   1      30.338  23.881  24.388  1.00  0.00     0.008 C 
ATOM     19  C   UNL A   1      31.216  23.807  26.775  1.00  0.00     0.012 C 
ATOM     20  C   UNL A   1      30.657  26.520  25.832  1.00  0.00     0.012 C 
ATOM     21  C   UNL A   1      31.519  25.945  23.565  1.00  0.00    -0.002 C 
ATOM     22  C   UNL A   1      30.573  24.767  23.161  1.00  0.00     0.005 C 
BRANCH   8  23
ATOM     23  C   UNL A   1      36.972  20.217  24.711  1.00  0.00    -0.028 C 
ATOM     24  C   UNL A   1      37.616  19.092  25.048  1.00  0.00     0.004 C 
ENDBRANCH   8  23
BRANCH   9  25
ATOM     25  O   UNL A   1      33.693  18.968  24.455  1.00  0.00    -0.392 OA
ATOM     26  H   UNL A   1      33.140  18.962  25.252  1.00  0.00     0.210 HD
ENDBRANCH   9  25
BRANCH  21  27
ATOM     27  C   UNL A   1      32.673  26.137  22.528  1.00  0.00    -0.010 C 
ATOM     28  C   UNL A   1      33.456  24.856  22.233  1.00  0.00     0.008 C 
BRANCH  27  29
ATOM     29  C   UNL A   1      33.685  27.252  22.912  1.00  0.00     0.008 C 
BRANCH  29  30
ATOM     30  C   UNL A   1      33.036  28.660  22.945  1.00  0.00     0.027 C 
BRANCH  30  31
ATOM     31  C   UNL A   1      32.958  29.274  24.324  1.00  0.00    -0.028 C 
ATOM     32  C   UNL A   1      31.835  29.753  24.899  1.00  0.00    -0.080 C 
ATOM     33  C   UNL A   1      31.845  30.336  26.287  1.00  0.00     0.039 C 
ATOM     34  C   UNL A   1      30.483  29.747  24.234  1.00  0.00     0.039 C 
ENDBRANCH  30  31
ENDBRANCH  29  30
ENDBRANCH  27  29
ENDBRANCH  21  27
ENDBRANCH   6   7
ENDBRANCH   5   6
ENDBRANCH   1   5
BRANCH   3  35
ATOM     35  C   UNL A   1      41.180  22.148  26.173  1.00  0.00     0.116 C 
BRANCH  35  36
ATOM     36  C   UNL A   1      43.022  21.194  25.805  1.00  0.00     0.023 C 
BRANCH  36  37
ATOM     37  C   UNL A   1      44.702  21.523  25.394  1.00  0.00     0.023 C 
BRANCH  37  38
ATOM     38  C   UNL A   1      45.666  22.579  26.031  1.00  0.00     0.116 C 
BRANCH  38  39
ATOM     39  N   UNL A   1      45.915  23.730  25.180  1.00  0.00    -0.352 N 
ATOM     40  C   UNL A   1      45.610  25.061  25.335  1.00  0.00     0.251 C 
ATOM     41  H   UNL A   1      46.386  23.518  24.342  1.00  0.00     0.163 HD
ATOM     42  O   UNL A   1      46.112  25.859  24.543  1.00  0.00    -0.269 OA
BRANCH  40  43
ATOM     43  C   UNL A   1      44.678  25.600  26.370  1.00  0.00     0.039 A 
ATOM     44  C   UNL A   1      44.834  26.958  26.691  1.00  0.00     0.014 A 
ATOM     45  C   UNL A   1      43.780  24.838  27.123  1.00  0.00     0.014 A 
ATOM     46  C   UNL A   1      44.116  27.545  27.740  1.00  0.00     0.010 A 
ATOM     47  C   UNL A   1      43.027  25.440  28.158  1.00  0.00     0.010 A 
ATOM     48  C   UNL A   1      43.202  26.794  28.494  1.00  0.00    -0.014 A 
BRANCH  48  49
ATOM     49  C   UNL A   1      42.497  27.448  29.643  1.00  0.00     0.031 A 
ATOM     50  C   UNL A   1      43.136  27.516  31.011  1.00  0.00     0.074 A 
ATOM     51  C   UNL A   1      41.305  28.052  29.452  1.00  0.00     0.049 A 
ATOM     52  N   UNL A   1      42.728  28.154  32.083  1.00  0.00    -0.248 NA
ATOM     53  C   UNL A   1      44.385  26.767  31.203  1.00  0.00     0.031 C 
ATOM     54  C   UNL A   1      40.552  28.059  28.198  1.00  0.00     0.029 A 
ATOM     55  N   UNL A   1      40.526  28.798  30.308  1.00  0.00    -0.354 N 
ATOM     56  C   UNL A   1      43.664  27.877  33.074  1.00  0.00     0.074 A 
ATOM     57  C   UNL A   1      44.638  26.982  32.487  1.00  0.00     0.031 C 
ATOM     58  C   UNL A   1      39.443  28.802  28.353  1.00  0.00     0.029 A 
ATOM     59  C   UNL A   1      39.392  29.310  29.722  1.00  0.00     0.049 A 
ATOM     60  H   UNL A   1      40.761  28.952  31.252  1.00  0.00     0.167 HD
ATOM     61  C   UNL A   1      43.724  28.336  34.349  1.00  0.00     0.031 A 
ATOM     62  C   UNL A   1      38.424  30.107  30.218  1.00  0.00     0.031 A 
ATOM     63  C   UNL A   1      42.778  29.244  34.941  1.00  0.00     0.049 A 
ATOM     64  C   UNL A   1      38.518  30.606  31.636  1.00  0.00     0.074 A 
ATOM     65  C   UNL A   1      42.801  29.807  36.207  1.00  0.00     0.029 A 
ATOM     66  N   UNL A   1      41.641  29.722  34.313  1.00  0.00    -0.354 N 
ATOM     67  N   UNL A   1      39.458  30.399  32.524  1.00  0.00    -0.248 NA
ATOM     68  C   UNL A   1      37.420  31.464  32.112  1.00  0.00     0.031 C 
ATOM     69  C   UNL A   1      41.651  30.589  36.362  1.00  0.00     0.029 A 
ATOM     70  C   UNL A   1      40.940  30.552  35.174  1.00  0.00     0.049 A 
ATOM     71  H   UNL A   1      41.370  29.505  33.392  1.00  0.00     0.167 HD
ATOM     72  C   UNL A   1      39.079  31.120  33.651  1.00  0.00     0.074 A 
ATOM     73  C   UNL A   1      37.836  31.787  33.328  1.00  0.00     0.031 C 
ATOM     74  C   UNL A   1      39.708  31.218  34.847  1.00  0.00     0.031 A 
BRANCH  61  75
ATOM     75  C   UNL A   1      44.863  27.861  35.211  1.00  0.00    -0.014 A 
ATOM     76  C   UNL A   1      46.114  28.497  35.175  1.00  0.00     0.009 A 
ATOM     77  C   UNL A   1      44.658  26.816  36.126  1.00  0.00     0.009 A 
ATOM     78  C   UNL A   1      47.145  28.074  36.018  1.00  0.00     0.001 A 
ATOM     79  C   UNL A   1      45.682  26.414  36.985  1.00  0.00     0.001 A 
ATOM     80  C   UNL A   1      46.927  27.039  36.925  1.00  0.00     0.000 A 
ENDBRANCH  61  75
BRANCH  62  81
ATOM     81  C   UNL A   1      37.271  30.508  29.366  1.00  0.00    -0.014 A 
ATOM     82  C   UNL A   1      36.272  29.582  29.027  1.00  0.00     0.009 A 
ATOM     83  C   UNL A   1      37.188  31.812  28.851  1.00  0.00     0.009 A 
ATOM     84  C   UNL A   1      35.234  29.942  28.163  1.00  0.00     0.001 A 
ATOM     85  C   UNL A   1      36.132  32.178  28.013  1.00  0.00     0.001 A 
ATOM     86  C   UNL A   1      35.164  31.240  27.660  1.00  0.00     0.000 A 
ENDBRANCH  62  81
BRANCH  74  87
ATOM     87  C   UNL A   1      39.081  32.100  35.889  1.00  0.00    -0.014 A 
ATOM     88  C   UNL A   1      38.203  31.578  36.851  1.00  0.00     0.009 A 
ATOM     89  C   UNL A   1      39.404  33.466  35.933  1.00  0.00     0.009 A 
ATOM     90  C   UNL A   1      37.638  32.413  37.819  1.00  0.00     0.001 A 
ATOM     91  C   UNL A   1      38.858  34.292  36.917  1.00  0.00     0.001 A 
ATOM     92  C   UNL A   1      37.969  33.767  37.853  1.00  0.00     0.000 A 
ENDBRANCH  74  87
ENDBRANCH  48  49
ENDBRANCH  40  43
ENDBRANCH  38  39
ENDBRANCH  37  38
ENDBRANCH  36  37
ENDBRANCH  35  36
ENDBRANCH   3  35
TORSDOF 19
ENDMDL
MODEL 2
REMARK VINA RESULT:     -11.7      3.847      6.149
REMARK SMILES C=C[C@@H]1[C@@H](O)C[C@@H]2[C@@]3(CC[C@@]4(C)[C@@H]([C@H](C)CCC=C(C)C)CC[C@@]24C)C[C@@]13CCC(=O)NCCCCNC(=O)c1ccc(-c2c3nc(c(-c4ccccc4)c4ccc([nH]4)c(-c4ccccc4)c4nc(c(-c5ccccc5)c5ccc2[nH]5)C=C4)C=C3)cc1
REMARK SMILES IDX 30 1 31 2 32 3 29 5 28 6 27 7 3 8 4 9 6 10 8 11 26 12 7 13
REMARK SMILES IDX 9 14 24 15 10 16 11 17 23 18 25 19 12 20 13 21 22 22 2 23
REMARK SMILES IDX 1 24 5 25 14 27 15 28 16 29 17 30 18 31 19 32 20 33 21 34
REMARK SMILES IDX 33 35 34 36 35 37 36 38 37 39 38 40 39 42 40 43 41 44 87 45
REMARK SMILES IDX 42 46 86 47 43 48 44 49 45 50 80 51 46 52 85 53 79 54 81 55
REMARK SMILES IDX 47 56 84 57 78 58 77 59 48 61 70 62 55 63 69 64 56 65 59 66
REMARK SMILES IDX 68 67 82 68 57 69 58 70 67 72 83 73 60 74 49 75 50 76 54 77
REMARK SMILES IDX 51 78 53 79 52 80 71 81 72 82 76 83 73 84 75 85 74 86 61 87
REMARK SMILES IDX 62 88 66 89 63 90 65 91 64 92
REMARK H PARENT 32 4 5 26 37 41 81 60 59 71
REMARK Flexibility Score: inf
ROOT
ATOM      1  C   UNL A   1      39.414  24.157  26.259  1.00  0.00     0.220 C 
ATOM      2  O   UNL A   1      39.711  25.291  25.891  1.00  0.00    -0.275 OA
ATOM      3  N   UNL A   1      40.390  23.214  26.366  1.00  0.00    -0.356 N 
ATOM      4  H   UNL A   1      41.216  23.408  25.866  1.00  0.00     0.163 HD
ENDROOT
BRANCH   1   5
ATOM      5  C   UNL A   1      38.023  23.772  26.654  1.00  0.00     0.100 C 
BRANCH   5   6
ATOM      6  C   UNL A   1      37.235  23.196  25.486  1.00  0.00     0.018 C 
BRANCH   6   7
ATOM      7  C   UNL A   1      35.880  22.541  25.842  1.00  0.00    -0.014 C 
ATOM      8  C   UNL A   1      35.755  20.666  25.312  1.00  0.00     0.047 C 
ATOM      9  C   UNL A   1      34.195  20.170  24.206  1.00  0.00     0.122 C 
ATOM     10  C   UNL A   1      32.694  21.443  23.985  1.00  0.00     0.037 C 
ATOM     11  C   UNL A   1      34.392  23.729  25.769  1.00  0.00    -0.019 C 
ATOM     12  C   UNL A   1      35.157  23.175  27.045  1.00  0.00     0.016 C 
ATOM     13  C   UNL A   1      32.827  23.225  24.767  1.00  0.00     0.005 C 
ATOM     14  C   UNL A   1      34.459  25.259  25.728  1.00  0.00     0.008 C 
ATOM     15  C   UNL A   1      31.576  23.976  25.369  1.00  0.00    -0.023 C 
ATOM     16  C   UNL A   1      33.123  26.016  25.838  1.00  0.00     0.008 C 
ATOM     17  C   UNL A   1      31.794  25.536  25.178  1.00  0.00    -0.024 C 
ATOM     18  C   UNL A   1      30.345  23.719  24.493  1.00  0.00     0.008 C 
ATOM     19  C   UNL A   1      31.292  23.659  26.854  1.00  0.00     0.012 C 
ATOM     20  C   UNL A   1      30.678  26.364  25.924  1.00  0.00     0.012 C 
ATOM     21  C   UNL A   1      31.479  25.794  23.633  1.00  0.00    -0.002 C 
ATOM     22  C   UNL A   1      30.533  24.606  23.259  1.00  0.00     0.005 C 
BRANCH   8  23
ATOM     23  C   UNL A   1      37.023  20.126  24.626  1.00  0.00    -0.028 C 
ATOM     24  C   UNL A   1      38.085  19.578  25.230  1.00  0.00     0.004 C 
ENDBRANCH   8  23
BRANCH   9  25
ATOM     25  O   UNL A   1      33.751  18.842  24.468  1.00  0.00    -0.392 OA
ATOM     26  H   UNL A   1      34.308  18.444  25.156  1.00  0.00     0.210 HD
ENDBRANCH   9  25
BRANCH  21  27
ATOM     27  C   UNL A   1      32.600  25.997  22.563  1.00  0.00    -0.010 C 
ATOM     28  C   UNL A   1      33.172  24.688  22.014  1.00  0.00     0.008 C 
BRANCH  27  29
ATOM     29  C   UNL A   1      33.780  26.884  23.047  1.00  0.00     0.008 C 
BRANCH  29  30
ATOM     30  C   UNL A   1      33.530  28.394  22.804  1.00  0.00     0.027 C 
BRANCH  30  31
ATOM     31  C   UNL A   1      32.425  28.984  23.650  1.00  0.00    -0.028 C 
ATOM     32  C   UNL A   1      32.577  29.463  24.903  1.00  0.00    -0.080 C 
ATOM     33  C   UNL A   1      31.421  30.049  25.670  1.00  0.00     0.039 C 
ATOM     34  C   UNL A   1      33.888  29.470  25.645  1.00  0.00     0.039 C 
ENDBRANCH  30  31
ENDBRANCH  29  30
ENDBRANCH  27  29
ENDBRANCH  21  27
ENDBRANCH   6   7
ENDBRANCH   5   6
ENDBRANCH   1   5
BRANCH   3  35
ATOM     35  C   UNL A   1      40.394  21.915  27.135  1.00  0.00     0.116 C 
BRANCH  35  36
ATOM     36  C   UNL A   1      41.564  20.164  27.196  1.00  0.00     0.023 C 
BRANCH  36  37
ATOM     37  C   UNL A   1      42.130  18.832  26.194  1.00  0.00     0.023 C 
BRANCH  37  38
ATOM     38  C   UNL A   1      43.601  18.483  25.788  1.00  0.00     0.116 C 
BRANCH  38  39
ATOM     39  N   UNL A   1      43.955  18.920  24.449  1.00  0.00    -0.352 N 
ATOM     40  C   UNL A   1      44.530  20.083  23.992  1.00  0.00     0.251 C 
ATOM     41  H   UNL A   1      43.748  18.268  23.742  1.00  0.00     0.163 HD
ATOM     42  O   UNL A   1      44.901  20.115  22.818  1.00  0.00    -0.269 OA
BRANCH  40  43
ATOM     43  C   UNL A   1      44.695  21.322  24.808  1.00  0.00     0.039 A 
ATOM     44  C   UNL A   1      43.997  22.454  24.357  1.00  0.00     0.014 A 
ATOM     45  C   UNL A   1      45.580  21.472  25.880  1.00  0.00     0.014 A 
ATOM     46  C   UNL A   1      44.178  23.707  24.955  1.00  0.00     0.010 A 
ATOM     47  C   UNL A   1      45.736  22.730  26.507  1.00  0.00     0.010 A 
ATOM     48  C   UNL A   1      45.053  23.867  26.039  1.00  0.00    -0.014 A 
BRANCH  48  49
ATOM     49  C   UNL A   1      45.259  25.236  26.611  1.00  0.00     0.031 A 
ATOM     50  C   UNL A   1      46.590  25.939  26.487  1.00  0.00     0.074 A 
ATOM     51  C   UNL A   1      44.229  25.892  27.187  1.00  0.00     0.049 A 
ATOM     52  N   UNL A   1      46.907  27.172  26.808  1.00  0.00    -0.248 NA
ATOM     53  C   UNL A   1      47.710  25.160  25.943  1.00  0.00     0.031 C 
ATOM     54  C   UNL A   1      42.889  25.343  27.397  1.00  0.00     0.029 A 
ATOM     55  N   UNL A   1      44.141  27.175  27.680  1.00  0.00    -0.354 N 
ATOM     56  C   UNL A   1      48.259  27.310  26.512  1.00  0.00     0.074 A 
ATOM     57  C   UNL A   1      48.711  26.025  26.024  1.00  0.00     0.031 C 
ATOM     58  C   UNL A   1      42.104  26.290  27.940  1.00  0.00     0.029 A 
ATOM     59  C   UNL A   1      42.887  27.509  28.136  1.00  0.00     0.049 A 
ATOM     60  H   UNL A   1      44.905  27.796  27.703  1.00  0.00     0.167 HD
ATOM     61  C   UNL A   1      49.052  28.406  26.616  1.00  0.00     0.031 A 
ATOM     62  C   UNL A   1      42.410  28.664  28.642  1.00  0.00     0.031 A 
ATOM     63  C   UNL A   1      48.614  29.697  27.077  1.00  0.00     0.049 A 
ATOM     64  C   UNL A   1      43.311  29.866  28.743  1.00  0.00     0.074 A 
ATOM     65  C   UNL A   1      49.339  30.876  27.153  1.00  0.00     0.029 A 
ATOM     66  N   UNL A   1      47.341  29.982  27.540  1.00  0.00    -0.354 N 
ATOM     67  N   UNL A   1      44.562  29.995  28.375  1.00  0.00    -0.248 NA
ATOM     68  C   UNL A   1      42.724  31.089  29.315  1.00  0.00     0.031 C 
ATOM     69  C   UNL A   1      48.517  31.863  27.708  1.00  0.00     0.029 A 
ATOM     70  C   UNL A   1      47.266  31.309  27.929  1.00  0.00     0.049 A 
ATOM     71  H   UNL A   1      46.599  29.336  27.586  1.00  0.00     0.167 HD
ATOM     72  C   UNL A   1      44.902  31.315  28.646  1.00  0.00     0.074 A 
ATOM     73  C   UNL A   1      43.721  31.953  29.189  1.00  0.00     0.031 C 
ATOM     74  C   UNL A   1      46.089  31.941  28.461  1.00  0.00     0.031 A 
BRANCH  61  75
ATOM     75  C   UNL A   1      50.498  28.265  26.222  1.00  0.00    -0.014 A 
ATOM     76  C   UNL A   1      51.480  27.941  27.170  1.00  0.00     0.009 A 
ATOM     77  C   UNL A   1      50.868  28.380  24.872  1.00  0.00     0.009 A 
ATOM     78  C   UNL A   1      52.810  27.765  26.778  1.00  0.00     0.001 A 
ATOM     79  C   UNL A   1      52.193  28.177  24.480  1.00  0.00     0.001 A 
ATOM     80  C   UNL A   1      53.164  27.877  25.435  1.00  0.00     0.000 A 
ENDBRANCH  61  75
BRANCH  62  81
ATOM     81  C   UNL A   1      40.993  28.760  29.090  1.00  0.00    -0.014 A 
ATOM     82  C   UNL A   1      40.630  28.420  30.403  1.00  0.00     0.009 A 
ATOM     83  C   UNL A   1      39.989  29.150  28.190  1.00  0.00     0.009 A 
ATOM     84  C   UNL A   1      39.289  28.437  30.794  1.00  0.00     0.001 A 
ATOM     85  C   UNL A   1      38.653  29.195  28.593  1.00  0.00     0.001 A 
ATOM     86  C   UNL A   1      38.302  28.827  29.890  1.00  0.00     0.000 A 
ENDBRANCH  62  81
BRANCH  74  87
ATOM     87  C   UNL A   1      46.167  33.398  28.821  1.00  0.00    -0.014 A 
ATOM     88  C   UNL A   1      45.852  34.396  27.887  1.00  0.00     0.009 A 
ATOM     89  C   UNL A   1      46.524  33.776  30.125  1.00  0.00     0.009 A 
ATOM     90  C   UNL A   1      45.921  35.745  28.243  1.00  0.00     0.001 A 
ATOM     91  C   UNL A   1      46.567  35.124  30.486  1.00  0.00     0.001 A 
ATOM     92  C   UNL A   1      46.274  36.107  29.543  1.00  0.00     0.000 A 
ENDBRANCH  74  87
ENDBRANCH  48  49
ENDBRANCH  40  43
ENDBRANCH  38  39
ENDBRANCH  37  38
ENDBRANCH  36  37
ENDBRANCH  35  36
ENDBRANCH   3  35
TORSDOF 19
ENDMDL
MODEL 3
REMARK VINA RESULT:     -11.7      4.645     12.713
REMARK SMILES C=C[C@@H]1[C@@H](O)C[C@@H]2[C@@]3(CC[C@@]4(C)[C@@H]([C@H](C)CCC=C(C)C)CC[C@@]24C)C[C@@]13CCC(=O)NCCCCNC(=O)c1ccc(-c2c3nc(c(-c4ccccc4)c4ccc([nH]4)c(-c4ccccc4)c4nc(c(-c5ccccc5)c5ccc2[nH]5)C=C4)C=C3)cc1
REMARK SMILES IDX 30 1 31 2 32 3 29 5 28 6 27 7 3 8 4 9 6 10 8 11 26 12 7 13
REMARK SMILES IDX 9 14 24 15 10 16 11 17 23 18 25 19 12 20 13 21 22 22 2 23
REMARK SMILES IDX 1 24 5 25 14 27 15 28 16 29 17 30 18 31 19 32 20 33 21 34
REMARK SMILES IDX 33 35 34 36 35 37 36 38 37 39 38 40 39 42 40 43 41 44 87 45
REMARK SMILES IDX 42 46 86 47 43 48 44 49 45 50 80 51 46 52 85 53 79 54 81 55
REMARK SMILES IDX 47 56 84 57 78 58 77 59 48 61 70 62 55 63 69 64 56 65 59 66
REMARK SMILES IDX 68 67 82 68 57 69 58 70 67 72 83 73 60 74 49 75 50 76 54 77
REMARK SMILES IDX 51 78 53 79 52 80 71 81 72 82 76 83 73 84 75 85 74 86 61 87
REMARK SMILES IDX 62 88 66 89 63 90 65 91 64 92
REMARK H PARENT 32 4 5 26 37 41 81 60 59 71
REMARK Flexibility Score: inf
ROOT
ATOM      1  C   UNL A   1      45.901  24.535  25.003  1.00  0.00     0.220 C 
ATOM      2  O   UNL A   1      45.302  25.571  24.725  1.00  0.00    -0.275 OA
ATOM      3  N   UNL A   1      45.388  23.341  24.600  1.00  0.00    -0.356 N 
ATOM      4  H   UNL A   1      44.430  23.353  24.372  1.00  0.00     0.163 HD
ENDROOT
BRANCH   1   5
ATOM      5  C   UNL A   1      47.213  24.526  25.723  1.00  0.00     0.100 C 
BRANCH   5   6
ATOM      6  C   UNL A   1      48.042  25.765  25.416  1.00  0.00     0.018 C 
BRANCH   6   7
ATOM      7  C   UNL A   1      48.770  26.406  26.621  1.00  0.00    -0.014 C 
ATOM      8  C   UNL A   1      47.896  28.015  27.297  1.00  0.00     0.047 C 
ATOM      9  C   UNL A   1      49.028  29.627  27.453  1.00  0.00     0.122 C 
ATOM     10  C   UNL A   1      50.995  29.476  27.275  1.00  0.00     0.037 C 
ATOM     11  C   UNL A   1      50.665  26.203  26.590  1.00  0.00    -0.019 C 
ATOM     12  C   UNL A   1      49.598  25.422  27.468  1.00  0.00     0.016 C 
ATOM     13  C   UNL A   1      51.786  27.750  26.827  1.00  0.00     0.005 C 
ATOM     14  C   UNL A   1      51.454  25.226  25.712  1.00  0.00     0.008 C 
ATOM     15  C   UNL A   1      53.176  27.284  27.411  1.00  0.00    -0.023 C 
ATOM     16  C   UNL A   1      52.968  25.123  25.975  1.00  0.00     0.008 C 
ATOM     17  C   UNL A   1      53.872  26.339  26.343  1.00  0.00    -0.024 C 
ATOM     18  C   UNL A   1      54.144  28.471  27.461  1.00  0.00     0.008 C 
ATOM     19  C   UNL A   1      53.089  26.566  28.776  1.00  0.00     0.012 C 
ATOM     20  C   UNL A   1      55.178  25.678  26.930  1.00  0.00     0.012 C 
ATOM     21  C   UNL A   1      54.429  27.341  25.231  1.00  0.00    -0.002 C 
ATOM     22  C   UNL A   1      54.598  28.685  26.014  1.00  0.00     0.005 C 
BRANCH   8  23
ATOM     23  C   UNL A   1      46.616  28.399  26.532  1.00  0.00    -0.028 C 
ATOM     24  C   UNL A   1      45.356  28.242  26.957  1.00  0.00     0.004 C 
ENDBRANCH   8  23
BRANCH   9  25
ATOM     25  O   UNL A   1      48.640  30.452  28.549  1.00  0.00    -0.392 OA
ATOM     26  H   UNL A   1      49.221  30.279  29.306  1.00  0.00     0.210 HD
ENDBRANCH   9  25
BRANCH  21  27
ATOM     27  C   UNL A   1      53.718  27.561  23.856  1.00  0.00    -0.010 C 
ATOM     28  C   UNL A   1      54.472  26.956  22.669  1.00  0.00     0.008 C 
BRANCH  27  29
ATOM     29  C   UNL A   1      53.413  29.050  23.536  1.00  0.00     0.008 C 
BRANCH  29  30
ATOM     30  C   UNL A   1      51.894  29.361  23.539  1.00  0.00     0.027 C 
BRANCH  30  31
ATOM     31  C   UNL A   1      51.013  28.150  23.333  1.00  0.00    -0.028 C 
ATOM     32  C   UNL A   1      50.271  27.908  22.232  1.00  0.00    -0.080 C 
ATOM     33  C   UNL A   1      49.431  26.665  22.104  1.00  0.00     0.039 C 
ATOM     34  C   UNL A   1      50.213  28.827  21.039  1.00  0.00     0.039 C 
ENDBRANCH  30  31
ENDBRANCH  29  30
ENDBRANCH  27  29
ENDBRANCH  21  27
ENDBRANCH   6   7
ENDBRANCH   5   6
ENDBRANCH   1   5
BRANCH   3  35
ATOM     35  C   UNL A   1      46.067  22.001  24.453  1.00  0.00     0.116 C 
BRANCH  35  36
ATOM     36  C   UNL A   1      45.590  19.982  24.821  1.00  0.00     0.023 C 
BRANCH  36  37
ATOM     37  C   UNL A   1      44.227  18.875  24.953  1.00  0.00     0.023 C 
BRANCH  37  38
ATOM     38  C   UNL A   1      43.436  18.462  26.238  1.00  0.00     0.116 C 
BRANCH  38  39
ATOM     39  N   UNL A   1      42.002  18.671  26.133  1.00  0.00    -0.352 N 
ATOM     40  C   UNL A   1      41.240  19.813  26.202  1.00  0.00     0.251 C 
ATOM     41  H   UNL A   1      41.483  17.848  25.985  1.00  0.00     0.163 HD
ATOM     42  O   UNL A   1      40.053  19.729  25.883  1.00  0.00    -0.269 OA
BRANCH  40  43
ATOM     43  C   UNL A   1      41.741  21.137  26.677  1.00  0.00     0.039 A 
ATOM     44  C   UNL A   1      41.667  21.363  28.060  1.00  0.00     0.014 A 
ATOM     45  C   UNL A   1      42.137  22.194  25.851  1.00  0.00     0.014 A 
ATOM     46  C   UNL A   1      41.977  22.612  28.611  1.00  0.00     0.010 A 
ATOM     47  C   UNL A   1      42.484  23.445  26.411  1.00  0.00     0.010 A 
ATOM     48  C   UNL A   1      42.388  23.676  27.796  1.00  0.00    -0.014 A 
BRANCH  48  49
ATOM     49  C   UNL A   1      42.654  25.011  28.421  1.00  0.00     0.031 A 
ATOM     50  C   UNL A   1      41.553  26.035  28.570  1.00  0.00     0.074 A 
ATOM     51  C   UNL A   1      43.874  25.291  28.928  1.00  0.00     0.049 A 
ATOM     52  N   UNL A   1      41.573  27.186  29.200  1.00  0.00    -0.248 NA
ATOM     53  C   UNL A   1      40.269  25.733  27.923  1.00  0.00     0.031 C 
ATOM     54  C   UNL A   1      45.043  24.416  28.847  1.00  0.00     0.029 A 
ATOM     55  N   UNL A   1      44.326  26.384  29.632  1.00  0.00    -0.354 N 
ATOM     56  C   UNL A   1      40.313  27.745  29.019  1.00  0.00     0.074 A 
ATOM     57  C   UNL A   1      39.566  26.827  28.187  1.00  0.00     0.031 C 
ATOM     58  C   UNL A   1      46.067  24.986  29.508  1.00  0.00     0.029 A 
ATOM     59  C   UNL A   1      45.636  26.276  30.043  1.00  0.00     0.049 A 
ATOM     60  H   UNL A   1      43.765  27.169  29.826  1.00  0.00     0.167 HD
ATOM     61  C   UNL A   1      39.811  28.905  29.511  1.00  0.00     0.031 A 
ATOM     62  C   UNL A   1      46.403  27.107  30.776  1.00  0.00     0.031 A 
ATOM     63  C   UNL A   1      40.531  29.818  30.359  1.00  0.00     0.049 A 
ATOM     64  C   UNL A   1      45.819  28.387  31.313  1.00  0.00     0.074 A 
ATOM     65  C   UNL A   1      40.075  30.985  30.952  1.00  0.00     0.029 A 
ATOM     66  N   UNL A   1      41.855  29.673  30.734  1.00  0.00    -0.354 N 
ATOM     67  N   UNL A   1      44.599  28.850  31.200  1.00  0.00    -0.248 NA
ATOM     68  C   UNL A   1      46.719  29.250  32.096  1.00  0.00     0.031 C 
ATOM     69  C   UNL A   1      41.138  31.570  31.648  1.00  0.00     0.029 A 
ATOM     70  C   UNL A   1      42.241  30.740  31.528  1.00  0.00     0.049 A 
ATOM     71  H   UNL A   1      42.437  28.922  30.475  1.00  0.00     0.167 HD
ATOM     72  C   UNL A   1      44.579  30.041  31.917  1.00  0.00     0.074 A 
ATOM     73  C   UNL A   1      45.900  30.219  32.479  1.00  0.00     0.031 C 
ATOM     74  C   UNL A   1      43.554  30.910  32.091  1.00  0.00     0.031 A 
BRANCH  61  75
ATOM     75  C   UNL A   1      38.396  29.268  29.145  1.00  0.00    -0.014 A 
ATOM     76  C   UNL A   1      37.355  29.164  30.081  1.00  0.00     0.009 A 
ATOM     77  C   UNL A   1      38.117  29.792  27.874  1.00  0.00     0.009 A 
ATOM     78  C   UNL A   1      36.057  29.551  29.740  1.00  0.00     0.001 A 
ATOM     79  C   UNL A   1      36.823  30.203  27.544  1.00  0.00     0.001 A 
ATOM     80  C   UNL A   1      35.793  30.075  28.475  1.00  0.00     0.000 A 
ENDBRANCH  61  75
BRANCH  62  81
ATOM     81  C   UNL A   1      47.821  26.760  31.067  1.00  0.00    -0.014 A 
ATOM     82  C   UNL A   1      48.871  27.402  30.392  1.00  0.00     0.009 A 
ATOM     83  C   UNL A   1      48.129  25.749  31.992  1.00  0.00     0.009 A 
ATOM     84  C   UNL A   1      50.196  27.017  30.612  1.00  0.00     0.001 A 
ATOM     85  C   UNL A   1      49.456  25.388  32.233  1.00  0.00     0.001 A 
ATOM     86  C   UNL A   1      50.487  26.012  31.534  1.00  0.00     0.000 A 
ENDBRANCH  62  81
BRANCH  74  87
ATOM     87  C   UNL A   1      43.807  32.119  32.947  1.00  0.00    -0.014 A 
ATOM     88  C   UNL A   1      44.258  33.324  32.389  1.00  0.00     0.009 A 
ATOM     89  C   UNL A   1      43.554  32.061  34.327  1.00  0.00     0.009 A 
ATOM     90  C   UNL A   1      44.478  34.440  33.200  1.00  0.00     0.001 A 
ATOM     91  C   UNL A   1      43.750  33.185  35.131  1.00  0.00     0.001 A 
ATOM     92  C   UNL A   1      44.220  34.370  34.569  1.00  0.00     0.000 A 
ENDBRANCH  74  87
ENDBRANCH  48  49
ENDBRANCH  40  43
ENDBRANCH  38  39
ENDBRANCH  37  38
ENDBRANCH  36  37
ENDBRANCH  35  36
ENDBRANCH   3  35
TORSDOF 19
ENDMDL
