MODEL 1
REMARK VINA RESULT:     -10.9      0.000      0.000
REMARK SMILES CC[C@H](C)[C@@H](NC(=O)c1csc(NC(C)=O)n1)C(=O)NCCCCNC(=O)c1ccc(-c2c3nc(c(-c4ccccc4)c4ccc([nH]4)c(-c4ccccc4)c4nc(c(-c5ccccc5)c5ccc2[nH]5)C=C4)C=C3)cc1
REMARK SMILES IDX 22 1 21 2 20 3 18 4 19 5 5 7 3 8 4 9 2 10 1 11 6 12 7 13
REMARK SMILES IDX 8 15 9 16 10 17 17 18 11 19 12 20 13 21 14 22 15 24 16 25
REMARK SMILES IDX 23 26 24 27 25 28 26 29 27 31 28 32 29 33 75 34 30 35 74 36
REMARK SMILES IDX 31 37 32 38 33 39 68 40 34 41 73 42 67 43 69 44 35 45 72 46
REMARK SMILES IDX 66 47 65 48 36 50 58 51 43 52 57 53 44 54 47 55 56 56 70 57
REMARK SMILES IDX 45 58 46 59 55 61 71 62 48 63 37 64 38 65 42 66 39 67 41 68
REMARK SMILES IDX 40 69 59 70 60 71 64 72 61 73 63 74 62 75 49 76 50 77 54 78
REMARK SMILES IDX 51 79 53 80 52 81
REMARK H PARENT 20 6 6 14 13 23 25 30 69 49 47 60
REMARK Flexibility Score: inf
ROOT
ATOM      1  C   UNL A   1      36.605  21.834  24.295  1.00  0.00     0.023 C 
ENDROOT
BRANCH   1   2
ATOM      2  C   UNL A   1      36.057  22.814  25.325  1.00  0.00     0.116 C 
BRANCH   2   3
ATOM      3  N   UNL A   1      35.532  22.103  26.472  1.00  0.00    -0.354 N 
ATOM      4  C   UNL A   1      34.243  21.856  26.840  1.00  0.00     0.242 C 
ATOM      5  O   UNL A   1      34.064  21.316  27.938  1.00  0.00    -0.273 OA
ATOM      6  H   UNL A   1      36.213  21.740  27.082  1.00  0.00     0.163 HD
BRANCH   4   7
ATOM      7  C   UNL A   1      33.050  22.367  25.996  1.00  0.00     0.174 C 
BRANCH   7   8
ATOM      8  C   UNL A   1      32.709  21.278  24.910  1.00  0.00     0.018 C 
ATOM      9  C   UNL A   1      32.929  21.783  23.475  1.00  0.00     0.010 C 
BRANCH   8  10
ATOM     10  C   UNL A   1      33.472  19.940  25.090  1.00  0.00     0.002 C 
ATOM     11  C   UNL A   1      32.606  18.741  24.705  1.00  0.00     0.004 C 
ENDBRANCH   8  10
ENDBRANCH   7   8
BRANCH   7  12
ATOM     12  N   UNL A   1      31.831  22.692  26.776  1.00  0.00    -0.339 N 
ATOM     13  C   UNL A   1      30.739  23.490  26.519  1.00  0.00     0.271 C 
ATOM     14  H   UNL A   1      31.795  22.248  27.654  1.00  0.00     0.164 HD
ATOM     15  O   UNL A   1      29.770  23.378  27.270  1.00  0.00    -0.267 OA
BRANCH  13  16
ATOM     16  C   UNL A   1      30.809  24.552  25.520  1.00  0.00     0.141 A 
ATOM     17  C   UNL A   1      30.941  25.886  25.872  1.00  0.00     0.102 A 
ATOM     18  N   UNL A   1      30.802  24.329  24.150  1.00  0.00    -0.215 NA
ATOM     19  S   UNL A   1      31.255  26.830  24.480  1.00  0.00    -0.104 S 
ATOM     20  C   UNL A   1      31.142  25.430  23.520  1.00  0.00     0.190 A 
BRANCH  20  21
ATOM     21  N   UNL A   1      31.394  25.421  22.173  1.00  0.00    -0.302 N 
ATOM     22  C   UNL A   1      32.628  25.356  21.570  1.00  0.00     0.223 C 
ATOM     23  H   UNL A   1      30.612  25.465  21.577  1.00  0.00     0.172 HD
ATOM     24  C   UNL A   1      32.552  25.438  20.065  1.00  0.00     0.114 C 
ATOM     25  O   UNL A   1      33.715  25.222  22.122  1.00  0.00    -0.275 OA
ENDBRANCH  20  21
ENDBRANCH  13  16
ENDBRANCH   7  12
ENDBRANCH   4   7
ENDBRANCH   2   3
ENDBRANCH   1   2
BRANCH   1  26
ATOM     26  C   UNL A   1      37.332  20.635  24.906  1.00  0.00     0.023 C 
BRANCH  26  27
ATOM     27  C   UNL A   1      38.642  20.977  25.606  1.00  0.00     0.116 C 
BRANCH  27  28
ATOM     28  N   UNL A   1      39.562  19.850  25.640  1.00  0.00    -0.352 N 
ATOM     29  C   UNL A   1      40.884  19.842  26.009  1.00  0.00     0.251 C 
ATOM     30  H   UNL A   1      39.189  18.981  25.365  1.00  0.00     0.163 HD
ATOM     31  O   UNL A   1      41.579  18.847  25.835  1.00  0.00    -0.269 OA
BRANCH  29  32
ATOM     32  C   UNL A   1      41.465  21.067  26.589  1.00  0.00     0.039 A 
ATOM     33  C   UNL A   1      42.022  22.021  25.735  1.00  0.00     0.014 A 
ATOM     34  C   UNL A   1      41.402  21.290  27.968  1.00  0.00     0.014 A 
ATOM     35  C   UNL A   1      42.461  23.235  26.262  1.00  0.00     0.010 A 
ATOM     36  C   UNL A   1      41.777  22.526  28.480  1.00  0.00     0.010 A 
ATOM     37  C   UNL A   1      42.310  23.509  27.631  1.00  0.00    -0.014 A 
BRANCH  37  38
ATOM     38  C   UNL A   1      42.699  24.823  28.195  1.00  0.00     0.031 A 
ATOM     39  C   UNL A   1      41.662  25.887  28.406  1.00  0.00     0.074 A 
ATOM     40  C   UNL A   1      43.995  25.077  28.459  1.00  0.00     0.049 A 
ATOM     41  N   UNL A   1      41.812  27.109  28.851  1.00  0.00    -0.248 NA
ATOM     42  C   UNL A   1      40.276  25.543  28.048  1.00  0.00     0.031 C 
ATOM     43  C   UNL A   1      45.104  24.142  28.254  1.00  0.00     0.029 A 
ATOM     44  N   UNL A   1      44.600  26.204  28.955  1.00  0.00    -0.354 N 
ATOM     45  C   UNL A   1      40.548  27.682  28.812  1.00  0.00     0.074 A 
ATOM     46  C   UNL A   1      39.650  26.692  28.258  1.00  0.00     0.031 C 
ATOM     47  C   UNL A   1      46.248  24.726  28.644  1.00  0.00     0.029 A 
ATOM     48  C   UNL A   1      45.961  26.084  29.094  1.00  0.00     0.049 A 
ATOM     49  H   UNL A   1      44.105  27.023  29.188  1.00  0.00     0.167 HD
ATOM     50  C   UNL A   1      40.164  28.915  29.217  1.00  0.00     0.031 A 
ATOM     51  C   UNL A   1      46.874  26.969  29.533  1.00  0.00     0.031 A 
ATOM     52  C   UNL A   1      41.053  29.896  29.777  1.00  0.00     0.049 A 
ATOM     53  C   UNL A   1      46.422  28.332  29.975  1.00  0.00     0.074 A 
ATOM     54  C   UNL A   1      40.750  31.151  30.272  1.00  0.00     0.029 A 
ATOM     55  N   UNL A   1      42.422  29.730  29.912  1.00  0.00    -0.354 N 
ATOM     56  N   UNL A   1      45.211  28.832  30.002  1.00  0.00    -0.248 NA
ATOM     57  C   UNL A   1      47.464  29.248  30.459  1.00  0.00     0.031 C 
ATOM     58  C   UNL A   1      41.944  31.763  30.670  1.00  0.00     0.029 A 
ATOM     59  C   UNL A   1      42.982  30.869  30.465  1.00  0.00     0.049 A 
ATOM     60  H   UNL A   1      42.923  28.922  29.653  1.00  0.00     0.167 HD
ATOM     61  C   UNL A   1      45.342  30.111  30.527  1.00  0.00     0.074 A 
ATOM     62  C   UNL A   1      46.747  30.303  30.821  1.00  0.00     0.031 C 
ATOM     63  C   UNL A   1      44.382  31.042  30.749  1.00  0.00     0.031 A 
BRANCH  50  64
ATOM     64  C   UNL A   1      38.712  29.269  29.065  1.00  0.00    -0.014 A 
ATOM     65  C   UNL A   1      37.822  29.155  30.144  1.00  0.00     0.009 A 
ATOM     66  C   UNL A   1      38.234  29.749  27.836  1.00  0.00     0.009 A 
ATOM     67  C   UNL A   1      36.473  29.482  29.986  1.00  0.00     0.001 A 
ATOM     68  C   UNL A   1      36.891  30.100  27.689  1.00  0.00     0.001 A 
ATOM     69  C   UNL A   1      36.010  29.958  28.760  1.00  0.00     0.000 A 
ENDBRANCH  50  64
BRANCH  51  70
ATOM     70  C   UNL A   1      48.308  26.589  29.599  1.00  0.00    -0.014 A 
ATOM     71  C   UNL A   1      49.165  26.864  28.522  1.00  0.00     0.009 A 
ATOM     72  C   UNL A   1      48.827  25.943  30.732  1.00  0.00     0.009 A 
ATOM     73  C   UNL A   1      50.506  26.477  28.568  1.00  0.00     0.001 A 
ATOM     74  C   UNL A   1      50.174  25.580  30.785  1.00  0.00     0.001 A 
ATOM     75  C   UNL A   1      51.010  25.839  29.700  1.00  0.00     0.000 A 
ENDBRANCH  51  70
BRANCH  63  76
ATOM     76  C   UNL A   1      44.818  32.339  31.365  1.00  0.00    -0.014 A 
ATOM     77  C   UNL A   1      44.872  32.502  32.758  1.00  0.00     0.009 A 
ATOM     78  C   UNL A   1      45.216  33.402  30.539  1.00  0.00     0.009 A 
ATOM     79  C   UNL A   1      45.288  33.714  33.311  1.00  0.00     0.001 A 
ATOM     80  C   UNL A   1      45.655  34.605  31.095  1.00  0.00     0.001 A 
ATOM     81  C   UNL A   1      45.683  34.761  32.480  1.00  0.00     0.000 A 
ENDBRANCH  63  76
ENDBRANCH  37  38
ENDBRANCH  29  32
ENDBRANCH  27  28
ENDBRANCH  26  27
ENDBRANCH   1  26
TORSDOF 16
ENDMDL
MODEL 2
REMARK VINA RESULT:     -10.8      1.266      1.656
REMARK SMILES CC[C@H](C)[C@@H](NC(=O)c1csc(NC(C)=O)n1)C(=O)NCCCCNC(=O)c1ccc(-c2c3nc(c(-c4ccccc4)c4ccc([nH]4)c(-c4ccccc4)c4nc(c(-c5ccccc5)c5ccc2[nH]5)C=C4)C=C3)cc1
REMARK SMILES IDX 22 1 21 2 20 3 18 4 19 5 5 7 3 8 4 9 2 10 1 11 6 12 7 13
REMARK SMILES IDX 8 15 9 16 10 17 17 18 11 19 12 20 13 21 14 22 15 24 16 25
REMARK SMILES IDX 23 26 24 27 25 28 26 29 27 31 28 32 29 33 75 34 30 35 74 36
REMARK SMILES IDX 31 37 32 38 33 39 68 40 34 41 73 42 67 43 69 44 35 45 72 46
REMARK SMILES IDX 66 47 65 48 36 50 58 51 43 52 57 53 44 54 47 55 56 56 70 57
REMARK SMILES IDX 45 58 46 59 55 61 71 62 48 63 37 64 38 65 42 66 39 67 41 68
REMARK SMILES IDX 40 69 59 70 60 71 64 72 61 73 63 74 62 75 49 76 50 77 54 78
REMARK SMILES IDX 51 79 53 80 52 81
REMARK H PARENT 20 6 6 14 13 23 25 30 69 49 47 60
REMARK Flexibility Score: inf
ROOT
ATOM      1  C   UNL A   1      36.974  21.877  24.080  1.00  0.00     0.023 C 
ENDROOT
BRANCH   1   2
ATOM      2  C   UNL A   1      35.625  22.399  24.559  1.00  0.00     0.116 C 
BRANCH   2   3
ATOM      3  N   UNL A   1      35.328  21.897  25.884  1.00  0.00    -0.354 N 
ATOM      4  C   UNL A   1      34.130  21.650  26.483  1.00  0.00     0.242 C 
ATOM      5  O   UNL A   1      34.152  21.326  27.677  1.00  0.00    -0.273 OA
ATOM      6  H   UNL A   1      36.117  21.702  26.441  1.00  0.00     0.163 HD
BRANCH   4   7
ATOM      7  C   UNL A   1      32.791  21.912  25.751  1.00  0.00     0.174 C 
BRANCH   7   8
ATOM      8  C   UNL A   1      32.421  20.626  24.919  1.00  0.00     0.018 C 
ATOM      9  C   UNL A   1      32.303  20.909  23.413  1.00  0.00     0.010 C 
BRANCH   8  10
ATOM     10  C   UNL A   1      33.389  19.434  25.128  1.00  0.00     0.002 C 
ATOM     11  C   UNL A   1      32.666  18.212  25.692  1.00  0.00     0.004 C 
ENDBRANCH   8  10
ENDBRANCH   7   8
BRANCH   7  12
ATOM     12  N   UNL A   1      31.658  22.275  26.637  1.00  0.00    -0.339 N 
ATOM     13  C   UNL A   1      30.733  23.294  26.606  1.00  0.00     0.271 C 
ATOM     14  H   UNL A   1      31.545  21.665  27.402  1.00  0.00     0.164 HD
ATOM     15  O   UNL A   1      29.764  23.200  27.360  1.00  0.00    -0.267 OA
BRANCH  13  16
ATOM     16  C   UNL A   1      30.995  24.517  25.854  1.00  0.00     0.141 A 
ATOM     17  C   UNL A   1      30.479  24.727  24.586  1.00  0.00     0.102 A 
ATOM     18  N   UNL A   1      31.728  25.588  26.347  1.00  0.00    -0.215 NA
ATOM     19  S   UNL A   1      30.751  26.345  24.101  1.00  0.00    -0.104 S 
ATOM     20  C   UNL A   1      31.569  26.631  25.566  1.00  0.00     0.190 A 
BRANCH  20  21
ATOM     21  N   UNL A   1      32.034  27.866  25.936  1.00  0.00    -0.302 N 
ATOM     22  C   UNL A   1      31.796  28.509  27.127  1.00  0.00     0.223 C 
ATOM     23  H   UNL A   1      32.598  28.340  25.282  1.00  0.00     0.172 HD
ATOM     24  C   UNL A   1      32.401  29.891  27.181  1.00  0.00     0.114 C 
ATOM     25  O   UNL A   1      31.186  28.069  28.096  1.00  0.00    -0.275 OA
ENDBRANCH  20  21
ENDBRANCH  13  16
ENDBRANCH   7  12
ENDBRANCH   4   7
ENDBRANCH   2   3
ENDBRANCH   1   2
BRANCH   1  26
ATOM     26  C   UNL A   1      37.470  20.649  24.845  1.00  0.00     0.023 C 
BRANCH  26  27
ATOM     27  C   UNL A   1      38.674  20.906  25.744  1.00  0.00     0.116 C 
BRANCH  27  28
ATOM     28  N   UNL A   1      39.627  19.807  25.721  1.00  0.00    -0.352 N 
ATOM     29  C   UNL A   1      40.964  19.835  26.026  1.00  0.00     0.251 C 
ATOM     30  H   UNL A   1      39.266  18.930  25.453  1.00  0.00     0.163 HD
ATOM     31  O   UNL A   1      41.680  18.862  25.807  1.00  0.00    -0.269 OA
BRANCH  29  32
ATOM     32  C   UNL A   1      41.537  21.069  26.593  1.00  0.00     0.039 A 
ATOM     33  C   UNL A   1      42.043  22.040  25.726  1.00  0.00     0.014 A 
ATOM     34  C   UNL A   1      41.515  21.285  27.975  1.00  0.00     0.014 A 
ATOM     35  C   UNL A   1      42.471  23.262  26.245  1.00  0.00     0.010 A 
ATOM     36  C   UNL A   1      41.879  22.526  28.480  1.00  0.00     0.010 A 
ATOM     37  C   UNL A   1      42.361  23.525  27.620  1.00  0.00    -0.014 A 
BRANCH  37  38
ATOM     38  C   UNL A   1      42.738  24.845  28.177  1.00  0.00     0.031 A 
ATOM     39  C   UNL A   1      41.691  25.902  28.384  1.00  0.00     0.074 A 
ATOM     40  C   UNL A   1      44.032  25.111  28.441  1.00  0.00     0.049 A 
ATOM     41  N   UNL A   1      41.831  27.127  28.823  1.00  0.00    -0.248 NA
ATOM     42  C   UNL A   1      40.308  25.544  28.027  1.00  0.00     0.031 C 
ATOM     43  C   UNL A   1      45.149  24.185  28.240  1.00  0.00     0.029 A 
ATOM     44  N   UNL A   1      44.627  26.246  28.932  1.00  0.00    -0.354 N 
ATOM     45  C   UNL A   1      40.562  27.688  28.781  1.00  0.00     0.074 A 
ATOM     46  C   UNL A   1      39.673  26.688  28.231  1.00  0.00     0.031 C 
ATOM     47  C   UNL A   1      46.288  24.781  28.628  1.00  0.00     0.029 A 
ATOM     48  C   UNL A   1      45.988  26.138  29.071  1.00  0.00     0.049 A 
ATOM     49  H   UNL A   1      44.125  27.061  29.160  1.00  0.00     0.167 HD
ATOM     50  C   UNL A   1      40.167  28.920  29.180  1.00  0.00     0.031 A 
ATOM     51  C   UNL A   1      46.894  27.033  29.507  1.00  0.00     0.031 A 
ATOM     52  C   UNL A   1      41.048  29.911  29.735  1.00  0.00     0.049 A 
ATOM     53  C   UNL A   1      46.430  28.395  29.942  1.00  0.00     0.074 A 
ATOM     54  C   UNL A   1      40.734  31.166  30.224  1.00  0.00     0.029 A 
ATOM     55  N   UNL A   1      42.418  29.757  29.871  1.00  0.00    -0.354 N 
ATOM     56  N   UNL A   1      45.215  28.884  29.966  1.00  0.00    -0.248 NA
ATOM     57  C   UNL A   1      47.464  29.322  30.422  1.00  0.00     0.031 C 
ATOM     58  C   UNL A   1      41.923  31.790  30.620  1.00  0.00     0.029 A 
ATOM     59  C   UNL A   1      42.968  30.904  30.420  1.00  0.00     0.049 A 
ATOM     60  H   UNL A   1      42.926  28.953  29.617  1.00  0.00     0.167 HD
ATOM     61  C   UNL A   1      45.334  30.166  30.486  1.00  0.00     0.074 A 
ATOM     62  C   UNL A   1      46.738  30.372  30.779  1.00  0.00     0.031 C 
ATOM     63  C   UNL A   1      44.367  31.090  30.702  1.00  0.00     0.031 A 
BRANCH  50  64
ATOM     64  C   UNL A   1      38.712  29.260  29.026  1.00  0.00    -0.014 A 
ATOM     65  C   UNL A   1      37.828  29.167  30.111  1.00  0.00     0.009 A 
ATOM     66  C   UNL A   1      38.226  29.708  27.788  1.00  0.00     0.009 A 
ATOM     67  C   UNL A   1      36.477  29.482  29.952  1.00  0.00     0.001 A 
ATOM     68  C   UNL A   1      36.881  30.047  27.638  1.00  0.00     0.001 A 
ATOM     69  C   UNL A   1      36.005  29.925  28.717  1.00  0.00     0.000 A 
ENDBRANCH  50  64
BRANCH  51  70
ATOM     70  C   UNL A   1      48.331  26.666  29.574  1.00  0.00    -0.014 A 
ATOM     71  C   UNL A   1      49.188  26.953  28.501  1.00  0.00     0.009 A 
ATOM     72  C   UNL A   1      48.853  26.021  30.707  1.00  0.00     0.009 A 
ATOM     73  C   UNL A   1      50.533  26.577  28.549  1.00  0.00     0.001 A 
ATOM     74  C   UNL A   1      50.203  25.670  30.762  1.00  0.00     0.001 A 
ATOM     75  C   UNL A   1      51.039  25.940  29.679  1.00  0.00     0.000 A 
ENDBRANCH  51  70
BRANCH  63  76
ATOM     76  C   UNL A   1      44.792  32.394  31.313  1.00  0.00    -0.014 A 
ATOM     77  C   UNL A   1      44.843  32.564  32.705  1.00  0.00     0.009 A 
ATOM     78  C   UNL A   1      45.181  33.456  30.482  1.00  0.00     0.009 A 
ATOM     79  C   UNL A   1      45.248  33.782  33.252  1.00  0.00     0.001 A 
ATOM     80  C   UNL A   1      45.609  34.665  31.032  1.00  0.00     0.001 A 
ATOM     81  C   UNL A   1      45.635  34.829  32.416  1.00  0.00     0.000 A 
ENDBRANCH  63  76
ENDBRANCH  37  38
ENDBRANCH  29  32
ENDBRANCH  27  28
ENDBRANCH  26  27
ENDBRANCH   1  26
TORSDOF 16
ENDMDL
MODEL 3
REMARK VINA RESULT:     -10.7      3.704      8.878
REMARK SMILES CC[C@H](C)[C@@H](NC(=O)c1csc(NC(C)=O)n1)C(=O)NCCCCNC(=O)c1ccc(-c2c3nc(c(-c4ccccc4)c4ccc([nH]4)c(-c4ccccc4)c4nc(c(-c5ccccc5)c5ccc2[nH]5)C=C4)C=C3)cc1
REMARK SMILES IDX 22 1 21 2 20 3 18 4 19 5 5 7 3 8 4 9 2 10 1 11 6 12 7 13
REMARK SMILES IDX 8 15 9 16 10 17 17 18 11 19 12 20 13 21 14 22 15 24 16 25
REMARK SMILES IDX 23 26 24 27 25 28 26 29 27 31 28 32 29 33 75 34 30 35 74 36
REMARK SMILES IDX 31 37 32 38 33 39 68 40 34 41 73 42 67 43 69 44 35 45 72 46
REMARK SMILES IDX 66 47 65 48 36 50 58 51 43 52 57 53 44 54 47 55 56 56 70 57
REMARK SMILES IDX 45 58 46 59 55 61 71 62 48 63 37 64 38 65 42 66 39 67 41 68
REMARK SMILES IDX 40 69 59 70 60 71 64 72 61 73 63 74 62 75 49 76 50 77 54 78
REMARK SMILES IDX 51 79 53 80 52 81
REMARK H PARENT 20 6 6 14 13 23 25 30 69 49 47 60
REMARK Flexibility Score: inf
ROOT
ATOM      1  C   UNL A   1      31.837  29.726  27.284  1.00  0.00     0.023 C 
ENDROOT
BRANCH   1   2
ATOM      2  C   UNL A   1      31.980  28.630  26.236  1.00  0.00     0.116 C 
BRANCH   2   3
ATOM      3  N   UNL A   1      32.752  29.105  25.107  1.00  0.00    -0.354 N 
ATOM      4  C   UNL A   1      32.582  28.891  23.772  1.00  0.00     0.242 C 
ATOM      5  O   UNL A   1      33.459  29.326  23.015  1.00  0.00    -0.273 OA
ATOM      6  H   UNL A   1      33.521  29.672  25.340  1.00  0.00     0.163 HD
BRANCH   4   7
ATOM      7  C   UNL A   1      31.426  28.012  23.236  1.00  0.00     0.174 C 
BRANCH   7   8
ATOM      8  C   UNL A   1      30.128  28.901  23.145  1.00  0.00     0.018 C 
ATOM      9  C   UNL A   1      30.137  29.840  21.927  1.00  0.00     0.010 C 
BRANCH   8  10
ATOM     10  C   UNL A   1      28.805  28.095  23.144  1.00  0.00     0.002 C 
ATOM     11  C   UNL A   1      27.587  29.009  23.014  1.00  0.00     0.004 C 
ENDBRANCH   8  10
ENDBRANCH   7   8
BRANCH   7  12
ATOM     12  N   UNL A   1      31.687  27.377  21.921  1.00  0.00    -0.339 N 
ATOM     13  C   UNL A   1      31.710  26.066  21.501  1.00  0.00     0.271 C 
ATOM     14  H   UNL A   1      31.883  28.022  21.203  1.00  0.00     0.164 HD
ATOM     15  O   UNL A   1      31.732  25.862  20.287  1.00  0.00    -0.267 OA
BRANCH  13  16
ATOM     16  C   UNL A   1      31.897  24.979  22.458  1.00  0.00     0.141 A 
ATOM     17  C   UNL A   1      33.145  24.445  22.732  1.00  0.00     0.102 A 
ATOM     18  N   UNL A   1      30.870  24.423  23.208  1.00  0.00    -0.215 NA
ATOM     19  S   UNL A   1      33.049  23.386  24.072  1.00  0.00    -0.104 S 
ATOM     20  C   UNL A   1      31.373  23.668  24.158  1.00  0.00     0.190 A 
BRANCH  20  21
ATOM     21  N   UNL A   1      30.577  23.159  25.150  1.00  0.00    -0.302 N 
ATOM     22  C   UNL A   1      30.441  23.650  26.426  1.00  0.00     0.223 C 
ATOM     23  H   UNL A   1      30.047  22.360  24.925  1.00  0.00     0.172 HD
ATOM     24  C   UNL A   1      29.534  22.807  27.288  1.00  0.00     0.114 C 
ATOM     25  O   UNL A   1      30.949  24.669  26.885  1.00  0.00    -0.275 OA
ENDBRANCH  20  21
ENDBRANCH  13  16
ENDBRANCH   7  12
ENDBRANCH   4   7
ENDBRANCH   2   3
ENDBRANCH   1   2
BRANCH   1  26
ATOM     26  C   UNL A   1      31.778  31.138  26.700  1.00  0.00     0.023 C 
BRANCH  26  27
ATOM     27  C   UNL A   1      32.967  32.022  27.058  1.00  0.00     0.116 C 
BRANCH  27  28
ATOM     28  N   UNL A   1      32.563  33.368  27.433  1.00  0.00    -0.352 N 
ATOM     29  C   UNL A   1      33.141  34.205  28.354  1.00  0.00     0.251 C 
ATOM     30  H   UNL A   1      31.773  33.727  26.965  1.00  0.00     0.163 HD
ATOM     31  O   UNL A   1      32.595  35.253  28.682  1.00  0.00    -0.269 OA
BRANCH  29  32
ATOM     32  C   UNL A   1      34.419  33.804  28.971  1.00  0.00     0.039 A 
ATOM     33  C   UNL A   1      34.397  32.984  30.101  1.00  0.00     0.014 A 
ATOM     34  C   UNL A   1      35.631  34.194  28.393  1.00  0.00     0.014 A 
ATOM     35  C   UNL A   1      35.598  32.499  30.616  1.00  0.00     0.010 A 
ATOM     36  C   UNL A   1      36.820  33.655  28.867  1.00  0.00     0.010 A 
ATOM     37  C   UNL A   1      36.815  32.804  29.983  1.00  0.00    -0.014 A 
BRANCH  37  38
ATOM     38  C   UNL A   1      38.093  32.234  30.470  1.00  0.00     0.031 A 
ATOM     39  C   UNL A   1      38.611  30.948  29.894  1.00  0.00     0.074 A 
ATOM     40  C   UNL A   1      38.755  32.844  31.473  1.00  0.00     0.049 A 
ATOM     41  N   UNL A   1      39.687  30.275  30.215  1.00  0.00    -0.248 NA
ATOM     42  C   UNL A   1      37.803  30.323  28.834  1.00  0.00     0.031 C 
ATOM     43  C   UNL A   1      38.331  34.073  32.147  1.00  0.00     0.029 A 
ATOM     44  N   UNL A   1      39.925  32.507  32.103  1.00  0.00    -0.354 N 
ATOM     45  C   UNL A   1      39.676  29.143  29.411  1.00  0.00     0.074 A 
ATOM     46  C   UNL A   1      38.466  29.196  28.620  1.00  0.00     0.031 C 
ATOM     47  C   UNL A   1      39.241  34.399  33.078  1.00  0.00     0.029 A 
ATOM     48  C   UNL A   1      40.292  33.387  33.091  1.00  0.00     0.049 A 
ATOM     49  H   UNL A   1      40.452  31.708  31.870  1.00  0.00     0.167 HD
ATOM     50  C   UNL A   1      40.599  28.157  29.325  1.00  0.00     0.031 A 
ATOM     51  C   UNL A   1      41.356  33.379  33.914  1.00  0.00     0.031 A 
ATOM     52  C   UNL A   1      41.806  28.108  30.103  1.00  0.00     0.049 A 
ATOM     53  C   UNL A   1      42.365  32.271  33.800  1.00  0.00     0.074 A 
ATOM     54  C   UNL A   1      42.832  27.182  30.047  1.00  0.00     0.029 A 
ATOM     55  N   UNL A   1      42.146  29.026  31.084  1.00  0.00    -0.354 N 
ATOM     56  N   UNL A   1      42.379  31.248  32.982  1.00  0.00    -0.248 NA
ATOM     57  C   UNL A   1      43.513  32.326  34.716  1.00  0.00     0.031 C 
ATOM     58  C   UNL A   1      43.776  27.516  31.024  1.00  0.00     0.029 A 
ATOM     59  C   UNL A   1      43.359  28.677  31.654  1.00  0.00     0.049 A 
ATOM     60  H   UNL A   1      41.607  29.809  31.338  1.00  0.00     0.167 HD
ATOM     61  C   UNL A   1      43.545  30.551  33.267  1.00  0.00     0.074 A 
ATOM     62  C   UNL A   1      44.221  31.277  34.322  1.00  0.00     0.031 C 
ATOM     63  C   UNL A   1      44.015  29.412  32.704  1.00  0.00     0.031 A 
BRANCH  50  64
ATOM     64  C   UNL A   1      40.330  27.046  28.350  1.00  0.00    -0.014 A 
ATOM     65  C   UNL A   1      40.849  27.086  27.045  1.00  0.00     0.009 A 
ATOM     66  C   UNL A   1      39.575  25.932  28.747  1.00  0.00     0.009 A 
ATOM     67  C   UNL A   1      40.586  26.050  26.148  1.00  0.00     0.001 A 
ATOM     68  C   UNL A   1      39.337  24.885  27.857  1.00  0.00     0.001 A 
ATOM     69  C   UNL A   1      39.835  24.948  26.555  1.00  0.00     0.000 A 
ENDBRANCH  50  64
BRANCH  51  70
ATOM     70  C   UNL A   1      41.537  34.467  34.908  1.00  0.00    -0.014 A 
ATOM     71  C   UNL A   1      40.992  34.349  36.197  1.00  0.00     0.009 A 
ATOM     72  C   UNL A   1      42.247  35.632  34.575  1.00  0.00     0.009 A 
ATOM     73  C   UNL A   1      41.132  35.387  37.121  1.00  0.00     0.001 A 
ATOM     74  C   UNL A   1      42.406  36.655  35.510  1.00  0.00     0.001 A 
ATOM     75  C   UNL A   1      41.841  36.536  36.779  1.00  0.00     0.000 A 
ENDBRANCH  51  70
BRANCH  63  76
ATOM     76  C   UNL A   1      45.337  28.900  33.198  1.00  0.00    -0.014 A 
ATOM     77  C   UNL A   1      46.544  29.326  32.621  1.00  0.00     0.009 A 
ATOM     78  C   UNL A   1      45.376  28.007  34.280  1.00  0.00     0.009 A 
ATOM     79  C   UNL A   1      47.762  28.844  33.101  1.00  0.00     0.001 A 
ATOM     80  C   UNL A   1      46.597  27.545  34.773  1.00  0.00     0.001 A 
ATOM     81  C   UNL A   1      47.788  27.958  34.178  1.00  0.00     0.000 A 
ENDBRANCH  63  76
ENDBRANCH  37  38
ENDBRANCH  29  32
ENDBRANCH  27  28
ENDBRANCH  26  27
ENDBRANCH   1  26
TORSDOF 16
ENDMDL
