MODEL 1
REMARK VINA RESULT:      -9.4      0.000      0.000
REMARK SMILES O=C(C[NH+]1CC(c2nc(-c3cccs3)no2)C1)NCCCCNC(=O)c1ccc(-c2c3nc(c(-c4ccccc4)c4ccc([nH]4)c(-c4ccccc4)c4nc(c(-c5ccccc5)c5ccc2[nH]5)C=C4)C=C3)cc1
REMARK SMILES IDX 20 1 19 2 18 3 1 4 2 5 3 7 4 8 5 9 17 10 6 12 7 13 8 14
REMARK SMILES IDX 16 15 9 16 15 17 10 18 11 19 14 20 12 21 13 22 21 23 22 24
REMARK SMILES IDX 23 25 24 26 25 28 26 29 27 30 73 31 28 32 72 33 29 34 30 35
REMARK SMILES IDX 31 36 66 37 32 38 71 39 65 40 67 41 33 42 70 43 64 44 63 45
REMARK SMILES IDX 34 47 56 48 41 49 55 50 42 51 45 52 54 53 68 54 43 55 44 56
REMARK SMILES IDX 53 58 69 59 46 60 35 61 36 62 40 63 37 64 39 65 38 66 57 67
REMARK SMILES IDX 58 68 62 69 59 70 61 71 60 72 47 73 48 74 52 75 49 76 51 77
REMARK SMILES IDX 50 78
REMARK H PARENT 18 6 4 11 23 27 67 46 45 57
REMARK Flexibility Score: inf
ROOT
ATOM      1  C   UNL A   1      45.024  20.893  24.231  1.00  0.00     0.023 C 
ENDROOT
BRANCH   1   2
ATOM      2  C   UNL A   1      46.062  21.527  25.159  1.00  0.00     0.116 C 
BRANCH   2   3
ATOM      3  N   UNL A   1      45.766  22.913  25.444  1.00  0.00    -0.351 N 
ATOM      4  O   UNL A   1      47.072  23.796  23.767  1.00  0.00    -0.269 OA
ATOM      5  C   UNL A   1      46.273  23.955  24.684  1.00  0.00     0.275 C 
ATOM      6  H   UNL A   1      45.181  23.126  26.207  1.00  0.00     0.163 HD
BRANCH   5   7
ATOM      7  C   UNL A   1      45.700  25.319  25.088  1.00  0.00     0.363 C 
BRANCH   7   8
ATOM      8  N   UNL A   1      46.725  26.376  25.004  1.00  0.00    -0.325 N 
ATOM      9  C   UNL A   1      46.216  27.638  24.420  1.00  0.00     0.282 C 
ATOM     10  C   UNL A   1      46.849  27.077  26.306  1.00  0.00     0.282 C 
ATOM     11  H   UNL A   1      47.502  25.883  24.564  1.00  0.00     0.348 HD
ATOM     12  C   UNL A   1      46.991  28.410  25.517  1.00  0.00     0.188 C 
BRANCH  12  13
ATOM     13  C   UNL A   1      46.216  29.541  26.158  1.00  0.00     0.241 A 
ATOM     14  N   UNL A   1      46.220  30.779  25.717  1.00  0.00    -0.190 NA
ATOM     15  O   UNL A   1      45.482  29.391  27.302  1.00  0.00    -0.338 OA
ATOM     16  C   UNL A   1      45.498  31.445  26.684  1.00  0.00     0.212 A 
ATOM     17  N   UNL A   1      44.996  30.647  27.636  1.00  0.00    -0.056 NA
BRANCH  16  18
ATOM     18  C   UNL A   1      45.371  32.934  26.705  1.00  0.00     0.075 A 
ATOM     19  C   UNL A   1      44.176  33.599  26.881  1.00  0.00     0.024 A 
ATOM     20  S   UNL A   1      46.671  34.014  26.458  1.00  0.00    -0.140 S 
ATOM     21  C   UNL A   1      44.328  35.014  26.769  1.00  0.00     0.012 A 
ATOM     22  C   UNL A   1      45.636  35.373  26.525  1.00  0.00     0.065 A 
ENDBRANCH  16  18
ENDBRANCH  12  13
ENDBRANCH   7   8
ENDBRANCH   5   7
ENDBRANCH   2   3
ENDBRANCH   1   2
BRANCH   1  23
ATOM     23  C   UNL A   1      44.769  19.396  24.444  1.00  0.00     0.023 C 
BRANCH  23  24
ATOM     24  C   UNL A   1      44.078  19.024  25.753  1.00  0.00     0.116 C 
BRANCH  24  25
ATOM     25  N   UNL A   1      42.655  18.786  25.579  1.00  0.00    -0.352 N 
ATOM     26  C   UNL A   1      41.582  19.552  25.966  1.00  0.00     0.251 C 
ATOM     27  H   UNL A   1      42.425  17.950  25.114  1.00  0.00     0.163 HD
ATOM     28  O   UNL A   1      40.445  19.089  25.886  1.00  0.00    -0.269 OA
BRANCH  26  29
ATOM     29  C   UNL A   1      41.775  20.919  26.503  1.00  0.00     0.039 A 
ATOM     30  C   UNL A   1      41.712  21.112  27.886  1.00  0.00     0.014 A 
ATOM     31  C   UNL A   1      41.983  22.013  25.658  1.00  0.00     0.014 A 
ATOM     32  C   UNL A   1      41.921  22.386  28.425  1.00  0.00     0.010 A 
ATOM     33  C   UNL A   1      42.257  23.270  26.199  1.00  0.00     0.010 A 
ATOM     34  C   UNL A   1      42.231  23.470  27.588  1.00  0.00    -0.014 A 
BRANCH  34  35
ATOM     35  C   UNL A   1      42.540  24.811  28.147  1.00  0.00     0.031 A 
ATOM     36  C   UNL A   1      43.926  25.138  28.632  1.00  0.00     0.074 A 
ATOM     37  C   UNL A   1      41.555  25.722  28.278  1.00  0.00     0.049 A 
ATOM     38  N   UNL A   1      44.366  26.233  29.202  1.00  0.00    -0.248 NA
ATOM     39  C   UNL A   1      44.949  24.093  28.473  1.00  0.00     0.031 C 
ATOM     40  C   UNL A   1      40.160  25.528  27.878  1.00  0.00     0.029 A 
ATOM     41  N   UNL A   1      41.577  26.995  28.793  1.00  0.00    -0.354 N 
ATOM     42  C   UNL A   1      45.704  26.000  29.488  1.00  0.00     0.074 A 
ATOM     43  C   UNL A   1      45.997  24.648  29.063  1.00  0.00     0.031 C 
ATOM     44  C   UNL A   1      39.467  26.647  28.141  1.00  0.00     0.029 A 
ATOM     45  C   UNL A   1      40.355  27.622  28.765  1.00  0.00     0.049 A 
ATOM     46  H   UNL A   1      42.392  27.418  29.150  1.00  0.00     0.167 HD
ATOM     47  C   UNL A   1      46.614  26.838  30.041  1.00  0.00     0.031 A 
ATOM     48  C   UNL A   1      39.986  28.842  29.200  1.00  0.00     0.031 A 
ATOM     49  C   UNL A   1      46.332  28.188  30.455  1.00  0.00     0.049 A 
ATOM     50  C   UNL A   1      41.010  29.745  29.829  1.00  0.00     0.074 A 
ATOM     51  C   UNL A   1      47.205  29.132  30.968  1.00  0.00     0.029 A 
ATOM     52  N   UNL A   1      45.082  28.782  30.408  1.00  0.00    -0.354 N 
ATOM     53  N   UNL A   1      42.287  29.533  30.029  1.00  0.00    -0.248 NA
ATOM     54  C   UNL A   1      40.538  31.061  30.285  1.00  0.00     0.031 C 
ATOM     55  C   UNL A   1      46.473  30.282  31.278  1.00  0.00     0.029 A 
ATOM     56  C   UNL A   1      45.155  30.073  30.908  1.00  0.00     0.049 A 
ATOM     57  H   UNL A   1      44.263  28.353  30.070  1.00  0.00     0.167 HD
ATOM     58  C   UNL A   1      42.778  30.697  30.605  1.00  0.00     0.074 A 
ATOM     59  C   UNL A   1      41.664  31.617  30.709  1.00  0.00     0.031 C 
ATOM     60  C   UNL A   1      44.041  30.979  31.007  1.00  0.00     0.031 A 
BRANCH  47  61
ATOM     61  C   UNL A   1      48.008  26.314  30.243  1.00  0.00    -0.014 A 
ATOM     62  C   UNL A   1      48.395  25.721  31.456  1.00  0.00     0.009 A 
ATOM     63  C   UNL A   1      48.936  26.373  29.191  1.00  0.00     0.009 A 
ATOM     64  C   UNL A   1      49.693  25.231  31.622  1.00  0.00     0.001 A 
ATOM     65  C   UNL A   1      50.223  25.857  29.351  1.00  0.00     0.001 A 
ATOM     66  C   UNL A   1      50.603  25.295  30.569  1.00  0.00     0.000 A 
ENDBRANCH  47  61
BRANCH  48  67
ATOM     67  C   UNL A   1      38.579  29.294  29.045  1.00  0.00    -0.014 A 
ATOM     68  C   UNL A   1      37.684  29.212  30.123  1.00  0.00     0.009 A 
ATOM     69  C   UNL A   1      38.119  29.795  27.817  1.00  0.00     0.009 A 
ATOM     70  C   UNL A   1      36.351  29.599  29.968  1.00  0.00     0.001 A 
ATOM     71  C   UNL A   1      36.792  30.207  27.673  1.00  0.00     0.001 A 
ATOM     72  C   UNL A   1      35.908  30.099  28.744  1.00  0.00     0.000 A 
ENDBRANCH  48  67
BRANCH  60  73
ATOM     73  C   UNL A   1      44.294  32.352  31.565  1.00  0.00    -0.014 A 
ATOM     74  C   UNL A   1      44.633  33.428  30.731  1.00  0.00     0.009 A 
ATOM     75  C   UNL A   1      44.152  32.577  32.944  1.00  0.00     0.009 A 
ATOM     76  C   UNL A   1      44.858  34.696  31.271  1.00  0.00     0.001 A 
ATOM     77  C   UNL A   1      44.350  33.851  33.477  1.00  0.00     0.001 A 
ATOM     78  C   UNL A   1      44.711  34.907  32.642  1.00  0.00     0.000 A 
ENDBRANCH  60  73
ENDBRANCH  34  35
ENDBRANCH  26  29
ENDBRANCH  24  25
ENDBRANCH  23  24
ENDBRANCH   1  23
TORSDOF 14
ENDMDL
MODEL 2
REMARK VINA RESULT:      -9.1      5.346     11.417
REMARK SMILES O=C(C[NH+]1CC(c2nc(-c3cccs3)no2)C1)NCCCCNC(=O)c1ccc(-c2c3nc(c(-c4ccccc4)c4ccc([nH]4)c(-c4ccccc4)c4nc(c(-c5ccccc5)c5ccc2[nH]5)C=C4)C=C3)cc1
REMARK SMILES IDX 20 1 19 2 18 3 1 4 2 5 3 7 4 8 5 9 17 10 6 12 7 13 8 14
REMARK SMILES IDX 16 15 9 16 15 17 10 18 11 19 14 20 12 21 13 22 21 23 22 24
REMARK SMILES IDX 23 25 24 26 25 28 26 29 27 30 73 31 28 32 72 33 29 34 30 35
REMARK SMILES IDX 31 36 66 37 32 38 71 39 65 40 67 41 33 42 70 43 64 44 63 45
REMARK SMILES IDX 34 47 56 48 41 49 55 50 42 51 45 52 54 53 68 54 43 55 44 56
REMARK SMILES IDX 53 58 69 59 46 60 35 61 36 62 40 63 37 64 39 65 38 66 57 67
REMARK SMILES IDX 58 68 62 69 59 70 61 71 60 72 47 73 48 74 52 75 49 76 51 77
REMARK SMILES IDX 50 78
REMARK H PARENT 18 6 4 11 23 27 67 46 45 57
REMARK Flexibility Score: inf
ROOT
ATOM      1  C   UNL A   1      32.795  29.422  24.970  1.00  0.00     0.023 C 
ENDROOT
BRANCH   1   2
ATOM      2  C   UNL A   1      31.352  28.916  24.996  1.00  0.00     0.116 C 
BRANCH   2   3
ATOM      3  N   UNL A   1      31.278  27.473  24.967  1.00  0.00    -0.351 N 
ATOM      4  O   UNL A   1      30.783  27.204  27.198  1.00  0.00    -0.269 OA
ATOM      5  C   UNL A   1      30.953  26.721  26.084  1.00  0.00     0.275 C 
ATOM      6  H   UNL A   1      31.465  27.005  24.120  1.00  0.00     0.163 HD
BRANCH   5   7
ATOM      7  C   UNL A   1      30.792  25.228  25.768  1.00  0.00     0.363 C 
BRANCH   7   8
ATOM      8  N   UNL A   1      31.419  24.391  26.809  1.00  0.00    -0.325 N 
ATOM      9  C   UNL A   1      31.114  22.950  26.661  1.00  0.00     0.282 C 
ATOM     10  C   UNL A   1      32.825  24.089  26.445  1.00  0.00     0.282 C 
ATOM     11  H   UNL A   1      31.161  24.886  27.663  1.00  0.00     0.348 HD
ATOM     12  C   UNL A   1      32.600  22.645  26.980  1.00  0.00     0.188 C 
BRANCH  12  13
ATOM     13  C   UNL A   1      33.234  21.598  26.088  1.00  0.00     0.241 A 
ATOM     14  N   UNL A   1      32.724  20.405  25.878  1.00  0.00    -0.190 NA
ATOM     15  O   UNL A   1      34.436  21.777  25.463  1.00  0.00    -0.338 OA
ATOM     16  C   UNL A   1      33.704  19.788  25.131  1.00  0.00     0.212 A 
ATOM     17  N   UNL A   1      34.735  20.585  24.818  1.00  0.00    -0.056 NA
BRANCH  16  18
ATOM     18  C   UNL A   1      33.651  18.336  24.784  1.00  0.00     0.075 A 
ATOM     19  C   UNL A   1      34.355  17.769  23.742  1.00  0.00     0.024 A 
ATOM     20  S   UNL A   1      32.672  17.190  25.588  1.00  0.00    -0.140 S 
ATOM     21  C   UNL A   1      34.052  16.384  23.579  1.00  0.00     0.012 A 
ATOM     22  C   UNL A   1      33.138  15.945  24.512  1.00  0.00     0.065 A 
ENDBRANCH  16  18
ENDBRANCH  12  13
ENDBRANCH   7   8
ENDBRANCH   5   7
ENDBRANCH   2   3
ENDBRANCH   1   2
BRANCH   1  23
ATOM     23  C   UNL A   1      33.809  28.581  25.755  1.00  0.00     0.023 C 
BRANCH  23  24
ATOM     24  C   UNL A   1      33.749  28.724  27.274  1.00  0.00     0.116 C 
BRANCH  24  25
ATOM     25  N   UNL A   1      33.765  30.113  27.699  1.00  0.00    -0.352 N 
ATOM     26  C   UNL A   1      34.745  30.823  28.349  1.00  0.00     0.251 C 
ATOM     27  H   UNL A   1      32.950  30.623  27.491  1.00  0.00     0.163 HD
ATOM     28  O   UNL A   1      34.496  31.947  28.784  1.00  0.00    -0.269 OA
BRANCH  26  29
ATOM     29  C   UNL A   1      36.093  30.245  28.557  1.00  0.00     0.039 A 
ATOM     30  C   UNL A   1      37.010  30.283  27.501  1.00  0.00     0.014 A 
ATOM     31  C   UNL A   1      36.451  29.638  29.764  1.00  0.00     0.014 A 
ATOM     32  C   UNL A   1      38.301  29.774  27.677  1.00  0.00     0.010 A 
ATOM     33  C   UNL A   1      37.758  29.191  29.961  1.00  0.00     0.010 A 
ATOM     34  C   UNL A   1      38.698  29.255  28.920  1.00  0.00    -0.014 A 
BRANCH  34  35
ATOM     35  C   UNL A   1      40.090  28.789  29.151  1.00  0.00     0.031 A 
ATOM     36  C   UNL A   1      41.113  29.704  29.766  1.00  0.00     0.074 A 
ATOM     37  C   UNL A   1      40.454  27.554  28.750  1.00  0.00     0.049 A 
ATOM     38  N   UNL A   1      42.386  29.490  29.988  1.00  0.00    -0.248 NA
ATOM     39  C   UNL A   1      40.650  31.042  30.167  1.00  0.00     0.031 C 
ATOM     40  C   UNL A   1      39.572  26.574  28.113  1.00  0.00     0.029 A 
ATOM     41  N   UNL A   1      41.668  26.916  28.813  1.00  0.00    -0.354 N 
ATOM     42  C   UNL A   1      42.879  30.669  30.532  1.00  0.00     0.074 A 
ATOM     43  C   UNL A   1      41.778  31.607  30.572  1.00  0.00     0.031 C 
ATOM     44  C   UNL A   1      40.268  25.453  27.865  1.00  0.00     0.029 A 
ATOM     45  C   UNL A   1      41.652  25.647  28.286  1.00  0.00     0.049 A 
ATOM     46  H   UNL A   1      42.475  27.328  29.199  1.00  0.00     0.167 HD
ATOM     47  C   UNL A   1      44.131  30.944  30.972  1.00  0.00     0.031 A 
ATOM     48  C   UNL A   1      42.639  24.743  28.148  1.00  0.00     0.031 A 
ATOM     49  C   UNL A   1      45.227  30.011  30.946  1.00  0.00     0.049 A 
ATOM     50  C   UNL A   1      44.024  25.080  28.626  1.00  0.00     0.074 A 
ATOM     51  C   UNL A   1      46.514  30.180  31.427  1.00  0.00     0.029 A 
ATOM     52  N   UNL A   1      45.166  28.738  30.404  1.00  0.00    -0.354 N 
ATOM     53  N   UNL A   1      44.456  26.176  29.200  1.00  0.00    -0.248 NA
ATOM     54  C   UNL A   1      45.056  24.048  28.442  1.00  0.00     0.031 C 
ATOM     55  C   UNL A   1      47.247  29.026  31.132  1.00  0.00     0.029 A 
ATOM     56  C   UNL A   1      46.401  28.119  30.516  1.00  0.00     0.049 A 
ATOM     57  H   UNL A   1      44.365  28.332  30.000  1.00  0.00     0.167 HD
ATOM     58  C   UNL A   1      45.799  25.955  29.473  1.00  0.00     0.074 A 
ATOM     59  C   UNL A   1      46.108  24.616  29.015  1.00  0.00     0.031 C 
ATOM     60  C   UNL A   1      46.696  26.787  30.056  1.00  0.00     0.031 A 
BRANCH  47  61
ATOM     61  C   UNL A   1      44.388  32.322  31.514  1.00  0.00    -0.014 A 
ATOM     62  C   UNL A   1      44.173  32.624  32.869  1.00  0.00     0.009 A 
ATOM     63  C   UNL A   1      44.895  33.322  30.669  1.00  0.00     0.009 A 
ATOM     64  C   UNL A   1      44.427  33.908  33.357  1.00  0.00     0.001 A 
ATOM     65  C   UNL A   1      45.174  34.596  31.166  1.00  0.00     0.001 A 
ATOM     66  C   UNL A   1      44.931  34.891  32.506  1.00  0.00     0.000 A 
ENDBRANCH  47  61
BRANCH  48  67
ATOM     67  C   UNL A   1      42.356  23.416  27.541  1.00  0.00    -0.014 A 
ATOM     68  C   UNL A   1      42.611  23.190  26.180  1.00  0.00     0.009 A 
ATOM     69  C   UNL A   1      41.817  22.376  28.313  1.00  0.00     0.009 A 
ATOM     70  C   UNL A   1      42.308  21.957  25.598  1.00  0.00     0.001 A 
ATOM     71  C   UNL A   1      41.540  21.135  27.735  1.00  0.00     0.001 A 
ATOM     72  C   UNL A   1      41.777  20.930  26.377  1.00  0.00     0.000 A 
ENDBRANCH  48  67
BRANCH  60  73
ATOM     73  C   UNL A   1      48.088  26.260  30.264  1.00  0.00    -0.014 A 
ATOM     74  C   UNL A   1      49.054  26.326  29.249  1.00  0.00     0.009 A 
ATOM     75  C   UNL A   1      48.448  25.725  31.512  1.00  0.00     0.009 A 
ATOM     76  C   UNL A   1      50.342  25.835  29.467  1.00  0.00     0.001 A 
ATOM     77  C   UNL A   1      49.744  25.261  31.736  1.00  0.00     0.001 A 
ATOM     78  C   UNL A   1      50.688  25.308  30.712  1.00  0.00     0.000 A 
ENDBRANCH  60  73
ENDBRANCH  34  35
ENDBRANCH  26  29
ENDBRANCH  24  25
ENDBRANCH  23  24
ENDBRANCH   1  23
TORSDOF 14
ENDMDL
MODEL 3
REMARK VINA RESULT:      -8.8      4.624      7.594
REMARK SMILES O=C(C[NH+]1CC(c2nc(-c3cccs3)no2)C1)NCCCCNC(=O)c1ccc(-c2c3nc(c(-c4ccccc4)c4ccc([nH]4)c(-c4ccccc4)c4nc(c(-c5ccccc5)c5ccc2[nH]5)C=C4)C=C3)cc1
REMARK SMILES IDX 20 1 19 2 18 3 1 4 2 5 3 7 4 8 5 9 17 10 6 12 7 13 8 14
REMARK SMILES IDX 16 15 9 16 15 17 10 18 11 19 14 20 12 21 13 22 21 23 22 24
REMARK SMILES IDX 23 25 24 26 25 28 26 29 27 30 73 31 28 32 72 33 29 34 30 35
REMARK SMILES IDX 31 36 66 37 32 38 71 39 65 40 67 41 33 42 70 43 64 44 63 45
REMARK SMILES IDX 34 47 56 48 41 49 55 50 42 51 45 52 54 53 68 54 43 55 44 56
REMARK SMILES IDX 53 58 69 59 46 60 35 61 36 62 40 63 37 64 39 65 38 66 57 67
REMARK SMILES IDX 58 68 62 69 59 70 61 71 60 72 47 73 48 74 52 75 49 76 51 77
REMARK SMILES IDX 50 78
REMARK H PARENT 18 6 4 11 23 27 67 46 45 57
REMARK Flexibility Score: inf
ROOT
ATOM      1  C   UNL A   1      40.152  21.722  26.874  1.00  0.00     0.023 C 
ENDROOT
BRANCH   1   2
ATOM      2  C   UNL A   1      39.103  22.459  26.040  1.00  0.00     0.116 C 
BRANCH   2   3
ATOM      3  N   UNL A   1      37.795  21.852  26.144  1.00  0.00    -0.351 N 
ATOM      4  O   UNL A   1      37.018  22.581  24.105  1.00  0.00    -0.269 OA
ATOM      5  C   UNL A   1      36.854  21.929  25.131  1.00  0.00     0.275 C 
ATOM      6  H   UNL A   1      37.564  21.363  26.967  1.00  0.00     0.163 HD
BRANCH   5   7
ATOM      7  C   UNL A   1      35.606  21.082  25.413  1.00  0.00     0.363 C 
BRANCH   7   8
ATOM      8  N   UNL A   1      35.013  21.424  26.720  1.00  0.00    -0.325 N 
ATOM      9  C   UNL A   1      34.723  22.868  26.869  1.00  0.00     0.282 C 
ATOM     10  C   UNL A   1      33.551  21.174  26.700  1.00  0.00     0.282 C 
ATOM     11  H   UNL A   1      35.646  20.957  27.368  1.00  0.00     0.348 HD
ATOM     12  C   UNL A   1      33.367  22.486  27.516  1.00  0.00     0.188 C 
BRANCH  12  13
ATOM     13  C   UNL A   1      32.187  23.301  27.031  1.00  0.00     0.241 A 
ATOM     14  N   UNL A   1      32.257  24.200  26.075  1.00  0.00    -0.190 NA
ATOM     15  O   UNL A   1      30.942  23.221  27.591  1.00  0.00    -0.338 OA
ATOM     16  C   UNL A   1      30.995  24.753  26.090  1.00  0.00     0.212 A 
ATOM     17  N   UNL A   1      30.153  24.170  26.955  1.00  0.00    -0.056 NA
BRANCH  16  18
ATOM     18  C   UNL A   1      30.636  25.954  25.276  1.00  0.00     0.075 A 
ATOM     19  C   UNL A   1      29.633  25.967  24.329  1.00  0.00     0.024 A 
ATOM     20  S   UNL A   1      31.451  27.452  25.361  1.00  0.00    -0.140 S 
ATOM     21  C   UNL A   1      29.565  27.214  23.637  1.00  0.00     0.012 A 
ATOM     22  C   UNL A   1      30.509  28.107  24.093  1.00  0.00     0.065 A 
ENDBRANCH  16  18
ENDBRANCH  12  13
ENDBRANCH   7   8
ENDBRANCH   5   7
ENDBRANCH   2   3
ENDBRANCH   1   2
BRANCH   1  23
ATOM     23  C   UNL A   1      40.497  20.303  26.404  1.00  0.00     0.023 C 
BRANCH  23  24
ATOM     24  C   UNL A   1      41.799  19.726  26.952  1.00  0.00     0.116 C 
BRANCH  24  25
ATOM     25  N   UNL A   1      42.833  19.630  25.935  1.00  0.00    -0.352 N 
ATOM     26  C   UNL A   1      43.583  20.620  25.349  1.00  0.00     0.251 C 
ATOM     27  H   UNL A   1      43.023  18.719  25.618  1.00  0.00     0.163 HD
ATOM     28  O   UNL A   1      44.285  20.354  24.373  1.00  0.00    -0.269 OA
BRANCH  26  29
ATOM     29  C   UNL A   1      43.544  22.010  25.858  1.00  0.00     0.039 A 
ATOM     30  C   UNL A   1      43.811  22.237  27.212  1.00  0.00     0.014 A 
ATOM     31  C   UNL A   1      43.213  23.084  25.027  1.00  0.00     0.014 A 
ATOM     32  C   UNL A   1      43.812  23.542  27.715  1.00  0.00     0.010 A 
ATOM     33  C   UNL A   1      43.280  24.390  25.514  1.00  0.00     0.010 A 
ATOM     34  C   UNL A   1      43.581  24.634  26.863  1.00  0.00    -0.014 A 
BRANCH  34  35
ATOM     35  C   UNL A   1      43.662  26.031  27.361  1.00  0.00     0.031 A 
ATOM     36  C   UNL A   1      44.994  26.714  27.515  1.00  0.00     0.074 A 
ATOM     37  C   UNL A   1      42.536  26.671  27.737  1.00  0.00     0.049 A 
ATOM     38  N   UNL A   1      45.261  27.906  27.989  1.00  0.00    -0.248 NA
ATOM     39  C   UNL A   1      46.182  25.952  27.101  1.00  0.00     0.031 C 
ATOM     40  C   UNL A   1      41.182  26.117  27.670  1.00  0.00     0.029 A 
ATOM     41  N   UNL A   1      42.354  27.928  28.258  1.00  0.00    -0.354 N 
ATOM     42  C   UNL A   1      46.644  28.027  27.950  1.00  0.00     0.074 A 
ATOM     43  C   UNL A   1      47.163  26.775  27.441  1.00  0.00     0.031 C 
ATOM     44  C   UNL A   1      40.309  27.037  28.110  1.00  0.00     0.029 A 
ATOM     45  C   UNL A   1      41.041  28.228  28.529  1.00  0.00     0.049 A 
ATOM     46  H   UNL A   1      43.095  28.556  28.423  1.00  0.00     0.167 HD
ATOM     47  C   UNL A   1      47.415  29.088  28.292  1.00  0.00     0.031 A 
ATOM     48  C   UNL A   1      40.487  29.333  29.062  1.00  0.00     0.031 A 
ATOM     49  C   UNL A   1      46.904  30.339  28.787  1.00  0.00     0.049 A 
ATOM     50  C   UNL A   1      41.366  30.488  29.453  1.00  0.00     0.074 A 
ATOM     51  C   UNL A   1      47.604  31.492  29.101  1.00  0.00     0.029 A 
ATOM     52  N   UNL A   1      45.568  30.599  29.045  1.00  0.00    -0.354 N 
ATOM     53  N   UNL A   1      42.665  30.611  29.344  1.00  0.00    -0.248 NA
ATOM     54  C   UNL A   1      40.695  31.662  30.032  1.00  0.00     0.031 C 
ATOM     55  C   UNL A   1      46.698  32.434  29.596  1.00  0.00     0.029 A 
ATOM     56  C   UNL A   1      45.427  31.886  29.540  1.00  0.00     0.049 A 
ATOM     57  H   UNL A   1      44.830  29.965  28.900  1.00  0.00     0.167 HD
ATOM     58  C   UNL A   1      42.966  31.883  29.813  1.00  0.00     0.074 A 
ATOM     59  C   UNL A   1      41.711  32.498  30.193  1.00  0.00     0.031 C 
ATOM     60  C   UNL A   1      44.174  32.488  29.915  1.00  0.00     0.031 A 
BRANCH  47  61
ATOM     61  C   UNL A   1      48.904  28.937  28.152  1.00  0.00    -0.014 A 
ATOM     62  C   UNL A   1      49.560  29.262  26.953  1.00  0.00     0.009 A 
ATOM     63  C   UNL A   1      49.668  28.506  29.247  1.00  0.00     0.009 A 
ATOM     64  C   UNL A   1      50.945  29.125  26.844  1.00  0.00     0.001 A 
ATOM     65  C   UNL A   1      51.056  28.396  29.145  1.00  0.00     0.001 A 
ATOM     66  C   UNL A   1      51.692  28.697  27.941  1.00  0.00     0.000 A 
ENDBRANCH  47  61
BRANCH  48  67
ATOM     67  C   UNL A   1      39.014  29.412  29.249  1.00  0.00    -0.014 A 
ATOM     68  C   UNL A   1      38.186  29.820  28.193  1.00  0.00     0.009 A 
ATOM     69  C   UNL A   1      38.432  29.092  30.485  1.00  0.00     0.009 A 
ATOM     70  C   UNL A   1      36.806  29.934  28.378  1.00  0.00     0.001 A 
ATOM     71  C   UNL A   1      37.048  29.180  30.659  1.00  0.00     0.001 A 
ATOM     72  C   UNL A   1      36.239  29.610  29.610  1.00  0.00     0.000 A 
ENDBRANCH  48  67
BRANCH  60  73
ATOM     73  C   UNL A   1      44.194  33.902  30.425  1.00  0.00    -0.014 A 
ATOM     74  C   UNL A   1      44.043  34.993  29.557  1.00  0.00     0.009 A 
ATOM     75  C   UNL A   1      44.327  34.140  31.803  1.00  0.00     0.009 A 
ATOM     76  C   UNL A   1      44.059  36.298  30.056  1.00  0.00     0.001 A 
ATOM     77  C   UNL A   1      44.314  35.442  32.300  1.00  0.00     0.001 A 
ATOM     78  C   UNL A   1      44.189  36.521  31.426  1.00  0.00     0.000 A 
ENDBRANCH  60  73
ENDBRANCH  34  35
ENDBRANCH  26  29
ENDBRANCH  24  25
ENDBRANCH  23  24
ENDBRANCH   1  23
TORSDOF 14
ENDMDL
