MODEL 1
REMARK VINA RESULT:     -12.3      0.000      0.000
REMARK SMILES CC(=O)NS(=O)(=O)c1cc(-c2ccn(C(F)F)c(=O)c2)ccc1C(=O)NCCCCNC(=O)c1ccc(-c2c3nc(c(-c4ccccc4)c4ccc([nH]4)c(-c4ccccc4)c4nc(c(-c5ccccc5)c5ccc2[nH]5)C=C4)C=C3)cc1
REMARK SMILES IDX 28 1 27 2 26 3 24 4 25 5 23 7 8 8 9 9 10 10 22 11 21 12 5 13
REMARK SMILES IDX 6 14 7 15 4 16 1 17 2 18 3 19 11 21 12 22 20 23 13 24 18 25
REMARK SMILES IDX 14 26 19 27 15 28 16 29 17 30 29 31 30 32 31 33 32 34 33 36
REMARK SMILES IDX 34 37 35 38 81 39 36 40 80 41 37 42 38 43 39 44 74 45 40 46
REMARK SMILES IDX 79 47 73 48 75 49 41 50 78 51 72 52 71 53 42 55 64 56 49 57
REMARK SMILES IDX 63 58 50 59 53 60 62 61 76 62 51 63 52 64 61 66 77 67 54 68
REMARK SMILES IDX 43 69 44 70 48 71 45 72 47 73 46 74 65 75 66 76 70 77 67 78
REMARK SMILES IDX 69 79 68 80 55 81 56 82 60 83 57 84 59 85 58 86
REMARK H PARENT 26 6 4 20 31 35 75 54 53 65
REMARK Flexibility Score: inf
ROOT
ATOM      1  C   UNL A   1      33.724  26.468  25.425  1.00  0.00     0.023 C 
ENDROOT
BRANCH   1   2
ATOM      2  C   UNL A   1      33.151  25.118  25.869  1.00  0.00     0.116 C 
BRANCH   2   3
ATOM      3  N   UNL A   1      32.512  24.461  24.744  1.00  0.00    -0.352 N 
ATOM      4  C   UNL A   1      32.934  23.449  23.930  1.00  0.00     0.252 C 
ATOM      5  O   UNL A   1      32.213  23.073  23.007  1.00  0.00    -0.269 OA
ATOM      6  H   UNL A   1      31.617  24.807  24.529  1.00  0.00     0.163 HD
BRANCH   4   7
ATOM      7  C   UNL A   1      34.181  22.691  24.163  1.00  0.00     0.060 A 
ATOM      8  C   UNL A   1      34.394  21.783  25.203  1.00  0.00     0.101 A 
ATOM      9  C   UNL A   1      35.698  21.345  25.495  1.00  0.00     0.031 A 
ATOM     10  C   UNL A   1      36.798  21.859  24.798  1.00  0.00    -0.017 A 
ATOM     11  C   UNL A   1      35.284  23.132  23.408  1.00  0.00     0.016 A 
ATOM     12  C   UNL A   1      36.584  22.725  23.727  1.00  0.00     0.009 A 
BRANCH   8  13
ATOM     13  S   UNL A   1      33.079  21.237  26.244  1.00  0.00     0.264 S 
ATOM     14  O   UNL A   1      31.859  21.640  25.591  1.00  0.00    -0.201 OA
ATOM     15  O   UNL A   1      33.376  21.583  27.616  1.00  0.00    -0.201 OA
BRANCH  13  16
ATOM     16  N   UNL A   1      33.087  19.581  26.136  1.00  0.00    -0.249 N 
ATOM     17  C   UNL A   1      32.527  19.300  23.716  1.00  0.00     0.115 C 
ATOM     18  C   UNL A   1      33.154  18.792  24.981  1.00  0.00     0.230 C 
ATOM     19  O   UNL A   1      33.598  17.657  25.077  1.00  0.00    -0.274 OA
ATOM     20  H   UNL A   1      33.037  19.093  26.989  1.00  0.00     0.183 HD
ENDBRANCH  13  16
ENDBRANCH   8  13
BRANCH  10  21
ATOM     21  C   UNL A   1      38.152  21.637  25.342  1.00  0.00    -0.011 A 
ATOM     22  C   UNL A   1      38.819  22.661  26.127  1.00  0.00     0.027 A 
ATOM     23  C   UNL A   1      38.731  20.432  25.215  1.00  0.00     0.080 A 
ATOM     24  C   UNL A   1      39.962  22.394  26.768  1.00  0.00     0.095 A 
ATOM     25  C   UNL A   1      40.023  20.131  25.898  1.00  0.00     0.255 A 
ATOM     26  N   UNL A   1      40.551  21.148  26.676  1.00  0.00    -0.258 N 
ATOM     27  O   UNL A   1      40.510  19.013  25.755  1.00  0.00    -0.269 OA
BRANCH  26  28
ATOM     28  C   UNL A   1      41.751  20.854  27.420  1.00  0.00     0.451 C 
ATOM     29  F   UNL A   1      42.837  20.879  26.609  1.00  0.00    -0.185 F 
ATOM     30  F   UNL A   1      41.945  21.754  28.412  1.00  0.00    -0.185 F 
ENDBRANCH  26  28
ENDBRANCH  10  21
ENDBRANCH   4   7
ENDBRANCH   2   3
ENDBRANCH   1   2
BRANCH   1  31
ATOM     31  C   UNL A   1      32.716  27.619  25.432  1.00  0.00     0.023 C 
BRANCH  31  32
ATOM     32  C   UNL A   1      33.302  28.954  24.974  1.00  0.00     0.116 C 
BRANCH  32  33
ATOM     33  N   UNL A   1      32.609  30.091  25.569  1.00  0.00    -0.352 N 
ATOM     34  C   UNL A   1      32.890  30.818  26.696  1.00  0.00     0.251 C 
ATOM     35  H   UNL A   1      31.806  30.384  25.081  1.00  0.00     0.163 HD
ATOM     36  O   UNL A   1      32.057  31.601  27.143  1.00  0.00    -0.269 OA
BRANCH  34  37
ATOM     37  C   UNL A   1      34.188  30.673  27.382  1.00  0.00     0.039 A 
ATOM     38  C   UNL A   1      34.953  31.818  27.625  1.00  0.00     0.014 A 
ATOM     39  C   UNL A   1      34.679  29.411  27.728  1.00  0.00     0.014 A 
ATOM     40  C   UNL A   1      36.181  31.708  28.279  1.00  0.00     0.010 A 
ATOM     41  C   UNL A   1      35.887  29.304  28.412  1.00  0.00     0.010 A 
ATOM     42  C   UNL A   1      36.640  30.452  28.702  1.00  0.00    -0.014 A 
BRANCH  42  43
ATOM     43  C   UNL A   1      37.895  30.304  29.470  1.00  0.00     0.031 A 
ATOM     44  C   UNL A   1      39.057  29.568  28.875  1.00  0.00     0.074 A 
ATOM     45  C   UNL A   1      37.955  30.737  30.743  1.00  0.00     0.049 A 
ATOM     46  N   UNL A   1      40.109  29.075  29.476  1.00  0.00    -0.248 NA
ATOM     47  C   UNL A   1      39.013  29.326  27.426  1.00  0.00     0.031 C 
ATOM     48  C   UNL A   1      36.888  31.439  31.456  1.00  0.00     0.029 A 
ATOM     49  N   UNL A   1      38.959  30.620  31.668  1.00  0.00    -0.354 N 
ATOM     50  C   UNL A   1      40.808  28.388  28.496  1.00  0.00     0.074 A 
ATOM     51  C   UNL A   1      40.097  28.580  27.249  1.00  0.00     0.031 C 
ATOM     52  C   UNL A   1      37.295  31.693  32.710  1.00  0.00     0.029 A 
ATOM     53  C   UNL A   1      38.635  31.145  32.893  1.00  0.00     0.049 A 
ATOM     54  H   UNL A   1      39.828  30.199  31.474  1.00  0.00     0.167 HD
ATOM     55  C   UNL A   1      41.921  27.631  28.635  1.00  0.00     0.031 A 
ATOM     56  C   UNL A   1      39.331  31.161  34.043  1.00  0.00     0.031 A 
ATOM     57  C   UNL A   1      42.658  27.482  29.860  1.00  0.00     0.049 A 
ATOM     58  C   UNL A   1      40.671  30.496  34.110  1.00  0.00     0.074 A 
ATOM     59  C   UNL A   1      43.754  26.679  30.125  1.00  0.00     0.029 A 
ATOM     60  N   UNL A   1      42.393  28.195  31.017  1.00  0.00    -0.354 N 
ATOM     61  N   UNL A   1      41.263  29.753  33.208  1.00  0.00    -0.248 NA
ATOM     62  C   UNL A   1      41.435  30.671  35.352  1.00  0.00     0.031 C 
ATOM     63  C   UNL A   1      44.176  26.937  31.437  1.00  0.00     0.029 A 
ATOM     64  C   UNL A   1      43.339  27.896  31.982  1.00  0.00     0.049 A 
ATOM     65  H   UNL A   1      41.645  28.822  31.135  1.00  0.00     0.167 HD
ATOM     66  C   UNL A   1      42.456  29.345  33.785  1.00  0.00     0.074 A 
ATOM     67  C   UNL A   1      42.519  29.950  35.100  1.00  0.00     0.031 C 
ATOM     68  C   UNL A   1      43.401  28.520  33.275  1.00  0.00     0.031 A 
BRANCH  55  69
ATOM     69  C   UNL A   1      42.372  26.869  27.430  1.00  0.00    -0.014 A 
ATOM     70  C   UNL A   1      41.914  25.567  27.186  1.00  0.00     0.009 A 
ATOM     71  C   UNL A   1      43.267  27.465  26.529  1.00  0.00     0.009 A 
ATOM     72  C   UNL A   1      42.360  24.869  26.062  1.00  0.00     0.001 A 
ATOM     73  C   UNL A   1      43.708  26.765  25.405  1.00  0.00     0.001 A 
ATOM     74  C   UNL A   1      43.256  25.467  25.175  1.00  0.00     0.000 A 
ENDBRANCH  55  69
BRANCH  56  75
ATOM     75  C   UNL A   1      38.752  31.814  35.236  1.00  0.00    -0.014 A 
ATOM     76  C   UNL A   1      38.781  33.210  35.359  1.00  0.00     0.009 A 
ATOM     77  C   UNL A   1      38.152  31.045  36.243  1.00  0.00     0.009 A 
ATOM     78  C   UNL A   1      38.223  33.827  36.481  1.00  0.00     0.001 A 
ATOM     79  C   UNL A   1      37.593  31.666  37.361  1.00  0.00     0.001 A 
ATOM     80  C   UNL A   1      37.631  33.055  37.479  1.00  0.00     0.000 A 
ENDBRANCH  56  75
BRANCH  68  81
ATOM     81  C   UNL A   1      44.579  28.227  34.148  1.00  0.00    -0.014 A 
ATOM     82  C   UNL A   1      44.541  27.153  35.049  1.00  0.00     0.009 A 
ATOM     83  C   UNL A   1      45.735  29.018  34.068  1.00  0.00     0.009 A 
ATOM     84  C   UNL A   1      45.639  26.880  35.864  1.00  0.00     0.001 A 
ATOM     85  C   UNL A   1      46.830  28.744  34.887  1.00  0.00     0.001 A 
ATOM     86  C   UNL A   1      46.782  27.676  35.784  1.00  0.00     0.000 A 
ENDBRANCH  68  81
ENDBRANCH  42  43
ENDBRANCH  34  37
ENDBRANCH  32  33
ENDBRANCH  31  32
ENDBRANCH   1  31
TORSDOF 15
ENDMDL
MODEL 2
REMARK VINA RESULT:     -12.2      2.352      3.666
REMARK SMILES CC(=O)NS(=O)(=O)c1cc(-c2ccn(C(F)F)c(=O)c2)ccc1C(=O)NCCCCNC(=O)c1ccc(-c2c3nc(c(-c4ccccc4)c4ccc([nH]4)c(-c4ccccc4)c4nc(c(-c5ccccc5)c5ccc2[nH]5)C=C4)C=C3)cc1
REMARK SMILES IDX 28 1 27 2 26 3 24 4 25 5 23 7 8 8 9 9 10 10 22 11 21 12 5 13
REMARK SMILES IDX 6 14 7 15 4 16 1 17 2 18 3 19 11 21 12 22 20 23 13 24 18 25
REMARK SMILES IDX 14 26 19 27 15 28 16 29 17 30 29 31 30 32 31 33 32 34 33 36
REMARK SMILES IDX 34 37 35 38 81 39 36 40 80 41 37 42 38 43 39 44 74 45 40 46
REMARK SMILES IDX 79 47 73 48 75 49 41 50 78 51 72 52 71 53 42 55 64 56 49 57
REMARK SMILES IDX 63 58 50 59 53 60 62 61 76 62 51 63 52 64 61 66 77 67 54 68
REMARK SMILES IDX 43 69 44 70 48 71 45 72 47 73 46 74 65 75 66 76 70 77 67 78
REMARK SMILES IDX 69 79 68 80 55 81 56 82 60 83 57 84 59 85 58 86
REMARK H PARENT 26 6 4 20 31 35 75 54 53 65
REMARK Flexibility Score: inf
ROOT
ATOM      1  C   UNL A   1      31.565  27.386  24.509  1.00  0.00     0.023 C 
ENDROOT
BRANCH   1   2
ATOM      2  C   UNL A   1      31.154  26.074  23.836  1.00  0.00     0.116 C 
BRANCH   2   3
ATOM      3  N   UNL A   1      32.065  25.772  22.748  1.00  0.00    -0.352 N 
ATOM      4  C   UNL A   1      32.769  24.642  22.445  1.00  0.00     0.252 C 
ATOM      5  O   UNL A   1      33.514  24.635  21.467  1.00  0.00    -0.269 OA
ATOM      6  H   UNL A   1      32.200  26.514  22.117  1.00  0.00     0.163 HD
BRANCH   4   7
ATOM      7  C   UNL A   1      32.604  23.368  23.175  1.00  0.00     0.060 A 
ATOM      8  C   UNL A   1      33.247  23.030  24.370  1.00  0.00     0.101 A 
ATOM      9  C   UNL A   1      33.241  21.696  24.815  1.00  0.00     0.031 A 
ATOM     10  C   UNL A   1      32.655  20.686  24.043  1.00  0.00    -0.017 A 
ATOM     11  C   UNL A   1      31.939  22.360  22.452  1.00  0.00     0.016 A 
ATOM     12  C   UNL A   1      31.970  21.027  22.878  1.00  0.00     0.009 A 
BRANCH   8  13
ATOM     13  S   UNL A   1      34.165  24.215  25.299  1.00  0.00     0.264 S 
ATOM     14  O   UNL A   1      33.382  24.491  26.477  1.00  0.00    -0.201 OA
ATOM     15  O   UNL A   1      34.634  25.259  24.417  1.00  0.00    -0.201 OA
BRANCH  13  16
ATOM     16  N   UNL A   1      35.498  23.402  25.860  1.00  0.00    -0.249 N 
ATOM     17  C   UNL A   1      36.676  22.952  23.701  1.00  0.00     0.115 C 
ATOM     18  C   UNL A   1      36.701  23.149  25.189  1.00  0.00     0.230 C 
ATOM     19  O   UNL A   1      37.709  22.959  25.854  1.00  0.00    -0.274 OA
ATOM     20  H   UNL A   1      35.435  23.054  26.779  1.00  0.00     0.183 HD
ENDBRANCH  13  16
ENDBRANCH   8  13
BRANCH  10  21
ATOM     21  C   UNL A   1      32.954  19.278  24.369  1.00  0.00    -0.011 A 
ATOM     22  C   UNL A   1      32.585  18.714  25.656  1.00  0.00     0.027 A 
ATOM     23  C   UNL A   1      33.464  18.471  23.425  1.00  0.00     0.080 A 
ATOM     24  C   UNL A   1      32.691  17.400  25.881  1.00  0.00     0.095 A 
ATOM     25  C   UNL A   1      33.619  17.007  23.674  1.00  0.00     0.255 A 
ATOM     26  N   UNL A   1      33.181  16.551  24.907  1.00  0.00    -0.258 N 
ATOM     27  O   UNL A   1      34.086  16.310  22.779  1.00  0.00    -0.269 OA
BRANCH  26  28
ATOM     28  C   UNL A   1      33.235  15.130  25.142  1.00  0.00     0.451 C 
ATOM     29  F   UNL A   1      34.502  14.734  25.412  1.00  0.00    -0.185 F 
ATOM     30  F   UNL A   1      32.450  14.775  26.186  1.00  0.00    -0.185 F 
ENDBRANCH  26  28
ENDBRANCH  10  21
ENDBRANCH   4   7
ENDBRANCH   2   3
ENDBRANCH   1   2
BRANCH   1  31
ATOM     31  C   UNL A   1      32.721  28.118  23.823  1.00  0.00     0.023 C 
BRANCH  31  32
ATOM     32  C   UNL A   1      33.517  29.027  24.759  1.00  0.00     0.116 C 
BRANCH  32  33
ATOM     33  N   UNL A   1      32.688  30.077  25.339  1.00  0.00    -0.352 N 
ATOM     34  C   UNL A   1      32.809  30.762  26.519  1.00  0.00     0.251 C 
ATOM     35  H   UNL A   1      31.912  30.337  24.791  1.00  0.00     0.163 HD
ATOM     36  O   UNL A   1      31.882  31.458  26.922  1.00  0.00    -0.269 OA
BRANCH  34  37
ATOM     37  C   UNL A   1      34.048  30.673  27.317  1.00  0.00     0.039 A 
ATOM     38  C   UNL A   1      34.456  29.422  27.790  1.00  0.00     0.014 A 
ATOM     39  C   UNL A   1      34.770  31.822  27.649  1.00  0.00     0.014 A 
ATOM     40  C   UNL A   1      35.627  29.311  28.540  1.00  0.00     0.010 A 
ATOM     41  C   UNL A   1      35.958  31.707  28.366  1.00  0.00     0.010 A 
ATOM     42  C   UNL A   1      36.401  30.450  28.806  1.00  0.00    -0.014 A 
BRANCH  42  43
ATOM     43  C   UNL A   1      37.689  30.361  29.526  1.00  0.00     0.031 A 
ATOM     44  C   UNL A   1      38.859  29.676  28.888  1.00  0.00     0.074 A 
ATOM     45  C   UNL A   1      37.778  30.800  30.794  1.00  0.00     0.049 A 
ATOM     46  N   UNL A   1      39.954  29.232  29.449  1.00  0.00    -0.248 NA
ATOM     47  C   UNL A   1      38.771  29.427  27.442  1.00  0.00     0.031 C 
ATOM     48  C   UNL A   1      36.709  31.456  31.547  1.00  0.00     0.029 A 
ATOM     49  N   UNL A   1      38.821  30.731  31.681  1.00  0.00    -0.354 N 
ATOM     50  C   UNL A   1      40.646  28.574  28.444  1.00  0.00     0.074 A 
ATOM     51  C   UNL A   1      39.879  28.730  27.225  1.00  0.00     0.031 C 
ATOM     52  C   UNL A   1      37.152  31.732  32.784  1.00  0.00     0.029 A 
ATOM     53  C   UNL A   1      38.521  31.245  32.917  1.00  0.00     0.049 A 
ATOM     54  H   UNL A   1      39.700  30.349  31.454  1.00  0.00     0.167 HD
ATOM     55  C   UNL A   1      41.796  27.868  28.541  1.00  0.00     0.031 A 
ATOM     56  C   UNL A   1      39.258  31.295  34.039  1.00  0.00     0.031 A 
ATOM     57  C   UNL A   1      42.585  27.756  29.738  1.00  0.00     0.049 A 
ATOM     58  C   UNL A   1      40.629  30.692  34.055  1.00  0.00     0.074 A 
ATOM     59  C   UNL A   1      43.725  27.004  29.961  1.00  0.00     0.029 A 
ATOM     60  N   UNL A   1      42.333  28.460  30.903  1.00  0.00    -0.354 N 
ATOM     61  N   UNL A   1      41.218  29.973  33.133  1.00  0.00    -0.248 NA
ATOM     62  C   UNL A   1      41.431  30.904  35.268  1.00  0.00     0.031 C 
ATOM     63  C   UNL A   1      44.185  27.284  31.256  1.00  0.00     0.029 A 
ATOM     64  C   UNL A   1      43.327  28.206  31.831  1.00  0.00     0.049 A 
ATOM     65  H   UNL A   1      41.562  29.053  31.048  1.00  0.00     0.167 HD
ATOM     66  C   UNL A   1      42.450  29.620  33.664  1.00  0.00     0.074 A 
ATOM     67  C   UNL A   1      42.536  30.231  34.975  1.00  0.00     0.031 C 
ATOM     68  C   UNL A   1      43.411  28.837  33.120  1.00  0.00     0.031 A 
BRANCH  55  69
ATOM     69  C   UNL A   1      42.234  27.123  27.321  1.00  0.00    -0.014 A 
ATOM     70  C   UNL A   1      41.801  25.812  27.081  1.00  0.00     0.009 A 
ATOM     71  C   UNL A   1      43.092  27.745  26.400  1.00  0.00     0.009 A 
ATOM     72  C   UNL A   1      42.235  25.130  25.943  1.00  0.00     0.001 A 
ATOM     73  C   UNL A   1      43.520  27.061  25.262  1.00  0.00     0.001 A 
ATOM     74  C   UNL A   1      43.094  25.754  25.036  1.00  0.00     0.000 A 
ENDBRANCH  55  69
BRANCH  56  75
ATOM     75  C   UNL A   1      38.697  31.926  35.253  1.00  0.00    -0.014 A 
ATOM     76  C   UNL A   1      38.658  33.322  35.368  1.00  0.00     0.009 A 
ATOM     77  C   UNL A   1      38.181  31.134  36.287  1.00  0.00     0.009 A 
ATOM     78  C   UNL A   1      38.116  33.917  36.509  1.00  0.00     0.001 A 
ATOM     79  C   UNL A   1      37.638  31.732  37.425  1.00  0.00     0.001 A 
ATOM     80  C   UNL A   1      37.607  33.122  37.535  1.00  0.00     0.000 A 
ENDBRANCH  56  75
BRANCH  68  81
ATOM     81  C   UNL A   1      44.633  28.599  33.948  1.00  0.00    -0.014 A 
ATOM     82  C   UNL A   1      45.720  29.483  33.873  1.00  0.00     0.009 A 
ATOM     83  C   UNL A   1      44.701  27.495  34.810  1.00  0.00     0.009 A 
ATOM     84  C   UNL A   1      46.861  29.260  34.644  1.00  0.00     0.001 A 
ATOM     85  C   UNL A   1      45.845  27.274  35.577  1.00  0.00     0.001 A 
ATOM     86  C   UNL A   1      46.923  28.155  35.493  1.00  0.00     0.000 A 
ENDBRANCH  68  81
ENDBRANCH  42  43
ENDBRANCH  34  37
ENDBRANCH  32  33
ENDBRANCH  31  32
ENDBRANCH   1  31
TORSDOF 15
ENDMDL
MODEL 3
REMARK VINA RESULT:     -12.2      3.972      9.348
REMARK SMILES CC(=O)NS(=O)(=O)c1cc(-c2ccn(C(F)F)c(=O)c2)ccc1C(=O)NCCCCNC(=O)c1ccc(-c2c3nc(c(-c4ccccc4)c4ccc([nH]4)c(-c4ccccc4)c4nc(c(-c5ccccc5)c5ccc2[nH]5)C=C4)C=C3)cc1
REMARK SMILES IDX 28 1 27 2 26 3 24 4 25 5 23 7 8 8 9 9 10 10 22 11 21 12 5 13
REMARK SMILES IDX 6 14 7 15 4 16 1 17 2 18 3 19 11 21 12 22 20 23 13 24 18 25
REMARK SMILES IDX 14 26 19 27 15 28 16 29 17 30 29 31 30 32 31 33 32 34 33 36
REMARK SMILES IDX 34 37 35 38 81 39 36 40 80 41 37 42 38 43 39 44 74 45 40 46
REMARK SMILES IDX 79 47 73 48 75 49 41 50 78 51 72 52 71 53 42 55 64 56 49 57
REMARK SMILES IDX 63 58 50 59 53 60 62 61 76 62 51 63 52 64 61 66 77 67 54 68
REMARK SMILES IDX 43 69 44 70 48 71 45 72 47 73 46 74 65 75 66 76 70 77 67 78
REMARK SMILES IDX 69 79 68 80 55 81 56 82 60 83 57 84 59 85 58 86
REMARK H PARENT 26 6 4 20 31 35 75 54 53 65
REMARK Flexibility Score: inf
ROOT
ATOM      1  C   UNL A   1      33.605  23.290  24.746  1.00  0.00     0.023 C 
ENDROOT
BRANCH   1   2
ATOM      2  C   UNL A   1      32.965  24.647  25.054  1.00  0.00     0.116 C 
BRANCH   2   3
ATOM      3  N   UNL A   1      31.680  24.748  24.388  1.00  0.00    -0.352 N 
ATOM      4  C   UNL A   1      30.735  25.734  24.389  1.00  0.00     0.252 C 
ATOM      5  O   UNL A   1      29.693  25.576  23.757  1.00  0.00    -0.269 OA
ATOM      6  H   UNL A   1      31.448  23.966  23.838  1.00  0.00     0.163 HD
BRANCH   4   7
ATOM      7  C   UNL A   1      30.942  27.049  25.030  1.00  0.00     0.060 A 
ATOM      8  C   UNL A   1      31.142  28.257  24.354  1.00  0.00     0.101 A 
ATOM      9  C   UNL A   1      31.613  29.381  25.054  1.00  0.00     0.031 A 
ATOM     10  C   UNL A   1      31.948  29.292  26.410  1.00  0.00    -0.017 A 
ATOM     11  C   UNL A   1      31.195  26.994  26.414  1.00  0.00     0.016 A 
ATOM     12  C   UNL A   1      31.701  28.105  27.098  1.00  0.00     0.009 A 
BRANCH   8  13
ATOM     13  S   UNL A   1      30.920  28.393  22.610  1.00  0.00     0.264 S 
ATOM     14  O   UNL A   1      31.529  29.642  22.227  1.00  0.00    -0.201 OA
ATOM     15  O   UNL A   1      29.556  28.058  22.270  1.00  0.00    -0.201 OA
BRANCH  13  16
ATOM     16  N   UNL A   1      31.898  27.228  21.946  1.00  0.00    -0.249 N 
ATOM     17  C   UNL A   1      34.134  28.295  22.277  1.00  0.00     0.115 C 
ATOM     18  C   UNL A   1      33.281  27.073  22.097  1.00  0.00     0.230 C 
ATOM     19  O   UNL A   1      33.763  25.961  21.939  1.00  0.00    -0.274 OA
ATOM     20  H   UNL A   1      31.450  26.564  21.375  1.00  0.00     0.183 HD
ENDBRANCH  13  16
ENDBRANCH   8  13
BRANCH  10  21
ATOM     21  C   UNL A   1      32.739  30.378  27.021  1.00  0.00    -0.011 A 
ATOM     22  C   UNL A   1      34.145  30.192  27.336  1.00  0.00     0.027 A 
ATOM     23  C   UNL A   1      32.191  31.593  27.179  1.00  0.00     0.080 A 
ATOM     24  C   UNL A   1      34.901  31.226  27.718  1.00  0.00     0.095 A 
ATOM     25  C   UNL A   1      33.016  32.750  27.636  1.00  0.00     0.255 A 
ATOM     26  N   UNL A   1      34.360  32.490  27.851  1.00  0.00    -0.258 N 
ATOM     27  O   UNL A   1      32.470  33.841  27.761  1.00  0.00    -0.269 OA
BRANCH  26  28
ATOM     28  C   UNL A   1      35.199  33.607  28.206  1.00  0.00     0.451 C 
ATOM     29  F   UNL A   1      35.018  33.952  29.504  1.00  0.00    -0.185 F 
ATOM     30  F   UNL A   1      36.508  33.314  28.026  1.00  0.00    -0.185 F 
ENDBRANCH  26  28
ENDBRANCH  10  21
ENDBRANCH   4   7
ENDBRANCH   2   3
ENDBRANCH   1   2
BRANCH   1  31
ATOM     31  C   UNL A   1      35.134  23.280  24.810  1.00  0.00     0.023 C 
BRANCH  31  32
ATOM     32  C   UNL A   1      35.693  22.647  26.083  1.00  0.00     0.116 C 
BRANCH  32  33
ATOM     33  N   UNL A   1      36.611  21.552  25.793  1.00  0.00    -0.352 N 
ATOM     34  C   UNL A   1      37.980  21.520  25.753  1.00  0.00     0.251 C 
ATOM     35  H   UNL A   1      36.175  20.692  25.592  1.00  0.00     0.163 HD
ATOM     36  O   UNL A   1      38.558  20.548  25.276  1.00  0.00    -0.269 OA
BRANCH  34  37
ATOM     37  C   UNL A   1      38.775  22.647  26.281  1.00  0.00     0.039 A 
ATOM     38  C   UNL A   1      39.888  22.369  27.079  1.00  0.00     0.014 A 
ATOM     39  C   UNL A   1      38.391  23.969  26.041  1.00  0.00     0.014 A 
ATOM     40  C   UNL A   1      40.660  23.416  27.584  1.00  0.00     0.010 A 
ATOM     41  C   UNL A   1      39.181  25.013  26.515  1.00  0.00     0.010 A 
ATOM     42  C   UNL A   1      40.327  24.744  27.279  1.00  0.00    -0.014 A 
BRANCH  42  43
ATOM     43  C   UNL A   1      41.167  25.876  27.725  1.00  0.00     0.031 A 
ATOM     44  C   UNL A   1      40.605  26.904  28.660  1.00  0.00     0.074 A 
ATOM     45  C   UNL A   1      42.397  26.041  27.207  1.00  0.00     0.049 A 
ATOM     46  N   UNL A   1      41.056  28.103  28.926  1.00  0.00    -0.248 NA
ATOM     47  C   UNL A   1      39.361  26.552  29.358  1.00  0.00     0.031 C 
ATOM     48  C   UNL A   1      43.053  25.136  26.264  1.00  0.00     0.029 A 
ATOM     49  N   UNL A   1      43.303  27.053  27.389  1.00  0.00    -0.354 N 
ATOM     50  C   UNL A   1      40.105  28.683  29.752  1.00  0.00     0.074 A 
ATOM     51  C   UNL A   1      39.085  27.683  29.996  1.00  0.00     0.031 C 
ATOM     52  C   UNL A   1      44.261  25.633  25.950  1.00  0.00     0.029 A 
ATOM     53  C   UNL A   1      44.446  26.902  26.645  1.00  0.00     0.049 A 
ATOM     54  H   UNL A   1      43.149  27.815  27.994  1.00  0.00     0.167 HD
ATOM     55  C   UNL A   1      40.069  29.948  30.229  1.00  0.00     0.031 A 
ATOM     56  C   UNL A   1      45.512  27.709  26.519  1.00  0.00     0.031 A 
ATOM     57  C   UNL A   1      41.105  30.924  30.032  1.00  0.00     0.049 A 
ATOM     58  C   UNL A   1      45.541  29.022  27.239  1.00  0.00     0.074 A 
ATOM     59  C   UNL A   1      41.130  32.255  30.409  1.00  0.00     0.029 A 
ATOM     60  N   UNL A   1      42.326  30.651  29.438  1.00  0.00    -0.354 N 
ATOM     61  N   UNL A   1      44.586  29.603  27.921  1.00  0.00    -0.248 NA
ATOM     62  C   UNL A   1      46.792  29.788  27.169  1.00  0.00     0.031 C 
ATOM     63  C   UNL A   1      42.388  32.779  30.075  1.00  0.00     0.029 A 
ATOM     64  C   UNL A   1      43.136  31.772  29.489  1.00  0.00     0.049 A 
ATOM     65  H   UNL A   1      42.580  29.788  29.041  1.00  0.00     0.167 HD
ATOM     66  C   UNL A   1      45.109  30.818  28.336  1.00  0.00     0.074 A 
ATOM     67  C   UNL A   1      46.475  30.877  27.858  1.00  0.00     0.031 C 
ATOM     68  C   UNL A   1      44.498  31.807  29.030  1.00  0.00     0.031 A 
BRANCH  55  69
ATOM     69  C   UNL A   1      38.834  30.352  30.970  1.00  0.00    -0.014 A 
ATOM     70  C   UNL A   1      38.746  30.200  32.361  1.00  0.00     0.009 A 
ATOM     71  C   UNL A   1      37.747  30.890  30.265  1.00  0.00     0.009 A 
ATOM     72  C   UNL A   1      37.577  30.568  33.031  1.00  0.00     0.001 A 
ATOM     73  C   UNL A   1      36.583  31.260  30.939  1.00  0.00     0.001 A 
ATOM     74  C   UNL A   1      36.498  31.096  32.320  1.00  0.00     0.000 A 
ENDBRANCH  55  69
BRANCH  56  75
ATOM     75  C   UNL A   1      46.637  27.301  25.651  1.00  0.00    -0.014 A 
ATOM     76  C   UNL A   1      46.745  27.813  24.350  1.00  0.00     0.009 A 
ATOM     77  C   UNL A   1      47.615  26.418  26.128  1.00  0.00     0.009 A 
ATOM     78  C   UNL A   1      47.815  27.437  23.535  1.00  0.00     0.001 A 
ATOM     79  C   UNL A   1      48.684  26.046  25.311  1.00  0.00     0.001 A 
ATOM     80  C   UNL A   1      48.782  26.555  24.016  1.00  0.00     0.000 A 
ENDBRANCH  56  75
BRANCH  68  81
ATOM     81  C   UNL A   1      45.307  33.034  29.308  1.00  0.00    -0.014 A 
ATOM     82  C   UNL A   1      46.042  33.141  30.497  1.00  0.00     0.009 A 
ATOM     83  C   UNL A   1      45.344  34.083  28.378  1.00  0.00     0.009 A 
ATOM     84  C   UNL A   1      46.796  34.285  30.757  1.00  0.00     0.001 A 
ATOM     85  C   UNL A   1      46.097  35.228  28.643  1.00  0.00     0.001 A 
ATOM     86  C   UNL A   1      46.821  35.328  29.831  1.00  0.00     0.000 A 
ENDBRANCH  68  81
ENDBRANCH  42  43
ENDBRANCH  34  37
ENDBRANCH  32  33
ENDBRANCH  31  32
ENDBRANCH   1  31
TORSDOF 15
ENDMDL
