MODEL 1
REMARK VINA RESULT:     -11.2      0.000      0.000
REMARK SMILES CN(C)Nc1ncnc(Nc2ccc(C(=O)NCCCCNC(=O)c3ccc(-c4c5nc(c(-c6ccccc6)c6ccc([nH]6)c(-c6ccccc6)c6nc(c(-c7ccccc7)c7ccc4[nH]7)C=C6)C=C5)cc3)cc2)c1[N+](=O)[O-]
REMARK SMILES IDX 18 1 17 2 15 3 16 4 14 6 11 7 12 8 74 9 13 10 73 11 10 12
REMARK SMILES IDX 9 14 5 15 6 16 75 17 7 18 8 19 4 20 2 22 1 23 3 24 76 25
REMARK SMILES IDX 77 26 78 27 19 28 20 29 21 30 22 31 23 32 24 34 25 35 26 36
REMARK SMILES IDX 72 37 27 38 71 39 28 40 29 41 30 42 65 43 31 44 70 45 64 46
REMARK SMILES IDX 66 47 32 48 69 49 63 50 62 51 33 53 55 54 40 55 54 56 41 57
REMARK SMILES IDX 44 58 53 59 67 60 42 61 43 62 52 64 68 65 45 66 34 67 35 68
REMARK SMILES IDX 39 69 36 70 38 71 37 72 56 73 57 74 61 75 58 76 60 77 59 78
REMARK SMILES IDX 46 79 47 80 51 81 48 82 50 83 49 84
REMARK H PARENT 17 5 10 13 4 21 22 33 66 52 44 63
REMARK Flexibility Score: inf
ROOT
ATOM      1  C   UNL A   1      31.033  30.050  25.018  1.00  0.00     0.116 C 
ENDROOT
BRANCH   1   2
ATOM      2  N   UNL A   1      30.567  30.192  23.651  1.00  0.00    -0.352 N 
ATOM      3  C   UNL A   1      30.260  29.267  22.684  1.00  0.00     0.251 C 
ATOM      4  O   UNL A   1      29.848  29.685  21.602  1.00  0.00    -0.269 OA
ATOM      5  H   UNL A   1      30.448  31.126  23.365  1.00  0.00     0.163 HD
BRANCH   3   6
ATOM      6  C   UNL A   1      30.342  27.798  22.909  1.00  0.00     0.039 A 
ATOM      7  C   UNL A   1      30.438  25.064  23.591  1.00  0.00     0.040 A 
ATOM      8  C   UNL A   1      29.328  25.831  23.935  1.00  0.00     0.027 A 
ATOM      9  C   UNL A   1      31.433  25.639  22.790  1.00  0.00     0.027 A 
ATOM     10  C   UNL A   1      29.290  27.194  23.616  1.00  0.00     0.016 A 
ATOM     11  C   UNL A   1      31.378  26.991  22.439  1.00  0.00     0.016 A 
BRANCH   7  12
ATOM     12  N   UNL A   1      30.514  23.708  23.966  1.00  0.00    -0.334 N 
ATOM     13  H   UNL A   1      29.782  23.107  23.697  1.00  0.00     0.168 HD
BRANCH  12  14
ATOM     14  C   UNL A   1      31.585  23.166  24.708  1.00  0.00     0.215 A 
ATOM     15  C   UNL A   1      33.701  22.117  24.947  1.00  0.00     0.225 A 
ATOM     16  N   UNL A   1      33.615  22.221  26.290  1.00  0.00    -0.212 NA
ATOM     17  C   UNL A   1      32.651  22.494  24.134  1.00  0.00     0.354 A 
ATOM     18  C   UNL A   1      32.519  22.797  26.783  1.00  0.00     0.227 A 
ATOM     19  N   UNL A   1      31.525  23.306  26.053  1.00  0.00    -0.212 NA
BRANCH  15  20
ATOM     20  N   UNL A   1      34.983  21.742  24.530  1.00  0.00    -0.298 N 
ATOM     21  H   UNL A   1      35.093  20.851  24.127  1.00  0.00     0.184 HD
BRANCH  20  22
ATOM     22  N   UNL A   1      36.135  22.563  24.647  1.00  0.00    -0.228 NA
ATOM     23  C   UNL A   1      37.230  21.859  25.341  1.00  0.00     0.130 C 
ATOM     24  C   UNL A   1      36.589  22.867  23.276  1.00  0.00     0.130 C 
ENDBRANCH  20  22
ENDBRANCH  15  20
BRANCH  17  25
ATOM     25  N   UNL A   1      32.649  22.190  22.735  1.00  0.00     0.070 N 
ATOM     26  O   UNL A   1      33.356  22.904  22.005  1.00  0.00    -0.258 OA
ATOM     27  O   UNL A   1      31.862  21.323  22.336  1.00  0.00    -0.258 OA
ENDBRANCH  17  25
ENDBRANCH  12  14
ENDBRANCH   7  12
ENDBRANCH   3   6
ENDBRANCH   1   2
BRANCH   1  28
ATOM     28  C   UNL A   1      32.470  29.523  25.047  1.00  0.00     0.023 C 
BRANCH  28  29
ATOM     29  C   UNL A   1      32.694  28.360  26.018  1.00  0.00     0.023 C 
BRANCH  29  30
ATOM     30  C   UNL A   1      33.649  28.664  27.167  1.00  0.00     0.116 C 
BRANCH  30  31
ATOM     31  N   UNL A   1      33.638  30.063  27.567  1.00  0.00    -0.352 N 
ATOM     32  C   UNL A   1      34.652  30.784  28.158  1.00  0.00     0.251 C 
ATOM     33  H   UNL A   1      32.804  30.556  27.393  1.00  0.00     0.163 HD
ATOM     34  O   UNL A   1      34.475  31.932  28.530  1.00  0.00    -0.269 OA
BRANCH  32  35
ATOM     35  C   UNL A   1      35.955  30.118  28.371  1.00  0.00     0.039 A 
ATOM     36  C   UNL A   1      36.902  30.144  27.345  1.00  0.00     0.014 A 
ATOM     37  C   UNL A   1      36.253  29.530  29.602  1.00  0.00     0.014 A 
ATOM     38  C   UNL A   1      38.183  29.640  27.579  1.00  0.00     0.010 A 
ATOM     39  C   UNL A   1      37.545  29.083  29.852  1.00  0.00     0.010 A 
ATOM     40  C   UNL A   1      38.524  29.141  28.846  1.00  0.00    -0.014 A 
BRANCH  40  41
ATOM     41  C   UNL A   1      39.896  28.672  29.159  1.00  0.00     0.031 A 
ATOM     42  C   UNL A   1      40.887  29.625  29.766  1.00  0.00     0.074 A 
ATOM     43  C   UNL A   1      40.279  27.430  28.800  1.00  0.00     0.049 A 
ATOM     44  N   UNL A   1      42.169  29.465  29.966  1.00  0.00    -0.248 NA
ATOM     45  C   UNL A   1      40.373  30.944  30.171  1.00  0.00     0.031 C 
ATOM     46  C   UNL A   1      39.424  26.423  28.171  1.00  0.00     0.029 A 
ATOM     47  N   UNL A   1      41.503  26.816  28.892  1.00  0.00    -0.354 N 
ATOM     48  C   UNL A   1      42.622  30.671  30.483  1.00  0.00     0.074 A 
ATOM     49  C   UNL A   1      41.484  31.563  30.543  1.00  0.00     0.031 C 
ATOM     50  C   UNL A   1      40.147  25.316  27.936  1.00  0.00     0.029 A 
ATOM     51  C   UNL A   1      41.524  25.549  28.359  1.00  0.00     0.049 A 
ATOM     52  H   UNL A   1      42.291  27.241  29.302  1.00  0.00     0.167 HD
ATOM     53  C   UNL A   1      43.872  31.004  30.879  1.00  0.00     0.031 A 
ATOM     54  C   UNL A   1      42.544  24.682  28.209  1.00  0.00     0.031 A 
ATOM     55  C   UNL A   1      44.994  30.106  30.857  1.00  0.00     0.049 A 
ATOM     56  C   UNL A   1      43.918  25.072  28.678  1.00  0.00     0.074 A 
ATOM     57  C   UNL A   1      46.282  30.329  31.311  1.00  0.00     0.029 A 
ATOM     58  N   UNL A   1      44.959  28.814  30.358  1.00  0.00    -0.354 N 
ATOM     59  N   UNL A   1      44.314  26.194  29.227  1.00  0.00    -0.248 NA
ATOM     60  C   UNL A   1      44.984  24.072  28.513  1.00  0.00     0.031 C 
ATOM     61  C   UNL A   1      47.039  29.182  31.054  1.00  0.00     0.029 A 
ATOM     62  C   UNL A   1      46.209  28.233  30.479  1.00  0.00     0.049 A 
ATOM     63  H   UNL A   1      44.165  28.377  29.977  1.00  0.00     0.167 HD
ATOM     64  C   UNL A   1      45.666  26.023  29.502  1.00  0.00     0.074 A 
ATOM     65  C   UNL A   1      46.018  24.688  29.069  1.00  0.00     0.031 C 
ATOM     66  C   UNL A   1      46.536  26.895  30.064  1.00  0.00     0.031 A 
BRANCH  53  67
ATOM     67  C   UNL A   1      44.099  32.404  31.371  1.00  0.00    -0.014 A 
ATOM     68  C   UNL A   1      43.975  32.725  32.732  1.00  0.00     0.009 A 
ATOM     69  C   UNL A   1      44.501  33.401  30.469  1.00  0.00     0.009 A 
ATOM     70  C   UNL A   1      44.225  34.025  33.175  1.00  0.00     0.001 A 
ATOM     71  C   UNL A   1      44.774  34.694  30.919  1.00  0.00     0.001 A 
ATOM     72  C   UNL A   1      44.630  35.006  32.269  1.00  0.00     0.000 A 
ENDBRANCH  53  67
BRANCH  54  73
ATOM     73  C   UNL A   1      42.314  23.354  27.582  1.00  0.00    -0.014 A 
ATOM     74  C   UNL A   1      42.616  23.144  26.227  1.00  0.00     0.009 A 
ATOM     75  C   UNL A   1      41.761  22.300  28.326  1.00  0.00     0.009 A 
ATOM     76  C   UNL A   1      42.335  21.918  25.622  1.00  0.00     0.001 A 
ATOM     77  C   UNL A   1      41.508  21.065  27.724  1.00  0.00     0.001 A 
ATOM     78  C   UNL A   1      41.784  20.879  26.370  1.00  0.00     0.000 A 
ENDBRANCH  54  73
BRANCH  66  79
ATOM     79  C   UNL A   1      47.940  26.420  30.294  1.00  0.00    -0.014 A 
ATOM     80  C   UNL A   1      48.318  25.828  31.507  1.00  0.00     0.009 A 
ATOM     81  C   UNL A   1      48.879  26.513  29.255  1.00  0.00     0.009 A 
ATOM     82  C   UNL A   1      49.620  25.355  31.682  1.00  0.00     0.001 A 
ATOM     83  C   UNL A   1      50.172  26.017  29.425  1.00  0.00     0.001 A 
ATOM     84  C   UNL A   1      50.543  25.443  30.640  1.00  0.00     0.000 A 
ENDBRANCH  66  79
ENDBRANCH  40  41
ENDBRANCH  32  35
ENDBRANCH  30  31
ENDBRANCH  29  30
ENDBRANCH  28  29
ENDBRANCH   1  28
TORSDOF 16
ENDMDL
MODEL 2
REMARK VINA RESULT:     -10.9      1.907      7.608
REMARK SMILES CN(C)Nc1ncnc(Nc2ccc(C(=O)NCCCCNC(=O)c3ccc(-c4c5nc(c(-c6ccccc6)c6ccc([nH]6)c(-c6ccccc6)c6nc(c(-c7ccccc7)c7ccc4[nH]7)C=C6)C=C5)cc3)cc2)c1[N+](=O)[O-]
REMARK SMILES IDX 18 1 17 2 15 3 16 4 14 6 11 7 12 8 74 9 13 10 73 11 10 12
REMARK SMILES IDX 9 14 5 15 6 16 75 17 7 18 8 19 4 20 2 22 1 23 3 24 76 25
REMARK SMILES IDX 77 26 78 27 19 28 20 29 21 30 22 31 23 32 24 34 25 35 26 36
REMARK SMILES IDX 72 37 27 38 71 39 28 40 29 41 30 42 65 43 31 44 70 45 64 46
REMARK SMILES IDX 66 47 32 48 69 49 63 50 62 51 33 53 55 54 40 55 54 56 41 57
REMARK SMILES IDX 44 58 53 59 67 60 42 61 43 62 52 64 68 65 45 66 34 67 35 68
REMARK SMILES IDX 39 69 36 70 38 71 37 72 56 73 57 74 61 75 58 76 60 77 59 78
REMARK SMILES IDX 46 79 47 80 51 81 48 82 50 83 49 84
REMARK H PARENT 17 5 10 13 4 21 22 33 66 52 44 63
REMARK Flexibility Score: inf
ROOT
ATOM      1  C   UNL A   1      35.331  20.898  25.635  1.00  0.00     0.116 C 
ENDROOT
BRANCH   1   2
ATOM      2  N   UNL A   1      34.074  20.200  25.440  1.00  0.00    -0.352 N 
ATOM      3  C   UNL A   1      32.909  20.564  24.813  1.00  0.00     0.251 C 
ATOM      4  O   UNL A   1      31.997  19.738  24.773  1.00  0.00    -0.269 OA
ATOM      5  H   UNL A   1      34.054  19.296  25.829  1.00  0.00     0.163 HD
BRANCH   3   6
ATOM      6  C   UNL A   1      32.727  21.877  24.133  1.00  0.00     0.039 A 
ATOM      7  C   UNL A   1      32.132  24.286  22.797  1.00  0.00     0.040 A 
ATOM      8  C   UNL A   1      31.306  23.834  23.824  1.00  0.00     0.027 A 
ATOM      9  C   UNL A   1      33.323  23.598  22.538  1.00  0.00     0.027 A 
ATOM     10  C   UNL A   1      31.589  22.626  24.472  1.00  0.00     0.016 A 
ATOM     11  C   UNL A   1      33.626  22.411  23.212  1.00  0.00     0.016 A 
BRANCH   7  12
ATOM     12  N   UNL A   1      31.817  25.466  22.095  1.00  0.00    -0.334 N 
ATOM     13  H   UNL A   1      31.178  25.409  21.349  1.00  0.00     0.168 HD
BRANCH  12  14
ATOM     14  C   UNL A   1      32.371  26.727  22.406  1.00  0.00     0.215 A 
ATOM     15  C   UNL A   1      32.475  28.777  23.598  1.00  0.00     0.225 A 
ATOM     16  N   UNL A   1      33.607  29.114  22.945  1.00  0.00    -0.212 NA
ATOM     17  C   UNL A   1      31.780  27.629  23.275  1.00  0.00     0.354 A 
ATOM     18  C   UNL A   1      34.074  28.239  22.054  1.00  0.00     0.227 A 
ATOM     19  N   UNL A   1      33.530  27.052  21.786  1.00  0.00    -0.212 NA
BRANCH  15  20
ATOM     20  N   UNL A   1      32.219  29.627  24.679  1.00  0.00    -0.298 N 
ATOM     21  H   UNL A   1      31.365  30.116  24.687  1.00  0.00     0.184 HD
BRANCH  20  22
ATOM     22  N   UNL A   1      33.108  29.831  25.767  1.00  0.00    -0.228 NA
ATOM     23  C   UNL A   1      32.521  30.725  26.782  1.00  0.00     0.130 C 
ATOM     24  C   UNL A   1      33.329  28.515  26.395  1.00  0.00     0.130 C 
ENDBRANCH  20  22
ENDBRANCH  15  20
BRANCH  17  25
ATOM     25  N   UNL A   1      30.476  27.375  23.808  1.00  0.00     0.070 N 
ATOM     26  O   UNL A   1      29.512  27.559  23.046  1.00  0.00    -0.258 OA
ATOM     27  O   UNL A   1      30.389  27.107  25.013  1.00  0.00    -0.258 OA
ENDBRANCH  17  25
ENDBRANCH  12  14
ENDBRANCH   7  12
ENDBRANCH   3   6
ENDBRANCH   1   2
BRANCH   1  28
ATOM     28  C   UNL A   1      36.473  20.159  24.932  1.00  0.00     0.023 C 
BRANCH  28  29
ATOM     29  C   UNL A   1      37.732  21.005  24.721  1.00  0.00     0.023 C 
BRANCH  29  30
ATOM     30  C   UNL A   1      38.743  20.939  25.860  1.00  0.00     0.116 C 
BRANCH  30  31
ATOM     31  N   UNL A   1      39.706  19.857  25.710  1.00  0.00    -0.352 N 
ATOM     32  C   UNL A   1      41.052  19.876  25.996  1.00  0.00     0.251 C 
ATOM     33  H   UNL A   1      39.350  19.008  25.361  1.00  0.00     0.163 HD
ATOM     34  O   UNL A   1      41.766  18.923  25.731  1.00  0.00    -0.269 OA
BRANCH  32  35
ATOM     35  C   UNL A   1      41.627  21.099  26.596  1.00  0.00     0.039 A 
ATOM     36  C   UNL A   1      42.091  22.110  25.751  1.00  0.00     0.014 A 
ATOM     37  C   UNL A   1      41.647  21.262  27.982  1.00  0.00     0.014 A 
ATOM     38  C   UNL A   1      42.511  23.324  26.299  1.00  0.00     0.010 A 
ATOM     39  C   UNL A   1      42.009  22.491  28.521  1.00  0.00     0.010 A 
ATOM     40  C   UNL A   1      42.437  23.536  27.684  1.00  0.00    -0.014 A 
BRANCH  40  41
ATOM     41  C   UNL A   1      42.796  24.838  28.297  1.00  0.00     0.031 A 
ATOM     42  C   UNL A   1      41.730  25.874  28.518  1.00  0.00     0.074 A 
ATOM     43  C   UNL A   1      44.087  25.126  28.553  1.00  0.00     0.049 A 
ATOM     44  N   UNL A   1      41.857  27.122  28.887  1.00  0.00    -0.248 NA
ATOM     45  C   UNL A   1      40.341  25.461  28.258  1.00  0.00     0.031 C 
ATOM     46  C   UNL A   1      45.220  24.221  28.348  1.00  0.00     0.029 A 
ATOM     47  N   UNL A   1      44.666  26.281  29.017  1.00  0.00    -0.354 N 
ATOM     48  C   UNL A   1      40.574  27.653  28.866  1.00  0.00     0.074 A 
ATOM     49  C   UNL A   1      39.685  26.599  28.426  1.00  0.00     0.031 C 
ATOM     50  C   UNL A   1      46.355  24.853  28.687  1.00  0.00     0.029 A 
ATOM     51  C   UNL A   1      46.037  26.218  29.094  1.00  0.00     0.049 A 
ATOM     52  H   UNL A   1      44.148  27.079  29.272  1.00  0.00     0.167 HD
ATOM     53  C   UNL A   1      40.171  28.903  29.193  1.00  0.00     0.031 A 
ATOM     54  C   UNL A   1      46.937  27.161  29.432  1.00  0.00     0.031 A 
ATOM     55  C   UNL A   1      41.048  29.937  29.669  1.00  0.00     0.049 A 
ATOM     56  C   UNL A   1      46.457  28.535  29.810  1.00  0.00     0.074 A 
ATOM     57  C   UNL A   1      40.720  31.211  30.099  1.00  0.00     0.029 A 
ATOM     58  N   UNL A   1      42.423  29.813  29.782  1.00  0.00    -0.354 N 
ATOM     59  N   UNL A   1      45.233  28.999  29.850  1.00  0.00    -0.248 NA
ATOM     60  C   UNL A   1      47.486  29.513  30.198  1.00  0.00     0.031 C 
ATOM     61  C   UNL A   1      41.904  31.873  30.439  1.00  0.00     0.029 A 
ATOM     62  C   UNL A   1      42.961  30.995  30.261  1.00  0.00     0.049 A 
ATOM     63  H   UNL A   1      42.939  29.006  29.557  1.00  0.00     0.167 HD
ATOM     64  C   UNL A   1      45.341  30.310  30.298  1.00  0.00     0.074 A 
ATOM     65  C   UNL A   1      46.747  30.564  30.524  1.00  0.00     0.031 C 
ATOM     66  C   UNL A   1      44.361  31.222  30.502  1.00  0.00     0.031 A 
BRANCH  53  67
ATOM     67  C   UNL A   1      38.713  29.227  29.045  1.00  0.00    -0.014 A 
ATOM     68  C   UNL A   1      37.836  29.146  30.138  1.00  0.00     0.009 A 
ATOM     69  C   UNL A   1      38.224  29.678  27.810  1.00  0.00     0.009 A 
ATOM     70  C   UNL A   1      36.490  29.486  29.988  1.00  0.00     0.001 A 
ATOM     71  C   UNL A   1      36.884  30.041  27.670  1.00  0.00     0.001 A 
ATOM     72  C   UNL A   1      36.017  29.939  28.756  1.00  0.00     0.000 A 
ENDBRANCH  53  67
BRANCH  54  73
ATOM     73  C   UNL A   1      48.390  26.848  29.428  1.00  0.00    -0.014 A 
ATOM     74  C   UNL A   1      49.163  27.070  28.277  1.00  0.00     0.009 A 
ATOM     75  C   UNL A   1      49.004  26.296  30.563  1.00  0.00     0.009 A 
ATOM     76  C   UNL A   1      50.512  26.711  28.252  1.00  0.00     0.001 A 
ATOM     77  C   UNL A   1      50.361  25.964  30.543  1.00  0.00     0.001 A 
ATOM     78  C   UNL A   1      51.111  26.160  29.384  1.00  0.00     0.000 A 
ENDBRANCH  54  73
BRANCH  66  79
ATOM     79  C   UNL A   1      44.763  32.561  31.047  1.00  0.00    -0.014 A 
ATOM     80  C   UNL A   1      44.860  32.786  32.427  1.00  0.00     0.009 A 
ATOM     81  C   UNL A   1      45.110  33.590  30.158  1.00  0.00     0.009 A 
ATOM     82  C   UNL A   1      45.278  34.028  32.908  1.00  0.00     0.001 A 
ATOM     83  C   UNL A   1      45.551  34.823  30.643  1.00  0.00     0.001 A 
ATOM     84  C   UNL A   1      45.630  35.042  32.017  1.00  0.00     0.000 A 
ENDBRANCH  66  79
ENDBRANCH  40  41
ENDBRANCH  32  35
ENDBRANCH  30  31
ENDBRANCH  29  30
ENDBRANCH  28  29
ENDBRANCH   1  28
TORSDOF 16
ENDMDL
MODEL 3
REMARK VINA RESULT:     -10.8      2.053      7.827
REMARK SMILES CN(C)Nc1ncnc(Nc2ccc(C(=O)NCCCCNC(=O)c3ccc(-c4c5nc(c(-c6ccccc6)c6ccc([nH]6)c(-c6ccccc6)c6nc(c(-c7ccccc7)c7ccc4[nH]7)C=C6)C=C5)cc3)cc2)c1[N+](=O)[O-]
REMARK SMILES IDX 18 1 17 2 15 3 16 4 14 6 11 7 12 8 74 9 13 10 73 11 10 12
REMARK SMILES IDX 9 14 5 15 6 16 75 17 7 18 8 19 4 20 2 22 1 23 3 24 76 25
REMARK SMILES IDX 77 26 78 27 19 28 20 29 21 30 22 31 23 32 24 34 25 35 26 36
REMARK SMILES IDX 72 37 27 38 71 39 28 40 29 41 30 42 65 43 31 44 70 45 64 46
REMARK SMILES IDX 66 47 32 48 69 49 63 50 62 51 33 53 55 54 40 55 54 56 41 57
REMARK SMILES IDX 44 58 53 59 67 60 42 61 43 62 52 64 68 65 45 66 34 67 35 68
REMARK SMILES IDX 39 69 36 70 38 71 37 72 56 73 57 74 61 75 58 76 60 77 59 78
REMARK SMILES IDX 46 79 47 80 51 81 48 82 50 83 49 84
REMARK H PARENT 17 5 10 13 4 21 22 33 66 52 44 63
REMARK Flexibility Score: inf
ROOT
ATOM      1  C   UNL A   1      35.391  20.296  25.003  1.00  0.00     0.116 C 
ENDROOT
BRANCH   1   2
ATOM      2  N   UNL A   1      34.267  19.399  25.202  1.00  0.00    -0.352 N 
ATOM      3  C   UNL A   1      32.913  19.584  25.083  1.00  0.00     0.251 C 
ATOM      4  O   UNL A   1      32.182  18.614  25.286  1.00  0.00    -0.269 OA
ATOM      5  H   UNL A   1      34.526  18.489  25.471  1.00  0.00     0.163 HD
BRANCH   3   6
ATOM      6  C   UNL A   1      32.302  20.874  24.660  1.00  0.00     0.039 A 
ATOM      7  C   UNL A   1      31.369  23.364  23.724  1.00  0.00     0.040 A 
ATOM      8  C   UNL A   1      31.868  22.422  22.827  1.00  0.00     0.027 A 
ATOM      9  C   UNL A   1      31.218  23.001  25.068  1.00  0.00     0.027 A 
ATOM     10  C   UNL A   1      32.351  21.194  23.294  1.00  0.00     0.016 A 
ATOM     11  C   UNL A   1      31.666  21.760  25.529  1.00  0.00     0.016 A 
BRANCH   7  12
ATOM     12  N   UNL A   1      30.942  24.628  23.269  1.00  0.00    -0.334 N 
ATOM     13  H   UNL A   1      30.038  24.706  22.889  1.00  0.00     0.168 HD
BRANCH  12  14
ATOM     14  C   UNL A   1      31.745  25.787  23.331  1.00  0.00     0.215 A 
ATOM     15  C   UNL A   1      32.633  27.714  24.396  1.00  0.00     0.225 A 
ATOM     16  N   UNL A   1      33.410  27.965  23.321  1.00  0.00    -0.212 NA
ATOM     17  C   UNL A   1      31.715  26.682  24.387  1.00  0.00     0.354 A 
ATOM     18  C   UNL A   1      33.323  27.113  22.300  1.00  0.00     0.227 A 
ATOM     19  N   UNL A   1      32.558  26.021  22.275  1.00  0.00    -0.212 NA
BRANCH  15  20
ATOM     20  N   UNL A   1      32.986  28.503  25.496  1.00  0.00    -0.298 N 
ATOM     21  H   UNL A   1      33.526  28.088  26.205  1.00  0.00     0.184 HD
BRANCH  20  22
ATOM     22  N   UNL A   1      32.617  29.865  25.656  1.00  0.00    -0.228 NA
ATOM     23  C   UNL A   1      31.246  30.113  25.172  1.00  0.00     0.130 C 
ATOM     24  C   UNL A   1      32.646  30.151  27.103  1.00  0.00     0.130 C 
ENDBRANCH  20  22
ENDBRANCH  15  20
BRANCH  17  25
ATOM     25  N   UNL A   1      30.745  26.543  25.430  1.00  0.00     0.070 N 
ATOM     26  O   UNL A   1      31.173  26.532  26.597  1.00  0.00    -0.258 OA
ATOM     27  O   UNL A   1      29.572  26.328  25.100  1.00  0.00    -0.258 OA
ENDBRANCH  17  25
ENDBRANCH  12  14
ENDBRANCH   7  12
ENDBRANCH   3   6
ENDBRANCH   1   2
BRANCH   1  28
ATOM     28  C   UNL A   1      36.708  19.515  24.987  1.00  0.00     0.023 C 
BRANCH  28  29
ATOM     29  C   UNL A   1      37.943  20.372  24.693  1.00  0.00     0.023 C 
BRANCH  29  30
ATOM     30  C   UNL A   1      38.934  20.480  25.846  1.00  0.00     0.116 C 
BRANCH  30  31
ATOM     31  N   UNL A   1      39.949  19.439  25.829  1.00  0.00    -0.352 N 
ATOM     32  C   UNL A   1      41.287  19.554  26.136  1.00  0.00     0.251 C 
ATOM     33  H   UNL A   1      39.643  18.541  25.566  1.00  0.00     0.163 HD
ATOM     34  O   UNL A   1      42.051  18.615  25.986  1.00  0.00    -0.269 OA
BRANCH  32  35
ATOM     35  C   UNL A   1      41.789  20.860  26.613  1.00  0.00     0.039 A 
ATOM     36  C   UNL A   1      42.297  21.768  25.681  1.00  0.00     0.014 A 
ATOM     37  C   UNL A   1      41.698  21.199  27.964  1.00  0.00     0.014 A 
ATOM     38  C   UNL A   1      42.648  23.055  26.097  1.00  0.00     0.010 A 
ATOM     39  C   UNL A   1      41.992  22.497  28.364  1.00  0.00     0.010 A 
ATOM     40  C   UNL A   1      42.463  23.439  27.434  1.00  0.00    -0.014 A 
BRANCH  40  41
ATOM     41  C   UNL A   1      42.747  24.819  27.898  1.00  0.00     0.031 A 
ATOM     42  C   UNL A   1      44.134  25.182  28.346  1.00  0.00     0.074 A 
ATOM     43  C   UNL A   1      41.740  25.707  28.017  1.00  0.00     0.049 A 
ATOM     44  N   UNL A   1      44.553  26.274  28.931  1.00  0.00    -0.248 NA
ATOM     45  C   UNL A   1      45.183  24.169  28.137  1.00  0.00     0.031 C 
ATOM     46  C   UNL A   1      40.343  25.467  27.652  1.00  0.00     0.029 A 
ATOM     47  N   UNL A   1      41.738  26.989  28.509  1.00  0.00    -0.354 N 
ATOM     48  C   UNL A   1      45.900  26.065  29.195  1.00  0.00     0.074 A 
ATOM     49  C   UNL A   1      46.225  24.735  28.728  1.00  0.00     0.031 C 
ATOM     50  C   UNL A   1      39.621  26.564  27.929  1.00  0.00     0.029 A 
ATOM     51  C   UNL A   1      40.492  27.569  28.528  1.00  0.00     0.049 A 
ATOM     52  H   UNL A   1      42.552  27.449  28.817  1.00  0.00     0.167 HD
ATOM     53  C   UNL A   1      46.790  26.910  29.767  1.00  0.00     0.031 A 
ATOM     54  C   UNL A   1      40.095  28.768  28.996  1.00  0.00     0.031 A 
ATOM     55  C   UNL A   1      46.477  28.246  30.194  1.00  0.00     0.049 A 
ATOM     56  C   UNL A   1      41.109  29.693  29.608  1.00  0.00     0.074 A 
ATOM     57  C   UNL A   1      47.330  29.204  30.713  1.00  0.00     0.029 A 
ATOM     58  N   UNL A   1      45.214  28.813  30.146  1.00  0.00    -0.354 N 
ATOM     59  N   UNL A   1      42.394  29.506  29.787  1.00  0.00    -0.248 NA
ATOM     60  C   UNL A   1      40.620  31.000  30.075  1.00  0.00     0.031 C 
ATOM     61  C   UNL A   1      46.575  30.341  31.014  1.00  0.00     0.029 A 
ATOM     62  C   UNL A   1      45.262  30.104  30.642  1.00  0.00     0.049 A 
ATOM     63  H   UNL A   1      44.405  28.365  29.809  1.00  0.00     0.167 HD
ATOM     64  C   UNL A   1      42.871  30.681  30.356  1.00  0.00     0.074 A 
ATOM     65  C   UNL A   1      41.741  31.577  30.484  1.00  0.00     0.031 C 
ATOM     66  C   UNL A   1      44.132  30.989  30.739  1.00  0.00     0.031 A 
BRANCH  53  67
ATOM     67  C   UNL A   1      48.192  26.415  29.969  1.00  0.00    -0.014 A 
ATOM     68  C   UNL A   1      48.568  25.760  31.152  1.00  0.00     0.009 A 
ATOM     69  C   UNL A   1      49.133  26.553  28.937  1.00  0.00     0.009 A 
ATOM     70  C   UNL A   1      49.868  25.275  31.307  1.00  0.00     0.001 A 
ATOM     71  C   UNL A   1      50.425  26.046  29.085  1.00  0.00     0.001 A 
ATOM     72  C   UNL A   1      50.793  25.413  30.271  1.00  0.00     0.000 A 
ENDBRANCH  53  67
BRANCH  54  73
ATOM     73  C   UNL A   1      38.667  29.170  28.912  1.00  0.00    -0.014 A 
ATOM     74  C   UNL A   1      37.813  29.001  30.014  1.00  0.00     0.009 A 
ATOM     75  C   UNL A   1      38.141  29.695  27.721  1.00  0.00     0.009 A 
ATOM     76  C   UNL A   1      36.456  29.315  29.912  1.00  0.00     0.001 A 
ATOM     77  C   UNL A   1      36.789  30.034  27.632  1.00  0.00     0.001 A 
ATOM     78  C   UNL A   1      35.946  29.832  28.723  1.00  0.00     0.000 A 
ENDBRANCH  54  73
BRANCH  66  79
ATOM     79  C   UNL A   1      44.374  32.367  31.282  1.00  0.00    -0.014 A 
ATOM     80  C   UNL A   1      44.306  32.629  32.657  1.00  0.00     0.009 A 
ATOM     81  C   UNL A   1      44.738  33.400  30.404  1.00  0.00     0.009 A 
ATOM     82  C   UNL A   1      44.578  33.910  33.142  1.00  0.00     0.001 A 
ATOM     83  C   UNL A   1      45.033  34.672  30.895  1.00  0.00     0.001 A 
ATOM     84  C   UNL A   1      44.948  34.927  32.263  1.00  0.00     0.000 A 
ENDBRANCH  66  79
ENDBRANCH  40  41
ENDBRANCH  32  35
ENDBRANCH  30  31
ENDBRANCH  29  30
ENDBRANCH  28  29
ENDBRANCH   1  28
TORSDOF 16
ENDMDL
