MODEL 1
REMARK VINA RESULT:      -9.7      0.000      0.000
REMARK SMILES O=C(C[C@@H]1CN(C(=O)C[NH2+]CC2CC2)CCO1)NCCCCNC(=O)c1ccc(-c2c3nc(c(-c4ccccc4)c4ccc([nH]4)c(-c4ccccc4)c4nc(c(-c5ccccc5)c5ccc2[nH]5)C=C4)C=C3)cc1
REMARK SMILES IDX 1 1 2 2 18 3 3 5 4 6 5 7 17 8 6 9 16 10 15 11 7 12 8 13 9 14
REMARK SMILES IDX 10 15 11 18 12 19 13 20 14 21 19 22 20 23 21 24 22 25 23 26
REMARK SMILES IDX 24 27 25 29 26 30 27 31 73 32 28 33 72 34 29 35 30 36 31 37
REMARK SMILES IDX 66 38 32 39 71 40 65 41 67 42 33 43 70 44 64 45 63 46 34 48
REMARK SMILES IDX 56 49 41 50 55 51 42 52 45 53 54 54 68 55 43 56 44 57 53 59
REMARK SMILES IDX 69 60 46 61 35 62 36 63 40 64 37 65 39 66 38 67 57 68 58 69
REMARK SMILES IDX 62 70 59 71 61 72 60 73 47 74 48 75 52 76 49 77 51 78 50 79
REMARK H PARENT 18 4 10 16 10 17 23 28 67 47 45 58
REMARK Flexibility Score: inf
ROOT
ATOM      1  O   UNL A   1      34.812  29.457  27.447  1.00  0.00    -0.275 OA
ATOM      2  C   UNL A   1      33.748  30.071  27.451  1.00  0.00     0.222 C 
ATOM      3  N   UNL A   1      33.648  31.423  27.719  1.00  0.00    -0.356 N 
ATOM      4  H   UNL A   1      32.773  31.864  27.633  1.00  0.00     0.163 HD
ENDROOT
BRANCH   2   5
ATOM      5  C   UNL A   1      32.418  29.375  27.239  1.00  0.00     0.133 C 
BRANCH   5   6
ATOM      6  C   UNL A   1      32.138  28.988  25.778  1.00  0.00     0.147 C 
ATOM      7  C   UNL A   1      31.880  27.487  25.534  1.00  0.00     0.152 C 
ATOM      8  O   UNL A   1      33.241  29.445  24.957  1.00  0.00    -0.374 OA
ATOM      9  N   UNL A   1      31.683  27.234  24.105  1.00  0.00    -0.333 N 
ATOM     10  C   UNL A   1      32.992  29.214  23.556  1.00  0.00     0.182 C 
ATOM     11  C   UNL A   1      32.773  27.727  23.270  1.00  0.00     0.148 C 
BRANCH   9  12
ATOM     12  C   UNL A   1      30.600  26.606  23.526  1.00  0.00     0.277 C 
ATOM     13  O   UNL A   1      30.712  25.560  22.880  1.00  0.00    -0.268 OA
BRANCH  12  14
ATOM     14  C   UNL A   1      29.233  27.269  23.651  1.00  0.00     0.362 C 
BRANCH  14  15
ATOM     15  N   UNL A   1      29.227  28.584  22.992  1.00  0.00    -0.338 N 
ATOM     16  H   UNL A   1      29.713  28.506  22.099  1.00  0.00     0.346 HD
ATOM     17  H   UNL A   1      29.694  29.249  23.608  1.00  0.00     0.346 HD
BRANCH  15  18
ATOM     18  C   UNL A   1      27.877  29.063  22.752  1.00  0.00     0.264 C 
BRANCH  18  19
ATOM     19  C   UNL A   1      27.650  30.408  23.365  1.00  0.00     0.044 C 
ATOM     20  C   UNL A   1      28.853  31.227  23.724  1.00  0.00     0.010 C 
ATOM     21  C   UNL A   1      27.942  31.713  22.651  1.00  0.00     0.010 C 
ENDBRANCH  18  19
ENDBRANCH  15  18
ENDBRANCH  14  15
ENDBRANCH  12  14
ENDBRANCH   9  12
ENDBRANCH   5   6
ENDBRANCH   2   5
BRANCH   3  22
ATOM     22  C   UNL A   1      34.800  32.214  28.125  1.00  0.00     0.116 C 
BRANCH  22  23
ATOM     23  C   UNL A   1      34.458  33.294  29.155  1.00  0.00     0.023 C 
BRANCH  23  24
ATOM     24  C   UNL A   1      33.349  34.271  28.744  1.00  0.00     0.023 C 
BRANCH  24  25
ATOM     25  C   UNL A   1      33.523  35.716  29.220  1.00  0.00     0.116 C 
BRANCH  25  26
ATOM     26  N   UNL A   1      32.611  36.088  30.296  1.00  0.00    -0.352 N 
ATOM     27  C   UNL A   1      32.643  35.809  31.645  1.00  0.00     0.251 C 
ATOM     28  H   UNL A   1      31.841  36.630  30.008  1.00  0.00     0.163 HD
ATOM     29  O   UNL A   1      31.685  36.144  32.347  1.00  0.00    -0.269 OA
BRANCH  27  30
ATOM     30  C   UNL A   1      33.781  35.094  32.279  1.00  0.00     0.039 A 
ATOM     31  C   UNL A   1      33.597  33.800  32.788  1.00  0.00     0.014 A 
ATOM     32  C   UNL A   1      35.030  35.689  32.408  1.00  0.00     0.014 A 
ATOM     33  C   UNL A   1      34.679  33.079  33.325  1.00  0.00     0.010 A 
ATOM     34  C   UNL A   1      36.115  34.937  32.868  1.00  0.00     0.010 A 
ATOM     35  C   UNL A   1      35.970  33.625  33.321  1.00  0.00    -0.014 A 
BRANCH  35  36
ATOM     36  C   UNL A   1      37.206  32.848  33.636  1.00  0.00     0.031 A 
ATOM     37  C   UNL A   1      38.047  33.121  34.866  1.00  0.00     0.074 A 
ATOM     38  C   UNL A   1      37.710  32.036  32.684  1.00  0.00     0.049 A 
ATOM     39  N   UNL A   1      39.185  32.573  35.224  1.00  0.00    -0.248 NA
ATOM     40  C   UNL A   1      37.589  34.181  35.777  1.00  0.00     0.031 C 
ATOM     41  C   UNL A   1      37.120  31.808  31.363  1.00  0.00     0.029 A 
ATOM     42  N   UNL A   1      38.856  31.276  32.669  1.00  0.00    -0.354 N 
ATOM     43  C   UNL A   1      39.589  33.238  36.377  1.00  0.00     0.074 A 
ATOM     44  C   UNL A   1      38.604  34.269  36.626  1.00  0.00     0.031 C 
ATOM     45  C   UNL A   1      37.884  30.941  30.682  1.00  0.00     0.029 A 
ATOM     46  C   UNL A   1      39.026  30.563  31.508  1.00  0.00     0.049 A 
ATOM     47  H   UNL A   1      39.492  31.245  33.420  1.00  0.00     0.167 HD
ATOM     48  C   UNL A   1      40.663  33.000  37.172  1.00  0.00     0.031 A 
ATOM     49  C   UNL A   1      39.978  29.685  31.142  1.00  0.00     0.031 A 
ATOM     50  C   UNL A   1      41.624  31.948  36.955  1.00  0.00     0.049 A 
ATOM     51  C   UNL A   1      41.084  29.340  32.093  1.00  0.00     0.074 A 
ATOM     52  C   UNL A   1      42.640  31.522  37.796  1.00  0.00     0.029 A 
ATOM     53  N   UNL A   1      41.695  31.163  35.817  1.00  0.00    -0.354 N 
ATOM     54  N   UNL A   1      41.349  29.851  33.269  1.00  0.00    -0.248 NA
ATOM     55  C   UNL A   1      42.002  28.270  31.677  1.00  0.00     0.031 C 
ATOM     56  C   UNL A   1      43.353  30.507  37.147  1.00  0.00     0.029 A 
ATOM     57  C   UNL A   1      42.749  30.269  35.924  1.00  0.00     0.049 A 
ATOM     58  H   UNL A   1      41.088  31.230  35.046  1.00  0.00     0.167 HD
ATOM     59  C   UNL A   1      42.444  29.145  33.747  1.00  0.00     0.074 A 
ATOM     60  C   UNL A   1      42.788  28.164  32.740  1.00  0.00     0.031 C 
ATOM     61  C   UNL A   1      43.100  29.297  34.923  1.00  0.00     0.031 A 
BRANCH  48  62
ATOM     62  C   UNL A   1      40.848  33.866  38.393  1.00  0.00    -0.014 A 
ATOM     63  C   UNL A   1      40.282  33.507  39.628  1.00  0.00     0.009 A 
ATOM     64  C   UNL A   1      41.676  34.999  38.336  1.00  0.00     0.009 A 
ATOM     65  C   UNL A   1      40.510  34.283  40.767  1.00  0.00     0.001 A 
ATOM     66  C   UNL A   1      41.928  35.755  39.483  1.00  0.00     0.001 A 
ATOM     67  C   UNL A   1      41.338  35.402  40.696  1.00  0.00     0.000 A 
ENDBRANCH  48  62
BRANCH  49  68
ATOM     68  C   UNL A   1      39.860  28.991  29.836  1.00  0.00    -0.014 A 
ATOM     69  C   UNL A   1      40.434  29.563  28.691  1.00  0.00     0.009 A 
ATOM     70  C   UNL A   1      39.213  27.752  29.733  1.00  0.00     0.009 A 
ATOM     71  C   UNL A   1      40.345  28.915  27.459  1.00  0.00     0.001 A 
ATOM     72  C   UNL A   1      39.146  27.096  28.503  1.00  0.00     0.001 A 
ATOM     73  C   UNL A   1      39.706  27.680  27.366  1.00  0.00     0.000 A 
ENDBRANCH  49  68
BRANCH  61  74
ATOM     74  C   UNL A   1      44.241  28.361  35.202  1.00  0.00    -0.014 A 
ATOM     75  C   UNL A   1      44.048  27.169  35.919  1.00  0.00     0.009 A 
ATOM     76  C   UNL A   1      45.523  28.665  34.720  1.00  0.00     0.009 A 
ATOM     77  C   UNL A   1      45.126  26.320  36.177  1.00  0.00     0.001 A 
ATOM     78  C   UNL A   1      46.593  27.802  34.958  1.00  0.00     0.001 A 
ATOM     79  C   UNL A   1      46.396  26.634  35.695  1.00  0.00     0.000 A 
ENDBRANCH  61  74
ENDBRANCH  35  36
ENDBRANCH  27  30
ENDBRANCH  25  26
ENDBRANCH  24  25
ENDBRANCH  23  24
ENDBRANCH  22  23
ENDBRANCH   3  22
TORSDOF 17
ENDMDL
MODEL 2
REMARK VINA RESULT:      -9.5      1.208      2.485
REMARK SMILES O=C(C[C@@H]1CN(C(=O)C[NH2+]CC2CC2)CCO1)NCCCCNC(=O)c1ccc(-c2c3nc(c(-c4ccccc4)c4ccc([nH]4)c(-c4ccccc4)c4nc(c(-c5ccccc5)c5ccc2[nH]5)C=C4)C=C3)cc1
REMARK SMILES IDX 1 1 2 2 18 3 3 5 4 6 5 7 17 8 6 9 16 10 15 11 7 12 8 13 9 14
REMARK SMILES IDX 10 15 11 18 12 19 13 20 14 21 19 22 20 23 21 24 22 25 23 26
REMARK SMILES IDX 24 27 25 29 26 30 27 31 73 32 28 33 72 34 29 35 30 36 31 37
REMARK SMILES IDX 66 38 32 39 71 40 65 41 67 42 33 43 70 44 64 45 63 46 34 48
REMARK SMILES IDX 56 49 41 50 55 51 42 52 45 53 54 54 68 55 43 56 44 57 53 59
REMARK SMILES IDX 69 60 46 61 35 62 36 63 40 64 37 65 39 66 38 67 57 68 58 69
REMARK SMILES IDX 62 70 59 71 61 72 60 73 47 74 48 75 52 76 49 77 51 78 50 79
REMARK H PARENT 18 4 10 16 10 17 23 28 67 47 45 58
REMARK Flexibility Score: inf
ROOT
ATOM      1  O   UNL A   1      34.853  29.231  26.895  1.00  0.00    -0.275 OA
ATOM      2  C   UNL A   1      33.755  29.610  27.293  1.00  0.00     0.222 C 
ATOM      3  N   UNL A   1      33.504  30.898  27.728  1.00  0.00    -0.356 N 
ATOM      4  H   UNL A   1      32.584  31.152  27.965  1.00  0.00     0.163 HD
ENDROOT
BRANCH   2   5
ATOM      5  C   UNL A   1      32.577  28.665  27.422  1.00  0.00     0.133 C 
BRANCH   5   6
ATOM      6  C   UNL A   1      31.760  28.500  26.130  1.00  0.00     0.147 C 
ATOM      7  C   UNL A   1      32.337  27.492  25.114  1.00  0.00     0.152 C 
ATOM      8  O   UNL A   1      31.604  29.800  25.510  1.00  0.00    -0.374 OA
ATOM      9  N   UNL A   1      31.508  27.463  23.906  1.00  0.00    -0.333 N 
ATOM     10  C   UNL A   1      30.752  29.737  24.350  1.00  0.00     0.182 C 
ATOM     11  C   UNL A   1      31.316  28.776  23.300  1.00  0.00     0.148 C 
BRANCH   9  12
ATOM     12  C   UNL A   1      30.926  26.349  23.339  1.00  0.00     0.277 C 
ATOM     13  O   UNL A   1      29.821  25.930  23.693  1.00  0.00    -0.268 OA
BRANCH  12  14
ATOM     14  C   UNL A   1      31.713  25.590  22.276  1.00  0.00     0.362 C 
BRANCH  14  15
ATOM     15  N   UNL A   1      31.803  24.162  22.612  1.00  0.00    -0.338 N 
ATOM     16  H   UNL A   1      32.167  23.656  21.805  1.00  0.00     0.346 HD
ATOM     17  H   UNL A   1      30.869  23.836  22.860  1.00  0.00     0.346 HD
BRANCH  15  18
ATOM     18  C   UNL A   1      32.678  23.928  23.747  1.00  0.00     0.264 C 
BRANCH  18  19
ATOM     19  C   UNL A   1      34.103  24.243  23.423  1.00  0.00     0.044 C 
ATOM     20  C   UNL A   1      35.123  24.078  24.510  1.00  0.00     0.010 C 
ATOM     21  C   UNL A   1      35.189  23.190  23.316  1.00  0.00     0.010 C 
ENDBRANCH  18  19
ENDBRANCH  15  18
ENDBRANCH  14  15
ENDBRANCH  12  14
ENDBRANCH   9  12
ENDBRANCH   5   6
ENDBRANCH   2   5
BRANCH   3  22
ATOM     22  C   UNL A   1      34.563  31.888  27.848  1.00  0.00     0.116 C 
BRANCH  22  23
ATOM     23  C   UNL A   1      34.320  32.900  28.972  1.00  0.00     0.023 C 
BRANCH  23  24
ATOM     24  C   UNL A   1      33.291  33.995  28.662  1.00  0.00     0.023 C 
BRANCH  24  25
ATOM     25  C   UNL A   1      33.657  35.407  29.130  1.00  0.00     0.116 C 
BRANCH  25  26
ATOM     26  N   UNL A   1      32.811  35.899  30.211  1.00  0.00    -0.352 N 
ATOM     27  C   UNL A   1      32.888  35.717  31.575  1.00  0.00     0.251 C 
ATOM     28  H   UNL A   1      32.055  36.456  29.915  1.00  0.00     0.163 HD
ATOM     29  O   UNL A   1      31.978  36.148  32.288  1.00  0.00    -0.269 OA
BRANCH  27  30
ATOM     30  C   UNL A   1      34.018  34.995  32.215  1.00  0.00     0.039 A 
ATOM     31  C   UNL A   1      33.830  33.693  32.700  1.00  0.00     0.014 A 
ATOM     32  C   UNL A   1      35.264  35.590  32.372  1.00  0.00     0.014 A 
ATOM     33  C   UNL A   1      34.906  32.966  33.242  1.00  0.00     0.010 A 
ATOM     34  C   UNL A   1      36.343  34.834  32.837  1.00  0.00     0.010 A 
ATOM     35  C   UNL A   1      36.195  33.515  33.267  1.00  0.00    -0.014 A 
BRANCH  35  36
ATOM     36  C   UNL A   1      37.428  32.736  33.588  1.00  0.00     0.031 A 
ATOM     37  C   UNL A   1      38.268  33.013  34.817  1.00  0.00     0.074 A 
ATOM     38  C   UNL A   1      37.933  31.918  32.641  1.00  0.00     0.049 A 
ATOM     39  N   UNL A   1      39.404  32.463  35.181  1.00  0.00    -0.248 NA
ATOM     40  C   UNL A   1      37.811  34.079  35.723  1.00  0.00     0.031 C 
ATOM     41  C   UNL A   1      37.344  31.685  31.320  1.00  0.00     0.029 A 
ATOM     42  N   UNL A   1      39.076  31.154  32.632  1.00  0.00    -0.354 N 
ATOM     43  C   UNL A   1      39.807  33.133  36.331  1.00  0.00     0.074 A 
ATOM     44  C   UNL A   1      38.824  34.168  36.573  1.00  0.00     0.031 C 
ATOM     45  C   UNL A   1      38.107  30.813  30.645  1.00  0.00     0.029 A 
ATOM     46  C   UNL A   1      39.246  30.435  31.474  1.00  0.00     0.049 A 
ATOM     47  H   UNL A   1      39.711  31.125  33.384  1.00  0.00     0.167 HD
ATOM     48  C   UNL A   1      40.879  32.897  37.130  1.00  0.00     0.031 A 
ATOM     49  C   UNL A   1      40.197  29.553  31.115  1.00  0.00     0.031 A 
ATOM     50  C   UNL A   1      41.838  31.841  36.920  1.00  0.00     0.049 A 
ATOM     51  C   UNL A   1      41.299  29.209  32.070  1.00  0.00     0.074 A 
ATOM     52  C   UNL A   1      42.851  31.416  37.764  1.00  0.00     0.029 A 
ATOM     53  N   UNL A   1      41.909  31.050  35.786  1.00  0.00    -0.354 N 
ATOM     54  N   UNL A   1      41.564  29.726  33.244  1.00  0.00    -0.248 NA
ATOM     55  C   UNL A   1      42.216  28.135  31.660  1.00  0.00     0.031 C 
ATOM     56  C   UNL A   1      43.563  30.396  37.122  1.00  0.00     0.029 A 
ATOM     57  C   UNL A   1      42.960  30.153  35.900  1.00  0.00     0.049 A 
ATOM     58  H   UNL A   1      41.303  31.114  35.013  1.00  0.00     0.167 HD
ATOM     59  C   UNL A   1      42.656  29.019  33.727  1.00  0.00     0.074 A 
ATOM     60  C   UNL A   1      42.999  28.032  32.725  1.00  0.00     0.031 C 
ATOM     61  C   UNL A   1      43.310  29.176  34.904  1.00  0.00     0.031 A 
BRANCH  48  62
ATOM     62  C   UNL A   1      41.064  33.767  38.347  1.00  0.00    -0.014 A 
ATOM     63  C   UNL A   1      41.793  34.966  38.277  1.00  0.00     0.009 A 
ATOM     64  C   UNL A   1      40.421  33.439  39.553  1.00  0.00     0.009 A 
ATOM     65  C   UNL A   1      41.907  35.795  39.395  1.00  0.00     0.001 A 
ATOM     66  C   UNL A   1      40.511  34.286  40.660  1.00  0.00     0.001 A 
ATOM     67  C   UNL A   1      41.261  35.459  40.583  1.00  0.00     0.000 A 
ENDBRANCH  48  62
BRANCH  49  68
ATOM     68  C   UNL A   1      40.079  28.853  29.812  1.00  0.00    -0.014 A 
ATOM     69  C   UNL A   1      40.637  29.429  28.661  1.00  0.00     0.009 A 
ATOM     70  C   UNL A   1      39.449  27.605  29.718  1.00  0.00     0.009 A 
ATOM     71  C   UNL A   1      40.548  28.776  27.432  1.00  0.00     0.001 A 
ATOM     72  C   UNL A   1      39.382  26.943  28.490  1.00  0.00     0.001 A 
ATOM     73  C   UNL A   1      39.927  27.532  27.348  1.00  0.00     0.000 A 
ENDBRANCH  49  68
BRANCH  61  74
ATOM     74  C   UNL A   1      44.448  28.238  35.190  1.00  0.00    -0.014 A 
ATOM     75  C   UNL A   1      45.770  28.569  34.853  1.00  0.00     0.009 A 
ATOM     76  C   UNL A   1      44.195  27.014  35.828  1.00  0.00     0.009 A 
ATOM     77  C   UNL A   1      46.811  27.676  35.118  1.00  0.00     0.001 A 
ATOM     78  C   UNL A   1      45.240  26.134  36.114  1.00  0.00     0.001 A 
ATOM     79  C   UNL A   1      46.546  26.461  35.750  1.00  0.00     0.000 A 
ENDBRANCH  61  74
ENDBRANCH  35  36
ENDBRANCH  27  30
ENDBRANCH  25  26
ENDBRANCH  24  25
ENDBRANCH  23  24
ENDBRANCH  22  23
ENDBRANCH   3  22
TORSDOF 17
ENDMDL
MODEL 3
REMARK VINA RESULT:      -9.5      5.050     10.330
REMARK SMILES O=C(C[C@@H]1CN(C(=O)C[NH2+]CC2CC2)CCO1)NCCCCNC(=O)c1ccc(-c2c3nc(c(-c4ccccc4)c4ccc([nH]4)c(-c4ccccc4)c4nc(c(-c5ccccc5)c5ccc2[nH]5)C=C4)C=C3)cc1
REMARK SMILES IDX 1 1 2 2 18 3 3 5 4 6 5 7 17 8 6 9 16 10 15 11 7 12 8 13 9 14
REMARK SMILES IDX 10 15 11 18 12 19 13 20 14 21 19 22 20 23 21 24 22 25 23 26
REMARK SMILES IDX 24 27 25 29 26 30 27 31 73 32 28 33 72 34 29 35 30 36 31 37
REMARK SMILES IDX 66 38 32 39 71 40 65 41 67 42 33 43 70 44 64 45 63 46 34 48
REMARK SMILES IDX 56 49 41 50 55 51 42 52 45 53 54 54 68 55 43 56 44 57 53 59
REMARK SMILES IDX 69 60 46 61 35 62 36 63 40 64 37 65 39 66 38 67 57 68 58 69
REMARK SMILES IDX 62 70 59 71 61 72 60 73 47 74 48 75 52 76 49 77 51 78 50 79
REMARK H PARENT 18 4 10 16 10 17 23 28 67 47 45 58
REMARK Flexibility Score: inf
ROOT
ATOM      1  O   UNL A   1      32.184  22.945  27.684  1.00  0.00    -0.275 OA
ATOM      2  C   UNL A   1      31.750  22.693  26.564  1.00  0.00     0.222 C 
ATOM      3  N   UNL A   1      32.203  21.642  25.789  1.00  0.00    -0.356 N 
ATOM      4  H   UNL A   1      31.760  21.455  24.930  1.00  0.00     0.163 HD
ENDROOT
BRANCH   2   5
ATOM      5  C   UNL A   1      30.720  23.573  25.884  1.00  0.00     0.133 C 
BRANCH   5   6
ATOM      6  C   UNL A   1      31.322  24.673  24.995  1.00  0.00     0.147 C 
ATOM      7  C   UNL A   1      30.343  25.313  23.990  1.00  0.00     0.152 C 
ATOM      8  O   UNL A   1      32.470  24.129  24.298  1.00  0.00    -0.374 OA
ATOM      9  N   UNL A   1      31.041  26.301  23.164  1.00  0.00    -0.333 N 
ATOM     10  C   UNL A   1      33.151  25.140  23.529  1.00  0.00     0.182 C 
ATOM     11  C   UNL A   1      32.220  25.769  22.490  1.00  0.00     0.148 C 
BRANCH   9  12
ATOM     12  C   UNL A   1      30.688  27.623  22.994  1.00  0.00     0.277 C 
ATOM     13  O   UNL A   1      30.395  28.091  21.890  1.00  0.00    -0.268 OA
BRANCH  12  14
ATOM     14  C   UNL A   1      30.718  28.538  24.214  1.00  0.00     0.362 C 
BRANCH  14  15
ATOM     15  N   UNL A   1      31.740  29.583  24.060  1.00  0.00    -0.338 N 
ATOM     16  H   UNL A   1      31.411  30.435  24.514  1.00  0.00     0.346 HD
ATOM     17  H   UNL A   1      31.890  29.733  23.062  1.00  0.00     0.346 HD
BRANCH  15  18
ATOM     18  C   UNL A   1      33.007  29.193  24.653  1.00  0.00     0.264 C 
BRANCH  18  19
ATOM     19  C   UNL A   1      32.965  29.265  26.146  1.00  0.00     0.044 C 
ATOM     20  C   UNL A   1      33.974  28.465  26.915  1.00  0.00     0.010 C 
ATOM     21  C   UNL A   1      34.029  29.952  26.980  1.00  0.00     0.010 C 
ENDBRANCH  18  19
ENDBRANCH  15  18
ENDBRANCH  14  15
ENDBRANCH  12  14
ENDBRANCH   9  12
ENDBRANCH   5   6
ENDBRANCH   2   5
BRANCH   3  22
ATOM     22  C   UNL A   1      33.318  20.805  26.205  1.00  0.00     0.116 C 
BRANCH  22  23
ATOM     23  C   UNL A   1      34.539  20.925  25.288  1.00  0.00     0.023 C 
BRANCH  23  24
ATOM     24  C   UNL A   1      35.636  21.880  25.772  1.00  0.00     0.023 C 
BRANCH  24  25
ATOM     25  C   UNL A   1      36.912  21.916  24.924  1.00  0.00     0.116 C 
BRANCH  25  26
ATOM     26  N   UNL A   1      37.909  20.933  25.332  1.00  0.00    -0.352 N 
ATOM     27  C   UNL A   1      39.116  21.083  25.978  1.00  0.00     0.251 C 
ATOM     28  H   UNL A   1      37.679  20.002  25.105  1.00  0.00     0.163 HD
ATOM     29  O   UNL A   1      39.846  20.098  26.117  1.00  0.00    -0.269 OA
BRANCH  27  30
ATOM     30  C   UNL A   1      39.581  22.397  26.491  1.00  0.00     0.039 A 
ATOM     31  C   UNL A   1      40.671  22.458  27.372  1.00  0.00     0.014 A 
ATOM     32  C   UNL A   1      38.941  23.580  26.143  1.00  0.00     0.014 A 
ATOM     33  C   UNL A   1      41.172  23.697  27.811  1.00  0.00     0.010 A 
ATOM     34  C   UNL A   1      39.494  24.808  26.518  1.00  0.00     0.010 A 
ATOM     35  C   UNL A   1      40.617  24.895  27.342  1.00  0.00    -0.014 A 
BRANCH  35  36
ATOM     36  C   UNL A   1      41.232  26.240  27.553  1.00  0.00     0.031 A 
ATOM     37  C   UNL A   1      42.590  26.610  26.995  1.00  0.00     0.074 A 
ATOM     38  C   UNL A   1      40.664  27.069  28.454  1.00  0.00     0.049 A 
ATOM     39  N   UNL A   1      43.278  27.715  27.164  1.00  0.00    -0.248 NA
ATOM     40  C   UNL A   1      43.294  25.592  26.199  1.00  0.00     0.031 C 
ATOM     41  C   UNL A   1      39.451  26.782  29.224  1.00  0.00     0.029 A 
ATOM     42  N   UNL A   1      41.052  28.309  28.900  1.00  0.00    -0.354 N 
ATOM     43  C   UNL A   1      44.497  27.515  26.525  1.00  0.00     0.074 A 
ATOM     44  C   UNL A   1      44.478  26.161  26.014  1.00  0.00     0.031 C 
ATOM     45  C   UNL A   1      39.175  27.827  30.017  1.00  0.00     0.029 A 
ATOM     46  C   UNL A   1      40.197  28.851  29.828  1.00  0.00     0.049 A 
ATOM     47  H   UNL A   1      41.865  28.766  28.584  1.00  0.00     0.167 HD
ATOM     48  C   UNL A   1      45.527  28.382  26.353  1.00  0.00     0.031 A 
ATOM     49  C   UNL A   1      40.209  30.045  30.449  1.00  0.00     0.031 A 
ATOM     50  C   UNL A   1      45.535  29.745  26.820  1.00  0.00     0.049 A 
ATOM     51  C   UNL A   1      41.288  31.039  30.141  1.00  0.00     0.074 A 
ATOM     52  C   UNL A   1      46.455  30.745  26.545  1.00  0.00     0.029 A 
ATOM     53  N   UNL A   1      44.588  30.299  27.664  1.00  0.00    -0.354 N 
ATOM     54  N   UNL A   1      42.346  30.897  29.383  1.00  0.00    -0.248 NA
ATOM     55  C   UNL A   1      41.154  32.369  30.752  1.00  0.00     0.031 C 
ATOM     56  C   UNL A   1      46.085  31.892  27.258  1.00  0.00     0.029 A 
ATOM     57  C   UNL A   1      44.910  31.620  27.936  1.00  0.00     0.049 A 
ATOM     58  H   UNL A   1      43.802  29.825  28.019  1.00  0.00     0.167 HD
ATOM     59  C   UNL A   1      42.988  32.128  29.400  1.00  0.00     0.074 A 
ATOM     60  C   UNL A   1      42.195  33.007  30.234  1.00  0.00     0.031 C 
ATOM     61  C   UNL A   1      44.130  32.495  28.770  1.00  0.00     0.031 A 
BRANCH  48  62
ATOM     62  C   UNL A   1      46.734  27.906  25.584  1.00  0.00    -0.014 A 
ATOM     63  C   UNL A   1      47.806  27.273  26.235  1.00  0.00     0.009 A 
ATOM     64  C   UNL A   1      46.759  28.003  24.182  1.00  0.00     0.009 A 
ATOM     65  C   UNL A   1      48.891  26.782  25.506  1.00  0.00     0.001 A 
ATOM     66  C   UNL A   1      47.832  27.483  23.453  1.00  0.00     0.001 A 
ATOM     67  C   UNL A   1      48.900  26.881  24.115  1.00  0.00     0.000 A 
ENDBRANCH  48  62
BRANCH  49  68
ATOM     68  C   UNL A   1      39.091  30.401  31.356  1.00  0.00    -0.014 A 
ATOM     69  C   UNL A   1      37.908  30.936  30.824  1.00  0.00     0.009 A 
ATOM     70  C   UNL A   1      39.183  30.178  32.737  1.00  0.00     0.009 A 
ATOM     71  C   UNL A   1      36.842  31.261  31.663  1.00  0.00     0.001 A 
ATOM     72  C   UNL A   1      38.105  30.483  33.570  1.00  0.00     0.001 A 
ATOM     73  C   UNL A   1      36.939  31.029  33.033  1.00  0.00     0.000 A 
ENDBRANCH  49  68
BRANCH  61  74
ATOM     74  C   UNL A   1      44.581  33.918  28.933  1.00  0.00    -0.014 A 
ATOM     75  C   UNL A   1      45.457  34.294  29.963  1.00  0.00     0.009 A 
ATOM     76  C   UNL A   1      44.140  34.894  28.026  1.00  0.00     0.009 A 
ATOM     77  C   UNL A   1      45.853  35.626  30.103  1.00  0.00     0.001 A 
ATOM     78  C   UNL A   1      44.557  36.220  28.152  1.00  0.00     0.001 A 
ATOM     79  C   UNL A   1      45.406  36.587  29.197  1.00  0.00     0.000 A 
ENDBRANCH  61  74
ENDBRANCH  35  36
ENDBRANCH  27  30
ENDBRANCH  25  26
ENDBRANCH  24  25
ENDBRANCH  23  24
ENDBRANCH  22  23
ENDBRANCH   3  22
TORSDOF 17
ENDMDL
