MODEL 1
REMARK VINA RESULT:      -9.7      0.000      0.000
REMARK SMILES C[C@]([NH2+]CCCS(C)(=O)=O)(C(=O)NCCCCNC(=O)c1ccc(-c2c3nc(c(-c4ccccc4)c4ccc([nH]4)c(-c4ccccc4)c4nc(c(-c5ccccc5)c5ccc2[nH]5)C=C4)C=C3)cc1)C(F)(F)F
REMARK SMILES IDX 14 1 13 2 11 3 12 4 2 6 1 7 69 8 70 9 71 10 72 11 3 12 4 15
REMARK SMILES IDX 5 16 6 17 7 18 8 19 9 20 10 21 15 22 16 23 17 24 18 25 19 26
REMARK SMILES IDX 20 28 21 29 22 30 68 31 23 32 67 33 24 34 25 35 26 36 61 37
REMARK SMILES IDX 27 38 66 39 60 40 62 41 28 42 65 43 59 44 58 45 29 47 51 48
REMARK SMILES IDX 36 49 50 50 37 51 40 52 49 53 63 54 38 55 39 56 48 58 64 59
REMARK SMILES IDX 41 60 30 61 31 62 35 63 32 64 34 65 33 66 52 67 53 68 57 69
REMARK SMILES IDX 54 70 56 71 55 72 42 73 43 74 47 75 44 76 46 77 45 78
REMARK H PARENT 13 5 3 13 3 14 18 27 62 46 40 57
REMARK Flexibility Score: inf
ROOT
ATOM      1  C   UNL A   1      35.868  21.812  25.072  1.00  0.00     0.116 C 
ENDROOT
BRANCH   1   2
ATOM      2  N   UNL A   1      34.654  21.088  24.736  1.00  0.00    -0.350 N 
ATOM      3  C   UNL A   1      33.335  21.276  25.047  1.00  0.00     0.290 C 
ATOM      4  O   UNL A   1      32.575  20.400  24.623  1.00  0.00    -0.267 OA
ATOM      5  H   UNL A   1      34.813  20.299  24.167  1.00  0.00     0.163 HD
BRANCH   3   6
ATOM      6  C   UNL A   1      32.829  22.507  25.847  1.00  0.00     0.268 C 
ATOM      7  C   UNL A   1      31.286  22.480  25.885  1.00  0.00     0.101 C 
BRANCH   6   8
ATOM      8  C   UNL A   1      33.311  22.286  27.315  1.00  0.00     0.453 C 
ATOM      9  F   UNL A   1      33.618  20.999  27.588  1.00  0.00    -0.164 F 
ATOM     10  F   UNL A   1      34.445  23.007  27.552  1.00  0.00    -0.164 F 
ATOM     11  F   UNL A   1      32.413  22.716  28.233  1.00  0.00    -0.164 F 
ENDBRANCH   6   8
BRANCH   6  12
ATOM     12  N   UNL A   1      33.338  23.750  25.139  1.00  0.00    -0.326 N 
ATOM     13  H   UNL A   1      32.871  23.814  24.235  1.00  0.00     0.347 HD
ATOM     14  H   UNL A   1      34.349  23.643  25.061  1.00  0.00     0.347 HD
BRANCH  12  15
ATOM     15  C   UNL A   1      33.111  24.998  25.858  1.00  0.00     0.262 C 
BRANCH  15  16
ATOM     16  C   UNL A   1      33.794  26.180  25.152  1.00  0.00     0.077 C 
BRANCH  16  17
ATOM     17  C   UNL A   1      33.007  26.897  24.057  1.00  0.00     0.142 C 
BRANCH  17  18
ATOM     18  S   UNL A   1      33.352  26.389  22.385  1.00  0.00     0.147 S 
ATOM     19  C   UNL A   1      31.754  26.113  21.654  1.00  0.00     0.158 C 
ATOM     20  O   UNL A   1      33.948  27.527  21.708  1.00  0.00    -0.229 OA
ATOM     21  O   UNL A   1      34.065  25.129  22.433  1.00  0.00    -0.229 OA
ENDBRANCH  17  18
ENDBRANCH  16  17
ENDBRANCH  15  16
ENDBRANCH  12  15
ENDBRANCH   6  12
ENDBRANCH   3   6
ENDBRANCH   1   2
BRANCH   1  22
ATOM     22  C   UNL A   1      37.064  21.314  24.262  1.00  0.00     0.023 C 
BRANCH  22  23
ATOM     23  C   UNL A   1      37.766  20.095  24.861  1.00  0.00     0.023 C 
BRANCH  23  24
ATOM     24  C   UNL A   1      38.904  20.412  25.826  1.00  0.00     0.116 C 
BRANCH  24  25
ATOM     25  N   UNL A   1      39.970  19.421  25.800  1.00  0.00    -0.352 N 
ATOM     26  C   UNL A   1      41.303  19.580  26.093  1.00  0.00     0.251 C 
ATOM     27  H   UNL A   1      39.698  18.512  25.536  1.00  0.00     0.163 HD
ATOM     28  O   UNL A   1      42.097  18.666  25.892  1.00  0.00    -0.269 OA
BRANCH  26  29
ATOM     29  C   UNL A   1      41.784  20.874  26.617  1.00  0.00     0.039 A 
ATOM     30  C   UNL A   1      42.232  21.842  25.716  1.00  0.00     0.014 A 
ATOM     31  C   UNL A   1      41.762  21.142  27.988  1.00  0.00     0.014 A 
ATOM     32  C   UNL A   1      42.590  23.106  26.185  1.00  0.00     0.010 A 
ATOM     33  C   UNL A   1      42.041  22.426  28.444  1.00  0.00     0.010 A 
ATOM     34  C   UNL A   1      42.459  23.422  27.548  1.00  0.00    -0.014 A 
BRANCH  34  35
ATOM     35  C   UNL A   1      42.740  24.790  28.052  1.00  0.00     0.031 A 
ATOM     36  C   UNL A   1      44.138  25.178  28.447  1.00  0.00     0.074 A 
ATOM     37  C   UNL A   1      41.726  25.663  28.213  1.00  0.00     0.049 A 
ATOM     38  N   UNL A   1      44.569  26.307  28.951  1.00  0.00    -0.248 NA
ATOM     39  C   UNL A   1      45.185  24.159  28.278  1.00  0.00     0.031 C 
ATOM     40  C   UNL A   1      40.319  25.398  27.903  1.00  0.00     0.029 A 
ATOM     41  N   UNL A   1      41.724  26.953  28.682  1.00  0.00    -0.354 N 
ATOM     42  C   UNL A   1      45.928  26.126  29.175  1.00  0.00     0.074 A 
ATOM     43  C   UNL A   1      46.240  24.765  28.801  1.00  0.00     0.031 C 
ATOM     44  C   UNL A   1      39.598  26.501  28.157  1.00  0.00     0.029 A 
ATOM     45  C   UNL A   1      40.479  27.534  28.691  1.00  0.00     0.049 A 
ATOM     46  H   UNL A   1      42.538  27.418  28.985  1.00  0.00     0.167 HD
ATOM     47  C   UNL A   1      46.839  27.018  29.632  1.00  0.00     0.031 A 
ATOM     48  C   UNL A   1      40.088  28.759  29.091  1.00  0.00     0.031 A 
ATOM     49  C   UNL A   1      46.530  28.374  29.998  1.00  0.00     0.049 A 
ATOM     50  C   UNL A   1      41.115  29.720  29.622  1.00  0.00     0.074 A 
ATOM     51  C   UNL A   1      47.393  29.371  30.415  1.00  0.00     0.029 A 
ATOM     52  N   UNL A   1      45.255  28.920  29.999  1.00  0.00    -0.354 N 
ATOM     53  N   UNL A   1      42.410  29.559  29.753  1.00  0.00    -0.248 NA
ATOM     54  C   UNL A   1      40.627  31.039  30.049  1.00  0.00     0.031 C 
ATOM     55  C   UNL A   1      46.634  30.503  30.729  1.00  0.00     0.029 A 
ATOM     56  C   UNL A   1      45.306  30.232  30.442  1.00  0.00     0.049 A 
ATOM     57  H   UNL A   1      44.437  28.448  29.726  1.00  0.00     0.167 HD
ATOM     58  C   UNL A   1      42.893  30.764  30.247  1.00  0.00     0.074 A 
ATOM     59  C   UNL A   1      41.756  31.651  30.375  1.00  0.00     0.031 C 
ATOM     60  C   UNL A   1      44.167  31.105  30.565  1.00  0.00     0.031 A 
BRANCH  47  61
ATOM     61  C   UNL A   1      48.260  26.546  29.776  1.00  0.00    -0.014 A 
ATOM     62  C   UNL A   1      48.705  25.910  30.947  1.00  0.00     0.009 A 
ATOM     63  C   UNL A   1      49.160  26.709  28.710  1.00  0.00     0.009 A 
ATOM     64  C   UNL A   1      50.029  25.483  31.062  1.00  0.00     0.001 A 
ATOM     65  C   UNL A   1      50.474  26.251  28.815  1.00  0.00     0.001 A 
ATOM     66  C   UNL A   1      50.911  25.648  29.995  1.00  0.00     0.000 A 
ENDBRANCH  47  61
BRANCH  48  67
ATOM     67  C   UNL A   1      38.658  29.158  28.993  1.00  0.00    -0.014 A 
ATOM     68  C   UNL A   1      38.139  29.657  27.788  1.00  0.00     0.009 A 
ATOM     69  C   UNL A   1      37.809  29.056  30.105  1.00  0.00     0.009 A 
ATOM     70  C   UNL A   1      36.809  30.075  27.708  1.00  0.00     0.001 A 
ATOM     71  C   UNL A   1      36.470  29.445  30.013  1.00  0.00     0.001 A 
ATOM     72  C   UNL A   1      35.975  29.964  28.818  1.00  0.00     0.000 A 
ENDBRANCH  48  67
BRANCH  60  73
ATOM     73  C   UNL A   1      44.406  32.510  31.041  1.00  0.00    -0.014 A 
ATOM     74  C   UNL A   1      44.665  33.556  30.140  1.00  0.00     0.009 A 
ATOM     75  C   UNL A   1      44.330  32.800  32.413  1.00  0.00     0.009 A 
ATOM     76  C   UNL A   1      44.880  34.854  30.609  1.00  0.00     0.001 A 
ATOM     77  C   UNL A   1      44.511  34.103  32.875  1.00  0.00     0.001 A 
ATOM     78  C   UNL A   1      44.796  35.127  31.974  1.00  0.00     0.000 A 
ENDBRANCH  60  73
ENDBRANCH  34  35
ENDBRANCH  26  29
ENDBRANCH  24  25
ENDBRANCH  23  24
ENDBRANCH  22  23
ENDBRANCH   1  22
TORSDOF 17
ENDMDL
MODEL 2
REMARK VINA RESULT:      -9.6      1.963      3.344
REMARK SMILES C[C@]([NH2+]CCCS(C)(=O)=O)(C(=O)NCCCCNC(=O)c1ccc(-c2c3nc(c(-c4ccccc4)c4ccc([nH]4)c(-c4ccccc4)c4nc(c(-c5ccccc5)c5ccc2[nH]5)C=C4)C=C3)cc1)C(F)(F)F
REMARK SMILES IDX 14 1 13 2 11 3 12 4 2 6 1 7 69 8 70 9 71 10 72 11 3 12 4 15
REMARK SMILES IDX 5 16 6 17 7 18 8 19 9 20 10 21 15 22 16 23 17 24 18 25 19 26
REMARK SMILES IDX 20 28 21 29 22 30 68 31 23 32 67 33 24 34 25 35 26 36 61 37
REMARK SMILES IDX 27 38 66 39 60 40 62 41 28 42 65 43 59 44 58 45 29 47 51 48
REMARK SMILES IDX 36 49 50 50 37 51 40 52 49 53 63 54 38 55 39 56 48 58 64 59
REMARK SMILES IDX 41 60 30 61 31 62 35 63 32 64 34 65 33 66 52 67 53 68 57 69
REMARK SMILES IDX 54 70 56 71 55 72 42 73 43 74 47 75 44 76 46 77 45 78
REMARK H PARENT 13 5 3 13 3 14 18 27 62 46 40 57
REMARK Flexibility Score: inf
ROOT
ATOM      1  C   UNL A   1      36.070  21.478  25.641  1.00  0.00     0.116 C 
ENDROOT
BRANCH   1   2
ATOM      2  N   UNL A   1      35.401  22.743  25.394  1.00  0.00    -0.350 N 
ATOM      3  C   UNL A   1      34.095  23.144  25.478  1.00  0.00     0.290 C 
ATOM      4  O   UNL A   1      33.890  24.308  25.122  1.00  0.00    -0.267 OA
ATOM      5  H   UNL A   1      36.013  23.461  25.109  1.00  0.00     0.163 HD
BRANCH   3   6
ATOM      6  C   UNL A   1      32.965  22.217  26.002  1.00  0.00     0.268 C 
ATOM      7  C   UNL A   1      33.410  21.595  27.343  1.00  0.00     0.101 C 
BRANCH   6   8
ATOM      8  C   UNL A   1      31.763  23.158  26.331  1.00  0.00     0.453 C 
ATOM      9  F   UNL A   1      31.287  23.813  25.249  1.00  0.00    -0.164 F 
ATOM     10  F   UNL A   1      30.719  22.432  26.825  1.00  0.00    -0.164 F 
ATOM     11  F   UNL A   1      32.055  24.068  27.290  1.00  0.00    -0.164 F 
ENDBRANCH   6   8
BRANCH   6  12
ATOM     12  N   UNL A   1      32.730  21.147  24.952  1.00  0.00    -0.326 N 
ATOM     13  H   UNL A   1      33.391  21.299  24.191  1.00  0.00     0.347 HD
ATOM     14  H   UNL A   1      31.757  21.237  24.663  1.00  0.00     0.347 HD
BRANCH  12  15
ATOM     15  C   UNL A   1      32.893  19.778  25.429  1.00  0.00     0.262 C 
BRANCH  15  16
ATOM     16  C   UNL A   1      33.468  18.870  24.330  1.00  0.00     0.077 C 
BRANCH  16  17
ATOM     17  C   UNL A   1      34.632  17.956  24.708  1.00  0.00     0.142 C 
BRANCH  17  18
ATOM     18  S   UNL A   1      34.348  16.208  24.515  1.00  0.00     0.147 S 
ATOM     19  C   UNL A   1      32.785  15.910  25.312  1.00  0.00     0.158 C 
ATOM     20  O   UNL A   1      34.166  15.961  23.096  1.00  0.00    -0.229 OA
ATOM     21  O   UNL A   1      35.382  15.499  25.240  1.00  0.00    -0.229 OA
ENDBRANCH  17  18
ENDBRANCH  16  17
ENDBRANCH  15  16
ENDBRANCH  12  15
ENDBRANCH   6  12
ENDBRANCH   3   6
ENDBRANCH   1   2
BRANCH   1  22
ATOM     22  C   UNL A   1      37.125  21.181  24.577  1.00  0.00     0.023 C 
BRANCH  22  23
ATOM     23  C   UNL A   1      38.029  19.990  24.901  1.00  0.00     0.023 C 
BRANCH  23  24
ATOM     24  C   UNL A   1      39.156  20.282  25.886  1.00  0.00     0.116 C 
BRANCH  24  25
ATOM     25  N   UNL A   1      40.221  19.291  25.847  1.00  0.00    -0.352 N 
ATOM     26  C   UNL A   1      41.565  19.460  26.077  1.00  0.00     0.251 C 
ATOM     27  H   UNL A   1      39.940  18.374  25.624  1.00  0.00     0.163 HD
ATOM     28  O   UNL A   1      42.352  18.540  25.872  1.00  0.00    -0.269 OA
BRANCH  26  29
ATOM     29  C   UNL A   1      42.066  20.770  26.539  1.00  0.00     0.039 A 
ATOM     30  C   UNL A   1      42.518  21.691  25.591  1.00  0.00     0.014 A 
ATOM     31  C   UNL A   1      42.060  21.101  27.896  1.00  0.00     0.014 A 
ATOM     32  C   UNL A   1      42.895  22.971  25.999  1.00  0.00     0.010 A 
ATOM     33  C   UNL A   1      42.358  22.401  28.291  1.00  0.00     0.010 A 
ATOM     34  C   UNL A   1      42.779  23.349  27.347  1.00  0.00    -0.014 A 
BRANCH  34  35
ATOM     35  C   UNL A   1      43.081  24.735  27.786  1.00  0.00     0.031 A 
ATOM     36  C   UNL A   1      44.504  25.159  28.031  1.00  0.00     0.074 A 
ATOM     37  C   UNL A   1      42.071  25.594  28.026  1.00  0.00     0.049 A 
ATOM     38  N   UNL A   1      44.959  26.309  28.461  1.00  0.00    -0.248 NA
ATOM     39  C   UNL A   1      45.549  24.154  27.784  1.00  0.00     0.031 C 
ATOM     40  C   UNL A   1      40.645  25.296  27.864  1.00  0.00     0.029 A 
ATOM     41  N   UNL A   1      42.089  26.896  28.461  1.00  0.00    -0.354 N 
ATOM     42  C   UNL A   1      46.336  26.158  28.553  1.00  0.00     0.074 A 
ATOM     43  C   UNL A   1      46.638  24.793  28.184  1.00  0.00     0.031 C 
ATOM     44  C   UNL A   1      39.930  26.393  28.161  1.00  0.00     0.029 A 
ATOM     45  C   UNL A   1      40.839  27.455  28.578  1.00  0.00     0.049 A 
ATOM     46  H   UNL A   1      42.919  27.384  28.669  1.00  0.00     0.167 HD
ATOM     47  C   UNL A   1      47.270  27.077  28.894  1.00  0.00     0.031 A 
ATOM     48  C   UNL A   1      40.465  28.683  28.985  1.00  0.00     0.031 A 
ATOM     49  C   UNL A   1      46.971  28.437  29.256  1.00  0.00     0.049 A 
ATOM     50  C   UNL A   1      41.520  29.677  29.387  1.00  0.00     0.074 A 
ATOM     51  C   UNL A   1      47.851  29.461  29.560  1.00  0.00     0.029 A 
ATOM     52  N   UNL A   1      45.692  28.961  29.370  1.00  0.00    -0.354 N 
ATOM     53  N   UNL A   1      42.824  29.541  29.393  1.00  0.00    -0.248 NA
ATOM     54  C   UNL A   1      41.049  30.998  29.828  1.00  0.00     0.031 C 
ATOM     55  C   UNL A   1      47.104  30.587  29.920  1.00  0.00     0.029 A 
ATOM     56  C   UNL A   1      45.760  30.284  29.773  1.00  0.00     0.049 A 
ATOM     57  H   UNL A   1      44.861  28.466  29.192  1.00  0.00     0.167 HD
ATOM     58  C   UNL A   1      43.329  30.768  29.806  1.00  0.00     0.074 A 
ATOM     59  C   UNL A   1      42.192  31.638  30.025  1.00  0.00     0.031 C 
ATOM     60  C   UNL A   1      44.620  31.140  29.986  1.00  0.00     0.031 A 
BRANCH  47  61
ATOM     61  C   UNL A   1      48.708  26.635  28.908  1.00  0.00    -0.014 A 
ATOM     62  C   UNL A   1      49.491  26.655  27.742  1.00  0.00     0.009 A 
ATOM     63  C   UNL A   1      49.300  26.226  30.114  1.00  0.00     0.009 A 
ATOM     64  C   UNL A   1      50.823  26.237  27.776  1.00  0.00     0.001 A 
ATOM     65  C   UNL A   1      50.641  25.841  30.151  1.00  0.00     0.001 A 
ATOM     66  C   UNL A   1      51.399  25.836  28.981  1.00  0.00     0.000 A 
ENDBRANCH  47  61
BRANCH  48  67
ATOM     67  C   UNL A   1      39.025  29.054  29.019  1.00  0.00    -0.014 A 
ATOM     68  C   UNL A   1      38.263  28.844  30.179  1.00  0.00     0.009 A 
ATOM     69  C   UNL A   1      38.400  29.606  27.890  1.00  0.00     0.009 A 
ATOM     70  C   UNL A   1      36.900  29.149  30.198  1.00  0.00     0.001 A 
ATOM     71  C   UNL A   1      37.044  29.940  27.921  1.00  0.00     0.001 A 
ATOM     72  C   UNL A   1      36.293  29.702  29.071  1.00  0.00     0.000 A 
ENDBRANCH  48  67
BRANCH  60  73
ATOM     73  C   UNL A   1      44.877  32.562  30.401  1.00  0.00    -0.014 A 
ATOM     74  C   UNL A   1      44.933  32.933  31.754  1.00  0.00     0.009 A 
ATOM     75  C   UNL A   1      45.106  33.540  29.419  1.00  0.00     0.009 A 
ATOM     76  C   UNL A   1      45.177  34.261  32.112  1.00  0.00     0.001 A 
ATOM     77  C   UNL A   1      45.383  34.858  29.780  1.00  0.00     0.001 A 
ATOM     78  C   UNL A   1      45.408  35.219  31.126  1.00  0.00     0.000 A 
ENDBRANCH  60  73
ENDBRANCH  34  35
ENDBRANCH  26  29
ENDBRANCH  24  25
ENDBRANCH  23  24
ENDBRANCH  22  23
ENDBRANCH   1  22
TORSDOF 17
ENDMDL
MODEL 3
REMARK VINA RESULT:      -9.6      2.209      6.939
REMARK SMILES C[C@]([NH2+]CCCS(C)(=O)=O)(C(=O)NCCCCNC(=O)c1ccc(-c2c3nc(c(-c4ccccc4)c4ccc([nH]4)c(-c4ccccc4)c4nc(c(-c5ccccc5)c5ccc2[nH]5)C=C4)C=C3)cc1)C(F)(F)F
REMARK SMILES IDX 14 1 13 2 11 3 12 4 2 6 1 7 69 8 70 9 71 10 72 11 3 12 4 15
REMARK SMILES IDX 5 16 6 17 7 18 8 19 9 20 10 21 15 22 16 23 17 24 18 25 19 26
REMARK SMILES IDX 20 28 21 29 22 30 68 31 23 32 67 33 24 34 25 35 26 36 61 37
REMARK SMILES IDX 27 38 66 39 60 40 62 41 28 42 65 43 59 44 58 45 29 47 51 48
REMARK SMILES IDX 36 49 50 50 37 51 40 52 49 53 63 54 38 55 39 56 48 58 64 59
REMARK SMILES IDX 41 60 30 61 31 62 35 63 32 64 34 65 33 66 52 67 53 68 57 69
REMARK SMILES IDX 54 70 56 71 55 72 42 73 43 74 47 75 44 76 46 77 45 78
REMARK H PARENT 13 5 3 13 3 14 18 27 62 46 40 57
REMARK Flexibility Score: inf
ROOT
ATOM      1  C   UNL A   1      35.552  21.290  25.767  1.00  0.00     0.116 C 
ENDROOT
BRANCH   1   2
ATOM      2  N   UNL A   1      34.947  22.575  26.069  1.00  0.00    -0.350 N 
ATOM      3  C   UNL A   1      33.699  23.096  25.857  1.00  0.00     0.290 C 
ATOM      4  O   UNL A   1      33.567  24.274  26.201  1.00  0.00    -0.267 OA
ATOM      5  H   UNL A   1      35.560  23.202  26.519  1.00  0.00     0.163 HD
BRANCH   3   6
ATOM      6  C   UNL A   1      32.534  22.264  25.256  1.00  0.00     0.268 C 
ATOM      7  C   UNL A   1      31.193  22.878  25.712  1.00  0.00     0.101 C 
BRANCH   6   8
ATOM      8  C   UNL A   1      32.614  22.477  23.711  1.00  0.00     0.453 C 
ATOM      9  F   UNL A   1      32.388  23.756  23.337  1.00  0.00    -0.164 F 
ATOM     10  F   UNL A   1      33.861  22.162  23.256  1.00  0.00    -0.164 F 
ATOM     11  F   UNL A   1      31.767  21.674  23.025  1.00  0.00    -0.164 F 
ENDBRANCH   6   8
BRANCH   6  12
ATOM     12  N   UNL A   1      32.685  20.840  25.759  1.00  0.00    -0.326 N 
ATOM     13  H   UNL A   1      32.072  20.722  26.566  1.00  0.00     0.347 HD
ATOM     14  H   UNL A   1      33.672  20.717  25.984  1.00  0.00     0.347 HD
BRANCH  12  15
ATOM     15  C   UNL A   1      32.355  19.809  24.782  1.00  0.00     0.262 C 
BRANCH  15  16
ATOM     16  C   UNL A   1      33.406  18.687  24.780  1.00  0.00     0.077 C 
BRANCH  16  17
ATOM     17  C   UNL A   1      32.998  17.338  25.369  1.00  0.00     0.142 C 
BRANCH  17  18
ATOM     18  S   UNL A   1      33.760  15.903  24.638  1.00  0.00     0.147 S 
ATOM     19  C   UNL A   1      35.398  15.854  25.331  1.00  0.00     0.158 C 
ATOM     20  O   UNL A   1      33.044  14.742  25.134  1.00  0.00    -0.229 OA
ATOM     21  O   UNL A   1      33.866  16.125  23.210  1.00  0.00    -0.229 OA
ENDBRANCH  17  18
ENDBRANCH  16  17
ENDBRANCH  15  16
ENDBRANCH  12  15
ENDBRANCH   6  12
ENDBRANCH   3   6
ENDBRANCH   1   2
BRANCH   1  22
ATOM     22  C   UNL A   1      36.760  21.438  24.845  1.00  0.00     0.023 C 
BRANCH  22  23
ATOM     23  C   UNL A   1      37.781  20.305  24.956  1.00  0.00     0.023 C 
BRANCH  23  24
ATOM     24  C   UNL A   1      39.004  20.616  25.812  1.00  0.00     0.116 C 
BRANCH  24  25
ATOM     25  N   UNL A   1      39.980  19.538  25.831  1.00  0.00    -0.352 N 
ATOM     26  C   UNL A   1      41.321  19.592  26.127  1.00  0.00     0.251 C 
ATOM     27  H   UNL A   1      39.632  18.646  25.598  1.00  0.00     0.163 HD
ATOM     28  O   UNL A   1      42.034  18.606  25.965  1.00  0.00    -0.269 OA
BRANCH  26  29
ATOM     29  C   UNL A   1      41.910  20.858  26.606  1.00  0.00     0.039 A 
ATOM     30  C   UNL A   1      42.398  21.772  25.670  1.00  0.00     0.014 A 
ATOM     31  C   UNL A   1      41.951  21.156  27.971  1.00  0.00     0.014 A 
ATOM     32  C   UNL A   1      42.860  23.017  26.098  1.00  0.00     0.010 A 
ATOM     33  C   UNL A   1      42.336  22.426  28.388  1.00  0.00     0.010 A 
ATOM     34  C   UNL A   1      42.795  23.369  27.457  1.00  0.00    -0.014 A 
BRANCH  34  35
ATOM     35  C   UNL A   1      43.190  24.724  27.920  1.00  0.00     0.031 A 
ATOM     36  C   UNL A   1      42.141  25.766  28.195  1.00  0.00     0.074 A 
ATOM     37  C   UNL A   1      44.496  25.035  28.033  1.00  0.00     0.049 A 
ATOM     38  N   UNL A   1      42.294  27.014  28.559  1.00  0.00    -0.248 NA
ATOM     39  C   UNL A   1      40.738  25.362  28.013  1.00  0.00     0.031 C 
ATOM     40  C   UNL A   1      45.613  24.127  27.759  1.00  0.00     0.029 A 
ATOM     41  N   UNL A   1      45.106  26.208  28.405  1.00  0.00    -0.354 N 
ATOM     42  C   UNL A   1      41.013  27.545  28.632  1.00  0.00     0.074 A 
ATOM     43  C   UNL A   1      40.098  26.502  28.224  1.00  0.00     0.031 C 
ATOM     44  C   UNL A   1      46.768  24.765  28.007  1.00  0.00     0.029 A 
ATOM     45  C   UNL A   1      46.478  26.137  28.410  1.00  0.00     0.049 A 
ATOM     46  H   UNL A   1      44.608  27.022  28.645  1.00  0.00     0.167 HD
ATOM     47  C   UNL A   1      40.629  28.785  29.021  1.00  0.00     0.031 A 
ATOM     48  C   UNL A   1      47.401  27.074  28.698  1.00  0.00     0.031 A 
ATOM     49  C   UNL A   1      41.538  29.821  29.431  1.00  0.00     0.049 A 
ATOM     50  C   UNL A   1      46.949  28.451  29.099  1.00  0.00     0.074 A 
ATOM     51  C   UNL A   1      41.243  31.089  29.900  1.00  0.00     0.029 A 
ATOM     52  N   UNL A   1      42.920  29.711  29.414  1.00  0.00    -0.354 N 
ATOM     53  N   UNL A   1      45.730  28.914  29.237  1.00  0.00    -0.248 NA
ATOM     54  C   UNL A   1      48.003  29.433  29.395  1.00  0.00     0.031 C 
ATOM     55  C   UNL A   1      42.447  31.769  30.107  1.00  0.00     0.029 A 
ATOM     56  C   UNL A   1      43.492  30.901  29.833  1.00  0.00     0.049 A 
ATOM     57  H   UNL A   1      43.420  28.908  29.146  1.00  0.00     0.167 HD
ATOM     58  C   UNL A   1      45.871  30.228  29.667  1.00  0.00     0.074 A 
ATOM     59  C   UNL A   1      47.292  30.482  29.782  1.00  0.00     0.031 C 
ATOM     60  C   UNL A   1      44.908  31.142  29.943  1.00  0.00     0.031 A 
BRANCH  47  61
ATOM     61  C   UNL A   1      39.156  29.092  29.005  1.00  0.00    -0.014 A 
ATOM     62  C   UNL A   1      38.527  29.601  27.857  1.00  0.00     0.009 A 
ATOM     63  C   UNL A   1      38.378  28.836  30.146  1.00  0.00     0.009 A 
ATOM     64  C   UNL A   1      37.160  29.883  27.864  1.00  0.00     0.001 A 
ATOM     65  C   UNL A   1      37.006  29.088  30.139  1.00  0.00     0.001 A 
ATOM     66  C   UNL A   1      36.399  29.621  29.002  1.00  0.00     0.000 A 
ENDBRANCH  47  61
BRANCH  48  67
ATOM     67  C   UNL A   1      48.850  26.743  28.634  1.00  0.00    -0.014 A 
ATOM     68  C   UNL A   1      49.540  26.339  29.788  1.00  0.00     0.009 A 
ATOM     69  C   UNL A   1      49.555  26.843  27.424  1.00  0.00     0.009 A 
ATOM     70  C   UNL A   1      50.910  26.072  29.738  1.00  0.00     0.001 A 
ATOM     71  C   UNL A   1      50.918  26.543  27.370  1.00  0.00     0.001 A 
ATOM     72  C   UNL A   1      51.596  26.169  28.529  1.00  0.00     0.000 A 
ENDBRANCH  48  67
BRANCH  60  73
ATOM     73  C   UNL A   1      45.357  32.488  30.438  1.00  0.00    -0.014 A 
ATOM     74  C   UNL A   1      45.579  33.557  29.556  1.00  0.00     0.009 A 
ATOM     75  C   UNL A   1      45.521  32.700  31.817  1.00  0.00     0.009 A 
ATOM     76  C   UNL A   1      45.992  34.799  30.043  1.00  0.00     0.001 A 
ATOM     77  C   UNL A   1      45.900  33.951  32.303  1.00  0.00     0.001 A 
ATOM     78  C   UNL A   1      46.145  34.997  31.415  1.00  0.00     0.000 A 
ENDBRANCH  60  73
ENDBRANCH  34  35
ENDBRANCH  26  29
ENDBRANCH  24  25
ENDBRANCH  23  24
ENDBRANCH  22  23
ENDBRANCH   1  22
TORSDOF 17
ENDMDL
