MODEL 1
REMARK VINA RESULT:     -13.2      0.000      0.000
REMARK SMILES C[C@H]1[C@H](C)CC[C@@]2(C(=O)NCCCCNC(=O)c3ccc(-c4c5nc(c(-c6ccccc6)c6ccc([nH]6)c(-c6ccccc6)c6nc(c(-c7ccccc7)c7ccc4[nH]7)C=C6)C=C5)cc3)CC[C@@]3(C)C(=CC[C@@H]4[C@@]5(C)CC[C@H](O)C(C)(C)[C@@H]5CC[C@]43C)[C@H]12
REMARK SMILES IDX 13 1 12 2 11 3 10 4 8 5 9 6 7 8 1 9 2 10 3 11 88 12 4 13
REMARK SMILES IDX 5 14 70 15 6 16 66 17 68 18 71 19 67 20 69 21 86 22 72 23
REMARK SMILES IDX 73 24 85 25 87 26 74 27 84 28 75 29 76 30 83 31 77 32 80 33
REMARK SMILES IDX 78 34 81 35 82 36 79 37 14 39 15 40 16 41 17 43 18 44 19 45
REMARK SMILES IDX 65 46 20 47 64 48 21 49 22 50 23 51 58 52 24 53 63 54 57 55
REMARK SMILES IDX 59 56 25 57 62 58 56 59 55 60 26 62 48 63 33 64 47 65 34 66
REMARK SMILES IDX 37 67 46 68 60 69 35 70 36 71 45 73 61 74 38 75 27 76 28 77
REMARK SMILES IDX 32 78 29 79 31 80 30 81 49 82 50 83 54 84 51 85 53 86 52 87
REMARK SMILES IDX 39 88 40 89 44 90 41 91 43 92 42 93
REMARK H PARENT 10 7 79 38 15 42 59 61 37 72
REMARK Flexibility Score: inf
ROOT
ATOM      1  C   UNL A   1      38.888  22.270  25.534  1.00  0.00     0.023 C 
ENDROOT
BRANCH   1   2
ATOM      2  C   UNL A   1      38.311  23.532  26.186  1.00  0.00     0.023 C 
BRANCH   2   3
ATOM      3  C   UNL A   1      36.794  23.732  26.094  1.00  0.00     0.116 C 
BRANCH   3   4
ATOM      4  N   UNL A   1      35.998  22.686  26.705  1.00  0.00    -0.356 N 
ATOM      5  C   UNL A   1      35.114  21.792  26.165  1.00  0.00     0.226 C 
ATOM      6  O   UNL A   1      34.193  21.486  26.934  1.00  0.00    -0.274 OA
ATOM      7  H   UNL A   1      36.114  22.604  27.679  1.00  0.00     0.163 HD
BRANCH   5   8
ATOM      8  C   UNL A   1      35.231  21.119  24.741  1.00  0.00     0.056 C 
ATOM      9  C   UNL A   1      32.046  18.874  24.113  1.00  0.00     0.008 C 
ATOM     10  C   UNL A   1      33.394  19.279  24.739  1.00  0.00    -0.003 C 
ATOM     11  C   UNL A   1      34.481  18.189  24.493  1.00  0.00    -0.011 C 
ATOM     12  C   UNL A   1      33.865  20.639  24.175  1.00  0.00     0.034 C 
ATOM     13  C   UNL A   1      34.180  16.853  25.194  1.00  0.00     0.008 C 
ATOM     14  C   UNL A   1      35.909  18.587  24.906  1.00  0.00     0.005 C 
ATOM     15  C   UNL A   1      32.937  21.864  24.236  1.00  0.00    -0.063 C 
ATOM     16  C   UNL A   1      36.324  20.033  24.703  1.00  0.00     0.018 C 
ATOM     17  C   UNL A   1      35.726  22.216  23.711  1.00  0.00     0.018 C 
ATOM     18  C   UNL A   1      33.234  22.963  23.180  1.00  0.00    -0.006 C 
ATOM     19  C   UNL A   1      32.132  22.085  25.297  1.00  0.00    -0.027 C 
ATOM     20  C   UNL A   1      34.747  23.346  23.337  1.00  0.00     0.013 C 
ATOM     21  C   UNL A   1      33.030  22.391  21.750  1.00  0.00     0.017 C 
ATOM     22  C   UNL A   1      32.273  24.263  23.385  1.00  0.00    -0.020 C 
ATOM     23  C   UNL A   1      31.591  23.437  25.680  1.00  0.00     0.032 C 
ATOM     24  C   UNL A   1      32.307  24.587  24.925  1.00  0.00     0.006 C 
ATOM     25  C   UNL A   1      32.741  25.474  22.534  1.00  0.00     0.008 C 
ATOM     26  C   UNL A   1      30.821  23.949  22.905  1.00  0.00     0.012 C 
ATOM     27  C   UNL A   1      31.972  26.058  25.416  1.00  0.00    -0.025 C 
ATOM     28  C   UNL A   1      32.118  26.803  22.968  1.00  0.00     0.005 C 
ATOM     29  C   UNL A   1      30.460  26.201  25.680  1.00  0.00     0.012 C 
ATOM     30  C   UNL A   1      32.733  26.300  26.762  1.00  0.00     0.010 C 
ATOM     31  C   UNL A   1      32.557  27.112  24.405  1.00  0.00     0.003 C 
ATOM     32  C   UNL A   1      32.673  27.739  27.269  1.00  0.00     0.033 C 
ATOM     33  C   UNL A   1      32.449  28.624  24.834  1.00  0.00    -0.006 C 
ATOM     34  C   UNL A   1      33.125  28.768  26.231  1.00  0.00     0.120 C 
ATOM     35  C   UNL A   1      31.014  29.193  24.822  1.00  0.00     0.014 C 
ATOM     36  C   UNL A   1      33.251  29.518  23.845  1.00  0.00     0.014 C 
BRANCH  34  37
ATOM     37  O   UNL A   1      32.942  30.078  26.768  1.00  0.00    -0.393 OA
ATOM     38  H   UNL A   1      33.726  30.617  26.580  1.00  0.00     0.210 HD
ENDBRANCH  34  37
ENDBRANCH   5   8
ENDBRANCH   3   4
ENDBRANCH   2   3
ENDBRANCH   1   2
BRANCH   1  39
ATOM     39  C   UNL A   1      39.283  21.118  26.457  1.00  0.00     0.116 C 
BRANCH  39  40
ATOM     40  N   UNL A   1      40.341  20.256  25.950  1.00  0.00    -0.352 N 
ATOM     41  C   UNL A   1      41.709  20.386  25.970  1.00  0.00     0.251 C 
ATOM     42  H   UNL A   1      40.019  19.432  25.516  1.00  0.00     0.163 HD
ATOM     43  O   UNL A   1      42.415  19.501  25.494  1.00  0.00    -0.269 OA
BRANCH  41  44
ATOM     44  C   UNL A   1      42.341  21.622  26.473  1.00  0.00     0.039 A 
ATOM     45  C   UNL A   1      42.695  22.599  25.539  1.00  0.00     0.014 A 
ATOM     46  C   UNL A   1      42.540  21.848  27.836  1.00  0.00     0.014 A 
ATOM     47  C   UNL A   1      43.108  23.858  25.977  1.00  0.00     0.010 A 
ATOM     48  C   UNL A   1      42.888  23.125  28.275  1.00  0.00     0.010 A 
ATOM     49  C   UNL A   1      43.127  24.152  27.348  1.00  0.00    -0.014 A 
BRANCH  49  50
ATOM     50  C   UNL A   1      43.270  25.551  27.824  1.00  0.00     0.031 A 
ATOM     51  C   UNL A   1      44.610  26.116  28.187  1.00  0.00     0.074 A 
ATOM     52  C   UNL A   1      42.156  26.287  28.012  1.00  0.00     0.049 A 
ATOM     53  N   UNL A   1      44.898  27.290  28.689  1.00  0.00    -0.248 NA
ATOM     54  C   UNL A   1      45.773  25.243  27.976  1.00  0.00     0.031 C 
ATOM     55  C   UNL A   1      40.789  25.845  27.725  1.00  0.00     0.029 A 
ATOM     56  N   UNL A   1      41.995  27.561  28.497  1.00  0.00    -0.354 N 
ATOM     57  C   UNL A   1      46.275  27.296  28.867  1.00  0.00     0.074 A 
ATOM     58  C   UNL A   1      46.756  25.993  28.455  1.00  0.00     0.031 C 
ATOM     59  C   UNL A   1      39.935  26.841  28.005  1.00  0.00     0.029 A 
ATOM     60  C   UNL A   1      40.685  27.972  28.540  1.00  0.00     0.049 A 
ATOM     61  H   UNL A   1      42.748  28.127  28.785  1.00  0.00     0.167 HD
ATOM     62  C   UNL A   1      47.066  28.298  29.318  1.00  0.00     0.031 A 
ATOM     63  C   UNL A   1      40.142  29.124  28.974  1.00  0.00     0.031 A 
ATOM     64  C   UNL A   1      46.586  29.589  29.737  1.00  0.00     0.049 A 
ATOM     65  C   UNL A   1      41.033  30.193  29.534  1.00  0.00     0.074 A 
ATOM     66  C   UNL A   1      47.318  30.689  30.152  1.00  0.00     0.029 A 
ATOM     67  N   UNL A   1      45.249  29.948  29.809  1.00  0.00    -0.354 N 
ATOM     68  N   UNL A   1      42.340  30.206  29.635  1.00  0.00    -0.248 NA
ATOM     69  C   UNL A   1      40.374  31.401  30.049  1.00  0.00     0.031 C 
ATOM     70  C   UNL A   1      46.418  31.694  30.528  1.00  0.00     0.029 A 
ATOM     71  C   UNL A   1      45.130  31.237  30.301  1.00  0.00     0.049 A 
ATOM     72  H   UNL A   1      44.494  29.370  29.549  1.00  0.00     0.167 HD
ATOM     73  C   UNL A   1      42.661  31.428  30.210  1.00  0.00     0.074 A 
ATOM     74  C   UNL A   1      41.413  32.134  30.423  1.00  0.00     0.031 C 
ATOM     75  C   UNL A   1      43.883  31.921  30.528  1.00  0.00     0.031 A 
BRANCH  62  76
ATOM     76  C   UNL A   1      48.540  28.017  29.403  1.00  0.00    -0.014 A 
ATOM     77  C   UNL A   1      49.392  28.271  28.316  1.00  0.00     0.009 A 
ATOM     78  C   UNL A   1      49.086  27.498  30.586  1.00  0.00     0.009 A 
ATOM     79  C   UNL A   1      50.752  27.966  28.396  1.00  0.00     0.001 A 
ATOM     80  C   UNL A   1      50.452  27.219  30.674  1.00  0.00     0.001 A 
ATOM     81  C   UNL A   1      51.280  27.441  29.575  1.00  0.00     0.000 A 
ENDBRANCH  62  76
BRANCH  63  82
ATOM     82  C   UNL A   1      38.674  29.327  28.885  1.00  0.00    -0.014 A 
ATOM     83  C   UNL A   1      37.867  29.129  30.014  1.00  0.00     0.009 A 
ATOM     84  C   UNL A   1      38.075  29.740  27.684  1.00  0.00     0.009 A 
ATOM     85  C   UNL A   1      36.487  29.330  29.942  1.00  0.00     0.001 A 
ATOM     86  C   UNL A   1      36.698  29.962  27.621  1.00  0.00     0.001 A 
ATOM     87  C   UNL A   1      35.905  29.753  28.748  1.00  0.00     0.000 A 
ENDBRANCH  63  82
BRANCH  75  88
ATOM     88  C   UNL A   1      43.929  33.292  31.137  1.00  0.00    -0.014 A 
ATOM     89  C   UNL A   1      43.968  34.439  30.329  1.00  0.00     0.009 A 
ATOM     90  C   UNL A   1      43.891  33.439  32.532  1.00  0.00     0.009 A 
ATOM     91  C   UNL A   1      43.990  35.709  30.911  1.00  0.00     0.001 A 
ATOM     92  C   UNL A   1      43.888  34.710  33.109  1.00  0.00     0.001 A 
ATOM     93  C   UNL A   1      43.943  35.843  32.298  1.00  0.00     0.000 A 
ENDBRANCH  75  88
ENDBRANCH  49  50
ENDBRANCH  41  44
ENDBRANCH  39  40
ENDBRANCH   1  39
TORSDOF 12
ENDMDL
MODEL 2
REMARK VINA RESULT:     -13.2      2.886      8.683
REMARK SMILES C[C@H]1[C@H](C)CC[C@@]2(C(=O)NCCCCNC(=O)c3ccc(-c4c5nc(c(-c6ccccc6)c6ccc([nH]6)c(-c6ccccc6)c6nc(c(-c7ccccc7)c7ccc4[nH]7)C=C6)C=C5)cc3)CC[C@@]3(C)C(=CC[C@@H]4[C@@]5(C)CC[C@H](O)C(C)(C)[C@@H]5CC[C@]43C)[C@H]12
REMARK SMILES IDX 13 1 12 2 11 3 10 4 8 5 9 6 7 8 1 9 2 10 3 11 88 12 4 13
REMARK SMILES IDX 5 14 70 15 6 16 66 17 68 18 71 19 67 20 69 21 86 22 72 23
REMARK SMILES IDX 73 24 85 25 87 26 74 27 84 28 75 29 76 30 83 31 77 32 80 33
REMARK SMILES IDX 78 34 81 35 82 36 79 37 14 39 15 40 16 41 17 43 18 44 19 45
REMARK SMILES IDX 65 46 20 47 64 48 21 49 22 50 23 51 58 52 24 53 63 54 57 55
REMARK SMILES IDX 59 56 25 57 62 58 56 59 55 60 26 62 48 63 33 64 47 65 34 66
REMARK SMILES IDX 37 67 46 68 60 69 35 70 36 71 45 73 61 74 38 75 27 76 28 77
REMARK SMILES IDX 32 78 29 79 31 80 30 81 49 82 50 83 54 84 51 85 53 86 52 87
REMARK SMILES IDX 39 88 40 89 44 90 41 91 43 92 42 93
REMARK H PARENT 10 7 79 38 15 42 59 61 37 72
REMARK Flexibility Score: inf
ROOT
ATOM      1  C   UNL A   1      33.843  30.730  27.981  1.00  0.00     0.023 C 
ENDROOT
BRANCH   1   2
ATOM      2  C   UNL A   1      34.878  29.700  27.512  1.00  0.00     0.023 C 
BRANCH   2   3
ATOM      3  C   UNL A   1      34.408  28.654  26.496  1.00  0.00     0.116 C 
BRANCH   3   4
ATOM      4  N   UNL A   1      34.049  29.180  25.194  1.00  0.00    -0.356 N 
ATOM      5  C   UNL A   1      32.867  29.154  24.503  1.00  0.00     0.226 C 
ATOM      6  O   UNL A   1      33.017  29.110  23.274  1.00  0.00    -0.274 OA
ATOM      7  H   UNL A   1      34.783  29.637  24.724  1.00  0.00     0.163 HD
BRANCH   5   8
ATOM      8  C   UNL A   1      31.423  29.241  25.136  1.00  0.00     0.056 C 
ATOM      9  C   UNL A   1      28.738  28.853  22.269  1.00  0.00     0.008 C 
ATOM     10  C   UNL A   1      29.838  29.543  23.097  1.00  0.00    -0.003 C 
ATOM     11  C   UNL A   1      29.338  30.899  23.682  1.00  0.00    -0.011 C 
ATOM     12  C   UNL A   1      30.320  28.616  24.236  1.00  0.00     0.034 C 
ATOM     13  C   UNL A   1      29.024  31.953  22.607  1.00  0.00     0.008 C 
ATOM     14  C   UNL A   1      30.294  31.569  24.685  1.00  0.00     0.005 C 
ATOM     15  C   UNL A   1      30.802  27.190  23.919  1.00  0.00    -0.063 C 
ATOM     16  C   UNL A   1      31.087  30.667  25.613  1.00  0.00     0.018 C 
ATOM     17  C   UNL A   1      31.404  28.365  26.456  1.00  0.00     0.018 C 
ATOM     18  C   UNL A   1      30.707  26.190  25.104  1.00  0.00    -0.006 C 
ATOM     19  C   UNL A   1      31.510  26.918  22.803  1.00  0.00    -0.027 C 
ATOM     20  C   UNL A   1      31.482  26.834  26.304  1.00  0.00     0.013 C 
ATOM     21  C   UNL A   1      29.223  26.014  25.529  1.00  0.00     0.017 C 
ATOM     22  C   UNL A   1      31.331  24.737  24.710  1.00  0.00    -0.020 C 
ATOM     23  C   UNL A   1      32.423  25.729  22.651  1.00  0.00     0.032 C 
ATOM     24  C   UNL A   1      32.709  25.036  24.008  1.00  0.00     0.006 C 
ATOM     25  C   UNL A   1      31.507  23.822  25.951  1.00  0.00     0.008 C 
ATOM     26  C   UNL A   1      30.365  23.969  23.754  1.00  0.00     0.012 C 
ATOM     27  C   UNL A   1      33.832  23.914  23.994  1.00  0.00    -0.025 C 
ATOM     28  C   UNL A   1      32.422  22.621  25.699  1.00  0.00     0.005 C 
ATOM     29  C   UNL A   1      33.681  23.023  22.747  1.00  0.00     0.012 C 
ATOM     30  C   UNL A   1      35.222  24.629  23.925  1.00  0.00     0.010 C 
ATOM     31  C   UNL A   1      33.828  23.130  25.358  1.00  0.00     0.003 C 
ATOM     32  C   UNL A   1      36.419  23.697  24.102  1.00  0.00     0.033 C 
ATOM     33  C   UNL A   1      34.992  22.089  25.566  1.00  0.00    -0.006 C 
ATOM     34  C   UNL A   1      36.342  22.844  25.370  1.00  0.00     0.120 C 
ATOM     35  C   UNL A   1      34.896  20.832  24.675  1.00  0.00     0.014 C 
ATOM     36  C   UNL A   1      34.976  21.556  27.028  1.00  0.00     0.014 C 
BRANCH  34  37
ATOM     37  O   UNL A   1      37.451  21.946  25.392  1.00  0.00    -0.393 OA
ATOM     38  H   UNL A   1      37.488  21.499  26.252  1.00  0.00     0.210 HD
ENDBRANCH  34  37
ENDBRANCH   5   8
ENDBRANCH   3   4
ENDBRANCH   2   3
ENDBRANCH   1   2
BRANCH   1  39
ATOM     39  C   UNL A   1      33.850  32.097  27.295  1.00  0.00     0.116 C 
BRANCH  39  40
ATOM     40  N   UNL A   1      33.272  33.181  28.076  1.00  0.00    -0.352 N 
ATOM     41  C   UNL A   1      33.758  33.891  29.148  1.00  0.00     0.251 C 
ATOM     42  H   UNL A   1      32.372  33.455  27.783  1.00  0.00     0.163 HD
ATOM     43  O   UNL A   1      33.088  34.797  29.636  1.00  0.00    -0.269 OA
BRANCH  41  44
ATOM     44  C   UNL A   1      35.038  33.516  29.782  1.00  0.00     0.039 A 
ATOM     45  C   UNL A   1      34.991  32.676  30.897  1.00  0.00     0.014 A 
ATOM     46  C   UNL A   1      36.267  33.934  29.269  1.00  0.00     0.014 A 
ATOM     47  C   UNL A   1      36.172  32.135  31.407  1.00  0.00     0.010 A 
ATOM     48  C   UNL A   1      37.440  33.343  29.734  1.00  0.00     0.010 A 
ATOM     49  C   UNL A   1      37.396  32.402  30.775  1.00  0.00    -0.014 A 
BRANCH  49  50
ATOM     50  C   UNL A   1      38.609  31.614  31.105  1.00  0.00     0.031 A 
ATOM     51  C   UNL A   1      39.585  32.086  32.140  1.00  0.00     0.074 A 
ATOM     52  C   UNL A   1      38.873  30.501  30.391  1.00  0.00     0.049 A 
ATOM     53  N   UNL A   1      40.729  31.558  32.494  1.00  0.00    -0.248 NA
ATOM     54  C   UNL A   1      39.239  33.321  32.859  1.00  0.00     0.031 C 
ATOM     55  C   UNL A   1      38.020  29.949  29.335  1.00  0.00     0.029 A 
ATOM     56  N   UNL A   1      39.937  29.636  30.439  1.00  0.00    -0.354 N 
ATOM     57  C   UNL A   1      41.248  32.400  33.467  1.00  0.00     0.074 A 
ATOM     58  C   UNL A   1      40.311  33.494  33.619  1.00  0.00     0.031 C 
ATOM     59  C   UNL A   1      38.575  28.824  28.862  1.00  0.00     0.029 A 
ATOM     60  C   UNL A   1      39.847  28.602  29.541  1.00  0.00     0.049 A 
ATOM     61  H   UNL A   1      40.694  29.747  31.060  1.00  0.00     0.167 HD
ATOM     62  C   UNL A   1      42.393  32.267  34.179  1.00  0.00     0.031 A 
ATOM     63  C   UNL A   1      40.697  27.592  29.279  1.00  0.00     0.031 A 
ATOM     64  C   UNL A   1      43.329  31.185  34.020  1.00  0.00     0.049 A 
ATOM     65  C   UNL A   1      41.991  27.505  30.032  1.00  0.00     0.074 A 
ATOM     66  C   UNL A   1      44.486  30.932  34.738  1.00  0.00     0.029 A 
ATOM     67  N   UNL A   1      43.223  30.184  33.068  1.00  0.00    -0.354 N 
ATOM     68  N   UNL A   1      42.437  28.274  30.995  1.00  0.00    -0.248 NA
ATOM     69  C   UNL A   1      42.903  26.416  29.656  1.00  0.00     0.031 C 
ATOM     70  C   UNL A   1      45.109  29.808  34.182  1.00  0.00     0.029 A 
ATOM     71  C   UNL A   1      44.315  29.334  33.150  1.00  0.00     0.049 A 
ATOM     72  H   UNL A   1      42.482  30.090  32.426  1.00  0.00     0.167 HD
ATOM     73  C   UNL A   1      43.673  27.755  31.351  1.00  0.00     0.074 A 
ATOM     74  C   UNL A   1      43.901  26.597  30.510  1.00  0.00     0.031 C 
ATOM     75  C   UNL A   1      44.540  28.198  32.294  1.00  0.00     0.031 A 
BRANCH  62  76
ATOM     76  C   UNL A   1      42.702  33.344  35.181  1.00  0.00    -0.014 A 
ATOM     77  C   UNL A   1      42.234  33.263  36.502  1.00  0.00     0.009 A 
ATOM     78  C   UNL A   1      43.476  34.451  34.801  1.00  0.00     0.009 A 
ATOM     79  C   UNL A   1      42.495  34.293  37.409  1.00  0.00     0.001 A 
ATOM     80  C   UNL A   1      43.759  35.465  35.717  1.00  0.00     0.001 A 
ATOM     81  C   UNL A   1      43.257  35.392  37.016  1.00  0.00     0.000 A 
ENDBRANCH  62  76
BRANCH  63  82
ATOM     82  C   UNL A   1      40.341  26.575  28.258  1.00  0.00    -0.014 A 
ATOM     83  C   UNL A   1      40.847  26.680  26.954  1.00  0.00     0.009 A 
ATOM     84  C   UNL A   1      39.518  25.484  28.582  1.00  0.00     0.009 A 
ATOM     85  C   UNL A   1      40.526  25.720  25.991  1.00  0.00     0.001 A 
ATOM     86  C   UNL A   1      39.219  24.515  27.624  1.00  0.00     0.001 A 
ATOM     87  C   UNL A   1      39.719  24.635  26.329  1.00  0.00     0.000 A 
ENDBRANCH  63  82
BRANCH  75  88
ATOM     88  C   UNL A   1      45.814  27.423  32.469  1.00  0.00    -0.014 A 
ATOM     89  C   UNL A   1      45.871  26.314  33.328  1.00  0.00     0.009 A 
ATOM     90  C   UNL A   1      46.956  27.780  31.737  1.00  0.00     0.009 A 
ATOM     91  C   UNL A   1      47.058  25.590  33.464  1.00  0.00     0.001 A 
ATOM     92  C   UNL A   1      48.133  27.040  31.857  1.00  0.00     0.001 A 
ATOM     93  C   UNL A   1      48.184  25.950  32.725  1.00  0.00     0.000 A 
ENDBRANCH  75  88
ENDBRANCH  49  50
ENDBRANCH  41  44
ENDBRANCH  39  40
ENDBRANCH   1  39
TORSDOF 12
ENDMDL
MODEL 3
REMARK VINA RESULT:     -13.1      2.075      8.109
REMARK SMILES C[C@H]1[C@H](C)CC[C@@]2(C(=O)NCCCCNC(=O)c3ccc(-c4c5nc(c(-c6ccccc6)c6ccc([nH]6)c(-c6ccccc6)c6nc(c(-c7ccccc7)c7ccc4[nH]7)C=C6)C=C5)cc3)CC[C@@]3(C)C(=CC[C@@H]4[C@@]5(C)CC[C@H](O)C(C)(C)[C@@H]5CC[C@]43C)[C@H]12
REMARK SMILES IDX 13 1 12 2 11 3 10 4 8 5 9 6 7 8 1 9 2 10 3 11 88 12 4 13
REMARK SMILES IDX 5 14 70 15 6 16 66 17 68 18 71 19 67 20 69 21 86 22 72 23
REMARK SMILES IDX 73 24 85 25 87 26 74 27 84 28 75 29 76 30 83 31 77 32 80 33
REMARK SMILES IDX 78 34 81 35 82 36 79 37 14 39 15 40 16 41 17 43 18 44 19 45
REMARK SMILES IDX 65 46 20 47 64 48 21 49 22 50 23 51 58 52 24 53 63 54 57 55
REMARK SMILES IDX 59 56 25 57 62 58 56 59 55 60 26 62 48 63 33 64 47 65 34 66
REMARK SMILES IDX 37 67 46 68 60 69 35 70 36 71 45 73 61 74 38 75 27 76 28 77
REMARK SMILES IDX 32 78 29 79 31 80 30 81 49 82 50 83 54 84 51 85 53 86 52 87
REMARK SMILES IDX 39 88 40 89 44 90 41 91 43 92 42 93
REMARK H PARENT 10 7 79 38 15 42 59 61 37 72
REMARK Flexibility Score: inf
ROOT
ATOM      1  C   UNL A   1      33.892  30.650  27.635  1.00  0.00     0.023 C 
ENDROOT
BRANCH   1   2
ATOM      2  C   UNL A   1      34.595  29.287  27.624  1.00  0.00     0.023 C 
BRANCH   2   3
ATOM      3  C   UNL A   1      34.288  28.354  26.447  1.00  0.00     0.116 C 
BRANCH   3   4
ATOM      4  N   UNL A   1      33.986  29.021  25.197  1.00  0.00    -0.356 N 
ATOM      5  C   UNL A   1      32.823  29.116  24.481  1.00  0.00     0.226 C 
ATOM      6  O   UNL A   1      33.003  29.187  23.257  1.00  0.00    -0.274 OA
ATOM      7  H   UNL A   1      34.752  29.488  24.791  1.00  0.00     0.163 HD
BRANCH   5   8
ATOM      8  C   UNL A   1      31.368  29.206  25.087  1.00  0.00     0.056 C 
ATOM      9  C   UNL A   1      28.735  28.897  22.163  1.00  0.00     0.008 C 
ATOM     10  C   UNL A   1      29.826  29.561  23.024  1.00  0.00    -0.003 C 
ATOM     11  C   UNL A   1      29.327  30.911  23.625  1.00  0.00    -0.011 C 
ATOM     12  C   UNL A   1      30.277  28.608  24.155  1.00  0.00     0.034 C 
ATOM     13  C   UNL A   1      29.044  31.987  22.563  1.00  0.00     0.008 C 
ATOM     14  C   UNL A   1      30.270  31.553  24.657  1.00  0.00     0.005 C 
ATOM     15  C   UNL A   1      30.751  27.183  23.822  1.00  0.00    -0.063 C 
ATOM     16  C   UNL A   1      31.036  30.626  25.584  1.00  0.00     0.018 C 
ATOM     17  C   UNL A   1      31.315  28.307  26.391  1.00  0.00     0.018 C 
ATOM     18  C   UNL A   1      30.623  26.163  24.986  1.00  0.00    -0.006 C 
ATOM     19  C   UNL A   1      31.478  26.925  22.715  1.00  0.00    -0.027 C 
ATOM     20  C   UNL A   1      31.382  26.778  26.213  1.00  0.00     0.013 C 
ATOM     21  C   UNL A   1      29.130  25.995  25.379  1.00  0.00     0.017 C 
ATOM     22  C   UNL A   1      31.242  24.712  24.577  1.00  0.00    -0.020 C 
ATOM     23  C   UNL A   1      32.382  25.730  22.558  1.00  0.00     0.032 C 
ATOM     24  C   UNL A   1      32.635  25.009  23.908  1.00  0.00     0.006 C 
ATOM     25  C   UNL A   1      31.385  23.772  25.805  1.00  0.00     0.008 C 
ATOM     26  C   UNL A   1      30.287  23.970  23.589  1.00  0.00     0.012 C 
ATOM     27  C   UNL A   1      33.748  23.878  23.895  1.00  0.00    -0.025 C 
ATOM     28  C   UNL A   1      32.293  22.567  25.549  1.00  0.00     0.005 C 
ATOM     29  C   UNL A   1      33.612  23.010  22.628  1.00  0.00     0.012 C 
ATOM     30  C   UNL A   1      35.146  24.580  23.866  1.00  0.00     0.010 C 
ATOM     31  C   UNL A   1      33.710  23.068  25.244  1.00  0.00     0.003 C 
ATOM     32  C   UNL A   1      36.330  23.632  24.048  1.00  0.00     0.033 C 
ATOM     33  C   UNL A   1      34.860  22.012  25.455  1.00  0.00    -0.006 C 
ATOM     34  C   UNL A   1      36.220  22.758  25.298  1.00  0.00     0.120 C 
ATOM     35  C   UNL A   1      34.769  20.773  24.539  1.00  0.00     0.014 C 
ATOM     36  C   UNL A   1      34.811  21.454  26.906  1.00  0.00     0.014 C 
BRANCH  34  37
ATOM     37  O   UNL A   1      37.321  21.849  25.325  1.00  0.00    -0.393 OA
ATOM     38  H   UNL A   1      37.126  21.124  25.939  1.00  0.00     0.210 HD
ENDBRANCH  34  37
ENDBRANCH   5   8
ENDBRANCH   3   4
ENDBRANCH   2   3
ENDBRANCH   1   2
BRANCH   1  39
ATOM     39  C   UNL A   1      34.690  31.851  28.144  1.00  0.00     0.116 C 
BRANCH  39  40
ATOM     40  N   UNL A   1      34.716  32.005  29.591  1.00  0.00    -0.352 N 
ATOM     41  C   UNL A   1      35.608  31.562  30.538  1.00  0.00     0.251 C 
ATOM     42  H   UNL A   1      33.959  32.519  29.956  1.00  0.00     0.163 HD
ATOM     43  O   UNL A   1      35.433  31.842  31.721  1.00  0.00    -0.269 OA
BRANCH  41  44
ATOM     44  C   UNL A   1      36.726  30.674  30.163  1.00  0.00     0.039 A 
ATOM     45  C   UNL A   1      37.347  30.894  28.931  1.00  0.00     0.014 A 
ATOM     46  C   UNL A   1      37.196  29.676  31.018  1.00  0.00     0.014 A 
ATOM     47  C   UNL A   1      38.527  30.218  28.619  1.00  0.00     0.010 A 
ATOM     48  C   UNL A   1      38.409  29.050  30.738  1.00  0.00     0.010 A 
ATOM     49  C   UNL A   1      39.108  29.353  29.559  1.00  0.00    -0.014 A 
BRANCH  49  50
ATOM     50  C   UNL A   1      40.496  28.859  29.380  1.00  0.00     0.031 A 
ATOM     51  C   UNL A   1      41.675  29.768  29.561  1.00  0.00     0.074 A 
ATOM     52  C   UNL A   1      40.683  27.591  28.961  1.00  0.00     0.049 A 
ATOM     53  N   UNL A   1      42.944  29.515  29.370  1.00  0.00    -0.248 NA
ATOM     54  C   UNL A   1      41.388  31.141  29.997  1.00  0.00     0.031 C 
ATOM     55  C   UNL A   1      39.620  26.613  28.718  1.00  0.00     0.029 A 
ATOM     56  N   UNL A   1      41.834  26.908  28.656  1.00  0.00    -0.354 N 
ATOM     57  C   UNL A   1      43.610  30.700  29.649  1.00  0.00     0.074 A 
ATOM     58  C   UNL A   1      42.598  31.681  29.985  1.00  0.00     0.031 C 
ATOM     59  C   UNL A   1      40.168  25.450  28.338  1.00  0.00     0.029 A 
ATOM     60  C   UNL A   1      41.615  25.612  28.258  1.00  0.00     0.049 A 
ATOM     61  H   UNL A   1      42.731  27.309  28.718  1.00  0.00     0.167 HD
ATOM     62  C   UNL A   1      44.942  30.946  29.640  1.00  0.00     0.031 A 
ATOM     63  C   UNL A   1      42.479  24.661  27.858  1.00  0.00     0.031 A 
ATOM     64  C   UNL A   1      45.947  29.974  29.297  1.00  0.00     0.049 A 
ATOM     65  C   UNL A   1      43.944  24.978  27.791  1.00  0.00     0.074 A 
ATOM     66  C   UNL A   1      47.325  30.112  29.318  1.00  0.00     0.029 A 
ATOM     67  N   UNL A   1      45.681  28.688  28.855  1.00  0.00    -0.354 N 
ATOM     68  N   UNL A   1      44.563  26.085  28.120  1.00  0.00    -0.248 NA
ATOM     69  C   UNL A   1      44.827  23.917  27.287  1.00  0.00     0.031 C 
ATOM     70  C   UNL A   1      47.890  28.925  28.835  1.00  0.00     0.029 A 
ATOM     71  C   UNL A   1      46.866  28.033  28.559  1.00  0.00     0.049 A 
ATOM     72  H   UNL A   1      44.782  28.296  28.763  1.00  0.00     0.167 HD
ATOM     73  C   UNL A   1      45.909  25.851  27.879  1.00  0.00     0.074 A 
ATOM     74  C   UNL A   1      46.018  24.491  27.388  1.00  0.00     0.031 C 
ATOM     75  C   UNL A   1      46.961  26.688  28.052  1.00  0.00     0.031 A 
BRANCH  62  76
ATOM     76  C   UNL A   1      45.381  32.340  29.993  1.00  0.00    -0.014 A 
ATOM     77  C   UNL A   1      45.660  32.700  31.321  1.00  0.00     0.009 A 
ATOM     78  C   UNL A   1      45.524  33.304  28.983  1.00  0.00     0.009 A 
ATOM     79  C   UNL A   1      46.026  34.009  31.637  1.00  0.00     0.001 A 
ATOM     80  C   UNL A   1      45.918  34.606  29.298  1.00  0.00     0.001 A 
ATOM     81  C   UNL A   1      46.155  34.961  30.625  1.00  0.00     0.000 A 
ENDBRANCH  62  76
BRANCH  63  82
ATOM     82  C   UNL A   1      41.976  23.311  27.500  1.00  0.00    -0.014 A 
ATOM     83  C   UNL A   1      41.606  23.026  26.178  1.00  0.00     0.009 A 
ATOM     84  C   UNL A   1      41.884  22.295  28.466  1.00  0.00     0.009 A 
ATOM     85  C   UNL A   1      41.143  21.756  25.830  1.00  0.00     0.001 A 
ATOM     86  C   UNL A   1      41.443  21.020  28.110  1.00  0.00     0.001 A 
ATOM     87  C   UNL A   1      41.068  20.752  26.795  1.00  0.00     0.000 A 
ENDBRANCH  63  82
BRANCH  75  88
ATOM     88  C   UNL A   1      48.322  26.154  27.714  1.00  0.00    -0.014 A 
ATOM     89  C   UNL A   1      48.874  26.344  26.438  1.00  0.00     0.009 A 
ATOM     90  C   UNL A   1      49.077  25.491  28.693  1.00  0.00     0.009 A 
ATOM     91  C   UNL A   1      50.151  25.860  26.144  1.00  0.00     0.001 A 
ATOM     92  C   UNL A   1      50.362  25.030  28.404  1.00  0.00     0.001 A 
ATOM     93  C   UNL A   1      50.895  25.210  27.128  1.00  0.00     0.000 A 
ENDBRANCH  75  88
ENDBRANCH  49  50
ENDBRANCH  41  44
ENDBRANCH  39  40
ENDBRANCH   1  39
TORSDOF 12
ENDMDL
