MODEL 1
REMARK VINA RESULT:     -11.9      0.000      0.000
REMARK SMILES O=C(NCCCCNC(=O)[C@H]1C[C@](O)(c2ccccc2Cl)[C@@H](c2ccccc2Cl)O1)c1ccc(-c2c3nc(c(-c4ccccc4)c4ccc([nH]4)c(-c4ccccc4)c4nc(c(-c5ccccc5)c5ccc2[nH]5)C=C4)C=C3)cc1
REMARK SMILES IDX 5 1 4 2 3 3 1 4 2 5 31 7 32 8 78 9 33 10 77 11 34 12 35 13
REMARK SMILES IDX 36 14 71 15 37 16 76 17 70 18 72 19 38 20 75 21 69 22 68 23
REMARK SMILES IDX 39 25 61 26 46 27 60 28 47 29 50 30 59 31 73 32 48 33 49 34
REMARK SMILES IDX 58 36 74 37 51 38 40 39 41 40 45 41 42 42 44 43 43 44 62 45
REMARK SMILES IDX 63 46 67 47 64 48 66 49 65 50 52 51 53 52 57 53 54 54 56 55
REMARK SMILES IDX 55 56 6 57 7 58 8 59 9 60 10 62 11 63 12 64 30 65 13 66
REMARK SMILES IDX 22 67 15 68 16 69 20 70 17 71 19 72 21 73 18 74 14 75 23 77
REMARK SMILES IDX 24 78 28 79 25 80 27 81 29 82 26 83
REMARK H PARENT 3 6 72 24 50 35 8 61 14 76
REMARK Flexibility Score: inf
ROOT
ATOM      1  C   UNL A   1      38.343  19.268  25.192  1.00  0.00     0.023 C 
ENDROOT
BRANCH   1   2
ATOM      2  C   UNL A   1      39.482  19.755  26.082  1.00  0.00     0.116 C 
BRANCH   2   3
ATOM      3  N   UNL A   1      40.742  19.094  25.793  1.00  0.00    -0.352 N 
ATOM      4  O   UNL A   1      42.959  18.901  25.455  1.00  0.00    -0.269 OA
ATOM      5  C   UNL A   1      42.025  19.577  25.877  1.00  0.00     0.251 C 
ATOM      6  H   UNL A   1      40.666  18.160  25.493  1.00  0.00     0.163 HD
BRANCH   5   7
ATOM      7  C   UNL A   1      42.291  20.917  26.450  1.00  0.00     0.039 A 
ATOM      8  C   UNL A   1      42.249  21.138  27.829  1.00  0.00     0.014 A 
ATOM      9  C   UNL A   1      42.629  21.964  25.586  1.00  0.00     0.014 A 
ATOM     10  C   UNL A   1      42.428  22.425  28.331  1.00  0.00     0.010 A 
ATOM     11  C   UNL A   1      42.877  23.241  26.098  1.00  0.00     0.010 A 
ATOM     12  C   UNL A   1      42.754  23.488  27.473  1.00  0.00    -0.014 A 
BRANCH  12  13
ATOM     13  C   UNL A   1      43.030  24.832  28.043  1.00  0.00     0.031 A 
ATOM     14  C   UNL A   1      44.426  25.256  28.406  1.00  0.00     0.074 A 
ATOM     15  C   UNL A   1      42.002  25.685  28.219  1.00  0.00     0.049 A 
ATOM     16  N   UNL A   1      44.839  26.403  28.886  1.00  0.00    -0.248 NA
ATOM     17  C   UNL A   1      45.498  24.267  28.213  1.00  0.00     0.031 C 
ATOM     18  C   UNL A   1      40.599  25.387  27.920  1.00  0.00     0.029 A 
ATOM     19  N   UNL A   1      41.978  26.978  28.677  1.00  0.00    -0.354 N 
ATOM     20  C   UNL A   1      46.209  26.269  29.069  1.00  0.00     0.074 A 
ATOM     21  C   UNL A   1      46.556  24.922  28.670  1.00  0.00     0.031 C 
ATOM     22  C   UNL A   1      39.858  26.479  28.160  1.00  0.00     0.029 A 
ATOM     23  C   UNL A   1      40.722  27.533  28.681  1.00  0.00     0.049 A 
ATOM     24  H   UNL A   1      42.783  27.462  28.971  1.00  0.00     0.167 HD
ATOM     25  C   UNL A   1      47.097  27.187  29.524  1.00  0.00     0.031 A 
ATOM     26  C   UNL A   1      40.302  28.750  29.073  1.00  0.00     0.031 A 
ATOM     27  C   UNL A   1      46.751  28.528  29.920  1.00  0.00     0.049 A 
ATOM     28  C   UNL A   1      41.303  29.738  29.593  1.00  0.00     0.074 A 
ATOM     29  C   UNL A   1      47.589  29.541  30.355  1.00  0.00     0.029 A 
ATOM     30  N   UNL A   1      45.463  29.040  29.938  1.00  0.00    -0.354 N 
ATOM     31  N   UNL A   1      42.602  29.609  29.715  1.00  0.00    -0.248 NA
ATOM     32  C   UNL A   1      40.781  31.042  30.026  1.00  0.00     0.031 C 
ATOM     33  C   UNL A   1      46.803  30.650  30.685  1.00  0.00     0.029 A 
ATOM     34  C   UNL A   1      45.481  30.345  30.403  1.00  0.00     0.049 A 
ATOM     35  H   UNL A   1      44.656  28.550  29.661  1.00  0.00     0.167 HD
ATOM     36  C   UNL A   1      43.055  30.817  30.226  1.00  0.00     0.074 A 
ATOM     37  C   UNL A   1      41.894  31.674  30.369  1.00  0.00     0.031 C 
ATOM     38  C   UNL A   1      44.318  31.182  30.551  1.00  0.00     0.031 A 
BRANCH  25  39
ATOM     39  C   UNL A   1      48.535  26.765  29.646  1.00  0.00    -0.014 A 
ATOM     40  C   UNL A   1      49.452  26.988  28.606  1.00  0.00     0.009 A 
ATOM     41  C   UNL A   1      48.992  26.188  30.841  1.00  0.00     0.009 A 
ATOM     42  C   UNL A   1      50.791  26.615  28.753  1.00  0.00     0.001 A 
ATOM     43  C   UNL A   1      50.335  25.839  30.994  1.00  0.00     0.001 A 
ATOM     44  C   UNL A   1      51.232  26.046  29.947  1.00  0.00     0.000 A 
ENDBRANCH  25  39
BRANCH  26  45
ATOM     45  C   UNL A   1      38.860  29.090  28.995  1.00  0.00    -0.014 A 
ATOM     46  C   UNL A   1      38.032  28.963  30.121  1.00  0.00     0.009 A 
ATOM     47  C   UNL A   1      38.308  29.566  27.795  1.00  0.00     0.009 A 
ATOM     48  C   UNL A   1      36.677  29.290  30.040  1.00  0.00     0.001 A 
ATOM     49  C   UNL A   1      36.959  29.920  27.725  1.00  0.00     0.001 A 
ATOM     50  C   UNL A   1      36.143  29.775  28.846  1.00  0.00     0.000 A 
ENDBRANCH  26  45
BRANCH  38  51
ATOM     51  C   UNL A   1      44.511  32.577  31.073  1.00  0.00    -0.014 A 
ATOM     52  C   UNL A   1      44.744  33.654  30.203  1.00  0.00     0.009 A 
ATOM     53  C   UNL A   1      44.436  32.821  32.453  1.00  0.00     0.009 A 
ATOM     54  C   UNL A   1      44.930  34.942  30.707  1.00  0.00     0.001 A 
ATOM     55  C   UNL A   1      44.595  34.114  32.953  1.00  0.00     0.001 A 
ATOM     56  C   UNL A   1      44.852  35.171  32.081  1.00  0.00     0.000 A 
ENDBRANCH  38  51
ENDBRANCH  12  13
ENDBRANCH   5   7
ENDBRANCH   2   3
ENDBRANCH   1   2
BRANCH   1  57
ATOM     57  C   UNL A   1      37.231  20.289  24.906  1.00  0.00     0.023 C 
BRANCH  57  58
ATOM     58  C   UNL A   1      37.573  21.746  25.243  1.00  0.00     0.116 C 
BRANCH  58  59
ATOM     59  N   UNL A   1      37.387  22.590  24.085  1.00  0.00    -0.354 N 
ATOM     60  C   UNL A   1      36.251  23.277  23.765  1.00  0.00     0.249 C 
ATOM     61  H   UNL A   1      38.150  22.677  23.469  1.00  0.00     0.163 HD
ATOM     62  O   UNL A   1      35.932  23.264  22.576  1.00  0.00    -0.272 OA
BRANCH  60  63
ATOM     63  C   UNL A   1      35.495  24.071  24.856  1.00  0.00     0.211 C 
ATOM     64  C   UNL A   1      34.635  25.159  24.220  1.00  0.00     0.085 C 
ATOM     65  O   UNL A   1      34.636  23.222  25.624  1.00  0.00    -0.357 OA
ATOM     66  C   UNL A   1      33.203  24.912  24.700  1.00  0.00     0.124 C 
ATOM     67  C   UNL A   1      33.257  23.462  25.273  1.00  0.00     0.187 C 
BRANCH  66  68
ATOM     68  C   UNL A   1      32.752  26.054  25.653  1.00  0.00     0.005 A 
ATOM     69  C   UNL A   1      33.750  26.984  26.055  1.00  0.00     0.008 A 
ATOM     70  C   UNL A   1      31.459  26.290  26.165  1.00  0.00     0.047 A 
ATOM     71  C   UNL A   1      33.465  28.124  26.812  1.00  0.00     0.001 A 
ATOM     72  C   UNL A   1      31.169  27.461  26.894  1.00  0.00     0.021 A 
ATOM     73  Cl  UNL A   1      30.135  25.183  26.066  1.00  0.00    -0.084 Cl
ATOM     74  C   UNL A   1      32.164  28.383  27.204  1.00  0.00     0.002 A 
ENDBRANCH  66  68
BRANCH  66  75
ATOM     75  O   UNL A   1      32.340  25.029  23.547  1.00  0.00    -0.382 OA
ATOM     76  H   UNL A   1      31.751  25.792  23.661  1.00  0.00     0.212 HD
ENDBRANCH  66  75
BRANCH  67  77
ATOM     77  C   UNL A   1      32.782  22.248  24.475  1.00  0.00     0.003 A 
ATOM     78  C   UNL A   1      32.335  22.374  23.145  1.00  0.00     0.008 A 
ATOM     79  C   UNL A   1      32.875  20.939  24.996  1.00  0.00     0.046 A 
ATOM     80  C   UNL A   1      32.028  21.260  22.360  1.00  0.00     0.000 A 
ATOM     81  C   UNL A   1      32.550  19.824  24.212  1.00  0.00     0.021 A 
ATOM     82  Cl  UNL A   1      33.391  20.602  26.615  1.00  0.00    -0.084 Cl
ATOM     83  C   UNL A   1      32.138  19.982  22.892  1.00  0.00     0.002 A 
ENDBRANCH  67  77
ENDBRANCH  60  63
ENDBRANCH  58  59
ENDBRANCH  57  58
ENDBRANCH   1  57
TORSDOF 14
ENDMDL
MODEL 2
REMARK VINA RESULT:     -11.8      3.893      9.082
REMARK SMILES O=C(NCCCCNC(=O)[C@H]1C[C@](O)(c2ccccc2Cl)[C@@H](c2ccccc2Cl)O1)c1ccc(-c2c3nc(c(-c4ccccc4)c4ccc([nH]4)c(-c4ccccc4)c4nc(c(-c5ccccc5)c5ccc2[nH]5)C=C4)C=C3)cc1
REMARK SMILES IDX 5 1 4 2 3 3 1 4 2 5 31 7 32 8 78 9 33 10 77 11 34 12 35 13
REMARK SMILES IDX 36 14 71 15 37 16 76 17 70 18 72 19 38 20 75 21 69 22 68 23
REMARK SMILES IDX 39 25 61 26 46 27 60 28 47 29 50 30 59 31 73 32 48 33 49 34
REMARK SMILES IDX 58 36 74 37 51 38 40 39 41 40 45 41 42 42 44 43 43 44 62 45
REMARK SMILES IDX 63 46 67 47 64 48 66 49 65 50 52 51 53 52 57 53 54 54 56 55
REMARK SMILES IDX 55 56 6 57 7 58 8 59 9 60 10 62 11 63 12 64 30 65 13 66
REMARK SMILES IDX 22 67 15 68 16 69 20 70 17 71 19 72 21 73 18 74 14 75 23 77
REMARK SMILES IDX 24 78 28 79 25 80 27 81 29 82 26 83
REMARK H PARENT 3 6 72 24 50 35 8 61 14 76
REMARK Flexibility Score: inf
ROOT
ATOM      1  C   UNL A   1      31.421  32.609  26.637  1.00  0.00     0.023 C 
ENDROOT
BRANCH   1   2
ATOM      2  C   UNL A   1      32.721  33.143  27.229  1.00  0.00     0.116 C 
BRANCH   2   3
ATOM      3  N   UNL A   1      32.533  34.369  27.982  1.00  0.00    -0.352 N 
ATOM      4  O   UNL A   1      32.864  35.870  29.627  1.00  0.00    -0.269 OA
ATOM      5  C   UNL A   1      33.267  34.877  29.027  1.00  0.00     0.251 C 
ATOM      6  H   UNL A   1      31.766  34.919  27.704  1.00  0.00     0.163 HD
BRANCH   5   7
ATOM      7  C   UNL A   1      34.527  34.225  29.451  1.00  0.00     0.039 A 
ATOM      8  C   UNL A   1      35.734  34.482  28.796  1.00  0.00     0.014 A 
ATOM      9  C   UNL A   1      34.503  33.369  30.557  1.00  0.00     0.014 A 
ATOM     10  C   UNL A   1      36.886  33.795  29.170  1.00  0.00     0.010 A 
ATOM     11  C   UNL A   1      35.676  32.733  30.976  1.00  0.00     0.010 A 
ATOM     12  C   UNL A   1      36.873  32.921  30.270  1.00  0.00    -0.014 A 
BRANCH  12  13
ATOM     13  C   UNL A   1      38.136  32.272  30.705  1.00  0.00     0.031 A 
ATOM     14  C   UNL A   1      38.969  32.848  31.816  1.00  0.00     0.074 A 
ATOM     15  C   UNL A   1      38.524  31.135  30.095  1.00  0.00     0.049 A 
ATOM     16  N   UNL A   1      40.081  32.387  32.334  1.00  0.00    -0.248 NA
ATOM     17  C   UNL A   1      38.503  34.105  32.421  1.00  0.00     0.031 C 
ATOM     18  C   UNL A   1      37.810  30.483  28.994  1.00  0.00     0.029 A 
ATOM     19  N   UNL A   1      39.602  30.318  30.323  1.00  0.00    -0.354 N 
ATOM     20  C   UNL A   1      40.456  33.302  33.309  1.00  0.00     0.074 A 
ATOM     21  C   UNL A   1      39.466  34.358  33.296  1.00  0.00     0.031 C 
ATOM     22  C   UNL A   1      38.444  29.347  28.671  1.00  0.00     0.029 A 
ATOM     23  C   UNL A   1      39.636  29.217  29.502  1.00  0.00     0.049 A 
ATOM     24  H   UNL A   1      40.284  30.501  31.008  1.00  0.00     0.167 HD
ATOM     25  C   UNL A   1      41.525  33.264  34.141  1.00  0.00     0.031 A 
ATOM     26  C   UNL A   1      40.533  28.218  29.413  1.00  0.00     0.031 A 
ATOM     27  C   UNL A   1      42.510  32.213  34.154  1.00  0.00     0.049 A 
ATOM     28  C   UNL A   1      41.718  28.212  30.331  1.00  0.00     0.074 A 
ATOM     29  C   UNL A   1      43.605  32.069  34.989  1.00  0.00     0.029 A 
ATOM     30  N   UNL A   1      42.525  31.132  33.286  1.00  0.00    -0.354 N 
ATOM     31  N   UNL A   1      42.031  29.062  31.279  1.00  0.00    -0.248 NA
ATOM     32  C   UNL A   1      42.673  27.106  30.171  1.00  0.00     0.031 C 
ATOM     33  C   UNL A   1      44.311  30.927  34.594  1.00  0.00     0.029 A 
ATOM     34  C   UNL A   1      43.625  30.332  33.548  1.00  0.00     0.049 A 
ATOM     35  H   UNL A   1      41.853  30.959  32.588  1.00  0.00     0.167 HD
ATOM     36  C   UNL A   1      43.210  28.589  31.836  1.00  0.00     0.074 A 
ATOM     37  C   UNL A   1      43.544  27.364  31.136  1.00  0.00     0.031 C 
ATOM     38  C   UNL A   1      43.951  29.123  32.836  1.00  0.00     0.031 A 
BRANCH  25  39
ATOM     39  C   UNL A   1      41.706  34.411  35.098  1.00  0.00    -0.014 A 
ATOM     40  C   UNL A   1      42.530  35.502  34.781  1.00  0.00     0.009 A 
ATOM     41  C   UNL A   1      40.997  34.425  36.309  1.00  0.00     0.009 A 
ATOM     42  C   UNL A   1      42.660  36.571  35.672  1.00  0.00     0.001 A 
ATOM     43  C   UNL A   1      41.110  35.505  37.186  1.00  0.00     0.001 A 
ATOM     44  C   UNL A   1      41.947  36.574  36.870  1.00  0.00     0.000 A 
ENDBRANCH  25  39
BRANCH  26  45
ATOM     45  C   UNL A   1      40.341  27.146  28.404  1.00  0.00    -0.014 A 
ATOM     46  C   UNL A   1      39.569  26.013  28.699  1.00  0.00     0.009 A 
ATOM     47  C   UNL A   1      40.915  27.265  27.127  1.00  0.00     0.009 A 
ATOM     48  C   UNL A   1      39.391  25.012  27.742  1.00  0.00     0.001 A 
ATOM     49  C   UNL A   1      40.711  26.277  26.163  1.00  0.00     0.001 A 
ATOM     50  C   UNL A   1      39.955  25.148  26.474  1.00  0.00     0.000 A 
ENDBRANCH  26  45
BRANCH  38  51
ATOM     51  C   UNL A   1      45.186  28.372  33.246  1.00  0.00    -0.014 A 
ATOM     52  C   UNL A   1      45.134  27.364  34.221  1.00  0.00     0.009 A 
ATOM     53  C   UNL A   1      46.413  28.660  32.629  1.00  0.00     0.009 A 
ATOM     54  C   UNL A   1      46.293  26.683  34.595  1.00  0.00     0.001 A 
ATOM     55  C   UNL A   1      47.566  27.959  32.985  1.00  0.00     0.001 A 
ATOM     56  C   UNL A   1      47.507  26.979  33.974  1.00  0.00     0.000 A 
ENDBRANCH  38  51
ENDBRANCH  12  13
ENDBRANCH   5   7
ENDBRANCH   2   3
ENDBRANCH   1   2
BRANCH   1  57
ATOM     57  C   UNL A   1      31.420  31.123  26.249  1.00  0.00     0.023 C 
BRANCH  57  58
ATOM     58  C   UNL A   1      32.633  30.316  26.732  1.00  0.00     0.116 C 
BRANCH  58  59
ATOM     59  N   UNL A   1      32.207  29.212  27.561  1.00  0.00    -0.354 N 
ATOM     60  C   UNL A   1      32.067  27.913  27.163  1.00  0.00     0.249 C 
ATOM     61  H   UNL A   1      31.998  29.415  28.502  1.00  0.00     0.163 HD
ATOM     62  O   UNL A   1      31.074  27.325  27.588  1.00  0.00    -0.272 OA
BRANCH  60  63
ATOM     63  C   UNL A   1      33.164  27.250  26.295  1.00  0.00     0.211 C 
ATOM     64  C   UNL A   1      33.041  25.730  26.358  1.00  0.00     0.085 C 
ATOM     65  O   UNL A   1      33.058  27.645  24.923  1.00  0.00    -0.357 OA
ATOM     66  C   UNL A   1      32.892  25.249  24.913  1.00  0.00     0.124 C 
ATOM     67  C   UNL A   1      32.544  26.554  24.130  1.00  0.00     0.187 C 
BRANCH  66  68
ATOM     68  C   UNL A   1      34.156  24.456  24.478  1.00  0.00     0.005 A 
ATOM     69  C   UNL A   1      35.269  24.492  25.362  1.00  0.00     0.008 A 
ATOM     70  C   UNL A   1      34.332  23.688  23.309  1.00  0.00     0.047 A 
ATOM     71  C   UNL A   1      36.426  23.733  25.158  1.00  0.00     0.001 A 
ATOM     72  C   UNL A   1      35.483  22.894  23.127  1.00  0.00     0.021 A 
ATOM     73  Cl  UNL A   1      33.264  23.689  21.949  1.00  0.00    -0.084 Cl
ATOM     74  C   UNL A   1      36.520  22.904  24.055  1.00  0.00     0.002 A 
ENDBRANCH  66  68
BRANCH  66  75
ATOM     75  O   UNL A   1      31.821  24.280  24.893  1.00  0.00    -0.382 OA
ATOM     76  H   UNL A   1      31.534  24.097  25.801  1.00  0.00     0.212 HD
ENDBRANCH  66  75
BRANCH  67  77
ATOM     77  C   UNL A   1      31.112  26.919  23.743  1.00  0.00     0.003 A 
ATOM     78  C   UNL A   1      30.014  26.165  24.201  1.00  0.00     0.008 A 
ATOM     79  C   UNL A   1      30.821  28.087  23.005  1.00  0.00     0.046 A 
ATOM     80  C   UNL A   1      28.695  26.565  23.969  1.00  0.00     0.000 A 
ATOM     81  C   UNL A   1      29.497  28.476  22.759  1.00  0.00     0.021 A 
ATOM     82  Cl  UNL A   1      32.048  29.123  22.355  1.00  0.00    -0.084 Cl
ATOM     83  C   UNL A   1      28.435  27.723  23.250  1.00  0.00     0.002 A 
ENDBRANCH  67  77
ENDBRANCH  60  63
ENDBRANCH  58  59
ENDBRANCH  57  58
ENDBRANCH   1  57
TORSDOF 14
ENDMDL
MODEL 3
REMARK VINA RESULT:     -11.8      3.854      9.024
REMARK SMILES O=C(NCCCCNC(=O)[C@H]1C[C@](O)(c2ccccc2Cl)[C@@H](c2ccccc2Cl)O1)c1ccc(-c2c3nc(c(-c4ccccc4)c4ccc([nH]4)c(-c4ccccc4)c4nc(c(-c5ccccc5)c5ccc2[nH]5)C=C4)C=C3)cc1
REMARK SMILES IDX 5 1 4 2 3 3 1 4 2 5 31 7 32 8 78 9 33 10 77 11 34 12 35 13
REMARK SMILES IDX 36 14 71 15 37 16 76 17 70 18 72 19 38 20 75 21 69 22 68 23
REMARK SMILES IDX 39 25 61 26 46 27 60 28 47 29 50 30 59 31 73 32 48 33 49 34
REMARK SMILES IDX 58 36 74 37 51 38 40 39 41 40 45 41 42 42 44 43 43 44 62 45
REMARK SMILES IDX 63 46 67 47 64 48 66 49 65 50 52 51 53 52 57 53 54 54 56 55
REMARK SMILES IDX 55 56 6 57 7 58 8 59 9 60 10 62 11 63 12 64 30 65 13 66
REMARK SMILES IDX 22 67 15 68 16 69 20 70 17 71 19 72 21 73 18 74 14 75 23 77
REMARK SMILES IDX 24 78 28 79 25 80 27 81 29 82 26 83
REMARK H PARENT 3 6 72 24 50 35 8 61 14 76
REMARK Flexibility Score: inf
ROOT
ATOM      1  C   UNL A   1      31.616  32.364  26.866  1.00  0.00     0.023 C 
ENDROOT
BRANCH   1   2
ATOM      2  C   UNL A   1      32.902  33.129  27.162  1.00  0.00     0.116 C 
BRANCH   2   3
ATOM      3  N   UNL A   1      32.676  34.315  27.968  1.00  0.00    -0.352 N 
ATOM      4  O   UNL A   1      32.921  35.725  29.706  1.00  0.00    -0.269 OA
ATOM      5  C   UNL A   1      33.354  34.762  29.076  1.00  0.00     0.251 C 
ATOM      6  H   UNL A   1      31.927  34.883  27.678  1.00  0.00     0.163 HD
BRANCH   5   7
ATOM      7  C   UNL A   1      34.587  34.082  29.534  1.00  0.00     0.039 A 
ATOM      8  C   UNL A   1      34.556  33.143  30.568  1.00  0.00     0.014 A 
ATOM      9  C   UNL A   1      35.792  34.363  28.882  1.00  0.00     0.014 A 
ATOM     10  C   UNL A   1      35.744  32.578  31.026  1.00  0.00     0.010 A 
ATOM     11  C   UNL A   1      36.974  33.740  29.297  1.00  0.00     0.010 A 
ATOM     12  C   UNL A   1      36.964  32.861  30.390  1.00  0.00    -0.014 A 
BRANCH  12  13
ATOM     13  C   UNL A   1      38.202  32.175  30.839  1.00  0.00     0.031 A 
ATOM     14  C   UNL A   1      38.686  30.918  30.171  1.00  0.00     0.074 A 
ATOM     15  C   UNL A   1      38.906  32.707  31.857  1.00  0.00     0.049 A 
ATOM     16  N   UNL A   1      39.761  30.214  30.424  1.00  0.00    -0.248 NA
ATOM     17  C   UNL A   1      37.856  30.375  29.084  1.00  0.00     0.031 C 
ATOM     18  C   UNL A   1      38.533  33.916  32.598  1.00  0.00     0.029 A 
ATOM     19  N   UNL A   1      40.086  32.313  32.434  1.00  0.00    -0.354 N 
ATOM     20  C   UNL A   1      39.729  29.140  29.544  1.00  0.00     0.074 A 
ATOM     21  C   UNL A   1      38.516  29.271  28.765  1.00  0.00     0.031 C 
ATOM     22  C   UNL A   1      39.487  34.188  33.501  1.00  0.00     0.029 A 
ATOM     23  C   UNL A   1      40.507  33.147  33.441  1.00  0.00     0.049 A 
ATOM     24  H   UNL A   1      40.584  31.512  32.153  1.00  0.00     0.167 HD
ATOM     25  C   UNL A   1      40.631  28.138  29.396  1.00  0.00     0.031 A 
ATOM     26  C   UNL A   1      41.587  33.080  34.241  1.00  0.00     0.031 A 
ATOM     27  C   UNL A   1      41.838  28.008  30.171  1.00  0.00     0.049 A 
ATOM     28  C   UNL A   1      42.556  31.948  34.071  1.00  0.00     0.074 A 
ATOM     29  C   UNL A   1      42.831  27.049  30.064  1.00  0.00     0.029 A 
ATOM     30  N   UNL A   1      42.212  28.857  31.201  1.00  0.00    -0.354 N 
ATOM     31  N   UNL A   1      42.533  30.967  33.202  1.00  0.00    -0.248 NA
ATOM     32  C   UNL A   1      43.704  31.917  34.989  1.00  0.00     0.031 C 
ATOM     33  C   UNL A   1      43.781  27.288  31.063  1.00  0.00     0.029 A 
ATOM     34  C   UNL A   1      43.407  28.427  31.756  1.00  0.00     0.049 A 
ATOM     35  H   UNL A   1      41.704  29.647  31.495  1.00  0.00     0.167 HD
ATOM     36  C   UNL A   1      43.666  30.209  33.459  1.00  0.00     0.074 A 
ATOM     37  C   UNL A   1      44.368  30.857  34.549  1.00  0.00     0.031 C 
ATOM     38  C   UNL A   1      44.087  29.075  32.848  1.00  0.00     0.031 A 
BRANCH  25  39
ATOM     39  C   UNL A   1      40.334  27.078  28.370  1.00  0.00    -0.014 A 
ATOM     40  C   UNL A   1      40.866  27.150  27.073  1.00  0.00     0.009 A 
ATOM     41  C   UNL A   1      39.558  25.964  28.726  1.00  0.00     0.009 A 
ATOM     42  C   UNL A   1      40.602  26.139  26.145  1.00  0.00     0.001 A 
ATOM     43  C   UNL A   1      39.317  24.943  27.804  1.00  0.00     0.001 A 
ATOM     44  C   UNL A   1      39.832  25.035  26.512  1.00  0.00     0.000 A 
ENDBRANCH  25  39
BRANCH  26  45
ATOM     45  C   UNL A   1      41.795  34.115  35.284  1.00  0.00    -0.014 A 
ATOM     46  C   UNL A   1      42.597  35.238  35.029  1.00  0.00     0.009 A 
ATOM     47  C   UNL A   1      41.172  33.994  36.537  1.00  0.00     0.009 A 
ATOM     48  C   UNL A   1      42.784  36.210  36.014  1.00  0.00     0.001 A 
ATOM     49  C   UNL A   1      41.336  34.982  37.509  1.00  0.00     0.001 A 
ATOM     50  C   UNL A   1      42.148  36.085  37.249  1.00  0.00     0.000 A 
ENDBRANCH  26  45
BRANCH  38  51
ATOM     51  C   UNL A   1      45.376  28.477  33.334  1.00  0.00    -0.014 A 
ATOM     52  C   UNL A   1      45.390  27.498  34.340  1.00  0.00     0.009 A 
ATOM     53  C   UNL A   1      46.591  28.881  32.760  1.00  0.00     0.009 A 
ATOM     54  C   UNL A   1      46.599  26.960  34.784  1.00  0.00     0.001 A 
ATOM     55  C   UNL A   1      47.797  28.322  33.187  1.00  0.00     0.001 A 
ATOM     56  C   UNL A   1      47.800  27.369  34.205  1.00  0.00     0.000 A 
ENDBRANCH  38  51
ENDBRANCH  12  13
ENDBRANCH   5   7
ENDBRANCH   2   3
ENDBRANCH   1   2
BRANCH   1  57
ATOM     57  C   UNL A   1      31.792  30.906  26.413  1.00  0.00     0.023 C 
BRANCH  57  58
ATOM     58  C   UNL A   1      32.886  30.117  27.145  1.00  0.00     0.116 C 
BRANCH  58  59
ATOM     59  N   UNL A   1      32.325  28.947  27.782  1.00  0.00    -0.354 N 
ATOM     60  C   UNL A   1      32.132  27.728  27.199  1.00  0.00     0.249 C 
ATOM     61  H   UNL A   1      32.056  29.038  28.725  1.00  0.00     0.163 HD
ATOM     62  O   UNL A   1      31.072  27.164  27.468  1.00  0.00    -0.272 OA
BRANCH  60  63
ATOM     63  C   UNL A   1      33.248  27.105  26.326  1.00  0.00     0.211 C 
ATOM     64  C   UNL A   1      33.131  25.584  26.324  1.00  0.00     0.085 C 
ATOM     65  O   UNL A   1      33.166  27.556  24.969  1.00  0.00    -0.357 OA
ATOM     66  C   UNL A   1      33.013  25.162  24.858  1.00  0.00     0.124 C 
ATOM     67  C   UNL A   1      32.673  26.496  24.123  1.00  0.00     0.187 C 
BRANCH  66  68
ATOM     68  C   UNL A   1      34.288  24.392  24.416  1.00  0.00     0.005 A 
ATOM     69  C   UNL A   1      35.424  24.494  25.265  1.00  0.00     0.008 A 
ATOM     70  C   UNL A   1      34.457  23.588  23.269  1.00  0.00     0.047 A 
ATOM     71  C   UNL A   1      36.598  23.764  25.055  1.00  0.00     0.001 A 
ATOM     72  C   UNL A   1      35.626  22.824  23.083  1.00  0.00     0.021 A 
ATOM     73  Cl  UNL A   1      33.352  23.507  21.942  1.00  0.00    -0.084 Cl
ATOM     74  C   UNL A   1      36.688  22.899  23.980  1.00  0.00     0.002 A 
ENDBRANCH  66  68
BRANCH  66  75
ATOM     75  O   UNL A   1      31.947  24.189  24.778  1.00  0.00    -0.382 OA
ATOM     76  H   UNL A   1      32.230  23.446  24.223  1.00  0.00     0.212 HD
ENDBRANCH  66  75
BRANCH  67  77
ATOM     77  C   UNL A   1      31.247  26.871  23.724  1.00  0.00     0.003 A 
ATOM     78  C   UNL A   1      30.139  26.129  24.179  1.00  0.00     0.008 A 
ATOM     79  C   UNL A   1      30.971  28.036  22.976  1.00  0.00     0.046 A 
ATOM     80  C   UNL A   1      28.826  26.538  23.935  1.00  0.00     0.000 A 
ATOM     81  C   UNL A   1      29.652  28.435  22.719  1.00  0.00     0.021 A 
ATOM     82  Cl  UNL A   1      32.211  29.057  22.328  1.00  0.00    -0.084 Cl
ATOM     83  C   UNL A   1      28.580  27.694  23.207  1.00  0.00     0.002 A 
ENDBRANCH  67  77
ENDBRANCH  60  63
ENDBRANCH  58  59
ENDBRANCH  57  58
ENDBRANCH   1  57
TORSDOF 14
ENDMDL
