MODEL 1
REMARK VINA RESULT:     -10.6      0.000      0.000
REMARK SMILES CC(C)[C@H]([NH2+][C@@H](C)C[C@@H]1CCCC[NH2+]1)C(=O)NCCCCNC(=O)c1ccc(-c2c3nc(c(-c4ccccc4)c4ccc([nH]4)c(-c4ccccc4)c4nc(c(-c5ccccc5)c5ccc2[nH]5)C=C4)C=C3)cc1
REMARK SMILES IDX 18 1 17 2 15 3 16 4 4 6 2 7 1 8 3 9 5 10 6 13 7 14 8 15 9 16
REMARK SMILES IDX 10 17 14 18 11 19 13 20 12 23 19 24 20 25 21 26 22 27 23 28
REMARK SMILES IDX 24 30 25 31 26 32 72 33 27 34 71 35 28 36 29 37 30 38 65 39
REMARK SMILES IDX 31 40 70 41 64 42 66 43 32 44 69 45 63 46 62 47 33 49 55 50
REMARK SMILES IDX 40 51 54 52 41 53 44 54 53 55 67 56 42 57 43 58 52 60 68 61
REMARK SMILES IDX 45 62 34 63 35 64 39 65 36 66 38 67 37 68 56 69 57 70 61 71
REMARK SMILES IDX 58 72 60 73 59 74 46 75 47 76 51 77 48 78 50 79 49 80
REMARK H PARENT 17 5 5 11 5 12 14 21 14 22 22 29 66 48 44 59
REMARK Flexibility Score: inf
ROOT
ATOM      1  C   UNL A   1      31.709  29.615  25.542  1.00  0.00     0.116 C 
ENDROOT
BRANCH   1   2
ATOM      2  N   UNL A   1      32.781  29.716  24.566  1.00  0.00    -0.351 N 
ATOM      3  C   UNL A   1      33.103  28.882  23.525  1.00  0.00     0.278 C 
ATOM      4  O   UNL A   1      34.058  29.206  22.814  1.00  0.00    -0.268 OA
ATOM      5  H   UNL A   1      33.364  30.503  24.667  1.00  0.00     0.163 HD
BRANCH   3   6
ATOM      6  C   UNL A   1      32.255  27.610  23.192  1.00  0.00     0.275 C 
BRANCH   6   7
ATOM      7  C   UNL A   1      33.086  26.562  22.394  1.00  0.00     0.051 C 
ATOM      8  C   UNL A   1      33.723  25.437  23.219  1.00  0.00     0.014 C 
ATOM      9  C   UNL A   1      32.321  25.957  21.212  1.00  0.00     0.014 C 
ENDBRANCH   6   7
BRANCH   6  10
ATOM     10  N   UNL A   1      30.948  28.059  22.644  1.00  0.00    -0.333 N 
ATOM     11  H   UNL A   1      31.036  28.023  21.628  1.00  0.00     0.347 HD
ATOM     12  H   UNL A   1      30.825  28.967  23.095  1.00  0.00     0.347 HD
BRANCH  10  13
ATOM     13  C   UNL A   1      29.695  27.375  22.975  1.00  0.00     0.185 C 
ATOM     14  C   UNL A   1      29.924  26.654  24.318  1.00  0.00     0.075 C 
BRANCH  13  15
ATOM     15  C   UNL A   1      28.520  28.387  23.189  1.00  0.00     0.129 C 
BRANCH  15  16
ATOM     16  C   UNL A   1      28.722  29.789  22.590  1.00  0.00     0.188 C 
ATOM     17  C   UNL A   1      28.631  30.929  23.610  1.00  0.00     0.065 C 
ATOM     18  N   UNL A   1      27.751  30.054  21.516  1.00  0.00    -0.344 N 
ATOM     19  C   UNL A   1      29.040  32.239  22.926  1.00  0.00     0.012 C 
ATOM     20  C   UNL A   1      28.097  31.266  20.772  1.00  0.00     0.260 C 
ATOM     21  H   UNL A   1      26.824  30.170  21.927  1.00  0.00     0.346 HD
ATOM     22  H   UNL A   1      27.762  29.265  20.869  1.00  0.00     0.346 HD
ATOM     23  C   UNL A   1      28.205  32.495  21.673  1.00  0.00     0.062 C 
ENDBRANCH  15  16
ENDBRANCH  13  15
ENDBRANCH  10  13
ENDBRANCH   6  10
ENDBRANCH   3   6
ENDBRANCH   1   2
BRANCH   1  24
ATOM     24  C   UNL A   1      32.066  30.312  26.857  1.00  0.00     0.023 C 
BRANCH  24  25
ATOM     25  C   UNL A   1      31.703  31.797  26.869  1.00  0.00     0.023 C 
BRANCH  25  26
ATOM     26  C   UNL A   1      32.869  32.730  27.177  1.00  0.00     0.116 C 
BRANCH  26  27
ATOM     27  N   UNL A   1      32.451  34.069  27.569  1.00  0.00    -0.352 N 
ATOM     28  C   UNL A   1      32.985  34.880  28.544  1.00  0.00     0.251 C 
ATOM     29  H   UNL A   1      31.686  34.442  27.073  1.00  0.00     0.163 HD
ATOM     30  O   UNL A   1      32.457  35.931  28.845  1.00  0.00    -0.269 OA
BRANCH  28  31
ATOM     31  C   UNL A   1      34.201  34.422  29.255  1.00  0.00     0.039 A 
ATOM     32  C   UNL A   1      34.054  33.585  30.363  1.00  0.00     0.014 A 
ATOM     33  C   UNL A   1      35.472  34.766  28.787  1.00  0.00     0.014 A 
ATOM     34  C   UNL A   1      35.189  33.031  30.956  1.00  0.00     0.010 A 
ATOM     35  C   UNL A   1      36.594  34.149  29.329  1.00  0.00     0.010 A 
ATOM     36  C   UNL A   1      36.464  33.273  30.415  1.00  0.00    -0.014 A 
BRANCH  36  37
ATOM     37  C   UNL A   1      37.662  32.589  30.963  1.00  0.00     0.031 A 
ATOM     38  C   UNL A   1      38.309  33.077  32.228  1.00  0.00     0.074 A 
ATOM     39  C   UNL A   1      38.201  31.556  30.286  1.00  0.00     0.049 A 
ATOM     40  N   UNL A   1      39.355  32.601  32.854  1.00  0.00    -0.248 NA
ATOM     41  C   UNL A   1      37.722  34.270  32.859  1.00  0.00     0.031 C 
ATOM     42  C   UNL A   1      37.706  31.026  29.013  1.00  0.00     0.029 A 
ATOM     43  N   UNL A   1      39.285  30.766  30.575  1.00  0.00    -0.354 N 
ATOM     44  C   UNL A   1      39.559  33.441  33.943  1.00  0.00     0.074 A 
ATOM     45  C   UNL A   1      38.563  34.486  33.860  1.00  0.00     0.031 C 
ATOM     46  C   UNL A   1      38.460  29.974  28.653  1.00  0.00     0.029 A 
ATOM     47  C   UNL A   1      39.510  29.779  29.646  1.00  0.00     0.049 A 
ATOM     48  H   UNL A   1      39.847  30.894  31.373  1.00  0.00     0.167 HD
ATOM     49  C   UNL A   1      40.476  33.340  34.933  1.00  0.00     0.031 A 
ATOM     50  C   UNL A   1      40.453  28.820  29.601  1.00  0.00     0.031 A 
ATOM     51  C   UNL A   1      41.465  32.297  35.017  1.00  0.00     0.049 A 
ATOM     52  C   UNL A   1      41.458  28.725  30.714  1.00  0.00     0.074 A 
ATOM     53  C   UNL A   1      42.396  32.070  36.016  1.00  0.00     0.029 A 
ATOM     54  N   UNL A   1      41.656  31.313  34.060  1.00  0.00    -0.354 N 
ATOM     55  N   UNL A   1      41.579  29.473  31.783  1.00  0.00    -0.248 NA
ATOM     56  C   UNL A   1      42.445  27.641  30.619  1.00  0.00     0.031 C 
ATOM     57  C   UNL A   1      43.187  30.981  35.636  1.00  0.00     0.029 A 
ATOM     58  C   UNL A   1      42.709  30.492  34.430  1.00  0.00     0.049 A 
ATOM     59  H   UNL A   1      41.123  31.211  33.239  1.00  0.00     0.167 HD
ATOM     60  C   UNL A   1      42.642  28.939  32.500  1.00  0.00     0.074 A 
ATOM     61  C   UNL A   1      43.113  27.789  31.755  1.00  0.00     0.031 C 
ATOM     62  C   UNL A   1      43.179  29.361  33.672  1.00  0.00     0.031 A 
BRANCH  49  63
ATOM     63  C   UNL A   1      40.456  34.398  36.002  1.00  0.00    -0.014 A 
ATOM     64  C   UNL A   1      41.239  35.559  35.895  1.00  0.00     0.009 A 
ATOM     65  C   UNL A   1      39.624  34.243  37.122  1.00  0.00     0.009 A 
ATOM     66  C   UNL A   1      41.220  36.522  36.906  1.00  0.00     0.001 A 
ATOM     67  C   UNL A   1      39.583  35.222  38.116  1.00  0.00     0.001 A 
ATOM     68  C   UNL A   1      40.390  36.355  38.012  1.00  0.00     0.000 A 
ENDBRANCH  49  63
BRANCH  50  69
ATOM     69  C   UNL A   1      40.475  27.855  28.470  1.00  0.00    -0.014 A 
ATOM     70  C   UNL A   1      39.793  26.631  28.565  1.00  0.00     0.009 A 
ATOM     71  C   UNL A   1      41.174  28.153  27.290  1.00  0.00     0.009 A 
ATOM     72  C   UNL A   1      39.830  25.718  27.509  1.00  0.00     0.001 A 
ATOM     73  C   UNL A   1      41.184  27.250  26.226  1.00  0.00     0.001 A 
ATOM     74  C   UNL A   1      40.521  26.029  26.339  1.00  0.00     0.000 A 
ENDBRANCH  50  69
BRANCH  62  75
ATOM     75  C   UNL A   1      44.323  28.560  34.226  1.00  0.00    -0.014 A 
ATOM     76  C   UNL A   1      45.655  28.885  33.925  1.00  0.00     0.009 A 
ATOM     77  C   UNL A   1      44.064  27.476  35.079  1.00  0.00     0.009 A 
ATOM     78  C   UNL A   1      46.703  28.113  34.433  1.00  0.00     0.001 A 
ATOM     79  C   UNL A   1      45.114  26.726  35.611  1.00  0.00     0.001 A 
ATOM     80  C   UNL A   1      46.431  27.038  35.279  1.00  0.00     0.000 A 
ENDBRANCH  62  75
ENDBRANCH  36  37
ENDBRANCH  28  31
ENDBRANCH  26  27
ENDBRANCH  25  26
ENDBRANCH  24  25
ENDBRANCH   1  24
TORSDOF 16
ENDMDL
MODEL 2
REMARK VINA RESULT:     -10.4      4.227      6.641
REMARK SMILES CC(C)[C@H]([NH2+][C@@H](C)C[C@@H]1CCCC[NH2+]1)C(=O)NCCCCNC(=O)c1ccc(-c2c3nc(c(-c4ccccc4)c4ccc([nH]4)c(-c4ccccc4)c4nc(c(-c5ccccc5)c5ccc2[nH]5)C=C4)C=C3)cc1
REMARK SMILES IDX 18 1 17 2 15 3 16 4 4 6 2 7 1 8 3 9 5 10 6 13 7 14 8 15 9 16
REMARK SMILES IDX 10 17 14 18 11 19 13 20 12 23 19 24 20 25 21 26 22 27 23 28
REMARK SMILES IDX 24 30 25 31 26 32 72 33 27 34 71 35 28 36 29 37 30 38 65 39
REMARK SMILES IDX 31 40 70 41 64 42 66 43 32 44 69 45 63 46 62 47 33 49 55 50
REMARK SMILES IDX 40 51 54 52 41 53 44 54 53 55 67 56 42 57 43 58 52 60 68 61
REMARK SMILES IDX 45 62 34 63 35 64 39 65 36 66 38 67 37 68 56 69 57 70 61 71
REMARK SMILES IDX 58 72 60 73 59 74 46 75 47 76 51 77 48 78 50 79 49 80
REMARK H PARENT 17 5 5 11 5 12 14 21 14 22 22 29 66 48 44 59
REMARK Flexibility Score: inf
ROOT
ATOM      1  C   UNL A   1      33.221  26.519  25.895  1.00  0.00     0.116 C 
ENDROOT
BRANCH   1   2
ATOM      2  N   UNL A   1      33.420  26.121  24.511  1.00  0.00    -0.351 N 
ATOM      3  C   UNL A   1      34.040  25.011  23.997  1.00  0.00     0.278 C 
ATOM      4  O   UNL A   1      34.056  24.887  22.768  1.00  0.00    -0.268 OA
ATOM      5  H   UNL A   1      33.053  26.742  23.842  1.00  0.00     0.163 HD
BRANCH   3   6
ATOM      6  C   UNL A   1      34.640  23.897  24.917  1.00  0.00     0.275 C 
BRANCH   6   7
ATOM      7  C   UNL A   1      36.152  23.664  24.623  1.00  0.00     0.051 C 
ATOM      8  C   UNL A   1      37.046  23.418  25.844  1.00  0.00     0.014 C 
ATOM      9  C   UNL A   1      36.403  22.571  23.579  1.00  0.00     0.014 C 
ENDBRANCH   6   7
BRANCH   6  10
ATOM     10  N   UNL A   1      33.715  22.733  24.893  1.00  0.00    -0.333 N 
ATOM     11  H   UNL A   1      33.608  22.473  23.912  1.00  0.00     0.347 HD
ATOM     12  H   UNL A   1      32.904  23.090  25.399  1.00  0.00     0.347 HD
BRANCH  10  13
ATOM     13  C   UNL A   1      34.013  21.494  25.619  1.00  0.00     0.185 C 
ATOM     14  C   UNL A   1      34.068  21.859  27.115  1.00  0.00     0.075 C 
BRANCH  13  15
ATOM     15  C   UNL A   1      32.877  20.432  25.444  1.00  0.00     0.129 C 
BRANCH  15  16
ATOM     16  C   UNL A   1      33.331  19.022  25.026  1.00  0.00     0.188 C 
ATOM     17  C   UNL A   1      32.887  18.610  23.619  1.00  0.00     0.065 C 
ATOM     18  N   UNL A   1      32.853  18.006  25.976  1.00  0.00    -0.344 N 
ATOM     19  C   UNL A   1      33.563  17.282  23.256  1.00  0.00     0.012 C 
ATOM     20  C   UNL A   1      33.490  16.710  25.734  1.00  0.00     0.260 C 
ATOM     21  H   UNL A   1      31.843  17.903  25.872  1.00  0.00     0.346 HD
ATOM     22  H   UNL A   1      33.089  18.310  26.920  1.00  0.00     0.346 HD
ATOM     23  C   UNL A   1      33.278  16.210  24.307  1.00  0.00     0.062 C 
ENDBRANCH  15  16
ENDBRANCH  13  15
ENDBRANCH  10  13
ENDBRANCH   6  10
ENDBRANCH   3   6
ENDBRANCH   1   2
BRANCH   1  24
ATOM     24  C   UNL A   1      32.014  27.445  26.055  1.00  0.00     0.023 C 
BRANCH  24  25
ATOM     25  C   UNL A   1      32.193  28.479  27.166  1.00  0.00     0.023 C 
BRANCH  25  26
ATOM     26  C   UNL A   1      33.581  29.106  27.228  1.00  0.00     0.116 C 
BRANCH  26  27
ATOM     27  N   UNL A   1      33.589  30.440  27.812  1.00  0.00    -0.352 N 
ATOM     28  C   UNL A   1      34.597  31.059  28.516  1.00  0.00     0.251 C 
ATOM     29  H   UNL A   1      32.766  30.967  27.689  1.00  0.00     0.163 HD
ATOM     30  O   UNL A   1      34.421  32.135  29.051  1.00  0.00    -0.269 OA
BRANCH  28  31
ATOM     31  C   UNL A   1      35.898  30.362  28.646  1.00  0.00     0.039 A 
ATOM     32  C   UNL A   1      36.805  30.435  27.588  1.00  0.00     0.014 A 
ATOM     33  C   UNL A   1      36.237  29.702  29.831  1.00  0.00     0.014 A 
ATOM     34  C   UNL A   1      38.086  29.907  27.749  1.00  0.00     0.010 A 
ATOM     35  C   UNL A   1      37.539  29.249  30.016  1.00  0.00     0.010 A 
ATOM     36  C   UNL A   1      38.477  29.351  28.980  1.00  0.00    -0.014 A 
BRANCH  36  37
ATOM     37  C   UNL A   1      39.874  28.901  29.199  1.00  0.00     0.031 A 
ATOM     38  C   UNL A   1      40.878  29.811  29.848  1.00  0.00     0.074 A 
ATOM     39  C   UNL A   1      40.252  27.683  28.762  1.00  0.00     0.049 A 
ATOM     40  N   UNL A   1      42.138  29.585  30.123  1.00  0.00    -0.248 NA
ATOM     41  C   UNL A   1      40.417  31.161  30.209  1.00  0.00     0.031 C 
ATOM     42  C   UNL A   1      39.391  26.728  28.061  1.00  0.00     0.029 A 
ATOM     43  N   UNL A   1      41.462  27.040  28.845  1.00  0.00    -0.354 N 
ATOM     44  C   UNL A   1      42.620  30.764  30.678  1.00  0.00     0.074 A 
ATOM     45  C   UNL A   1      41.535  31.719  30.648  1.00  0.00     0.031 C 
ATOM     46  C   UNL A   1      40.088  25.607  27.814  1.00  0.00     0.029 A 
ATOM     47  C   UNL A   1      41.452  25.777  28.304  1.00  0.00     0.049 A 
ATOM     48  H   UNL A   1      42.261  27.445  29.253  1.00  0.00     0.167 HD
ATOM     49  C   UNL A   1      43.849  31.022  31.186  1.00  0.00     0.031 A 
ATOM     50  C   UNL A   1      42.429  24.856  28.216  1.00  0.00     0.031 A 
ATOM     51  C   UNL A   1      44.927  30.070  31.219  1.00  0.00     0.049 A 
ATOM     52  C   UNL A   1      43.782  25.164  28.791  1.00  0.00     0.074 A 
ATOM     53  C   UNL A   1      46.188  30.214  31.773  1.00  0.00     0.029 A 
ATOM     54  N   UNL A   1      44.875  28.800  30.667  1.00  0.00    -0.354 N 
ATOM     55  N   UNL A   1      44.195  26.252  29.395  1.00  0.00    -0.248 NA
ATOM     56  C   UNL A   1      44.798  24.107  28.687  1.00  0.00     0.031 C 
ATOM     57  C   UNL A   1      46.917  29.051  31.506  1.00  0.00     0.029 A 
ATOM     58  C   UNL A   1      46.091  28.159  30.841  1.00  0.00     0.049 A 
ATOM     59  H   UNL A   1      44.091  28.410  30.219  1.00  0.00     0.167 HD
ATOM     60  C   UNL A   1      45.511  26.004  29.761  1.00  0.00     0.074 A 
ATOM     61  C   UNL A   1      45.818  24.654  29.333  1.00  0.00     0.031 C 
ATOM     62  C   UNL A   1      46.388  26.821  30.396  1.00  0.00     0.031 A 
BRANCH  49  63
ATOM     63  C   UNL A   1      44.090  32.400  31.740  1.00  0.00    -0.014 A 
ATOM     64  C   UNL A   1      44.574  33.438  30.927  1.00  0.00     0.009 A 
ATOM     65  C   UNL A   1      43.806  32.670  33.087  1.00  0.00     0.009 A 
ATOM     66  C   UNL A   1      44.808  34.707  31.463  1.00  0.00     0.001 A 
ATOM     67  C   UNL A   1      44.011  33.947  33.613  1.00  0.00     0.001 A 
ATOM     68  C   UNL A   1      44.523  34.961  32.803  1.00  0.00     0.000 A 
ENDBRANCH  49  63
BRANCH  50  69
ATOM     69  C   UNL A   1      42.153  23.542  27.578  1.00  0.00    -0.014 A 
ATOM     70  C   UNL A   1      42.503  23.312  26.239  1.00  0.00     0.009 A 
ATOM     71  C   UNL A   1      41.540  22.509  28.306  1.00  0.00     0.009 A 
ATOM     72  C   UNL A   1      42.226  22.083  25.635  1.00  0.00     0.001 A 
ATOM     73  C   UNL A   1      41.291  21.273  27.708  1.00  0.00     0.001 A 
ATOM     74  C   UNL A   1      41.625  21.063  26.371  1.00  0.00     0.000 A 
ENDBRANCH  50  69
BRANCH  62  75
ATOM     75  C   UNL A   1      47.754  26.265  30.683  1.00  0.00    -0.014 A 
ATOM     76  C   UNL A   1      48.078  25.739  31.945  1.00  0.00     0.009 A 
ATOM     77  C   UNL A   1      48.725  26.247  29.671  1.00  0.00     0.009 A 
ATOM     78  C   UNL A   1      49.360  25.247  32.197  1.00  0.00     0.001 A 
ATOM     79  C   UNL A   1      49.996  25.725  29.915  1.00  0.00     0.001 A 
ATOM     80  C   UNL A   1      50.316  25.237  31.181  1.00  0.00     0.000 A 
ENDBRANCH  62  75
ENDBRANCH  36  37
ENDBRANCH  28  31
ENDBRANCH  26  27
ENDBRANCH  25  26
ENDBRANCH  24  25
ENDBRANCH   1  24
TORSDOF 16
ENDMDL
MODEL 3
REMARK VINA RESULT:     -10.3      2.826      7.597
REMARK SMILES CC(C)[C@H]([NH2+][C@@H](C)C[C@@H]1CCCC[NH2+]1)C(=O)NCCCCNC(=O)c1ccc(-c2c3nc(c(-c4ccccc4)c4ccc([nH]4)c(-c4ccccc4)c4nc(c(-c5ccccc5)c5ccc2[nH]5)C=C4)C=C3)cc1
REMARK SMILES IDX 18 1 17 2 15 3 16 4 4 6 2 7 1 8 3 9 5 10 6 13 7 14 8 15 9 16
REMARK SMILES IDX 10 17 14 18 11 19 13 20 12 23 19 24 20 25 21 26 22 27 23 28
REMARK SMILES IDX 24 30 25 31 26 32 72 33 27 34 71 35 28 36 29 37 30 38 65 39
REMARK SMILES IDX 31 40 70 41 64 42 66 43 32 44 69 45 63 46 62 47 33 49 55 50
REMARK SMILES IDX 40 51 54 52 41 53 44 54 53 55 67 56 42 57 43 58 52 60 68 61
REMARK SMILES IDX 45 62 34 63 35 64 39 65 36 66 38 67 37 68 56 69 57 70 61 71
REMARK SMILES IDX 58 72 60 73 59 74 46 75 47 76 51 77 48 78 50 79 49 80
REMARK H PARENT 17 5 5 11 5 12 14 21 14 22 22 29 66 48 44 59
REMARK Flexibility Score: inf
ROOT
ATOM      1  C   UNL A   1      34.319  24.626  24.678  1.00  0.00     0.116 C 
ENDROOT
BRANCH   1   2
ATOM      2  N   UNL A   1      33.236  24.354  25.609  1.00  0.00    -0.351 N 
ATOM      3  C   UNL A   1      32.287  25.200  26.124  1.00  0.00     0.278 C 
ATOM      4  O   UNL A   1      31.448  24.715  26.888  1.00  0.00    -0.268 OA
ATOM      5  H   UNL A   1      33.174  23.421  25.916  1.00  0.00     0.163 HD
BRANCH   3   6
ATOM      6  C   UNL A   1      32.211  26.707  25.710  1.00  0.00     0.275 C 
BRANCH   6   7
ATOM      7  C   UNL A   1      32.824  27.633  26.802  1.00  0.00     0.051 C 
ATOM      8  C   UNL A   1      33.943  28.574  26.337  1.00  0.00     0.014 C 
ATOM      9  C   UNL A   1      31.772  28.435  27.576  1.00  0.00     0.014 C 
ENDBRANCH   6   7
BRANCH   6  10
ATOM     10  N   UNL A   1      30.831  26.981  25.228  1.00  0.00    -0.333 N 
ATOM     11  H   UNL A   1      30.420  27.637  25.892  1.00  0.00     0.347 HD
ATOM     12  H   UNL A   1      30.436  26.043  25.155  1.00  0.00     0.347 HD
BRANCH  10  13
ATOM     13  C   UNL A   1      30.573  27.530  23.893  1.00  0.00     0.185 C 
ATOM     14  C   UNL A   1      29.093  27.244  23.573  1.00  0.00     0.075 C 
BRANCH  13  15
ATOM     15  C   UNL A   1      30.761  29.084  23.858  1.00  0.00     0.129 C 
BRANCH  15  16
ATOM     16  C   UNL A   1      29.607  29.888  23.235  1.00  0.00     0.188 C 
ATOM     17  C   UNL A   1      29.725  30.086  21.720  1.00  0.00     0.065 C 
ATOM     18  N   UNL A   1      29.479  31.211  23.864  1.00  0.00    -0.344 N 
ATOM     19  C   UNL A   1      28.430  30.724  21.202  1.00  0.00     0.012 C 
ATOM     20  C   UNL A   1      28.236  31.873  23.463  1.00  0.00     0.260 C 
ATOM     21  H   UNL A   1      30.270  31.791  23.582  1.00  0.00     0.346 HD
ATOM     22  H   UNL A   1      29.466  31.088  24.876  1.00  0.00     0.346 HD
ATOM     23  C   UNL A   1      28.112  32.019  21.948  1.00  0.00     0.062 C 
ENDBRANCH  15  16
ENDBRANCH  13  15
ENDBRANCH  10  13
ENDBRANCH   6  10
ENDBRANCH   3   6
ENDBRANCH   1   2
BRANCH   1  24
ATOM     24  C   UNL A   1      34.903  23.339  24.090  1.00  0.00     0.023 C 
BRANCH  24  25
ATOM     25  C   UNL A   1      35.927  22.670  25.006  1.00  0.00     0.023 C 
BRANCH  25  26
ATOM     26  C   UNL A   1      37.229  23.447  25.173  1.00  0.00     0.116 C 
BRANCH  26  27
ATOM     27  N   UNL A   1      38.381  22.598  25.440  1.00  0.00    -0.352 N 
ATOM     28  C   UNL A   1      39.536  22.913  26.117  1.00  0.00     0.251 C 
ATOM     29  H   UNL A   1      38.327  21.679  25.090  1.00  0.00     0.163 HD
ATOM     30  O   UNL A   1      40.470  22.138  26.162  1.00  0.00    -0.269 OA
BRANCH  28  31
ATOM     31  C   UNL A   1      39.638  24.244  26.759  1.00  0.00     0.039 A 
ATOM     32  C   UNL A   1      39.119  24.409  28.045  1.00  0.00     0.014 A 
ATOM     33  C   UNL A   1      40.298  25.297  26.118  1.00  0.00     0.014 A 
ATOM     34  C   UNL A   1      39.332  25.612  28.718  1.00  0.00     0.010 A 
ATOM     35  C   UNL A   1      40.577  26.463  26.822  1.00  0.00     0.010 A 
ATOM     36  C   UNL A   1      40.101  26.631  28.129  1.00  0.00    -0.014 A 
BRANCH  36  37
ATOM     37  C   UNL A   1      40.436  27.863  28.887  1.00  0.00     0.031 A 
ATOM     38  C   UNL A   1      41.761  27.996  29.581  1.00  0.00     0.074 A 
ATOM     39  C   UNL A   1      39.517  28.843  28.993  1.00  0.00     0.049 A 
ATOM     40  N   UNL A   1      42.226  29.000  30.283  1.00  0.00    -0.248 NA
ATOM     41  C   UNL A   1      42.673  26.845  29.503  1.00  0.00     0.031 C 
ATOM     42  C   UNL A   1      38.170  28.810  28.419  1.00  0.00     0.029 A 
ATOM     43  N   UNL A   1      39.580  30.062  29.622  1.00  0.00    -0.354 N 
ATOM     44  C   UNL A   1      43.475  28.596  30.737  1.00  0.00     0.074 A 
ATOM     45  C   UNL A   1      43.672  27.238  30.279  1.00  0.00     0.031 C 
ATOM     46  C   UNL A   1      37.549  29.970  28.687  1.00  0.00     0.029 A 
ATOM     47  C   UNL A   1      38.437  30.812  29.482  1.00  0.00     0.049 A 
ATOM     48  H   UNL A   1      40.368  30.369  30.124  1.00  0.00     0.167 HD
ATOM     49  C   UNL A   1      44.386  29.298  31.451  1.00  0.00     0.031 A 
ATOM     50  C   UNL A   1      38.138  32.042  29.938  1.00  0.00     0.031 A 
ATOM     51  C   UNL A   1      44.192  30.651  31.903  1.00  0.00     0.049 A 
ATOM     52  C   UNL A   1      39.167  32.804  30.724  1.00  0.00     0.074 A 
ATOM     53  C   UNL A   1      45.082  31.471  32.575  1.00  0.00     0.029 A 
ATOM     54  N   UNL A   1      43.024  31.378  31.736  1.00  0.00    -0.354 N 
ATOM     55  N   UNL A   1      40.379  32.442  31.067  1.00  0.00    -0.248 NA
ATOM     56  C   UNL A   1      38.789  34.152  31.171  1.00  0.00     0.031 C 
ATOM     57  C   UNL A   1      44.431  32.675  32.865  1.00  0.00     0.029 A 
ATOM     58  C   UNL A   1      43.158  32.628  32.318  1.00  0.00     0.049 A 
ATOM     59  H   UNL A   1      42.218  31.055  31.272  1.00  0.00     0.167 HD
ATOM     60  C   UNL A   1      40.917  33.524  31.751  1.00  0.00     0.074 A 
ATOM     61  C   UNL A   1      39.908  34.563  31.753  1.00  0.00     0.031 C 
ATOM     62  C   UNL A   1      42.140  33.647  32.327  1.00  0.00     0.031 A 
BRANCH  49  63
ATOM     63  C   UNL A   1      45.676  28.605  31.795  1.00  0.00    -0.014 A 
ATOM     64  C   UNL A   1      45.802  27.836  32.964  1.00  0.00     0.009 A 
ATOM     65  C   UNL A   1      46.774  28.701  30.926  1.00  0.00     0.009 A 
ATOM     66  C   UNL A   1      47.012  27.213  33.276  1.00  0.00     0.001 A 
ATOM     67  C   UNL A   1      47.973  28.052  31.225  1.00  0.00     0.001 A 
ATOM     68  C   UNL A   1      48.095  27.318  32.404  1.00  0.00     0.000 A 
ENDBRANCH  49  63
BRANCH  50  69
ATOM     69  C   UNL A   1      36.811  32.641  29.638  1.00  0.00    -0.014 A 
ATOM     70  C   UNL A   1      36.558  33.221  28.385  1.00  0.00     0.009 A 
ATOM     71  C   UNL A   1      35.790  32.633  30.601  1.00  0.00     0.009 A 
ATOM     72  C   UNL A   1      35.317  33.801  28.112  1.00  0.00     0.001 A 
ATOM     73  C   UNL A   1      34.541  33.187  30.314  1.00  0.00     0.001 A 
ATOM     74  C   UNL A   1      34.308  33.779  29.074  1.00  0.00     0.000 A 
ENDBRANCH  50  69
BRANCH  62  75
ATOM     75  C   UNL A   1      42.455  34.960  32.985  1.00  0.00    -0.014 A 
ATOM     76  C   UNL A   1      42.055  35.230  34.304  1.00  0.00     0.009 A 
ATOM     77  C   UNL A   1      43.181  35.934  32.283  1.00  0.00     0.009 A 
ATOM     78  C   UNL A   1      42.338  36.466  34.889  1.00  0.00     0.001 A 
ATOM     79  C   UNL A   1      43.492  37.156  32.881  1.00  0.00     0.001 A 
ATOM     80  C   UNL A   1      43.060  37.425  34.179  1.00  0.00     0.000 A 
ENDBRANCH  62  75
ENDBRANCH  36  37
ENDBRANCH  28  31
ENDBRANCH  26  27
ENDBRANCH  25  26
ENDBRANCH  24  25
ENDBRANCH   1  24
TORSDOF 16
ENDMDL
