MODEL 1
REMARK VINA RESULT:     -11.9      0.000      0.000
REMARK SMILES CSc1ccc(CNc2ccc(N3CCOCC3)c(C(=O)NCCCCNC(=O)c3ccc(-c4c5nc(c(-c6ccccc6)c6ccc([nH]6)c(-c6ccccc6)c6nc(c(-c7ccccc7)c7ccc4[nH]7)C=C6)C=C5)cc3)c2)cc1
REMARK SMILES IDX 23 1 22 2 20 3 21 4 19 6 9 7 10 8 78 9 11 10 12 11 8 12 7 14
REMARK SMILES IDX 6 15 3 16 4 17 80 18 5 19 79 20 2 21 1 22 13 23 14 24 18 25
REMARK SMILES IDX 15 26 17 27 16 28 24 29 25 30 26 31 27 32 28 33 29 35 30 36
REMARK SMILES IDX 31 37 77 38 32 39 76 40 33 41 34 42 35 43 70 44 36 45 75 46
REMARK SMILES IDX 69 47 71 48 37 49 74 50 68 51 67 52 38 54 60 55 45 56 59 57
REMARK SMILES IDX 46 58 49 59 58 60 72 61 47 62 48 63 57 65 73 66 50 67 39 68
REMARK SMILES IDX 40 69 44 70 41 71 43 72 42 73 61 74 62 75 66 76 63 77 65 78
REMARK SMILES IDX 64 79 51 80 52 81 56 82 53 83 55 84 54 85
REMARK H PARENT 22 5 8 13 27 34 71 53 49 64
REMARK Flexibility Score: inf
ROOT
ATOM      1  C   UNL A   1      32.550  29.934  25.845  1.00  0.00     0.116 C 
ENDROOT
BRANCH   1   2
ATOM      2  N   UNL A   1      32.930  29.667  24.465  1.00  0.00    -0.352 N 
ATOM      3  C   UNL A   1      32.288  28.976  23.447  1.00  0.00     0.253 C 
ATOM      4  O   UNL A   1      32.793  29.051  22.329  1.00  0.00    -0.269 OA
ATOM      5  H   UNL A   1      33.801  30.047  24.206  1.00  0.00     0.163 HD
BRANCH   3   6
ATOM      6  C   UNL A   1      31.060  28.158  23.708  1.00  0.00     0.065 A 
ATOM      7  C   UNL A   1      30.202  26.015  24.552  1.00  0.00     0.035 A 
ATOM      8  C   UNL A   1      28.961  26.342  24.013  1.00  0.00     0.028 A 
ATOM      9  C   UNL A   1      31.205  26.976  24.451  1.00  0.00     0.041 A 
ATOM     10  C   UNL A   1      28.739  27.597  23.437  1.00  0.00     0.029 A 
ATOM     11  C   UNL A   1      29.770  28.543  23.297  1.00  0.00     0.050 A 
BRANCH   7  12
ATOM     12  N   UNL A   1      30.379  24.801  25.175  1.00  0.00    -0.381 N 
ATOM     13  H   UNL A   1      30.239  24.775  26.149  1.00  0.00     0.160 HD
BRANCH  12  14
ATOM     14  C   UNL A   1      30.753  23.557  24.527  1.00  0.00     0.148 C 
BRANCH  14  15
ATOM     15  C   UNL A   1      32.194  23.236  24.832  1.00  0.00    -0.029 A 
ATOM     16  C   UNL A   1      34.854  22.559  25.435  1.00  0.00     0.007 A 
ATOM     17  C   UNL A   1      34.252  22.066  24.276  1.00  0.00     0.015 A 
ATOM     18  C   UNL A   1      34.114  23.361  26.308  1.00  0.00     0.015 A 
ATOM     19  C   UNL A   1      32.930  22.396  23.981  1.00  0.00     0.007 A 
ATOM     20  C   UNL A   1      32.791  23.698  26.011  1.00  0.00     0.007 A 
BRANCH  16  21
ATOM     21  S   UNL A   1      36.549  22.140  25.785  1.00  0.00    -0.130 SA
ATOM     22  C   UNL A   1      37.313  23.740  25.413  1.00  0.00     0.091 C 
ENDBRANCH  16  21
ENDBRANCH  14  15
ENDBRANCH  12  14
ENDBRANCH   7  12
BRANCH  11  23
ATOM     23  N   UNL A   1      29.435  29.817  22.894  1.00  0.00    -0.366 N 
ATOM     24  C   UNL A   1      29.176  30.922  23.814  1.00  0.00     0.145 C 
ATOM     25  C   UNL A   1      29.536  30.162  21.473  1.00  0.00     0.145 C 
ATOM     26  C   UNL A   1      28.051  31.827  23.269  1.00  0.00     0.181 C 
ATOM     27  C   UNL A   1      28.327  31.016  21.076  1.00  0.00     0.181 C 
ATOM     28  O   UNL A   1      28.257  32.200  21.891  1.00  0.00    -0.378 OA
ENDBRANCH  11  23
ENDBRANCH   3   6
ENDBRANCH   1   2
BRANCH   1  29
ATOM     29  C   UNL A   1      31.500  31.019  26.041  1.00  0.00     0.023 C 
BRANCH  29  30
ATOM     30  C   UNL A   1      31.636  31.895  27.278  1.00  0.00     0.023 C 
BRANCH  30  31
ATOM     31  C   UNL A   1      32.804  32.873  27.288  1.00  0.00     0.116 C 
BRANCH  31  32
ATOM     32  N   UNL A   1      32.432  34.235  27.643  1.00  0.00    -0.352 N 
ATOM     33  C   UNL A   1      32.982  35.087  28.577  1.00  0.00     0.251 C 
ATOM     34  H   UNL A   1      31.670  34.604  27.140  1.00  0.00     0.163 HD
ATOM     35  O   UNL A   1      32.480  36.180  28.789  1.00  0.00    -0.269 OA
BRANCH  33  36
ATOM     36  C   UNL A   1      34.157  34.648  29.362  1.00  0.00     0.039 A 
ATOM     37  C   UNL A   1      33.958  34.183  30.665  1.00  0.00     0.014 A 
ATOM     38  C   UNL A   1      35.433  34.637  28.796  1.00  0.00     0.014 A 
ATOM     39  C   UNL A   1      35.019  33.594  31.357  1.00  0.00     0.010 A 
ATOM     40  C   UNL A   1      36.469  33.983  29.456  1.00  0.00     0.010 A 
ATOM     41  C   UNL A   1      36.265  33.432  30.731  1.00  0.00    -0.014 A 
BRANCH  41  42
ATOM     42  C   UNL A   1      37.354  32.643  31.359  1.00  0.00     0.031 A 
ATOM     43  C   UNL A   1      37.964  33.092  32.656  1.00  0.00     0.074 A 
ATOM     44  C   UNL A   1      37.868  31.582  30.704  1.00  0.00     0.049 A 
ATOM     45  N   UNL A   1      39.005  32.612  33.287  1.00  0.00    -0.248 NA
ATOM     46  C   UNL A   1      37.338  34.248  33.317  1.00  0.00     0.031 C 
ATOM     47  C   UNL A   1      37.393  31.066  29.417  1.00  0.00     0.029 A 
ATOM     48  N   UNL A   1      38.920  30.759  31.022  1.00  0.00    -0.354 N 
ATOM     49  C   UNL A   1      39.173  33.420  34.404  1.00  0.00     0.074 A 
ATOM     50  C   UNL A   1      38.151  34.442  34.344  1.00  0.00     0.031 C 
ATOM     51  C   UNL A   1      38.140  30.008  29.064  1.00  0.00     0.029 A 
ATOM     52  C   UNL A   1      39.175  29.799  30.072  1.00  0.00     0.049 A 
ATOM     53  H   UNL A   1      39.441  30.846  31.852  1.00  0.00     0.167 HD
ATOM     54  C   UNL A   1      40.088  33.313  35.397  1.00  0.00     0.031 A 
ATOM     55  C   UNL A   1      40.145  28.868  30.005  1.00  0.00     0.031 A 
ATOM     56  C   UNL A   1      41.096  32.289  35.463  1.00  0.00     0.049 A 
ATOM     57  C   UNL A   1      41.165  28.787  31.107  1.00  0.00     0.074 A 
ATOM     58  C   UNL A   1      42.021  32.057  36.465  1.00  0.00     0.029 A 
ATOM     59  N   UNL A   1      41.315  31.334  34.484  1.00  0.00    -0.354 N 
ATOM     60  N   UNL A   1      41.265  29.515  32.192  1.00  0.00    -0.248 NA
ATOM     61  C   UNL A   1      42.204  27.757  30.972  1.00  0.00     0.031 C 
ATOM     62  C   UNL A   1      42.834  30.990  36.069  1.00  0.00     0.029 A 
ATOM     63  C   UNL A   1      42.382  30.528  34.843  1.00  0.00     0.049 A 
ATOM     64  H   UNL A   1      40.791  31.241  33.656  1.00  0.00     0.167 HD
ATOM     65  C   UNL A   1      42.365  29.020  32.878  1.00  0.00     0.074 A 
ATOM     66  C   UNL A   1      42.889  27.919  32.096  1.00  0.00     0.031 C 
ATOM     67  C   UNL A   1      42.895  29.440  34.052  1.00  0.00     0.031 A 
BRANCH  54  68
ATOM     68  C   UNL A   1      40.044  34.342  36.490  1.00  0.00    -0.014 A 
ATOM     69  C   UNL A   1      40.750  35.550  36.379  1.00  0.00     0.009 A 
ATOM     70  C   UNL A   1      39.255  34.117  37.629  1.00  0.00     0.009 A 
ATOM     71  C   UNL A   1      40.695  36.497  37.403  1.00  0.00     0.001 A 
ATOM     72  C   UNL A   1      39.181  35.077  38.639  1.00  0.00     0.001 A 
ATOM     73  C   UNL A   1      39.908  36.262  38.530  1.00  0.00     0.000 A 
ENDBRANCH  54  68
BRANCH  55  74
ATOM     74  C   UNL A   1      40.207  27.938  28.848  1.00  0.00    -0.014 A 
ATOM     75  C   UNL A   1      39.581  26.683  28.912  1.00  0.00     0.009 A 
ATOM     76  C   UNL A   1      40.893  28.295  27.678  1.00  0.00     0.009 A 
ATOM     77  C   UNL A   1      39.661  25.797  27.834  1.00  0.00     0.001 A 
ATOM     78  C   UNL A   1      40.950  27.418  26.593  1.00  0.00     0.001 A 
ATOM     79  C   UNL A   1      40.341  26.168  26.675  1.00  0.00     0.000 A 
ENDBRANCH  55  74
BRANCH  67  80
ATOM     80  C   UNL A   1      44.091  28.697  34.573  1.00  0.00    -0.014 A 
ATOM     81  C   UNL A   1      45.394  29.119  34.269  1.00  0.00     0.009 A 
ATOM     82  C   UNL A   1      43.909  27.596  35.424  1.00  0.00     0.009 A 
ATOM     83  C   UNL A   1      46.494  28.436  34.790  1.00  0.00     0.001 A 
ATOM     84  C   UNL A   1      45.012  26.932  35.964  1.00  0.00     0.001 A 
ATOM     85  C   UNL A   1      46.302  27.348  35.642  1.00  0.00     0.000 A 
ENDBRANCH  67  80
ENDBRANCH  41  42
ENDBRANCH  33  36
ENDBRANCH  31  32
ENDBRANCH  30  31
ENDBRANCH  29  30
ENDBRANCH   1  29
TORSDOF 16
ENDMDL
MODEL 2
REMARK VINA RESULT:     -11.7      1.866      6.101
REMARK SMILES CSc1ccc(CNc2ccc(N3CCOCC3)c(C(=O)NCCCCNC(=O)c3ccc(-c4c5nc(c(-c6ccccc6)c6ccc([nH]6)c(-c6ccccc6)c6nc(c(-c7ccccc7)c7ccc4[nH]7)C=C6)C=C5)cc3)c2)cc1
REMARK SMILES IDX 23 1 22 2 20 3 21 4 19 6 9 7 10 8 78 9 11 10 12 11 8 12 7 14
REMARK SMILES IDX 6 15 3 16 4 17 80 18 5 19 79 20 2 21 1 22 13 23 14 24 18 25
REMARK SMILES IDX 15 26 17 27 16 28 24 29 25 30 26 31 27 32 28 33 29 35 30 36
REMARK SMILES IDX 31 37 77 38 32 39 76 40 33 41 34 42 35 43 70 44 36 45 75 46
REMARK SMILES IDX 69 47 71 48 37 49 74 50 68 51 67 52 38 54 60 55 45 56 59 57
REMARK SMILES IDX 46 58 49 59 58 60 72 61 47 62 48 63 57 65 73 66 50 67 39 68
REMARK SMILES IDX 40 69 44 70 41 71 43 72 42 73 61 74 62 75 66 76 63 77 65 78
REMARK SMILES IDX 64 79 51 80 52 81 56 82 53 83 55 84 54 85
REMARK H PARENT 22 5 8 13 27 34 71 53 49 64
REMARK Flexibility Score: inf
ROOT
ATOM      1  C   UNL A   1      32.384  27.706  26.470  1.00  0.00     0.116 C 
ENDROOT
BRANCH   1   2
ATOM      2  N   UNL A   1      31.108  27.014  26.593  1.00  0.00    -0.352 N 
ATOM      3  C   UNL A   1      30.392  26.233  25.698  1.00  0.00     0.253 C 
ATOM      4  O   UNL A   1      29.407  25.650  26.145  1.00  0.00    -0.269 OA
ATOM      5  H   UNL A   1      30.676  27.119  27.471  1.00  0.00     0.163 HD
BRANCH   3   6
ATOM      6  C   UNL A   1      30.786  26.132  24.255  1.00  0.00     0.065 A 
ATOM      7  C   UNL A   1      32.095  24.870  22.603  1.00  0.00     0.035 A 
ATOM      8  C   UNL A   1      31.886  25.908  21.700  1.00  0.00     0.028 A 
ATOM      9  C   UNL A   1      31.467  24.978  23.841  1.00  0.00     0.041 A 
ATOM     10  C   UNL A   1      31.049  26.981  22.022  1.00  0.00     0.029 A 
ATOM     11  C   UNL A   1      30.457  27.105  23.292  1.00  0.00     0.050 A 
BRANCH   7  12
ATOM     12  N   UNL A   1      32.867  23.790  22.239  1.00  0.00    -0.381 N 
ATOM     13  H   UNL A   1      33.472  23.913  21.472  1.00  0.00     0.160 HD
BRANCH  12  14
ATOM     14  C   UNL A   1      32.872  22.490  22.884  1.00  0.00     0.148 C 
BRANCH  14  15
ATOM     15  C   UNL A   1      34.198  22.262  23.563  1.00  0.00    -0.029 A 
ATOM     16  C   UNL A   1      36.693  21.781  24.763  1.00  0.00     0.007 A 
ATOM     17  C   UNL A   1      36.583  22.709  23.726  1.00  0.00     0.015 A 
ATOM     18  C   UNL A   1      35.563  21.070  25.175  1.00  0.00     0.015 A 
ATOM     19  C   UNL A   1      35.347  22.941  23.126  1.00  0.00     0.007 A 
ATOM     20  C   UNL A   1      34.321  21.306  24.579  1.00  0.00     0.007 A 
BRANCH  16  21
ATOM     21  S   UNL A   1      38.279  21.511  25.529  1.00  0.00    -0.130 SA
ATOM     22  C   UNL A   1      38.459  19.744  25.178  1.00  0.00     0.091 C 
ENDBRANCH  16  21
ENDBRANCH  14  15
ENDBRANCH  12  14
ENDBRANCH   7  12
BRANCH  11  23
ATOM     23  N   UNL A   1      29.503  28.081  23.474  1.00  0.00    -0.366 N 
ATOM     24  C   UNL A   1      28.074  27.810  23.609  1.00  0.00     0.145 C 
ATOM     25  C   UNL A   1      29.936  29.454  23.753  1.00  0.00     0.145 C 
ATOM     26  C   UNL A   1      27.246  28.920  22.926  1.00  0.00     0.181 C 
ATOM     27  C   UNL A   1      29.053  30.429  22.967  1.00  0.00     0.181 C 
ATOM     28  O   UNL A   1      27.668  30.244  23.311  1.00  0.00    -0.378 OA
ENDBRANCH  11  23
ENDBRANCH   3   6
ENDBRANCH   1   2
BRANCH   1  29
ATOM     29  C   UNL A   1      32.315  29.120  25.906  1.00  0.00     0.023 C 
BRANCH  29  30
ATOM     30  C   UNL A   1      31.931  30.230  26.874  1.00  0.00     0.023 C 
BRANCH  30  31
ATOM     31  C   UNL A   1      33.030  31.222  27.233  1.00  0.00     0.116 C 
BRANCH  31  32
ATOM     32  N   UNL A   1      32.552  32.581  27.446  1.00  0.00    -0.352 N 
ATOM     33  C   UNL A   1      33.132  33.624  28.136  1.00  0.00     0.251 C 
ATOM     34  H   UNL A   1      31.682  32.787  27.033  1.00  0.00     0.163 HD
ATOM     35  O   UNL A   1      32.538  34.683  28.270  1.00  0.00    -0.269 OA
BRANCH  33  36
ATOM     36  C   UNL A   1      34.460  33.436  28.761  1.00  0.00     0.039 A 
ATOM     37  C   UNL A   1      34.537  32.763  29.984  1.00  0.00     0.014 A 
ATOM     38  C   UNL A   1      35.622  33.866  28.118  1.00  0.00     0.014 A 
ATOM     39  C   UNL A   1      35.786  32.413  30.501  1.00  0.00     0.010 A 
ATOM     40  C   UNL A   1      36.862  33.451  28.595  1.00  0.00     0.010 A 
ATOM     41  C   UNL A   1      36.954  32.699  29.777  1.00  0.00    -0.014 A 
BRANCH  41  42
ATOM     42  C   UNL A   1      38.278  32.175  30.197  1.00  0.00     0.031 A 
ATOM     43  C   UNL A   1      38.787  30.873  29.647  1.00  0.00     0.074 A 
ATOM     44  C   UNL A   1      38.973  32.818  31.157  1.00  0.00     0.049 A 
ATOM     45  N   UNL A   1      39.850  30.193  29.990  1.00  0.00    -0.248 NA
ATOM     46  C   UNL A   1      37.979  30.241  28.592  1.00  0.00     0.031 C 
ATOM     47  C   UNL A   1      38.570  34.071  31.803  1.00  0.00     0.029 A 
ATOM     48  N   UNL A   1      40.156  32.494  31.773  1.00  0.00    -0.354 N 
ATOM     49  C   UNL A   1      39.827  29.043  29.212  1.00  0.00     0.074 A 
ATOM     50  C   UNL A   1      38.626  29.100  28.407  1.00  0.00     0.031 C 
ATOM     51  C   UNL A   1      39.497  34.415  32.711  1.00  0.00     0.029 A 
ATOM     52  C   UNL A   1      40.531  33.387  32.749  1.00  0.00     0.049 A 
ATOM     53  H   UNL A   1      40.685  31.698  31.539  1.00  0.00     0.167 HD
ATOM     54  C   UNL A   1      40.732  28.036  29.162  1.00  0.00     0.031 A 
ATOM     55  C   UNL A   1      41.579  33.372  33.594  1.00  0.00     0.031 A 
ATOM     56  C   UNL A   1      41.932  27.985  29.952  1.00  0.00     0.049 A 
ATOM     57  C   UNL A   1      42.554  32.229  33.537  1.00  0.00     0.074 A 
ATOM     58  C   UNL A   1      42.944  27.043  29.920  1.00  0.00     0.029 A 
ATOM     59  N   UNL A   1      42.277  28.913  30.923  1.00  0.00    -0.354 N 
ATOM     60  N   UNL A   1      42.555  31.185  32.745  1.00  0.00    -0.248 NA
ATOM     61  C   UNL A   1      43.671  32.264  34.493  1.00  0.00     0.031 C 
ATOM     62  C   UNL A   1      43.879  27.372  30.907  1.00  0.00     0.029 A 
ATOM     63  C   UNL A   1      43.473  28.547  31.519  1.00  0.00     0.049 A 
ATOM     64  H   UNL A   1      41.752  29.712  31.154  1.00  0.00     0.167 HD
ATOM     65  C   UNL A   1      43.680  30.449  33.092  1.00  0.00     0.074 A 
ATOM     66  C   UNL A   1      44.346  31.174  34.155  1.00  0.00     0.031 C 
ATOM     67  C   UNL A   1      44.121  29.277  32.578  1.00  0.00     0.031 A 
BRANCH  54  68
ATOM     68  C   UNL A   1      40.448  26.898  28.224  1.00  0.00    -0.014 A 
ATOM     69  C   UNL A   1      40.994  26.868  26.931  1.00  0.00     0.009 A 
ATOM     70  C   UNL A   1      39.655  25.822  28.653  1.00  0.00     0.009 A 
ATOM     71  C   UNL A   1      40.722  25.800  26.074  1.00  0.00     0.001 A 
ATOM     72  C   UNL A   1      39.407  24.743  27.802  1.00  0.00     0.001 A 
ATOM     73  C   UNL A   1      39.932  24.737  26.511  1.00  0.00     0.000 A 
ENDBRANCH  54  68
BRANCH  55  74
ATOM     74  C   UNL A   1      41.760  34.472  34.577  1.00  0.00    -0.014 A 
ATOM     75  C   UNL A   1      42.489  35.620  34.231  1.00  0.00     0.009 A 
ATOM     76  C   UNL A   1      41.209  34.379  35.864  1.00  0.00     0.009 A 
ATOM     77  C   UNL A   1      42.682  36.643  35.163  1.00  0.00     0.001 A 
ATOM     78  C   UNL A   1      41.381  35.415  36.785  1.00  0.00     0.001 A 
ATOM     79  C   UNL A   1      42.124  36.541  36.436  1.00  0.00     0.000 A 
ENDBRANCH  55  74
BRANCH  67  80
ATOM     80  C   UNL A   1      45.392  28.712  33.140  1.00  0.00    -0.014 A 
ATOM     81  C   UNL A   1      46.641  29.079  32.617  1.00  0.00     0.009 A 
ATOM     82  C   UNL A   1      45.342  27.844  34.242  1.00  0.00     0.009 A 
ATOM     83  C   UNL A   1      47.815  28.570  33.174  1.00  0.00     0.001 A 
ATOM     84  C   UNL A   1      46.519  27.357  34.813  1.00  0.00     0.001 A 
ATOM     85  C   UNL A   1      47.753  27.715  34.275  1.00  0.00     0.000 A 
ENDBRANCH  67  80
ENDBRANCH  41  42
ENDBRANCH  33  36
ENDBRANCH  31  32
ENDBRANCH  30  31
ENDBRANCH  29  30
ENDBRANCH   1  29
TORSDOF 16
ENDMDL
MODEL 3
REMARK VINA RESULT:     -11.7      2.140      2.904
REMARK SMILES CSc1ccc(CNc2ccc(N3CCOCC3)c(C(=O)NCCCCNC(=O)c3ccc(-c4c5nc(c(-c6ccccc6)c6ccc([nH]6)c(-c6ccccc6)c6nc(c(-c7ccccc7)c7ccc4[nH]7)C=C6)C=C5)cc3)c2)cc1
REMARK SMILES IDX 23 1 22 2 20 3 21 4 19 6 9 7 10 8 78 9 11 10 12 11 8 12 7 14
REMARK SMILES IDX 6 15 3 16 4 17 80 18 5 19 79 20 2 21 1 22 13 23 14 24 18 25
REMARK SMILES IDX 15 26 17 27 16 28 24 29 25 30 26 31 27 32 28 33 29 35 30 36
REMARK SMILES IDX 31 37 77 38 32 39 76 40 33 41 34 42 35 43 70 44 36 45 75 46
REMARK SMILES IDX 69 47 71 48 37 49 74 50 68 51 67 52 38 54 60 55 45 56 59 57
REMARK SMILES IDX 46 58 49 59 58 60 72 61 47 62 48 63 57 65 73 66 50 67 39 68
REMARK SMILES IDX 40 69 44 70 41 71 43 72 42 73 61 74 62 75 66 76 63 77 65 78
REMARK SMILES IDX 64 79 51 80 52 81 56 82 53 83 55 84 54 85
REMARK H PARENT 22 5 8 13 27 34 71 53 49 64
REMARK Flexibility Score: inf
ROOT
ATOM      1  C   UNL A   1      32.404  28.715  27.112  1.00  0.00     0.116 C 
ENDROOT
BRANCH   1   2
ATOM      2  N   UNL A   1      31.312  27.751  27.077  1.00  0.00    -0.352 N 
ATOM      3  C   UNL A   1      31.196  26.509  26.469  1.00  0.00     0.253 C 
ATOM      4  O   UNL A   1      30.195  25.853  26.748  1.00  0.00    -0.269 OA
ATOM      5  H   UNL A   1      30.511  28.032  27.576  1.00  0.00     0.163 HD
BRANCH   3   6
ATOM      6  C   UNL A   1      32.226  26.010  25.501  1.00  0.00     0.065 A 
ATOM      7  C   UNL A   1      34.240  24.630  25.229  1.00  0.00     0.035 A 
ATOM      8  C   UNL A   1      34.408  25.190  23.966  1.00  0.00     0.028 A 
ATOM      9  C   UNL A   1      33.099  25.002  25.935  1.00  0.00     0.041 A 
ATOM     10  C   UNL A   1      33.447  26.053  23.431  1.00  0.00     0.029 A 
ATOM     11  C   UNL A   1      32.322  26.461  24.171  1.00  0.00     0.050 A 
BRANCH   7  12
ATOM     12  N   UNL A   1      35.165  23.730  25.707  1.00  0.00    -0.381 N 
ATOM     13  H   UNL A   1      36.097  23.852  25.418  1.00  0.00     0.160 HD
BRANCH  12  14
ATOM     14  C   UNL A   1      34.890  22.618  26.600  1.00  0.00     0.148 C 
BRANCH  14  15
ATOM     15  C   UNL A   1      34.320  21.463  25.816  1.00  0.00    -0.029 A 
ATOM     16  C   UNL A   1      33.241  19.269  24.431  1.00  0.00     0.007 A 
ATOM     17  C   UNL A   1      32.397  20.244  24.962  1.00  0.00     0.015 A 
ATOM     18  C   UNL A   1      34.622  19.374  24.623  1.00  0.00     0.015 A 
ATOM     19  C   UNL A   1      32.931  21.329  25.656  1.00  0.00     0.007 A 
ATOM     20  C   UNL A   1      35.160  20.463  25.311  1.00  0.00     0.007 A 
BRANCH  16  21
ATOM     21  S   UNL A   1      32.539  17.900  23.533  1.00  0.00    -0.130 SA
ATOM     22  C   UNL A   1      34.067  17.005  23.151  1.00  0.00     0.091 C 
ENDBRANCH  16  21
ENDBRANCH  14  15
ENDBRANCH  12  14
ENDBRANCH   7  12
BRANCH  11  23
ATOM     23  N   UNL A   1      31.329  27.157  23.517  1.00  0.00    -0.366 N 
ATOM     24  C   UNL A   1      31.515  28.478  22.922  1.00  0.00     0.145 C 
ATOM     25  C   UNL A   1      30.068  26.474  23.209  1.00  0.00     0.145 C 
ATOM     26  C   UNL A   1      30.240  29.331  23.090  1.00  0.00     0.181 C 
ATOM     27  C   UNL A   1      28.902  27.432  23.473  1.00  0.00     0.181 C 
ATOM     28  O   UNL A   1      29.046  28.630  22.688  1.00  0.00    -0.378 OA
ENDBRANCH  11  23
ENDBRANCH   3   6
ENDBRANCH   1   2
BRANCH   1  29
ATOM     29  C   UNL A   1      32.258  29.910  26.178  1.00  0.00     0.023 C 
BRANCH  29  30
ATOM     30  C   UNL A   1      31.890  31.242  26.815  1.00  0.00     0.023 C 
BRANCH  30  31
ATOM     31  C   UNL A   1      33.052  32.141  27.218  1.00  0.00     0.116 C 
BRANCH  31  32
ATOM     32  N   UNL A   1      32.650  33.478  27.630  1.00  0.00    -0.352 N 
ATOM     33  C   UNL A   1      33.248  34.348  28.517  1.00  0.00     0.251 C 
ATOM     34  H   UNL A   1      31.824  33.813  27.212  1.00  0.00     0.163 HD
ATOM     35  O   UNL A   1      32.715  35.411  28.795  1.00  0.00    -0.269 OA
BRANCH  33  36
ATOM     36  C   UNL A   1      34.517  33.962  29.173  1.00  0.00     0.039 A 
ATOM     37  C   UNL A   1      34.462  33.249  30.374  1.00  0.00     0.014 A 
ATOM     38  C   UNL A   1      35.746  34.247  28.578  1.00  0.00     0.014 A 
ATOM     39  C   UNL A   1      35.634  32.716  30.915  1.00  0.00     0.010 A 
ATOM     40  C   UNL A   1      36.902  33.653  29.075  1.00  0.00     0.010 A 
ATOM     41  C   UNL A   1      36.853  32.861  30.233  1.00  0.00    -0.014 A 
BRANCH  41  42
ATOM     42  C   UNL A   1      38.080  32.149  30.673  1.00  0.00     0.031 A 
ATOM     43  C   UNL A   1      39.009  32.785  31.668  1.00  0.00     0.074 A 
ATOM     44  C   UNL A   1      38.412  30.978  30.093  1.00  0.00     0.049 A 
ATOM     45  N   UNL A   1      40.186  32.381  32.072  1.00  0.00    -0.248 NA
ATOM     46  C   UNL A   1      38.568  34.054  32.267  1.00  0.00     0.031 C 
ATOM     47  C   UNL A   1      37.617  30.274  29.083  1.00  0.00     0.029 A 
ATOM     48  N   UNL A   1      39.520  30.184  30.255  1.00  0.00    -0.354 N 
ATOM     49  C   UNL A   1      40.636  33.356  32.951  1.00  0.00     0.074 A 
ATOM     50  C   UNL A   1      39.623  34.388  32.994  1.00  0.00     0.031 C 
ATOM     51  C   UNL A   1      38.255  29.147  28.728  1.00  0.00     0.029 A 
ATOM     52  C   UNL A   1      39.524  29.072  29.445  1.00  0.00     0.049 A 
ATOM     53  H   UNL A   1      40.243  30.389  30.890  1.00  0.00     0.167 HD
ATOM     54  C   UNL A   1      41.785  33.383  33.670  1.00  0.00     0.031 A 
ATOM     55  C   UNL A   1      40.451  28.111  29.281  1.00  0.00     0.031 A 
ATOM     56  C   UNL A   1      42.785  32.351  33.637  1.00  0.00     0.049 A 
ATOM     57  C   UNL A   1      41.729  28.178  30.070  1.00  0.00     0.074 A 
ATOM     58  C   UNL A   1      43.947  32.255  34.383  1.00  0.00     0.029 A 
ATOM     59  N   UNL A   1      42.746  31.240  32.810  1.00  0.00    -0.354 N 
ATOM     60  N   UNL A   1      42.107  29.071  30.952  1.00  0.00    -0.248 NA
ATOM     61  C   UNL A   1      42.707  27.105  29.840  1.00  0.00     0.031 C 
ATOM     62  C   UNL A   1      44.637  31.111  33.970  1.00  0.00     0.029 A 
ATOM     63  C   UNL A   1      43.880  30.469  33.003  1.00  0.00     0.049 A 
ATOM     64  H   UNL A   1      42.021  31.030  32.178  1.00  0.00     0.167 HD
ATOM     65  C   UNL A   1      43.356  28.659  31.395  1.00  0.00     0.074 A 
ATOM     66  C   UNL A   1      43.665  27.428  30.698  1.00  0.00     0.031 C 
ATOM     67  C   UNL A   1      44.175  29.249  32.298  1.00  0.00     0.031 A 
BRANCH  54  68
ATOM     68  C   UNL A   1      42.022  34.579  34.547  1.00  0.00    -0.014 A 
ATOM     69  C   UNL A   1      42.641  35.735  34.046  1.00  0.00     0.009 A 
ATOM     70  C   UNL A   1      41.587  34.563  35.881  1.00  0.00     0.009 A 
ATOM     71  C   UNL A   1      42.850  36.840  34.874  1.00  0.00     0.001 A 
ATOM     72  C   UNL A   1      41.774  35.679  36.699  1.00  0.00     0.001 A 
ATOM     73  C   UNL A   1      42.413  36.812  36.198  1.00  0.00     0.000 A 
ENDBRANCH  54  68
BRANCH  55  74
ATOM     74  C   UNL A   1      40.213  27.001  28.322  1.00  0.00    -0.014 A 
ATOM     75  C   UNL A   1      39.416  25.905  28.689  1.00  0.00     0.009 A 
ATOM     76  C   UNL A   1      40.782  27.028  27.040  1.00  0.00     0.009 A 
ATOM     77  C   UNL A   1      39.213  24.849  27.797  1.00  0.00     0.001 A 
ATOM     78  C   UNL A   1      40.555  25.983  26.142  1.00  0.00     0.001 A 
ATOM     79  C   UNL A   1      39.778  24.891  26.524  1.00  0.00     0.000 A 
ENDBRANCH  55  74
BRANCH  67  80
ATOM     80  C   UNL A   1      45.475  28.562  32.601  1.00  0.00    -0.014 A 
ATOM     81  C   UNL A   1      46.645  28.884  31.897  1.00  0.00     0.009 A 
ATOM     82  C   UNL A   1      45.540  27.622  33.642  1.00  0.00     0.009 A 
ATOM     83  C   UNL A   1      47.852  28.260  32.215  1.00  0.00     0.001 A 
ATOM     84  C   UNL A   1      46.755  27.019  33.973  1.00  0.00     0.001 A 
ATOM     85  C   UNL A   1      47.907  27.333  33.256  1.00  0.00     0.000 A 
ENDBRANCH  67  80
ENDBRANCH  41  42
ENDBRANCH  33  36
ENDBRANCH  31  32
ENDBRANCH  30  31
ENDBRANCH  29  30
ENDBRANCH   1  29
TORSDOF 16
ENDMDL
