MODEL 1
REMARK VINA RESULT:     -11.5      0.000      0.000
REMARK SMILES Cc1ccc(NC(=O)NC2(C(=O)NCCCCNC(=O)c3ccc(-c4c5nc(c(-c6ccccc6)c6ccc([nH]6)c(-c6ccccc6)c6nc(c(-c7ccccc7)c7ccc4[nH]7)C=C6)C=C5)cc3)CC2)c(C)n1
REMARK SMILES IDX 15 1 14 2 13 3 11 4 12 5 10 7 69 8 70 9 9 10 6 11 7 12 8 14
REMARK SMILES IDX 5 16 1 17 2 18 3 19 73 20 4 21 71 22 72 23 16 24 17 25 18 26
REMARK SMILES IDX 19 27 20 29 21 30 22 31 68 32 23 33 67 34 24 35 25 36 26 37
REMARK SMILES IDX 61 38 27 39 66 40 60 41 62 42 28 43 65 44 59 45 58 46 29 48
REMARK SMILES IDX 51 49 36 50 50 51 37 52 40 53 49 54 63 55 38 56 39 57 48 59
REMARK SMILES IDX 64 60 41 61 30 62 31 63 35 64 32 65 34 66 33 67 52 68 53 69
REMARK SMILES IDX 57 70 54 71 56 72 55 73 42 74 43 75 47 76 44 77 46 78 45 79
REMARK H PARENT 13 6 6 13 9 15 18 28 62 47 40 58
REMARK Flexibility Score: inf
ROOT
ATOM      1  C   UNL A   1      36.957  22.688  23.887  1.00  0.00     0.023 C 
ENDROOT
BRANCH   1   2
ATOM      2  C   UNL A   1      35.942  23.677  24.493  1.00  0.00     0.116 C 
BRANCH   2   3
ATOM      3  N   UNL A   1      34.804  23.863  23.596  1.00  0.00    -0.354 N 
ATOM      4  C   UNL A   1      33.591  24.426  23.961  1.00  0.00     0.245 C 
ATOM      5  O   UNL A   1      33.437  25.092  24.978  1.00  0.00    -0.272 OA
ATOM      6  H   UNL A   1      34.907  23.567  22.663  1.00  0.00     0.163 HD
BRANCH   4   7
ATOM      7  C   UNL A   1      32.394  24.094  23.027  1.00  0.00     0.120 C 
ATOM      8  C   UNL A   1      31.026  24.288  23.697  1.00  0.00     0.041 C 
ATOM      9  C   UNL A   1      31.335  22.969  23.116  1.00  0.00     0.041 C 
BRANCH   7  10
ATOM     10  N   UNL A   1      32.646  24.376  21.668  1.00  0.00    -0.323 N 
ATOM     11  N   UNL A   1      32.394  26.761  21.612  1.00  0.00    -0.306 N 
ATOM     12  C   UNL A   1      32.682  25.566  21.080  1.00  0.00     0.320 C 
ATOM     13  H   UNL A   1      32.478  27.378  20.850  1.00  0.00     0.171 HD
ATOM     14  O   UNL A   1      32.970  25.580  19.876  1.00  0.00    -0.248 OA
ATOM     15  H   UNL A   1      32.815  23.599  21.087  1.00  0.00     0.166 HD
BRANCH  11  16
ATOM     16  C   UNL A   1      32.025  27.622  22.701  1.00  0.00     0.064 A 
ATOM     17  C   UNL A   1      31.967  30.397  26.014  1.00  0.00     0.067 C 
ATOM     18  C   UNL A   1      32.093  29.407  24.910  1.00  0.00     0.038 A 
ATOM     19  C   UNL A   1      33.278  28.976  24.390  1.00  0.00     0.025 A 
ATOM     20  N   UNL A   1      30.940  28.991  24.389  1.00  0.00    -0.256 NA
ATOM     21  C   UNL A   1      33.229  28.084  23.318  1.00  0.00     0.030 A 
ATOM     22  C   UNL A   1      30.864  28.161  23.297  1.00  0.00     0.061 A 
ATOM     23  C   UNL A   1      29.402  28.159  23.034  1.00  0.00     0.069 C 
ENDBRANCH  11  16
ENDBRANCH   7  10
ENDBRANCH   4   7
ENDBRANCH   2   3
ENDBRANCH   1   2
BRANCH   1  24
ATOM     24  C   UNL A   1      37.142  21.366  24.618  1.00  0.00     0.023 C 
BRANCH  24  25
ATOM     25  C   UNL A   1      38.303  21.312  25.596  1.00  0.00     0.116 C 
BRANCH  25  26
ATOM     26  N   UNL A   1      39.119  20.105  25.513  1.00  0.00    -0.352 N 
ATOM     27  C   UNL A   1      40.423  19.910  25.930  1.00  0.00     0.251 C 
ATOM     28  H   UNL A   1      38.681  19.324  25.106  1.00  0.00     0.163 HD
ATOM     29  O   UNL A   1      40.984  18.833  25.744  1.00  0.00    -0.269 OA
BRANCH  27  30
ATOM     30  C   UNL A   1      41.176  21.031  26.544  1.00  0.00     0.039 A 
ATOM     31  C   UNL A   1      41.853  21.934  25.718  1.00  0.00     0.014 A 
ATOM     32  C   UNL A   1      41.142  21.246  27.922  1.00  0.00     0.014 A 
ATOM     33  C   UNL A   1      42.380  23.112  26.260  1.00  0.00     0.010 A 
ATOM     34  C   UNL A   1      41.561  22.469  28.439  1.00  0.00     0.010 A 
ATOM     35  C   UNL A   1      42.176  23.423  27.615  1.00  0.00    -0.014 A 
BRANCH  35  36
ATOM     36  C   UNL A   1      42.577  24.738  28.187  1.00  0.00     0.031 A 
ATOM     37  C   UNL A   1      41.550  25.819  28.398  1.00  0.00     0.074 A 
ATOM     38  C   UNL A   1      43.878  24.999  28.429  1.00  0.00     0.049 A 
ATOM     39  N   UNL A   1      41.718  27.052  28.810  1.00  0.00    -0.248 NA
ATOM     40  C   UNL A   1      40.156  25.486  28.064  1.00  0.00     0.031 C 
ATOM     41  C   UNL A   1      44.991  24.072  28.203  1.00  0.00     0.029 A 
ATOM     42  N   UNL A   1      44.489  26.132  28.911  1.00  0.00    -0.354 N 
ATOM     43  C   UNL A   1      40.462  27.643  28.754  1.00  0.00     0.074 A 
ATOM     44  C   UNL A   1      39.556  26.657  28.211  1.00  0.00     0.031 C 
ATOM     45  C   UNL A   1      46.138  24.659  28.578  1.00  0.00     0.029 A 
ATOM     46  C   UNL A   1      45.854  26.015  29.034  1.00  0.00     0.049 A 
ATOM     47  H   UNL A   1      43.996  26.950  29.149  1.00  0.00     0.167 HD
ATOM     48  C   UNL A   1      40.086  28.884  29.144  1.00  0.00     0.031 A 
ATOM     49  C   UNL A   1      46.775  26.900  29.462  1.00  0.00     0.031 A 
ATOM     50  C   UNL A   1      40.978  29.859  29.709  1.00  0.00     0.049 A 
ATOM     51  C   UNL A   1      46.333  28.264  29.914  1.00  0.00     0.074 A 
ATOM     52  C   UNL A   1      40.680  31.115  30.208  1.00  0.00     0.029 A 
ATOM     53  N   UNL A   1      42.346  29.687  29.849  1.00  0.00    -0.354 N 
ATOM     54  N   UNL A   1      45.125  28.774  29.939  1.00  0.00    -0.248 NA
ATOM     55  C   UNL A   1      47.379  29.169  30.411  1.00  0.00     0.031 C 
ATOM     56  C   UNL A   1      41.876  31.724  30.603  1.00  0.00     0.029 A 
ATOM     57  C   UNL A   1      42.910  30.823  30.404  1.00  0.00     0.049 A 
ATOM     58  H   UNL A   1      42.844  28.878  29.592  1.00  0.00     0.167 HD
ATOM     59  C   UNL A   1      45.262  30.047  30.478  1.00  0.00     0.074 A 
ATOM     60  C   UNL A   1      46.667  30.223  30.784  1.00  0.00     0.031 C 
ATOM     61  C   UNL A   1      44.310  30.987  30.699  1.00  0.00     0.031 A 
BRANCH  48  62
ATOM     62  C   UNL A   1      38.637  29.252  28.967  1.00  0.00    -0.014 A 
ATOM     63  C   UNL A   1      37.720  29.134  30.024  1.00  0.00     0.009 A 
ATOM     64  C   UNL A   1      38.185  29.735  27.729  1.00  0.00     0.009 A 
ATOM     65  C   UNL A   1      36.371  29.443  29.831  1.00  0.00     0.001 A 
ATOM     66  C   UNL A   1      36.843  30.077  27.549  1.00  0.00     0.001 A 
ATOM     67  C   UNL A   1      35.935  29.917  28.594  1.00  0.00     0.000 A 
ENDBRANCH  48  62
BRANCH  49  68
ATOM     68  C   UNL A   1      48.213  26.518  29.509  1.00  0.00    -0.014 A 
ATOM     69  C   UNL A   1      48.741  25.871  30.639  1.00  0.00     0.009 A 
ATOM     70  C   UNL A   1      49.066  26.802  28.432  1.00  0.00     0.009 A 
ATOM     71  C   UNL A   1      50.097  25.543  30.699  1.00  0.00     0.001 A 
ATOM     72  C   UNL A   1      50.415  26.445  28.482  1.00  0.00     0.001 A 
ATOM     73  C   UNL A   1      50.933  25.826  29.619  1.00  0.00     0.000 A 
ENDBRANCH  49  68
BRANCH  61  74
ATOM     74  C   UNL A   1      44.752  32.277  31.331  1.00  0.00    -0.014 A 
ATOM     75  C   UNL A   1      45.142  33.377  30.550  1.00  0.00     0.009 A 
ATOM     76  C   UNL A   1      44.742  32.405  32.729  1.00  0.00     0.009 A 
ATOM     77  C   UNL A   1      45.551  34.565  31.159  1.00  0.00     0.001 A 
ATOM     78  C   UNL A   1      45.121  33.604  33.334  1.00  0.00     0.001 A 
ATOM     79  C   UNL A   1      45.535  34.679  32.549  1.00  0.00     0.000 A 
ENDBRANCH  61  74
ENDBRANCH  35  36
ENDBRANCH  27  30
ENDBRANCH  25  26
ENDBRANCH  24  25
ENDBRANCH   1  24
TORSDOF 13
ENDMDL
MODEL 2
REMARK VINA RESULT:     -11.5      3.069      8.533
REMARK SMILES Cc1ccc(NC(=O)NC2(C(=O)NCCCCNC(=O)c3ccc(-c4c5nc(c(-c6ccccc6)c6ccc([nH]6)c(-c6ccccc6)c6nc(c(-c7ccccc7)c7ccc4[nH]7)C=C6)C=C5)cc3)CC2)c(C)n1
REMARK SMILES IDX 15 1 14 2 13 3 11 4 12 5 10 7 69 8 70 9 9 10 6 11 7 12 8 14
REMARK SMILES IDX 5 16 1 17 2 18 3 19 73 20 4 21 71 22 72 23 16 24 17 25 18 26
REMARK SMILES IDX 19 27 20 29 21 30 22 31 68 32 23 33 67 34 24 35 25 36 26 37
REMARK SMILES IDX 61 38 27 39 66 40 60 41 62 42 28 43 65 44 59 45 58 46 29 48
REMARK SMILES IDX 51 49 36 50 50 51 37 52 40 53 49 54 63 55 38 56 39 57 48 59
REMARK SMILES IDX 64 60 41 61 30 62 31 63 35 64 32 65 34 66 33 67 52 68 53 69
REMARK SMILES IDX 57 70 54 71 56 72 55 73 42 74 43 75 47 76 44 77 46 78 45 79
REMARK H PARENT 13 6 6 13 9 15 18 28 62 47 40 58
REMARK Flexibility Score: inf
ROOT
ATOM      1  C   UNL A   1      32.253  29.460  26.338  1.00  0.00     0.023 C 
ENDROOT
BRANCH   1   2
ATOM      2  C   UNL A   1      32.195  28.386  27.443  1.00  0.00     0.116 C 
BRANCH   2   3
ATOM      3  N   UNL A   1      31.336  27.276  27.038  1.00  0.00    -0.354 N 
ATOM      4  C   UNL A   1      31.622  26.385  26.013  1.00  0.00     0.245 C 
ATOM      5  O   UNL A   1      32.743  26.246  25.537  1.00  0.00    -0.272 OA
ATOM      6  H   UNL A   1      30.492  27.150  27.528  1.00  0.00     0.163 HD
BRANCH   4   7
ATOM      7  C   UNL A   1      30.401  25.613  25.441  1.00  0.00     0.120 C 
ATOM      8  C   UNL A   1      30.509  25.331  23.936  1.00  0.00     0.041 C 
ATOM      9  C   UNL A   1      29.322  26.054  24.425  1.00  0.00     0.041 C 
BRANCH   7  10
ATOM     10  N   UNL A   1      29.819  24.718  26.364  1.00  0.00    -0.323 N 
ATOM     11  N   UNL A   1      31.427  22.938  26.396  1.00  0.00    -0.306 N 
ATOM     12  C   UNL A   1      30.315  23.566  26.800  1.00  0.00     0.320 C 
ATOM     13  H   UNL A   1      31.415  22.097  26.907  1.00  0.00     0.171 HD
ATOM     14  O   UNL A   1      29.647  22.962  27.651  1.00  0.00    -0.248 OA
ATOM     15  H   UNL A   1      28.942  24.979  26.728  1.00  0.00     0.166 HD
BRANCH  11  16
ATOM     16  C   UNL A   1      32.628  22.837  25.615  1.00  0.00     0.064 A 
ATOM     17  C   UNL A   1      36.711  22.651  24.212  1.00  0.00     0.067 C 
ATOM     18  C   UNL A   1      35.342  22.788  24.779  1.00  0.00     0.038 A 
ATOM     19  C   UNL A   1      35.073  23.081  26.083  1.00  0.00     0.025 A 
ATOM     20  N   UNL A   1      34.350  22.537  23.927  1.00  0.00    -0.256 NA
ATOM     21  C   UNL A   1      33.734  23.121  26.474  1.00  0.00     0.030 A 
ATOM     22  C   UNL A   1      33.028  22.511  24.300  1.00  0.00     0.061 A 
ATOM     23  C   UNL A   1      32.383  22.023  23.053  1.00  0.00     0.069 C 
ENDBRANCH  11  16
ENDBRANCH   7  10
ENDBRANCH   4   7
ENDBRANCH   2   3
ENDBRANCH   1   2
BRANCH   1  24
ATOM     24  C   UNL A   1      31.809  30.863  26.726  1.00  0.00     0.023 C 
BRANCH  24  25
ATOM     25  C   UNL A   1      32.914  31.797  27.191  1.00  0.00     0.116 C 
BRANCH  25  26
ATOM     26  N   UNL A   1      32.468  33.135  27.565  1.00  0.00    -0.352 N 
ATOM     27  C   UNL A   1      33.111  34.075  28.350  1.00  0.00     0.251 C 
ATOM     28  H   UNL A   1      31.591  33.405  27.211  1.00  0.00     0.163 HD
ATOM     29  O   UNL A   1      32.571  35.149  28.607  1.00  0.00    -0.269 OA
BRANCH  27  30
ATOM     30  C   UNL A   1      34.433  33.759  28.945  1.00  0.00     0.039 A 
ATOM     31  C   UNL A   1      34.489  33.073  30.162  1.00  0.00     0.014 A 
ATOM     32  C   UNL A   1      35.613  34.056  28.264  1.00  0.00     0.014 A 
ATOM     33  C   UNL A   1      35.713  32.576  30.624  1.00  0.00     0.010 A 
ATOM     34  C   UNL A   1      36.807  33.463  28.663  1.00  0.00     0.010 A 
ATOM     35  C   UNL A   1      36.873  32.706  29.842  1.00  0.00    -0.014 A 
BRANCH  35  36
ATOM     36  C   UNL A   1      38.153  32.050  30.223  1.00  0.00     0.031 A 
ATOM     37  C   UNL A   1      39.122  32.749  31.140  1.00  0.00     0.074 A 
ATOM     38  C   UNL A   1      38.494  30.867  29.671  1.00  0.00     0.049 A 
ATOM     39  N   UNL A   1      40.318  32.374  31.523  1.00  0.00    -0.248 NA
ATOM     40  C   UNL A   1      38.711  34.061  31.664  1.00  0.00     0.031 C 
ATOM     41  C   UNL A   1      37.687  30.109  28.711  1.00  0.00     0.029 A 
ATOM     42  N   UNL A   1      39.621  30.095  29.834  1.00  0.00    -0.354 N 
ATOM     43  C   UNL A   1      40.808  33.415  32.303  1.00  0.00     0.074 A 
ATOM     44  C   UNL A   1      39.809  34.459  32.288  1.00  0.00     0.031 C 
ATOM     45  C   UNL A   1      38.326  28.970  28.399  1.00  0.00     0.029 A 
ATOM     46  C   UNL A   1      39.604  28.931  29.102  1.00  0.00     0.049 A 
ATOM     47  H   UNL A   1      40.369  30.351  30.419  1.00  0.00     0.167 HD
ATOM     48  C   UNL A   1      41.970  33.487  32.994  1.00  0.00     0.031 A 
ATOM     49  C   UNL A   1      40.514  27.943  29.004  1.00  0.00     0.031 A 
ATOM     50  C   UNL A   1      42.955  32.440  33.033  1.00  0.00     0.049 A 
ATOM     51  C   UNL A   1      41.787  28.032  29.799  1.00  0.00     0.074 A 
ATOM     52  C   UNL A   1      44.127  32.386  33.766  1.00  0.00     0.029 A 
ATOM     53  N   UNL A   1      42.881  31.263  32.306  1.00  0.00    -0.354 N 
ATOM     54  N   UNL A   1      42.192  28.985  30.604  1.00  0.00    -0.248 NA
ATOM     55  C   UNL A   1      42.721  26.903  29.684  1.00  0.00     0.031 C 
ATOM     56  C   UNL A   1      44.789  31.197  33.443  1.00  0.00     0.029 A 
ATOM     57  C   UNL A   1      43.999  30.485  32.555  1.00  0.00     0.049 A 
ATOM     58  H   UNL A   1      42.144  31.015  31.703  1.00  0.00     0.167 HD
ATOM     59  C   UNL A   1      43.413  28.558  31.111  1.00  0.00     0.074 A 
ATOM     60  C   UNL A   1      43.672  27.253  30.538  1.00  0.00     0.031 C 
ATOM     61  C   UNL A   1      44.246  29.190  31.973  1.00  0.00     0.031 A 
BRANCH  48  62
ATOM     62  C   UNL A   1      42.235  34.753  33.764  1.00  0.00    -0.014 A 
ATOM     63  C   UNL A   1      42.881  35.849  33.168  1.00  0.00     0.009 A 
ATOM     64  C   UNL A   1      41.821  34.857  35.101  1.00  0.00     0.009 A 
ATOM     65  C   UNL A   1      43.153  37.001  33.908  1.00  0.00     0.001 A 
ATOM     66  C   UNL A   1      42.063  36.024  35.829  1.00  0.00     0.001 A 
ATOM     67  C   UNL A   1      42.740  37.089  35.237  1.00  0.00     0.000 A 
ENDBRANCH  48  62
BRANCH  49  68
ATOM     68  C   UNL A   1      40.247  26.764  28.136  1.00  0.00    -0.014 A 
ATOM     69  C   UNL A   1      39.467  25.695  28.606  1.00  0.00     0.009 A 
ATOM     70  C   UNL A   1      40.773  26.697  26.837  1.00  0.00     0.009 A 
ATOM     71  C   UNL A   1      39.244  24.573  27.804  1.00  0.00     0.001 A 
ATOM     72  C   UNL A   1      40.524  25.587  26.026  1.00  0.00     0.001 A 
ATOM     73  C   UNL A   1      39.769  24.521  26.514  1.00  0.00     0.000 A 
ENDBRANCH  49  68
BRANCH  61  74
ATOM     74  C   UNL A   1      45.500  28.465  32.375  1.00  0.00    -0.014 A 
ATOM     75  C   UNL A   1      45.518  27.589  33.472  1.00  0.00     0.009 A 
ATOM     76  C   UNL A   1      46.672  28.634  31.620  1.00  0.00     0.009 A 
ATOM     77  C   UNL A   1      46.696  26.928  33.828  1.00  0.00     0.001 A 
ATOM     78  C   UNL A   1      47.838  27.947  31.959  1.00  0.00     0.001 A 
ATOM     79  C   UNL A   1      47.852  27.103  33.069  1.00  0.00     0.000 A 
ENDBRANCH  61  74
ENDBRANCH  35  36
ENDBRANCH  27  30
ENDBRANCH  25  26
ENDBRANCH  24  25
ENDBRANCH   1  24
TORSDOF 13
ENDMDL
MODEL 3
REMARK VINA RESULT:     -11.4      0.418      6.041
REMARK SMILES Cc1ccc(NC(=O)NC2(C(=O)NCCCCNC(=O)c3ccc(-c4c5nc(c(-c6ccccc6)c6ccc([nH]6)c(-c6ccccc6)c6nc(c(-c7ccccc7)c7ccc4[nH]7)C=C6)C=C5)cc3)CC2)c(C)n1
REMARK SMILES IDX 15 1 14 2 13 3 11 4 12 5 10 7 69 8 70 9 9 10 6 11 7 12 8 14
REMARK SMILES IDX 5 16 1 17 2 18 3 19 73 20 4 21 71 22 72 23 16 24 17 25 18 26
REMARK SMILES IDX 19 27 20 29 21 30 22 31 68 32 23 33 67 34 24 35 25 36 26 37
REMARK SMILES IDX 61 38 27 39 66 40 60 41 62 42 28 43 65 44 59 45 58 46 29 48
REMARK SMILES IDX 51 49 36 50 50 51 37 52 40 53 49 54 63 55 38 56 39 57 48 59
REMARK SMILES IDX 64 60 41 61 30 62 31 63 35 64 32 65 34 66 33 67 52 68 53 69
REMARK SMILES IDX 57 70 54 71 56 72 55 73 42 74 43 75 47 76 44 77 46 78 45 79
REMARK H PARENT 13 6 6 13 9 15 18 28 62 47 40 58
REMARK Flexibility Score: inf
ROOT
ATOM      1  C   UNL A   1      36.840  22.265  24.065  1.00  0.00     0.023 C 
ENDROOT
BRANCH   1   2
ATOM      2  C   UNL A   1      35.668  23.008  24.736  1.00  0.00     0.116 C 
BRANCH   2   3
ATOM      3  N   UNL A   1      34.621  23.306  23.762  1.00  0.00    -0.354 N 
ATOM      4  C   UNL A   1      33.620  24.250  23.937  1.00  0.00     0.245 C 
ATOM      5  O   UNL A   1      33.673  25.136  24.782  1.00  0.00    -0.272 OA
ATOM      6  H   UNL A   1      34.626  22.799  22.918  1.00  0.00     0.163 HD
BRANCH   4   7
ATOM      7  C   UNL A   1      32.369  24.071  23.032  1.00  0.00     0.120 C 
ATOM      8  C   UNL A   1      31.049  24.390  23.748  1.00  0.00     0.041 C 
ATOM      9  C   UNL A   1      31.200  23.063  23.126  1.00  0.00     0.041 C 
BRANCH   7  10
ATOM     10  N   UNL A   1      32.612  24.362  21.673  1.00  0.00    -0.323 N 
ATOM     11  N   UNL A   1      32.406  26.753  21.644  1.00  0.00    -0.306 N 
ATOM     12  C   UNL A   1      32.665  25.558  21.097  1.00  0.00     0.320 C 
ATOM     13  H   UNL A   1      32.495  27.375  20.887  1.00  0.00     0.171 HD
ATOM     14  O   UNL A   1      32.939  25.578  19.889  1.00  0.00    -0.248 OA
ATOM     15  H   UNL A   1      32.759  23.588  21.082  1.00  0.00     0.166 HD
BRANCH  11  16
ATOM     16  C   UNL A   1      32.067  27.610  22.745  1.00  0.00     0.064 A 
ATOM     17  C   UNL A   1      32.100  30.359  26.078  1.00  0.00     0.067 C 
ATOM     18  C   UNL A   1      32.195  29.376  24.965  1.00  0.00     0.038 A 
ATOM     19  C   UNL A   1      33.365  28.937  24.422  1.00  0.00     0.025 A 
ATOM     20  N   UNL A   1      31.028  28.978  24.462  1.00  0.00    -0.256 NA
ATOM     21  C   UNL A   1      33.287  28.053  23.344  1.00  0.00     0.030 A 
ATOM     22  C   UNL A   1      30.923  28.157  23.366  1.00  0.00     0.061 A 
ATOM     23  C   UNL A   1      29.457  28.173  23.129  1.00  0.00     0.069 C 
ENDBRANCH  11  16
ENDBRANCH   7  10
ENDBRANCH   4   7
ENDBRANCH   2   3
ENDBRANCH   1   2
BRANCH   1  24
ATOM     24  C   UNL A   1      37.263  20.947  24.698  1.00  0.00     0.023 C 
BRANCH  24  25
ATOM     25  C   UNL A   1      38.442  21.025  25.653  1.00  0.00     0.116 C 
BRANCH  25  26
ATOM     26  N   UNL A   1      39.357  19.890  25.592  1.00  0.00    -0.352 N 
ATOM     27  C   UNL A   1      40.679  19.821  25.990  1.00  0.00     0.251 C 
ATOM     28  H   UNL A   1      38.981  19.061  25.217  1.00  0.00     0.163 HD
ATOM     29  O   UNL A   1      41.328  18.790  25.826  1.00  0.00    -0.269 OA
BRANCH  27  30
ATOM     30  C   UNL A   1      41.344  21.021  26.554  1.00  0.00     0.039 A 
ATOM     31  C   UNL A   1      41.973  21.924  25.692  1.00  0.00     0.014 A 
ATOM     32  C   UNL A   1      41.269  21.305  27.918  1.00  0.00     0.014 A 
ATOM     33  C   UNL A   1      42.408  23.162  26.178  1.00  0.00     0.010 A 
ATOM     34  C   UNL A   1      41.595  22.578  28.375  1.00  0.00     0.010 A 
ATOM     35  C   UNL A   1      42.159  23.528  27.511  1.00  0.00    -0.014 A 
BRANCH  35  36
ATOM     36  C   UNL A   1      42.459  24.896  28.018  1.00  0.00     0.031 A 
ATOM     37  C   UNL A   1      43.855  25.255  28.453  1.00  0.00     0.074 A 
ATOM     38  C   UNL A   1      41.460  25.788  28.181  1.00  0.00     0.049 A 
ATOM     39  N   UNL A   1      44.294  26.366  28.993  1.00  0.00    -0.248 NA
ATOM     40  C   UNL A   1      44.887  24.217  28.299  1.00  0.00     0.031 C 
ATOM     41  C   UNL A   1      40.047  25.554  27.871  1.00  0.00     0.029 A 
ATOM     42  N   UNL A   1      41.481  27.077  28.658  1.00  0.00    -0.354 N 
ATOM     43  C   UNL A   1      45.639  26.145  29.268  1.00  0.00     0.074 A 
ATOM     44  C   UNL A   1      45.927  24.779  28.895  1.00  0.00     0.031 C 
ATOM     45  C   UNL A   1      39.347  26.669  28.132  1.00  0.00     0.029 A 
ATOM     46  C   UNL A   1      40.247  27.685  28.665  1.00  0.00     0.049 A 
ATOM     47  H   UNL A   1      42.302  27.525  28.967  1.00  0.00     0.167 HD
ATOM     48  C   UNL A   1      46.560  27.007  29.760  1.00  0.00     0.031 A 
ATOM     49  C   UNL A   1      39.880  28.921  29.057  1.00  0.00     0.031 A 
ATOM     50  C   UNL A   1      46.284  28.374  30.109  1.00  0.00     0.049 A 
ATOM     51  C   UNL A   1      40.924  29.870  29.577  1.00  0.00     0.074 A 
ATOM     52  C   UNL A   1      47.166  29.349  30.541  1.00  0.00     0.029 A 
ATOM     53  N   UNL A   1      45.029  28.959  30.065  1.00  0.00    -0.354 N 
ATOM     54  N   UNL A   1      42.209  29.672  29.745  1.00  0.00    -0.248 NA
ATOM     55  C   UNL A   1      40.469  31.217  29.947  1.00  0.00     0.031 C 
ATOM     56  C   UNL A   1      46.436  30.511  30.808  1.00  0.00     0.029 A 
ATOM     57  C   UNL A   1      45.109  30.276  30.486  1.00  0.00     0.049 A 
ATOM     58  H   UNL A   1      44.203  28.507  29.778  1.00  0.00     0.167 HD
ATOM     59  C   UNL A   1      42.719  30.876  30.214  1.00  0.00     0.074 A 
ATOM     60  C   UNL A   1      41.608  31.802  30.285  1.00  0.00     0.031 C 
ATOM     61  C   UNL A   1      43.994  31.186  30.556  1.00  0.00     0.031 A 
BRANCH  48  62
ATOM     62  C   UNL A   1      47.959  26.483  29.951  1.00  0.00    -0.014 A 
ATOM     63  C   UNL A   1      48.902  26.525  28.911  1.00  0.00     0.009 A 
ATOM     64  C   UNL A   1      48.343  25.953  31.192  1.00  0.00     0.009 A 
ATOM     65  C   UNL A   1      50.183  26.000  29.093  1.00  0.00     0.001 A 
ATOM     66  C   UNL A   1      49.636  25.461  31.383  1.00  0.00     0.001 A 
ATOM     67  C   UNL A   1      50.549  25.472  30.331  1.00  0.00     0.000 A 
ENDBRANCH  48  62
BRANCH  49  68
ATOM     68  C   UNL A   1      38.458  29.346  28.950  1.00  0.00    -0.014 A 
ATOM     69  C   UNL A   1      37.943  29.809  27.728  1.00  0.00     0.009 A 
ATOM     70  C   UNL A   1      37.610  29.299  30.067  1.00  0.00     0.009 A 
ATOM     71  C   UNL A   1      36.617  30.241  27.635  1.00  0.00     0.001 A 
ATOM     72  C   UNL A   1      36.277  29.703  29.964  1.00  0.00     0.001 A 
ATOM     73  C   UNL A   1      35.784  30.183  28.752  1.00  0.00     0.000 A 
ENDBRANCH  49  68
BRANCH  61  74
ATOM     74  C   UNL A   1      44.261  32.594  31.008  1.00  0.00    -0.014 A 
ATOM     75  C   UNL A   1      44.296  32.931  32.371  1.00  0.00     0.009 A 
ATOM     76  C   UNL A   1      44.517  33.592  30.055  1.00  0.00     0.009 A 
ATOM     77  C   UNL A   1      44.543  34.247  32.767  1.00  0.00     0.001 A 
ATOM     78  C   UNL A   1      44.796  34.900  30.455  1.00  0.00     0.001 A 
ATOM     79  C   UNL A   1      44.798  35.228  31.810  1.00  0.00     0.000 A 
ENDBRANCH  61  74
ENDBRANCH  35  36
ENDBRANCH  27  30
ENDBRANCH  25  26
ENDBRANCH  24  25
ENDBRANCH   1  24
TORSDOF 13
ENDMDL
