MODEL 1
REMARK VINA RESULT:      -8.6      0.000      0.000
REMARK SMILES CCCCCCNC(=O)Oc1cccc(-c2ccc([C@@H](C)C(=O)NCCCCNC(=O)c3ccc(-c4c5nc(c(-c6ccccc6)c6ccc([nH]6)c(-c6ccccc6)c6nc(c(-c7ccccc7)c7ccc4[nH]7)C=C6)C=C5)cc3)cc2C(F)(F)F)c1
REMARK SMILES IDX 20 1 21 2 19 3 16 4 17 5 81 6 18 7 80 8 15 9 11 10 12 11
REMARK SMILES IDX 86 12 13 13 14 14 10 15 8 16 7 17 9 19 6 20 5 21 4 22 3 23
REMARK SMILES IDX 2 24 1 25 82 26 83 27 84 28 85 29 22 30 23 31 24 32 25 34
REMARK SMILES IDX 26 35 27 36 28 37 29 38 30 39 31 41 32 42 33 43 79 44 34 45
REMARK SMILES IDX 78 46 35 47 36 48 37 49 72 50 38 51 77 52 71 53 73 54 39 55
REMARK SMILES IDX 76 56 70 57 69 58 40 60 62 61 47 62 61 63 48 64 51 65 60 66
REMARK SMILES IDX 74 67 49 68 50 69 59 71 75 72 52 73 41 74 42 75 46 76 43 77
REMARK SMILES IDX 45 78 44 79 63 80 64 81 68 82 65 83 67 84 66 85 53 86 54 87
REMARK SMILES IDX 58 88 55 89 57 90 56 91
REMARK H PARENT 7 18 24 33 29 40 73 59 51 70
REMARK Flexibility Score: inf
ROOT
ATOM      1  C   UNL A   1      40.139  26.245  27.950  1.00  0.00     0.105 C 
ATOM      2  C   UNL A   1      38.967  25.269  28.014  1.00  0.00     0.023 C 
ENDROOT
BRANCH   1   3
ATOM      3  C   UNL A   1      39.817  27.685  28.322  1.00  0.00    -0.035 A 
ATOM      4  C   UNL A   1      39.083  30.283  29.276  1.00  0.00    -0.006 A 
ATOM      5  C   UNL A   1      40.421  29.849  29.239  1.00  0.00     0.009 A 
ATOM      6  C   UNL A   1      38.117  29.436  28.692  1.00  0.00     0.064 A 
ATOM      7  C   UNL A   1      40.785  28.604  28.717  1.00  0.00     0.005 A 
ATOM      8  C   UNL A   1      38.489  28.130  28.289  1.00  0.00     0.018 A 
BRANCH   4   9
ATOM      9  C   UNL A   1      38.771  31.574  29.928  1.00  0.00    -0.014 A 
ATOM     10  C   UNL A   1      37.959  32.855  31.830  1.00  0.00     0.133 A 
ATOM     11  C   UNL A   1      38.135  34.051  31.140  1.00  0.00     0.047 A 
ATOM     12  C   UNL A   1      38.291  31.629  31.249  1.00  0.00     0.056 A 
ATOM     13  C   UNL A   1      38.658  34.020  29.851  1.00  0.00     0.004 A 
ATOM     14  C   UNL A   1      38.959  32.794  29.250  1.00  0.00     0.009 A 
BRANCH  10  15
ATOM     15  O   UNL A   1      37.267  32.932  33.051  1.00  0.00    -0.410 OA
BRANCH  15  16
ATOM     16  C   UNL A   1      36.321  33.925  33.257  1.00  0.00     0.412 C 
ATOM     17  N   UNL A   1      35.126  33.655  32.646  1.00  0.00    -0.321 N 
ATOM     18  H   UNL A   1      34.428  34.346  32.715  1.00  0.00     0.167 HD
ATOM     19  O   UNL A   1      36.489  34.954  33.898  1.00  0.00    -0.224 OA
BRANCH  17  20
ATOM     20  C   UNL A   1      34.782  32.453  31.909  1.00  0.00     0.119 C 
BRANCH  20  21
ATOM     21  C   UNL A   1      34.426  32.754  30.452  1.00  0.00     0.021 C 
BRANCH  21  22
ATOM     22  C   UNL A   1      34.770  34.173  29.981  1.00  0.00     0.002 C 
BRANCH  22  23
ATOM     23  C   UNL A   1      33.924  34.707  28.821  1.00  0.00    -0.000 C 
BRANCH  23  24
ATOM     24  C   UNL A   1      33.015  35.890  29.161  1.00  0.00    -0.003 C 
ATOM     25  C   UNL A   1      32.897  36.148  30.656  1.00  0.00     0.004 C 
ENDBRANCH  23  24
ENDBRANCH  22  23
ENDBRANCH  21  22
ENDBRANCH  20  21
ENDBRANCH  17  20
ENDBRANCH  15  16
ENDBRANCH  10  15
ENDBRANCH   4   9
BRANCH   6  26
ATOM     26  C   UNL A   1      36.679  29.843  28.441  1.00  0.00     0.417 C 
ATOM     27  F   UNL A   1      36.036  28.953  27.626  1.00  0.00    -0.166 F 
ATOM     28  F   UNL A   1      35.942  29.885  29.585  1.00  0.00    -0.166 F 
ATOM     29  F   UNL A   1      36.510  31.048  27.833  1.00  0.00    -0.166 F 
ENDBRANCH   6  26
ENDBRANCH   1   3
BRANCH   1  30
ATOM     30  C   UNL A   1      41.014  26.105  26.692  1.00  0.00     0.227 C 
ATOM     31  O   UNL A   1      40.831  26.860  25.729  1.00  0.00    -0.274 OA
ATOM     32  N   UNL A   1      42.019  25.197  26.556  1.00  0.00    -0.356 N 
ATOM     33  H   UNL A   1      42.546  25.299  25.732  1.00  0.00     0.163 HD
BRANCH  32  34
ATOM     34  C   UNL A   1      42.450  24.108  27.406  1.00  0.00     0.116 C 
BRANCH  34  35
ATOM     35  C   UNL A   1      43.960  24.140  27.647  1.00  0.00     0.023 C 
BRANCH  35  36
ATOM     36  C   UNL A   1      44.817  23.732  26.453  1.00  0.00     0.023 C 
BRANCH  36  37
ATOM     37  C   UNL A   1      46.290  24.103  26.561  1.00  0.00     0.116 C 
BRANCH  37  38
ATOM     38  N   UNL A   1      46.813  24.818  25.405  1.00  0.00    -0.352 N 
ATOM     39  C   UNL A   1      46.750  26.169  25.148  1.00  0.00     0.251 C 
ATOM     40  H   UNL A   1      47.265  24.268  24.725  1.00  0.00     0.163 HD
ATOM     41  O   UNL A   1      47.172  26.630  24.094  1.00  0.00    -0.269 OA
BRANCH  39  42
ATOM     42  C   UNL A   1      46.119  27.051  26.150  1.00  0.00     0.039 A 
ATOM     43  C   UNL A   1      44.763  27.356  26.023  1.00  0.00     0.014 A 
ATOM     44  C   UNL A   1      46.849  27.504  27.251  1.00  0.00     0.014 A 
ATOM     45  C   UNL A   1      44.118  28.054  27.045  1.00  0.00     0.010 A 
ATOM     46  C   UNL A   1      46.189  28.122  28.305  1.00  0.00     0.010 A 
ATOM     47  C   UNL A   1      44.817  28.406  28.212  1.00  0.00    -0.014 A 
BRANCH  47  48
ATOM     48  C   UNL A   1      44.140  29.081  29.346  1.00  0.00     0.031 A 
ATOM     49  C   UNL A   1      43.807  30.544  29.252  1.00  0.00     0.074 A 
ATOM     50  C   UNL A   1      43.898  28.402  30.483  1.00  0.00     0.049 A 
ATOM     51  N   UNL A   1      43.285  31.332  30.158  1.00  0.00    -0.248 NA
ATOM     52  C   UNL A   1      44.131  31.218  27.984  1.00  0.00     0.031 C 
ATOM     53  C   UNL A   1      44.222  26.993  30.721  1.00  0.00     0.029 A 
ATOM     54  N   UNL A   1      43.326  28.814  31.661  1.00  0.00    -0.354 N 
ATOM     55  C   UNL A   1      43.245  32.594  29.579  1.00  0.00     0.074 A 
ATOM     56  C   UNL A   1      43.842  32.479  28.267  1.00  0.00     0.031 C 
ATOM     57  C   UNL A   1      43.817  26.652  31.955  1.00  0.00     0.029 A 
ATOM     58  C   UNL A   1      43.241  27.821  32.608  1.00  0.00     0.049 A 
ATOM     59  H   UNL A   1      43.008  29.733  31.814  1.00  0.00     0.167 HD
ATOM     60  C   UNL A   1      42.737  33.742  30.083  1.00  0.00     0.031 A 
ATOM     61  C   UNL A   1      42.752  27.853  33.862  1.00  0.00     0.031 A 
ATOM     62  C   UNL A   1      42.120  33.851  31.376  1.00  0.00     0.049 A 
ATOM     63  C   UNL A   1      42.178  29.136  34.394  1.00  0.00     0.074 A 
ATOM     64  C   UNL A   1      41.516  34.954  31.953  1.00  0.00     0.029 A 
ATOM     65  N   UNL A   1      42.026  32.816  32.293  1.00  0.00    -0.354 N 
ATOM     66  N   UNL A   1      42.082  30.305  33.807  1.00  0.00    -0.248 NA
ATOM     67  C   UNL A   1      41.630  29.100  35.757  1.00  0.00     0.031 C 
ATOM     68  C   UNL A   1      41.092  34.596  33.237  1.00  0.00     0.029 A 
ATOM     69  C   UNL A   1      41.388  33.258  33.439  1.00  0.00     0.049 A 
ATOM     70  H   UNL A   1      42.363  31.901  32.150  1.00  0.00     0.167 HD
ATOM     71  C   UNL A   1      41.438  31.133  34.716  1.00  0.00     0.074 A 
ATOM     72  C   UNL A   1      41.153  30.331  35.887  1.00  0.00     0.031 C 
ATOM     73  C   UNL A   1      41.109  32.442  34.592  1.00  0.00     0.031 A 
BRANCH  60  74
ATOM     74  C   UNL A   1      42.830  34.973  29.224  1.00  0.00    -0.014 A 
ATOM     75  C   UNL A   1      41.791  35.330  28.350  1.00  0.00     0.009 A 
ATOM     76  C   UNL A   1      43.963  35.797  29.304  1.00  0.00     0.009 A 
ATOM     77  C   UNL A   1      41.903  36.464  27.543  1.00  0.00     0.001 A 
ATOM     78  C   UNL A   1      44.059  36.946  28.519  1.00  0.00     0.001 A 
ATOM     79  C   UNL A   1      43.034  37.273  27.632  1.00  0.00     0.000 A 
ENDBRANCH  60  74
BRANCH  61  80
ATOM     80  C   UNL A   1      42.755  26.623  34.695  1.00  0.00    -0.014 A 
ATOM     81  C   UNL A   1      41.586  25.860  34.839  1.00  0.00     0.009 A 
ATOM     82  C   UNL A   1      43.922  26.207  35.355  1.00  0.00     0.009 A 
ATOM     83  C   UNL A   1      41.577  24.721  35.648  1.00  0.00     0.001 A 
ATOM     84  C   UNL A   1      43.917  25.053  36.143  1.00  0.00     0.001 A 
ATOM     85  C   UNL A   1      42.743  24.317  36.297  1.00  0.00     0.000 A 
ENDBRANCH  61  80
BRANCH  73  86
ATOM     86  C   UNL A   1      40.367  33.076  35.733  1.00  0.00    -0.014 A 
ATOM     87  C   UNL A   1      41.042  33.795  36.732  1.00  0.00     0.009 A 
ATOM     88  C   UNL A   1      38.967  32.987  35.784  1.00  0.00     0.009 A 
ATOM     89  C   UNL A   1      40.328  34.386  37.777  1.00  0.00     0.001 A 
ATOM     90  C   UNL A   1      38.255  33.602  36.813  1.00  0.00     0.001 A 
ATOM     91  C   UNL A   1      38.937  34.294  37.814  1.00  0.00     0.000 A 
ENDBRANCH  73  86
ENDBRANCH  47  48
ENDBRANCH  39  42
ENDBRANCH  37  38
ENDBRANCH  36  37
ENDBRANCH  35  36
ENDBRANCH  34  35
ENDBRANCH  32  34
ENDBRANCH   1  30
TORSDOF 21
ENDMDL
MODEL 2
REMARK VINA RESULT:      -8.5      0.616      5.595
REMARK SMILES CCCCCCNC(=O)Oc1cccc(-c2ccc([C@@H](C)C(=O)NCCCCNC(=O)c3ccc(-c4c5nc(c(-c6ccccc6)c6ccc([nH]6)c(-c6ccccc6)c6nc(c(-c7ccccc7)c7ccc4[nH]7)C=C6)C=C5)cc3)cc2C(F)(F)F)c1
REMARK SMILES IDX 20 1 21 2 19 3 16 4 17 5 81 6 18 7 80 8 15 9 11 10 12 11
REMARK SMILES IDX 86 12 13 13 14 14 10 15 8 16 7 17 9 19 6 20 5 21 4 22 3 23
REMARK SMILES IDX 2 24 1 25 82 26 83 27 84 28 85 29 22 30 23 31 24 32 25 34
REMARK SMILES IDX 26 35 27 36 28 37 29 38 30 39 31 41 32 42 33 43 79 44 34 45
REMARK SMILES IDX 78 46 35 47 36 48 37 49 72 50 38 51 77 52 71 53 73 54 39 55
REMARK SMILES IDX 76 56 70 57 69 58 40 60 62 61 47 62 61 63 48 64 51 65 60 66
REMARK SMILES IDX 74 67 49 68 50 69 59 71 75 72 52 73 41 74 42 75 46 76 43 77
REMARK SMILES IDX 45 78 44 79 63 80 64 81 68 82 65 83 67 84 66 85 53 86 54 87
REMARK SMILES IDX 58 88 55 89 57 90 56 91
REMARK H PARENT 7 18 24 33 29 40 73 59 51 70
REMARK Flexibility Score: inf
ROOT
ATOM      1  C   UNL A   1      40.257  26.187  28.113  1.00  0.00     0.105 C 
ATOM      2  C   UNL A   1      39.121  25.192  28.339  1.00  0.00     0.023 C 
ENDROOT
BRANCH   1   3
ATOM      3  C   UNL A   1      39.937  27.637  28.447  1.00  0.00    -0.035 A 
ATOM      4  C   UNL A   1      39.193  30.258  29.326  1.00  0.00    -0.006 A 
ATOM      5  C   UNL A   1      40.527  29.809  29.354  1.00  0.00     0.009 A 
ATOM      6  C   UNL A   1      38.243  29.413  28.715  1.00  0.00     0.064 A 
ATOM      7  C   UNL A   1      40.897  28.551  28.869  1.00  0.00     0.005 A 
ATOM      8  C   UNL A   1      38.617  28.097  28.350  1.00  0.00     0.018 A 
BRANCH   4   9
ATOM      9  C   UNL A   1      38.869  31.564  29.944  1.00  0.00    -0.014 A 
ATOM     10  C   UNL A   1      38.357  32.926  31.892  1.00  0.00     0.133 A 
ATOM     11  C   UNL A   1      38.203  34.059  31.099  1.00  0.00     0.047 A 
ATOM     12  C   UNL A   1      38.708  31.695  31.335  1.00  0.00     0.056 A 
ATOM     13  C   UNL A   1      38.410  33.961  29.727  1.00  0.00     0.004 A 
ATOM     14  C   UNL A   1      38.726  32.723  29.157  1.00  0.00     0.009 A 
BRANCH  10  15
ATOM     15  O   UNL A   1      37.964  33.045  33.237  1.00  0.00    -0.410 OA
BRANCH  15  16
ATOM     16  C   UNL A   1      37.445  34.240  33.712  1.00  0.00     0.412 C 
ATOM     17  N   UNL A   1      36.083  34.214  33.838  1.00  0.00    -0.321 N 
ATOM     18  H   UNL A   1      35.649  35.050  34.124  1.00  0.00     0.167 HD
ATOM     19  O   UNL A   1      38.091  35.242  33.991  1.00  0.00    -0.224 OA
BRANCH  17  20
ATOM     20  C   UNL A   1      35.211  33.079  33.595  1.00  0.00     0.119 C 
BRANCH  20  21
ATOM     21  C   UNL A   1      34.676  33.061  32.163  1.00  0.00     0.021 C 
BRANCH  21  22
ATOM     22  C   UNL A   1      34.251  34.428  31.612  1.00  0.00     0.002 C 
BRANCH  22  23
ATOM     23  C   UNL A   1      34.337  34.584  30.090  1.00  0.00    -0.000 C 
BRANCH  23  24
ATOM     24  C   UNL A   1      34.410  33.276  29.300  1.00  0.00    -0.003 C 
ATOM     25  C   UNL A   1      35.200  33.399  28.005  1.00  0.00     0.004 C 
ENDBRANCH  23  24
ENDBRANCH  22  23
ENDBRANCH  21  22
ENDBRANCH  20  21
ENDBRANCH  17  20
ENDBRANCH  15  16
ENDBRANCH  10  15
ENDBRANCH   4   9
BRANCH   6  26
ATOM     26  C   UNL A   1      36.823  29.832  28.396  1.00  0.00     0.417 C 
ATOM     27  F   UNL A   1      36.123  28.827  27.788  1.00  0.00    -0.166 F 
ATOM     28  F   UNL A   1      36.109  30.147  29.513  1.00  0.00    -0.166 F 
ATOM     29  F   UNL A   1      36.701  30.893  27.553  1.00  0.00    -0.166 F 
ENDBRANCH   6  26
ENDBRANCH   1   3
BRANCH   1  30
ATOM     30  C   UNL A   1      41.007  26.004  26.782  1.00  0.00     0.227 C 
ATOM     31  O   UNL A   1      40.788  26.778  25.841  1.00  0.00    -0.274 OA
ATOM     32  N   UNL A   1      41.936  25.036  26.555  1.00  0.00    -0.356 N 
ATOM     33  H   UNL A   1      42.395  25.112  25.687  1.00  0.00     0.163 HD
BRANCH  32  34
ATOM     34  C   UNL A   1      42.371  23.915  27.359  1.00  0.00     0.116 C 
BRANCH  34  35
ATOM     35  C   UNL A   1      43.838  24.046  27.773  1.00  0.00     0.023 C 
BRANCH  35  36
ATOM     36  C   UNL A   1      44.845  23.462  26.787  1.00  0.00     0.023 C 
BRANCH  36  37
ATOM     37  C   UNL A   1      46.253  24.032  26.891  1.00  0.00     0.116 C 
BRANCH  37  38
ATOM     38  N   UNL A   1      46.732  24.670  25.673  1.00  0.00    -0.352 N 
ATOM     39  C   UNL A   1      46.680  26.005  25.342  1.00  0.00     0.251 C 
ATOM     40  H   UNL A   1      47.140  24.073  25.005  1.00  0.00     0.163 HD
ATOM     41  O   UNL A   1      47.059  26.397  24.244  1.00  0.00    -0.269 OA
BRANCH  39  42
ATOM     42  C   UNL A   1      46.114  26.955  26.320  1.00  0.00     0.039 A 
ATOM     43  C   UNL A   1      44.738  27.190  26.315  1.00  0.00     0.014 A 
ATOM     44  C   UNL A   1      46.933  27.543  27.286  1.00  0.00     0.014 A 
ATOM     45  C   UNL A   1      44.171  27.959  27.332  1.00  0.00     0.010 A 
ATOM     46  C   UNL A   1      46.357  28.236  28.344  1.00  0.00     0.010 A 
ATOM     47  C   UNL A   1      44.970  28.453  28.377  1.00  0.00    -0.014 A 
BRANCH  47  48
ATOM     48  C   UNL A   1      44.383  29.208  29.510  1.00  0.00     0.031 A 
ATOM     49  C   UNL A   1      44.096  28.504  30.808  1.00  0.00     0.074 A 
ATOM     50  C   UNL A   1      44.037  30.500  29.349  1.00  0.00     0.049 A 
ATOM     51  N   UNL A   1      43.519  28.966  31.887  1.00  0.00    -0.248 NA
ATOM     52  C   UNL A   1      44.479  27.084  30.890  1.00  0.00     0.031 C 
ATOM     53  C   UNL A   1      44.214  31.283  28.124  1.00  0.00     0.029 A 
ATOM     54  N   UNL A   1      43.455  31.381  30.225  1.00  0.00    -0.354 N 
ATOM     55  C   UNL A   1      43.447  27.890  32.763  1.00  0.00     0.074 A 
ATOM     56  C   UNL A   1      43.989  26.741  32.072  1.00  0.00     0.031 C 
ATOM     57  C   UNL A   1      43.777  32.535  28.337  1.00  0.00     0.029 A 
ATOM     58  C   UNL A   1      43.258  32.634  29.695  1.00  0.00     0.049 A 
ATOM     59  H   UNL A   1      43.202  31.139  31.145  1.00  0.00     0.167 HD
ATOM     60  C   UNL A   1      42.992  27.863  34.038  1.00  0.00     0.031 A 
ATOM     61  C   UNL A   1      42.718  33.737  30.246  1.00  0.00     0.031 A 
ATOM     62  C   UNL A   1      42.478  29.010  34.734  1.00  0.00     0.049 A 
ATOM     63  C   UNL A   1      42.234  33.687  31.668  1.00  0.00     0.074 A 
ATOM     64  C   UNL A   1      42.052  29.101  36.047  1.00  0.00     0.029 A 
ATOM     65  N   UNL A   1      42.323  30.267  34.173  1.00  0.00    -0.354 N 
ATOM     66  N   UNL A   1      42.239  32.679  32.508  1.00  0.00    -0.248 NA
ATOM     67  C   UNL A   1      41.685  34.932  32.224  1.00  0.00     0.031 C 
ATOM     68  C   UNL A   1      41.601  30.406  36.269  1.00  0.00     0.029 A 
ATOM     69  C   UNL A   1      41.792  31.138  35.108  1.00  0.00     0.049 A 
ATOM     70  H   UNL A   1      42.554  30.505  33.245  1.00  0.00     0.167 HD
ATOM     71  C   UNL A   1      41.722  33.176  33.697  1.00  0.00     0.074 A 
ATOM     72  C   UNL A   1      41.428  34.577  33.476  1.00  0.00     0.031 C 
ATOM     73  C   UNL A   1      41.512  32.530  34.870  1.00  0.00     0.031 A 
BRANCH  60  74
ATOM     74  C   UNL A   1      43.035  26.543  34.757  1.00  0.00    -0.014 A 
ATOM     75  C   UNL A   1      44.210  26.090  35.377  1.00  0.00     0.009 A 
ATOM     76  C   UNL A   1      41.879  25.751  34.832  1.00  0.00     0.009 A 
ATOM     77  C   UNL A   1      44.239  24.852  36.022  1.00  0.00     0.001 A 
ATOM     78  C   UNL A   1      41.902  24.527  35.503  1.00  0.00     0.001 A 
ATOM     79  C   UNL A   1      43.084  24.075  36.088  1.00  0.00     0.000 A 
ENDBRANCH  60  74
BRANCH  61  80
ATOM     80  C   UNL A   1      42.632  34.996  29.461  1.00  0.00    -0.014 A 
ATOM     81  C   UNL A   1      41.498  35.272  28.682  1.00  0.00     0.009 A 
ATOM     82  C   UNL A   1      43.683  35.926  29.482  1.00  0.00     0.009 A 
ATOM     83  C   UNL A   1      41.428  36.438  27.917  1.00  0.00     0.001 A 
ATOM     84  C   UNL A   1      43.599  37.105  28.736  1.00  0.00     0.001 A 
ATOM     85  C   UNL A   1      42.478  37.356  27.947  1.00  0.00     0.000 A 
ENDBRANCH  61  80
BRANCH  73  86
ATOM     86  C   UNL A   1      40.977  33.341  36.015  1.00  0.00    -0.014 A 
ATOM     87  C   UNL A   1      39.617  33.306  36.361  1.00  0.00     0.009 A 
ATOM     88  C   UNL A   1      41.857  34.118  36.784  1.00  0.00     0.009 A 
ATOM     89  C   UNL A   1      39.146  34.059  37.438  1.00  0.00     0.001 A 
ATOM     90  C   UNL A   1      41.388  34.848  37.876  1.00  0.00     0.001 A 
ATOM     91  C   UNL A   1      40.031  34.825  38.197  1.00  0.00     0.000 A 
ENDBRANCH  73  86
ENDBRANCH  47  48
ENDBRANCH  39  42
ENDBRANCH  37  38
ENDBRANCH  36  37
ENDBRANCH  35  36
ENDBRANCH  34  35
ENDBRANCH  32  34
ENDBRANCH   1  30
TORSDOF 21
ENDMDL
MODEL 3
REMARK VINA RESULT:      -8.3      3.664     10.163
REMARK SMILES CCCCCCNC(=O)Oc1cccc(-c2ccc([C@@H](C)C(=O)NCCCCNC(=O)c3ccc(-c4c5nc(c(-c6ccccc6)c6ccc([nH]6)c(-c6ccccc6)c6nc(c(-c7ccccc7)c7ccc4[nH]7)C=C6)C=C5)cc3)cc2C(F)(F)F)c1
REMARK SMILES IDX 20 1 21 2 19 3 16 4 17 5 81 6 18 7 80 8 15 9 11 10 12 11
REMARK SMILES IDX 86 12 13 13 14 14 10 15 8 16 7 17 9 19 6 20 5 21 4 22 3 23
REMARK SMILES IDX 2 24 1 25 82 26 83 27 84 28 85 29 22 30 23 31 24 32 25 34
REMARK SMILES IDX 26 35 27 36 28 37 29 38 30 39 31 41 32 42 33 43 79 44 34 45
REMARK SMILES IDX 78 46 35 47 36 48 37 49 72 50 38 51 77 52 71 53 73 54 39 55
REMARK SMILES IDX 76 56 70 57 69 58 40 60 62 61 47 62 61 63 48 64 51 65 60 66
REMARK SMILES IDX 74 67 49 68 50 69 59 71 75 72 52 73 41 74 42 75 46 76 43 77
REMARK SMILES IDX 45 78 44 79 63 80 64 81 68 82 65 83 67 84 66 85 53 86 54 87
REMARK SMILES IDX 58 88 55 89 57 90 56 91
REMARK H PARENT 7 18 24 33 29 40 73 59 51 70
REMARK Flexibility Score: inf
ROOT
ATOM      1  C   UNL A   1      39.919  27.001  27.955  1.00  0.00     0.105 C 
ATOM      2  C   UNL A   1      39.271  26.356  29.178  1.00  0.00     0.023 C 
ENDROOT
BRANCH   1   3
ATOM      3  C   UNL A   1      41.140  26.280  27.401  1.00  0.00    -0.035 A 
ATOM      4  C   UNL A   1      43.267  24.668  26.364  1.00  0.00    -0.006 A 
ATOM      5  C   UNL A   1      42.591  25.616  25.573  1.00  0.00     0.009 A 
ATOM      6  C   UNL A   1      42.950  24.635  27.738  1.00  0.00     0.064 A 
ATOM      7  C   UNL A   1      41.594  26.445  26.096  1.00  0.00     0.005 A 
ATOM      8  C   UNL A   1      41.850  25.390  28.216  1.00  0.00     0.018 A 
BRANCH   4   9
ATOM      9  C   UNL A   1      44.244  23.766  25.715  1.00  0.00    -0.014 A 
ATOM     10  C   UNL A   1      45.026  21.535  25.144  1.00  0.00     0.133 A 
ATOM     11  C   UNL A   1      46.149  22.057  24.509  1.00  0.00     0.047 A 
ATOM     12  C   UNL A   1      44.068  22.371  25.722  1.00  0.00     0.056 A 
ATOM     13  C   UNL A   1      46.314  23.436  24.446  1.00  0.00     0.004 A 
ATOM     14  C   UNL A   1      45.378  24.279  25.055  1.00  0.00     0.009 A 
BRANCH  10  15
ATOM     15  O   UNL A   1      45.003  20.142  25.331  1.00  0.00    -0.410 OA
BRANCH  15  16
ATOM     16  C   UNL A   1      44.268  19.333  24.477  1.00  0.00     0.412 C 
ATOM     17  N   UNL A   1      43.118  18.862  25.050  1.00  0.00    -0.321 N 
ATOM     18  H   UNL A   1      42.577  18.242  24.510  1.00  0.00     0.167 HD
ATOM     19  O   UNL A   1      44.576  19.035  23.330  1.00  0.00    -0.224 OA
BRANCH  17  20
ATOM     20  C   UNL A   1      42.614  19.184  26.372  1.00  0.00     0.119 C 
BRANCH  20  21
ATOM     21  C   UNL A   1      41.197  19.758  26.324  1.00  0.00     0.021 C 
BRANCH  21  22
ATOM     22  C   UNL A   1      40.991  21.045  27.133  1.00  0.00     0.002 C 
BRANCH  22  23
ATOM     23  C   UNL A   1      40.410  22.229  26.355  1.00  0.00    -0.000 C 
BRANCH  23  24
ATOM     24  C   UNL A   1      39.414  23.098  27.126  1.00  0.00    -0.003 C 
ATOM     25  C   UNL A   1      38.494  23.905  26.223  1.00  0.00     0.004 C 
ENDBRANCH  23  24
ENDBRANCH  22  23
ENDBRANCH  21  22
ENDBRANCH  20  21
ENDBRANCH  17  20
ENDBRANCH  15  16
ENDBRANCH  10  15
ENDBRANCH   4   9
BRANCH   6  26
ATOM     26  C   UNL A   1      43.733  23.846  28.767  1.00  0.00     0.417 C 
ATOM     27  F   UNL A   1      43.528  24.320  30.033  1.00  0.00    -0.166 F 
ATOM     28  F   UNL A   1      43.369  22.535  28.807  1.00  0.00    -0.166 F 
ATOM     29  F   UNL A   1      45.085  23.862  28.611  1.00  0.00    -0.166 F 
ENDBRANCH   6  26
ENDBRANCH   1   3
BRANCH   1  30
ATOM     30  C   UNL A   1      40.087  28.527  28.056  1.00  0.00     0.227 C 
ATOM     31  O   UNL A   1      41.214  29.012  28.221  1.00  0.00    -0.274 OA
ATOM     32  N   UNL A   1      39.063  29.417  27.956  1.00  0.00    -0.356 N 
ATOM     33  H   UNL A   1      39.346  30.360  27.944  1.00  0.00     0.163 HD
BRANCH  32  34
ATOM     34  C   UNL A   1      37.631  29.228  27.865  1.00  0.00     0.116 C 
BRANCH  34  35
ATOM     35  C   UNL A   1      36.887  29.985  28.966  1.00  0.00     0.023 C 
BRANCH  35  36
ATOM     36  C   UNL A   1      35.587  30.653  28.529  1.00  0.00     0.023 C 
BRANCH  36  37
ATOM     37  C   UNL A   1      35.711  32.126  28.163  1.00  0.00     0.116 C 
BRANCH  37  38
ATOM     38  N   UNL A   1      34.579  32.943  28.578  1.00  0.00    -0.352 N 
ATOM     39  C   UNL A   1      34.362  33.523  29.807  1.00  0.00     0.251 C 
ATOM     40  H   UNL A   1      33.885  33.097  27.897  1.00  0.00     0.163 HD
ATOM     41  O   UNL A   1      33.324  34.130  30.042  1.00  0.00    -0.269 OA
BRANCH  39  42
ATOM     42  C   UNL A   1      35.387  33.359  30.857  1.00  0.00     0.039 A 
ATOM     43  C   UNL A   1      35.309  32.258  31.711  1.00  0.00     0.014 A 
ATOM     44  C   UNL A   1      36.460  34.248  30.940  1.00  0.00     0.014 A 
ATOM     45  C   UNL A   1      36.355  32.005  32.600  1.00  0.00     0.010 A 
ATOM     46  C   UNL A   1      37.538  33.948  31.763  1.00  0.00     0.010 A 
ATOM     47  C   UNL A   1      37.495  32.825  32.604  1.00  0.00    -0.014 A 
BRANCH  47  48
ATOM     48  C   UNL A   1      38.653  32.536  33.484  1.00  0.00     0.031 A 
ATOM     49  C   UNL A   1      39.829  31.769  32.943  1.00  0.00     0.074 A 
ATOM     50  C   UNL A   1      38.616  32.893  34.782  1.00  0.00     0.049 A 
ATOM     51  N   UNL A   1      40.900  31.352  33.568  1.00  0.00    -0.248 NA
ATOM     52  C   UNL A   1      39.777  31.392  31.521  1.00  0.00     0.031 C 
ATOM     53  C   UNL A   1      37.511  33.594  35.442  1.00  0.00     0.029 A 
ATOM     54  N   UNL A   1      39.535  32.705  35.784  1.00  0.00    -0.354 N 
ATOM     55  C   UNL A   1      41.634  30.645  32.624  1.00  0.00     0.074 A 
ATOM     56  C   UNL A   1      40.862  30.643  31.401  1.00  0.00     0.031 C 
ATOM     57  C   UNL A   1      37.831  33.802  36.730  1.00  0.00     0.029 A 
ATOM     58  C   UNL A   1      39.141  33.220  36.995  1.00  0.00     0.049 A 
ATOM     59  H   UNL A   1      40.394  32.244  35.648  1.00  0.00     0.167 HD
ATOM     60  C   UNL A   1      42.851  30.068  32.754  1.00  0.00     0.031 A 
ATOM     61  C   UNL A   1      39.767  33.221  38.187  1.00  0.00     0.031 A 
ATOM     62  C   UNL A   1      43.629  30.092  33.962  1.00  0.00     0.049 A 
ATOM     63  C   UNL A   1      41.126  32.588  38.303  1.00  0.00     0.074 A 
ATOM     64  C   UNL A   1      44.902  29.593  34.177  1.00  0.00     0.029 A 
ATOM     65  N   UNL A   1      43.208  30.651  35.159  1.00  0.00    -0.354 N 
ATOM     66  N   UNL A   1      41.838  31.984  37.381  1.00  0.00    -0.248 NA
ATOM     67  C   UNL A   1      41.773  32.649  39.621  1.00  0.00     0.031 C 
ATOM     68  C   UNL A   1      45.234  29.814  35.518  1.00  0.00     0.029 A 
ATOM     69  C   UNL A   1      44.189  30.494  36.122  1.00  0.00     0.049 A 
ATOM     70  H   UNL A   1      42.339  31.092  35.302  1.00  0.00     0.167 HD
ATOM     71  C   UNL A   1      43.027  31.622  38.000  1.00  0.00     0.074 A 
ATOM     72  C   UNL A   1      42.947  32.085  39.370  1.00  0.00     0.031 C 
ATOM     73  C   UNL A   1      44.092  30.967  37.479  1.00  0.00     0.031 A 
BRANCH  60  74
ATOM     74  C   UNL A   1      43.410  29.362  31.551  1.00  0.00    -0.014 A 
ATOM     75  C   UNL A   1      43.113  28.014  31.294  1.00  0.00     0.009 A 
ATOM     76  C   UNL A   1      44.232  30.059  30.651  1.00  0.00     0.009 A 
ATOM     77  C   UNL A   1      43.659  27.367  30.183  1.00  0.00     0.001 A 
ATOM     78  C   UNL A   1      44.752  29.419  29.526  1.00  0.00     0.001 A 
ATOM     79  C   UNL A   1      44.473  28.071  29.298  1.00  0.00     0.000 A 
ENDBRANCH  60  74
BRANCH  61  80
ATOM     80  C   UNL A   1      39.132  33.869  39.363  1.00  0.00    -0.014 A 
ATOM     81  C   UNL A   1      38.272  33.140  40.198  1.00  0.00     0.009 A 
ATOM     82  C   UNL A   1      39.376  35.220  39.655  1.00  0.00     0.009 A 
ATOM     83  C   UNL A   1      37.647  33.755  41.285  1.00  0.00     0.001 A 
ATOM     84  C   UNL A   1      38.769  35.827  40.759  1.00  0.00     0.001 A 
ATOM     85  C   UNL A   1      37.898  35.098  41.566  1.00  0.00     0.000 A 
ENDBRANCH  61  80
BRANCH  73  86
ATOM     86  C   UNL A   1      45.273  30.748  38.381  1.00  0.00    -0.014 A 
ATOM     87  C   UNL A   1      46.291  31.708  38.495  1.00  0.00     0.009 A 
ATOM     88  C   UNL A   1      45.343  29.582  39.160  1.00  0.00     0.009 A 
ATOM     89  C   UNL A   1      47.373  31.487  39.351  1.00  0.00     0.001 A 
ATOM     90  C   UNL A   1      46.410  29.378  40.034  1.00  0.00     0.001 A 
ATOM     91  C   UNL A   1      47.429  30.326  40.122  1.00  0.00     0.000 A 
ENDBRANCH  73  86
ENDBRANCH  47  48
ENDBRANCH  39  42
ENDBRANCH  37  38
ENDBRANCH  36  37
ENDBRANCH  35  36
ENDBRANCH  34  35
ENDBRANCH  32  34
ENDBRANCH   1  30
TORSDOF 21
ENDMDL
