MODEL 1
REMARK VINA RESULT:     -11.1      0.000      0.000
REMARK SMILES O=C(NCCCCNC(=O)[C@H]1COCCN1C(=O)c1ccc(Br)nc1)c1ccc(-c2c3nc(c(-c4ccccc4)c4ccc([nH]4)c(-c4ccccc4)c4nc(c(-c5ccccc5)c5ccc2[nH]5)C=C4)C=C3)cc1
REMARK SMILES IDX 5 1 4 2 3 3 1 4 2 5 26 7 27 8 73 9 28 10 72 11 29 12 30 13
REMARK SMILES IDX 31 14 66 15 32 16 71 17 65 18 67 19 33 20 70 21 64 22 63 23
REMARK SMILES IDX 34 25 56 26 41 27 55 28 42 29 45 30 54 31 68 32 43 33 44 34
REMARK SMILES IDX 53 36 69 37 46 38 35 39 36 40 40 41 37 42 39 43 38 44 57 45
REMARK SMILES IDX 58 46 62 47 59 48 61 49 60 50 47 51 48 52 52 53 49 54 51 55
REMARK SMILES IDX 50 56 6 57 7 58 8 59 9 60 10 62 11 63 12 64 16 65 13 66
REMARK SMILES IDX 15 67 14 68 17 69 18 70 19 71 20 72 25 73 21 74 24 75 22 76
REMARK SMILES IDX 23 77
REMARK H PARENT 3 6 67 24 45 35 8 61
REMARK Flexibility Score: inf
ROOT
ATOM      1  C   UNL A   1      37.746  19.677  25.001  1.00  0.00     0.023 C 
ENDROOT
BRANCH   1   2
ATOM      2  C   UNL A   1      38.951  20.201  25.765  1.00  0.00     0.116 C 
BRANCH   2   3
ATOM      3  N   UNL A   1      40.050  19.251  25.804  1.00  0.00    -0.352 N 
ATOM      4  O   UNL A   1      42.207  18.597  25.960  1.00  0.00    -0.269 OA
ATOM      5  C   UNL A   1      41.370  19.484  26.097  1.00  0.00     0.251 C 
ATOM      6  H   UNL A   1      39.818  18.318  25.592  1.00  0.00     0.163 HD
BRANCH   5   7
ATOM      7  C   UNL A   1      41.782  20.824  26.561  1.00  0.00     0.039 A 
ATOM      8  C   UNL A   1      42.149  21.811  25.641  1.00  0.00     0.014 A 
ATOM      9  C   UNL A   1      41.799  21.091  27.932  1.00  0.00     0.014 A 
ATOM     10  C   UNL A   1      42.636  23.030  26.095  1.00  0.00     0.010 A 
ATOM     11  C   UNL A   1      42.216  22.345  28.384  1.00  0.00     0.010 A 
ATOM     12  C   UNL A   1      42.647  23.318  27.470  1.00  0.00    -0.014 A 
BRANCH  12  13
ATOM     13  C   UNL A   1      43.000  24.683  27.923  1.00  0.00     0.031 A 
ATOM     14  C   UNL A   1      41.945  25.706  28.224  1.00  0.00     0.074 A 
ATOM     15  C   UNL A   1      44.305  24.994  28.041  1.00  0.00     0.049 A 
ATOM     16  N   UNL A   1      42.096  26.952  28.596  1.00  0.00    -0.248 NA
ATOM     17  C   UNL A   1      40.541  25.286  28.087  1.00  0.00     0.031 C 
ATOM     18  C   UNL A   1      45.418  24.079  27.761  1.00  0.00     0.029 A 
ATOM     19  N   UNL A   1      44.922  26.156  28.423  1.00  0.00    -0.354 N 
ATOM     20  C   UNL A   1      40.813  27.473  28.713  1.00  0.00     0.074 A 
ATOM     21  C   UNL A   1      39.893  26.411  28.364  1.00  0.00     0.031 C 
ATOM     22  C   UNL A   1      46.576  24.708  28.004  1.00  0.00     0.029 A 
ATOM     23  C   UNL A   1      46.293  26.084  28.390  1.00  0.00     0.049 A 
ATOM     24  H   UNL A   1      44.429  26.964  28.696  1.00  0.00     0.167 HD
ATOM     25  C   UNL A   1      40.444  28.724  29.077  1.00  0.00     0.031 A 
ATOM     26  C   UNL A   1      47.224  27.029  28.610  1.00  0.00     0.031 A 
ATOM     27  C   UNL A   1      41.367  29.770  29.431  1.00  0.00     0.049 A 
ATOM     28  C   UNL A   1      46.780  28.415  28.968  1.00  0.00     0.074 A 
ATOM     29  C   UNL A   1      41.086  31.049  29.882  1.00  0.00     0.029 A 
ATOM     30  N   UNL A   1      42.747  29.667  29.357  1.00  0.00    -0.354 N 
ATOM     31  N   UNL A   1      45.564  28.870  29.144  1.00  0.00    -0.248 NA
ATOM     32  C   UNL A   1      47.835  29.420  29.150  1.00  0.00     0.031 C 
ATOM     33  C   UNL A   1      42.295  31.738  30.022  1.00  0.00     0.029 A 
ATOM     34  C   UNL A   1      43.330  30.872  29.709  1.00  0.00     0.049 A 
ATOM     35  H   UNL A   1      43.240  28.857  29.093  1.00  0.00     0.167 HD
ATOM     36  C   UNL A   1      45.707  30.212  29.465  1.00  0.00     0.074 A 
ATOM     37  C   UNL A   1      47.128  30.490  29.486  1.00  0.00     0.031 C 
ATOM     38  C   UNL A   1      44.746  31.133  29.713  1.00  0.00     0.031 A 
BRANCH  25  39
ATOM     39  C   UNL A   1      38.978  29.054  29.085  1.00  0.00    -0.014 A 
ATOM     40  C   UNL A   1      38.209  28.946  30.253  1.00  0.00     0.009 A 
ATOM     41  C   UNL A   1      38.380  29.564  27.921  1.00  0.00     0.009 A 
ATOM     42  C   UNL A   1      36.864  29.326  30.250  1.00  0.00     0.001 A 
ATOM     43  C   UNL A   1      37.042  29.964  27.927  1.00  0.00     0.001 A 
ATOM     44  C   UNL A   1      36.284  29.839  29.090  1.00  0.00     0.000 A 
ENDBRANCH  25  39
BRANCH  26  45
ATOM     45  C   UNL A   1      48.662  26.702  28.445  1.00  0.00    -0.014 A 
ATOM     46  C   UNL A   1      49.293  26.841  27.200  1.00  0.00     0.009 A 
ATOM     47  C   UNL A   1      49.416  26.253  29.541  1.00  0.00     0.009 A 
ATOM     48  C   UNL A   1      50.642  26.513  27.052  1.00  0.00     0.001 A 
ATOM     49  C   UNL A   1      50.771  25.957  29.399  1.00  0.00     0.001 A 
ATOM     50  C   UNL A   1      51.381  26.077  28.152  1.00  0.00     0.000 A 
ENDBRANCH  26  45
BRANCH  38  51
ATOM     51  C   UNL A   1      45.205  32.524  30.037  1.00  0.00    -0.014 A 
ATOM     52  C   UNL A   1      45.347  33.490  29.027  1.00  0.00     0.009 A 
ATOM     53  C   UNL A   1      45.461  32.885  31.368  1.00  0.00     0.009 A 
ATOM     54  C   UNL A   1      45.763  34.783  29.343  1.00  0.00     0.001 A 
ATOM     55  C   UNL A   1      45.851  34.186  31.684  1.00  0.00     0.001 A 
ATOM     56  C   UNL A   1      46.009  35.132  30.671  1.00  0.00     0.000 A 
ENDBRANCH  38  51
ENDBRANCH  12  13
ENDBRANCH   5   7
ENDBRANCH   2   3
ENDBRANCH   1   2
BRANCH   1  57
ATOM     57  C   UNL A   1      36.539  20.613  24.982  1.00  0.00     0.023 C 
BRANCH  57  58
ATOM     58  C   UNL A   1      36.855  22.075  24.680  1.00  0.00     0.116 C 
BRANCH  58  59
ATOM     59  N   UNL A   1      36.082  22.558  23.554  1.00  0.00    -0.354 N 
ATOM     60  C   UNL A   1      34.864  23.168  23.488  1.00  0.00     0.245 C 
ATOM     61  H   UNL A   1      36.512  22.423  22.680  1.00  0.00     0.163 HD
ATOM     62  O   UNL A   1      34.409  23.352  22.356  1.00  0.00    -0.273 OA
BRANCH  60  63
ATOM     63  C   UNL A   1      34.090  23.544  24.773  1.00  0.00     0.200 C 
ATOM     64  C   UNL A   1      34.369  25.023  25.119  1.00  0.00     0.195 C 
ATOM     65  N   UNL A   1      32.632  23.312  24.633  1.00  0.00    -0.322 N 
ATOM     66  O   UNL A   1      33.689  25.956  24.270  1.00  0.00    -0.377 OA
ATOM     67  C   UNL A   1      31.949  24.298  23.785  1.00  0.00     0.149 C 
ATOM     68  C   UNL A   1      32.276  25.721  24.241  1.00  0.00     0.181 C 
BRANCH  65  69
ATOM     69  C   UNL A   1      31.902  22.222  25.089  1.00  0.00     0.256 C 
ATOM     70  O   UNL A   1      30.868  22.326  25.746  1.00  0.00    -0.269 OA
BRANCH  69  71
ATOM     71  C   UNL A   1      32.349  20.851  24.797  1.00  0.00     0.058 A 
ATOM     72  C   UNL A   1      32.904  20.007  25.757  1.00  0.00     0.018 A 
ATOM     73  C   UNL A   1      32.154  20.351  23.518  1.00  0.00     0.126 A 
ATOM     74  C   UNL A   1      33.332  18.735  25.376  1.00  0.00     0.037 A 
ATOM     75  N   UNL A   1      32.579  19.128  23.118  1.00  0.00    -0.249 NA
ATOM     76  C   UNL A   1      33.163  18.347  24.052  1.00  0.00     0.106 A 
ATOM     77  Br  UNL A   1      33.810  16.653  23.502  1.00  0.00    -0.029 Br
ENDBRANCH  69  71
ENDBRANCH  65  69
ENDBRANCH  60  63
ENDBRANCH  58  59
ENDBRANCH  57  58
ENDBRANCH   1  57
TORSDOF 13
ENDMDL
MODEL 2
REMARK VINA RESULT:     -11.0      5.000      9.815
REMARK SMILES O=C(NCCCCNC(=O)[C@H]1COCCN1C(=O)c1ccc(Br)nc1)c1ccc(-c2c3nc(c(-c4ccccc4)c4ccc([nH]4)c(-c4ccccc4)c4nc(c(-c5ccccc5)c5ccc2[nH]5)C=C4)C=C3)cc1
REMARK SMILES IDX 5 1 4 2 3 3 1 4 2 5 26 7 27 8 73 9 28 10 72 11 29 12 30 13
REMARK SMILES IDX 31 14 66 15 32 16 71 17 65 18 67 19 33 20 70 21 64 22 63 23
REMARK SMILES IDX 34 25 56 26 41 27 55 28 42 29 45 30 54 31 68 32 43 33 44 34
REMARK SMILES IDX 53 36 69 37 46 38 35 39 36 40 40 41 37 42 39 43 38 44 57 45
REMARK SMILES IDX 58 46 62 47 59 48 61 49 60 50 47 51 48 52 52 53 49 54 51 55
REMARK SMILES IDX 50 56 6 57 7 58 8 59 9 60 10 62 11 63 12 64 16 65 13 66
REMARK SMILES IDX 15 67 14 68 17 69 18 70 19 71 20 72 25 73 21 74 24 75 22 76
REMARK SMILES IDX 23 77
REMARK H PARENT 3 6 67 24 45 35 8 61
REMARK Flexibility Score: inf
ROOT
ATOM      1  C   UNL A   1      31.376  31.734  26.531  1.00  0.00     0.023 C 
ENDROOT
BRANCH   1   2
ATOM      2  C   UNL A   1      32.626  32.430  27.044  1.00  0.00     0.116 C 
BRANCH   2   3
ATOM      3  N   UNL A   1      32.368  33.782  27.509  1.00  0.00    -0.352 N 
ATOM      4  O   UNL A   1      32.629  35.594  28.833  1.00  0.00    -0.269 OA
ATOM      5  C   UNL A   1      33.050  34.505  28.455  1.00  0.00     0.251 C 
ATOM      6  H   UNL A   1      31.604  34.240  27.090  1.00  0.00     0.163 HD
BRANCH   5   7
ATOM      7  C   UNL A   1      34.292  33.951  29.032  1.00  0.00     0.039 A 
ATOM      8  C   UNL A   1      34.239  33.095  30.136  1.00  0.00     0.014 A 
ATOM      9  C   UNL A   1      35.518  34.293  28.458  1.00  0.00     0.014 A 
ATOM     10  C   UNL A   1      35.417  32.668  30.734  1.00  0.00     0.010 A 
ATOM     11  C   UNL A   1      36.700  33.799  29.014  1.00  0.00     0.010 A 
ATOM     12  C   UNL A   1      36.658  32.993  30.162  1.00  0.00    -0.014 A 
BRANCH  12  13
ATOM     13  C   UNL A   1      37.892  32.382  30.707  1.00  0.00     0.031 A 
ATOM     14  C   UNL A   1      38.490  31.147  30.100  1.00  0.00     0.074 A 
ATOM     15  C   UNL A   1      38.460  32.957  31.785  1.00  0.00     0.049 A 
ATOM     16  N   UNL A   1      39.545  30.475  30.484  1.00  0.00    -0.248 NA
ATOM     17  C   UNL A   1      37.820  30.587  28.915  1.00  0.00     0.031 C 
ATOM     18  C   UNL A   1      37.956  34.155  32.466  1.00  0.00     0.029 A 
ATOM     19  N   UNL A   1      39.580  32.618  32.499  1.00  0.00    -0.354 N 
ATOM     20  C   UNL A   1      39.653  29.402  29.609  1.00  0.00     0.074 A 
ATOM     21  C   UNL A   1      38.551  29.505  28.677  1.00  0.00     0.031 C 
ATOM     22  C   UNL A   1      38.775  34.462  33.480  1.00  0.00     0.029 A 
ATOM     23  C   UNL A   1      39.820  33.450  33.564  1.00  0.00     0.049 A 
ATOM     24  H   UNL A   1      40.155  31.853  32.269  1.00  0.00     0.167 HD
ATOM     25  C   UNL A   1      40.589  28.423  29.592  1.00  0.00     0.031 A 
ATOM     26  C   UNL A   1      40.756  33.389  34.528  1.00  0.00     0.031 A 
ATOM     27  C   UNL A   1      41.687  28.334  30.518  1.00  0.00     0.049 A 
ATOM     28  C   UNL A   1      41.749  32.266  34.504  1.00  0.00     0.074 A 
ATOM     29  C   UNL A   1      42.726  27.419  30.536  1.00  0.00     0.029 A 
ATOM     30  N   UNL A   1      41.879  29.179  31.600  1.00  0.00    -0.354 N 
ATOM     31  N   UNL A   1      41.879  31.301  33.627  1.00  0.00    -0.248 NA
ATOM     32  C   UNL A   1      42.719  32.219  35.605  1.00  0.00     0.031 C 
ATOM     33  C   UNL A   1      43.512  27.672  31.665  1.00  0.00     0.029 A 
ATOM     34  C   UNL A   1      42.992  28.778  32.319  1.00  0.00     0.049 A 
ATOM     35  H   UNL A   1      41.308  29.949  31.825  1.00  0.00     0.167 HD
ATOM     36  C   UNL A   1      42.950  30.536  34.066  1.00  0.00     0.074 A 
ATOM     37  C   UNL A   1      43.450  31.165  35.271  1.00  0.00     0.031 C 
ATOM     38  C   UNL A   1      43.468  29.409  33.522  1.00  0.00     0.031 A 
BRANCH  25  39
ATOM     39  C   UNL A   1      40.459  27.340  28.558  1.00  0.00    -0.014 A 
ATOM     40  C   UNL A   1      39.696  26.187  28.796  1.00  0.00     0.009 A 
ATOM     41  C   UNL A   1      41.041  27.521  27.292  1.00  0.00     0.009 A 
ATOM     42  C   UNL A   1      39.533  25.229  27.792  1.00  0.00     0.001 A 
ATOM     43  C   UNL A   1      40.858  26.572  26.285  1.00  0.00     0.001 A 
ATOM     44  C   UNL A   1      40.109  25.425  26.537  1.00  0.00     0.000 A 
ENDBRANCH  25  39
BRANCH  26  45
ATOM     45  C   UNL A   1      40.760  34.394  35.620  1.00  0.00    -0.014 A 
ATOM     46  C   UNL A   1      39.993  34.200  36.778  1.00  0.00     0.009 A 
ATOM     47  C   UNL A   1      41.541  35.556  35.510  1.00  0.00     0.009 A 
ATOM     48  C   UNL A   1      39.990  35.161  37.792  1.00  0.00     0.001 A 
ATOM     49  C   UNL A   1      41.561  36.498  36.537  1.00  0.00     0.001 A 
ATOM     50  C   UNL A   1      40.778  36.306  37.673  1.00  0.00     0.000 A 
ENDBRANCH  26  45
BRANCH  38  51
ATOM     51  C   UNL A   1      44.640  28.792  34.225  1.00  0.00    -0.014 A 
ATOM     52  C   UNL A   1      44.455  27.794  35.195  1.00  0.00     0.009 A 
ATOM     53  C   UNL A   1      45.944  29.184  33.889  1.00  0.00     0.009 A 
ATOM     54  C   UNL A   1      45.555  27.220  35.833  1.00  0.00     0.001 A 
ATOM     55  C   UNL A   1      47.043  28.589  34.509  1.00  0.00     0.001 A 
ATOM     56  C   UNL A   1      46.848  27.613  35.485  1.00  0.00     0.000 A 
ENDBRANCH  38  51
ENDBRANCH  12  13
ENDBRANCH   5   7
ENDBRANCH   2   3
ENDBRANCH   1   2
BRANCH   1  57
ATOM     57  C   UNL A   1      31.607  30.338  25.954  1.00  0.00     0.023 C 
BRANCH  57  58
ATOM     58  C   UNL A   1      32.283  29.348  26.899  1.00  0.00     0.116 C 
BRANCH  58  59
ATOM     59  N   UNL A   1      31.483  28.152  27.066  1.00  0.00    -0.354 N 
ATOM     60  C   UNL A   1      31.464  26.973  26.381  1.00  0.00     0.245 C 
ATOM     61  H   UNL A   1      30.838  28.197  27.808  1.00  0.00     0.163 HD
ATOM     62  O   UNL A   1      30.571  26.180  26.690  1.00  0.00    -0.273 OA
BRANCH  60  63
ATOM     63  C   UNL A   1      32.476  26.696  25.245  1.00  0.00     0.200 C 
ATOM     64  C   UNL A   1      33.679  25.916  25.818  1.00  0.00     0.195 C 
ATOM     65  N   UNL A   1      31.861  25.946  24.123  1.00  0.00    -0.322 N 
ATOM     66  O   UNL A   1      33.399  24.538  26.095  1.00  0.00    -0.377 OA
ATOM     67  C   UNL A   1      31.612  24.529  24.416  1.00  0.00     0.149 C 
ATOM     68  C   UNL A   1      32.880  23.856  24.947  1.00  0.00     0.181 C 
BRANCH  65  69
ATOM     69  C   UNL A   1      31.387  26.460  22.922  1.00  0.00     0.256 C 
ATOM     70  O   UNL A   1      31.622  25.951  21.828  1.00  0.00    -0.269 OA
BRANCH  69  71
ATOM     71  C   UNL A   1      30.558  27.675  22.907  1.00  0.00     0.058 A 
ATOM     72  C   UNL A   1      31.009  28.902  22.426  1.00  0.00     0.018 A 
ATOM     73  C   UNL A   1      29.242  27.582  23.338  1.00  0.00     0.126 A 
ATOM     74  C   UNL A   1      30.160  30.008  22.487  1.00  0.00     0.037 A 
ATOM     75  N   UNL A   1      28.405  28.644  23.426  1.00  0.00    -0.249 NA
ATOM     76  C   UNL A   1      28.881  29.835  23.003  1.00  0.00     0.106 A 
ATOM     77  Br  UNL A   1      27.744  31.342  23.164  1.00  0.00    -0.029 Br
ENDBRANCH  69  71
ENDBRANCH  65  69
ENDBRANCH  60  63
ENDBRANCH  58  59
ENDBRANCH  57  58
ENDBRANCH   1  57
TORSDOF 13
ENDMDL
MODEL 3
REMARK VINA RESULT:     -11.0      5.273     10.474
REMARK SMILES O=C(NCCCCNC(=O)[C@H]1COCCN1C(=O)c1ccc(Br)nc1)c1ccc(-c2c3nc(c(-c4ccccc4)c4ccc([nH]4)c(-c4ccccc4)c4nc(c(-c5ccccc5)c5ccc2[nH]5)C=C4)C=C3)cc1
REMARK SMILES IDX 5 1 4 2 3 3 1 4 2 5 26 7 27 8 73 9 28 10 72 11 29 12 30 13
REMARK SMILES IDX 31 14 66 15 32 16 71 17 65 18 67 19 33 20 70 21 64 22 63 23
REMARK SMILES IDX 34 25 56 26 41 27 55 28 42 29 45 30 54 31 68 32 43 33 44 34
REMARK SMILES IDX 53 36 69 37 46 38 35 39 36 40 40 41 37 42 39 43 38 44 57 45
REMARK SMILES IDX 58 46 62 47 59 48 61 49 60 50 47 51 48 52 52 53 49 54 51 55
REMARK SMILES IDX 50 56 6 57 7 58 8 59 9 60 10 62 11 63 12 64 16 65 13 66
REMARK SMILES IDX 15 67 14 68 17 69 18 70 19 71 20 72 25 73 21 74 24 75 22 76
REMARK SMILES IDX 23 77
REMARK H PARENT 3 6 67 24 45 35 8 61
REMARK Flexibility Score: inf
ROOT
ATOM      1  C   UNL A   1      35.693  33.450  29.250  1.00  0.00     0.023 C 
ENDROOT
BRANCH   1   2
ATOM      2  C   UNL A   1      34.750  32.387  29.792  1.00  0.00     0.116 C 
BRANCH   2   3
ATOM      3  N   UNL A   1      34.123  31.602  28.742  1.00  0.00    -0.352 N 
ATOM      4  O   UNL A   1      34.049  30.117  27.041  1.00  0.00    -0.269 OA
ATOM      5  C   UNL A   1      34.671  30.600  27.982  1.00  0.00     0.251 C 
ATOM      6  H   UNL A   1      33.181  31.816  28.552  1.00  0.00     0.163 HD
BRANCH   5   7
ATOM      7  C   UNL A   1      36.033  30.118  28.293  1.00  0.00     0.039 A 
ATOM      8  C   UNL A   1      37.063  30.255  27.359  1.00  0.00     0.014 A 
ATOM      9  C   UNL A   1      36.274  29.525  29.534  1.00  0.00     0.014 A 
ATOM     10  C   UNL A   1      38.310  29.702  27.623  1.00  0.00     0.010 A 
ATOM     11  C   UNL A   1      37.550  29.039  29.829  1.00  0.00     0.010 A 
ATOM     12  C   UNL A   1      38.572  29.114  28.871  1.00  0.00    -0.014 A 
BRANCH  12  13
ATOM     13  C   UNL A   1      39.954  28.692  29.200  1.00  0.00     0.031 A 
ATOM     14  C   UNL A   1      40.907  29.611  29.904  1.00  0.00     0.074 A 
ATOM     15  C   UNL A   1      40.344  27.457  28.829  1.00  0.00     0.049 A 
ATOM     16  N   UNL A   1      42.157  29.400  30.229  1.00  0.00    -0.248 NA
ATOM     17  C   UNL A   1      40.402  30.939  30.289  1.00  0.00     0.031 C 
ATOM     18  C   UNL A   1      39.502  26.482  28.126  1.00  0.00     0.029 A 
ATOM     19  N   UNL A   1      41.539  26.807  28.987  1.00  0.00    -0.354 N 
ATOM     20  C   UNL A   1      42.597  30.571  30.833  1.00  0.00     0.074 A 
ATOM     21  C   UNL A   1      41.483  31.496  30.822  1.00  0.00     0.031 C 
ATOM     22  C   UNL A   1      40.199  25.354  27.936  1.00  0.00     0.029 A 
ATOM     23  C   UNL A   1      41.552  25.547  28.441  1.00  0.00     0.049 A 
ATOM     24  H   UNL A   1      42.313  27.204  29.448  1.00  0.00     0.167 HD
ATOM     25  C   UNL A   1      43.821  30.844  31.346  1.00  0.00     0.031 A 
ATOM     26  C   UNL A   1      42.551  24.654  28.324  1.00  0.00     0.031 A 
ATOM     27  C   UNL A   1      44.920  29.915  31.359  1.00  0.00     0.049 A 
ATOM     28  C   UNL A   1      43.905  25.007  28.863  1.00  0.00     0.074 A 
ATOM     29  C   UNL A   1      46.175  30.075  31.920  1.00  0.00     0.029 A 
ATOM     30  N   UNL A   1      44.902  28.660  30.771  1.00  0.00    -0.354 N 
ATOM     31  N   UNL A   1      44.282  26.091  29.495  1.00  0.00    -0.248 NA
ATOM     32  C   UNL A   1      44.972  24.017  28.667  1.00  0.00     0.031 C 
ATOM     33  C   UNL A   1      46.937  28.942  31.617  1.00  0.00     0.029 A 
ATOM     34  C   UNL A   1      46.139  28.055  30.914  1.00  0.00     0.049 A 
ATOM     35  H   UNL A   1      44.126  28.259  30.317  1.00  0.00     0.167 HD
ATOM     36  C   UNL A   1      45.628  25.911  29.779  1.00  0.00     0.074 A 
ATOM     37  C   UNL A   1      45.994  24.603  29.275  1.00  0.00     0.031 C 
ATOM     38  C   UNL A   1      46.487  26.758  30.395  1.00  0.00     0.031 A 
BRANCH  25  39
ATOM     39  C   UNL A   1      44.059  32.216  31.912  1.00  0.00    -0.014 A 
ATOM     40  C   UNL A   1      44.480  33.280  31.101  1.00  0.00     0.009 A 
ATOM     41  C   UNL A   1      43.774  32.463  33.264  1.00  0.00     0.009 A 
ATOM     42  C   UNL A   1      44.626  34.562  31.638  1.00  0.00     0.001 A 
ATOM     43  C   UNL A   1      43.900  33.749  33.793  1.00  0.00     0.001 A 
ATOM     44  C   UNL A   1      44.331  34.796  32.981  1.00  0.00     0.000 A 
ENDBRANCH  25  39
BRANCH  26  45
ATOM     45  C   UNL A   1      42.315  23.368  27.623  1.00  0.00    -0.014 A 
ATOM     46  C   UNL A   1      42.615  23.226  26.260  1.00  0.00     0.009 A 
ATOM     47  C   UNL A   1      41.791  22.267  28.321  1.00  0.00     0.009 A 
ATOM     48  C   UNL A   1      42.371  22.016  25.607  1.00  0.00     0.001 A 
ATOM     49  C   UNL A   1      41.579  21.051  27.673  1.00  0.00     0.001 A 
ATOM     50  C   UNL A   1      41.859  20.929  26.314  1.00  0.00     0.000 A 
ENDBRANCH  26  45
BRANCH  38  51
ATOM     51  C   UNL A   1      47.901  26.287  30.565  1.00  0.00    -0.014 A 
ATOM     52  C   UNL A   1      48.318  25.672  31.756  1.00  0.00     0.009 A 
ATOM     53  C   UNL A   1      48.817  26.427  29.512  1.00  0.00     0.009 A 
ATOM     54  C   UNL A   1      49.633  25.229  31.897  1.00  0.00     0.001 A 
ATOM     55  C   UNL A   1      50.123  25.959  29.646  1.00  0.00     0.001 A 
ATOM     56  C   UNL A   1      50.533  25.367  30.840  1.00  0.00     0.000 A 
ENDBRANCH  38  51
ENDBRANCH  12  13
ENDBRANCH   5   7
ENDBRANCH   2   3
ENDBRANCH   1   2
BRANCH   1  57
ATOM     57  C   UNL A   1      37.176  33.184  29.501  1.00  0.00     0.023 C 
BRANCH  57  58
ATOM     58  C   UNL A   1      37.921  34.299  30.230  1.00  0.00     0.116 C 
BRANCH  58  59
ATOM     59  N   UNL A   1      37.159  34.788  31.361  1.00  0.00    -0.354 N 
ATOM     60  C   UNL A   1      37.304  34.592  32.702  1.00  0.00     0.245 C 
ATOM     61  H   UNL A   1      36.401  35.367  31.117  1.00  0.00     0.163 HD
ATOM     62  O   UNL A   1      36.409  35.050  33.417  1.00  0.00    -0.273 OA
BRANCH  60  63
ATOM     63  C   UNL A   1      38.497  33.787  33.266  1.00  0.00     0.200 C 
ATOM     64  C   UNL A   1      39.351  34.707  34.164  1.00  0.00     0.195 C 
ATOM     65  N   UNL A   1      38.054  32.592  34.024  1.00  0.00    -0.322 N 
ATOM     66  O   UNL A   1      38.759  34.987  35.438  1.00  0.00    -0.377 OA
ATOM     67  C   UNL A   1      37.480  32.898  35.340  1.00  0.00     0.149 C 
ATOM     68  C   UNL A   1      38.426  33.789  36.148  1.00  0.00     0.181 C 
BRANCH  65  69
ATOM     69  C   UNL A   1      38.001  31.277  33.575  1.00  0.00     0.256 C 
ATOM     70  O   UNL A   1      36.997  30.773  33.076  1.00  0.00    -0.269 OA
BRANCH  69  71
ATOM     71  C   UNL A   1      39.180  30.405  33.683  1.00  0.00     0.058 A 
ATOM     72  C   UNL A   1      40.370  30.801  34.292  1.00  0.00     0.018 A 
ATOM     73  C   UNL A   1      39.086  29.104  33.210  1.00  0.00     0.126 A 
ATOM     74  C   UNL A   1      41.448  29.914  34.314  1.00  0.00     0.037 A 
ATOM     75  N   UNL A   1      40.124  28.233  33.201  1.00  0.00    -0.249 NA
ATOM     76  C   UNL A   1      41.284  28.655  33.749  1.00  0.00     0.106 A 
ATOM     77  Br  UNL A   1      42.761  27.470  33.702  1.00  0.00    -0.029 Br
ENDBRANCH  69  71
ENDBRANCH  65  69
ENDBRANCH  60  63
ENDBRANCH  58  59
ENDBRANCH  57  58
ENDBRANCH   1  57
TORSDOF 13
ENDMDL
