MODEL 1
REMARK VINA RESULT:     -11.6      0.000      0.000
REMARK SMILES COc1ccccc1[C@@H]1CN(C(=O)Cc2csc(C)n2)C[C@H]1C(=O)NCCCCNC(=O)c1ccc(-c2c3nc(c(-c4ccccc4)c4ccc([nH]4)c(-c4ccccc4)c4nc(c(-c5ccccc5)c5ccc2[nH]5)C=C4)C=C3)cc1
REMARK SMILES IDX 27 1 26 2 25 3 23 4 24 5 22 7 9 8 10 9 11 10 21 11 8 12 3 13
REMARK SMILES IDX 4 14 5 15 7 16 6 17 2 18 1 19 12 20 13 21 14 22 15 23 16 24
REMARK SMILES IDX 20 25 17 26 18 27 19 28 28 29 29 30 30 31 31 32 32 34 33 35
REMARK SMILES IDX 34 36 80 37 35 38 79 39 36 40 37 41 38 42 73 43 39 44 78 45
REMARK SMILES IDX 72 46 74 47 40 48 77 49 71 50 70 51 41 53 63 54 48 55 62 56
REMARK SMILES IDX 49 57 52 58 61 59 75 60 50 61 51 62 60 64 76 65 53 66 42 67
REMARK SMILES IDX 43 68 47 69 44 70 46 71 45 72 64 73 65 74 69 75 66 76 68 77
REMARK SMILES IDX 67 78 54 79 55 80 59 81 56 82 58 83 57 84
REMARK H PARENT 25 6 30 33 74 52 52 63
REMARK Flexibility Score: inf
ROOT
ATOM      1  C   UNL A   1      31.855  30.036  26.723  1.00  0.00     0.023 C 
ENDROOT
BRANCH   1   2
ATOM      2  C   UNL A   1      33.146  29.477  26.133  1.00  0.00     0.116 C 
BRANCH   2   3
ATOM      3  N   UNL A   1      33.205  29.664  24.695  1.00  0.00    -0.356 N 
ATOM      4  C   UNL A   1      32.832  28.854  23.672  1.00  0.00     0.225 C 
ATOM      5  O   UNL A   1      32.998  29.284  22.527  1.00  0.00    -0.275 OA
ATOM      6  H   UNL A   1      33.580  30.530  24.412  1.00  0.00     0.163 HD
BRANCH   4   7
ATOM      7  C   UNL A   1      32.222  27.482  23.889  1.00  0.00     0.107 C 
ATOM      8  C   UNL A   1      31.228  27.045  22.797  1.00  0.00     0.057 C 
ATOM      9  C   UNL A   1      31.481  25.549  22.623  1.00  0.00     0.128 C 
ATOM     10  N   UNL A   1      32.874  25.372  23.003  1.00  0.00    -0.341 N 
ATOM     11  C   UNL A   1      33.280  26.382  23.965  1.00  0.00     0.133 C 
BRANCH   8  12
ATOM     12  C   UNL A   1      29.792  27.473  23.012  1.00  0.00    -0.000 A 
ATOM     13  C   UNL A   1      29.220  28.646  22.495  1.00  0.00     0.122 A 
ATOM     14  C   UNL A   1      27.888  28.975  22.766  1.00  0.00     0.047 A 
ATOM     15  C   UNL A   1      27.099  28.133  23.547  1.00  0.00     0.004 A 
ATOM     16  C   UNL A   1      28.972  26.634  23.794  1.00  0.00     0.008 A 
ATOM     17  C   UNL A   1      27.642  26.964  24.067  1.00  0.00     0.001 A 
BRANCH  13  18
ATOM     18  O   UNL A   1      29.974  29.580  21.839  1.00  0.00    -0.496 OA
ATOM     19  C   UNL A   1      29.276  30.806  21.631  1.00  0.00     0.278 C 
ENDBRANCH  13  18
ENDBRANCH   8  12
BRANCH  10  20
ATOM     20  C   UNL A   1      33.710  24.335  22.646  1.00  0.00     0.228 C 
ATOM     21  O   UNL A   1      33.590  23.763  21.560  1.00  0.00    -0.274 OA
BRANCH  20  22
ATOM     22  C   UNL A   1      34.754  23.869  23.649  1.00  0.00     0.157 C 
BRANCH  22  23
ATOM     23  C   UNL A   1      34.193  22.862  24.593  1.00  0.00     0.061 A 
ATOM     24  C   UNL A   1      33.950  21.526  24.337  1.00  0.00     0.091 A 
ATOM     25  N   UNL A   1      33.886  23.266  25.885  1.00  0.00    -0.246 NA
ATOM     26  S   UNL A   1      33.400  20.746  25.760  1.00  0.00    -0.127 S 
ATOM     27  C   UNL A   1      33.519  22.233  26.609  1.00  0.00     0.090 A 
ATOM     28  C   UNL A   1      33.239  22.294  28.069  1.00  0.00     0.079 C 
ENDBRANCH  22  23
ENDBRANCH  20  22
ENDBRANCH  10  20
ENDBRANCH   4   7
ENDBRANCH   2   3
ENDBRANCH   1   2
BRANCH   1  29
ATOM     29  C   UNL A   1      31.735  31.557  26.653  1.00  0.00     0.023 C 
BRANCH  29  30
ATOM     30  C   UNL A   1      32.877  32.319  27.311  1.00  0.00     0.116 C 
BRANCH  30  31
ATOM     31  N   UNL A   1      32.528  33.694  27.639  1.00  0.00    -0.352 N 
ATOM     32  C   UNL A   1      33.157  34.555  28.507  1.00  0.00     0.251 C 
ATOM     33  H   UNL A   1      31.737  34.055  27.177  1.00  0.00     0.163 HD
ATOM     34  O   UNL A   1      32.681  35.648  28.767  1.00  0.00    -0.269 OA
BRANCH  32  35
ATOM     35  C   UNL A   1      34.406  34.109  29.152  1.00  0.00     0.039 A 
ATOM     36  C   UNL A   1      34.331  33.443  30.375  1.00  0.00     0.014 A 
ATOM     37  C   UNL A   1      35.630  34.274  28.498  1.00  0.00     0.014 A 
ATOM     38  C   UNL A   1      35.480  32.861  30.908  1.00  0.00     0.010 A 
ATOM     39  C   UNL A   1      36.760  33.636  28.996  1.00  0.00     0.010 A 
ATOM     40  C   UNL A   1      36.691  32.914  30.198  1.00  0.00    -0.014 A 
BRANCH  40  41
ATOM     41  C   UNL A   1      37.896  32.192  30.672  1.00  0.00     0.031 A 
ATOM     42  C   UNL A   1      38.784  32.815  31.711  1.00  0.00     0.074 A 
ATOM     43  C   UNL A   1      38.243  31.025  30.093  1.00  0.00     0.049 A 
ATOM     44  N   UNL A   1      39.935  32.397  32.169  1.00  0.00    -0.248 NA
ATOM     45  C   UNL A   1      38.333  34.092  32.289  1.00  0.00     0.031 C 
ATOM     46  C   UNL A   1      37.491  30.344  29.035  1.00  0.00     0.029 A 
ATOM     47  N   UNL A   1      39.333  30.217  30.297  1.00  0.00    -0.354 N 
ATOM     48  C   UNL A   1      40.360  33.370  33.064  1.00  0.00     0.074 A 
ATOM     49  C   UNL A   1      39.360  34.415  33.061  1.00  0.00     0.031 C 
ATOM     50  C   UNL A   1      38.138  29.219  28.690  1.00  0.00     0.029 A 
ATOM     51  C   UNL A   1      39.367  29.119  29.471  1.00  0.00     0.049 A 
ATOM     52  H   UNL A   1      40.025  30.406  30.971  1.00  0.00     0.167 HD
ATOM     53  C   UNL A   1      41.477  33.384  33.827  1.00  0.00     0.031 A 
ATOM     54  C   UNL A   1      40.294  28.151  29.343  1.00  0.00     0.031 A 
ATOM     55  C   UNL A   1      42.455  32.331  33.850  1.00  0.00     0.049 A 
ATOM     56  C   UNL A   1      41.519  28.189  30.213  1.00  0.00     0.074 A 
ATOM     57  C   UNL A   1      43.572  32.213  34.657  1.00  0.00     0.029 A 
ATOM     58  N   UNL A   1      42.434  31.219  33.025  1.00  0.00    -0.354 N 
ATOM     59  N   UNL A   1      41.859  29.070  31.121  1.00  0.00    -0.248 NA
ATOM     60  C   UNL A   1      42.484  27.093  30.044  1.00  0.00     0.031 C 
ATOM     61  C   UNL A   1      44.257  31.052  34.287  1.00  0.00     0.029 A 
ATOM     62  C   UNL A   1      43.538  30.423  33.283  1.00  0.00     0.049 A 
ATOM     63  H   UNL A   1      41.739  31.022  32.356  1.00  0.00     0.167 HD
ATOM     64  C   UNL A   1      43.065  28.624  31.646  1.00  0.00     0.074 A 
ATOM     65  C   UNL A   1      43.386  27.385  30.970  1.00  0.00     0.031 C 
ATOM     66  C   UNL A   1      43.840  29.193  32.601  1.00  0.00     0.031 A 
BRANCH  53  67
ATOM     67  C   UNL A   1      41.709  34.584  34.700  1.00  0.00    -0.014 A 
ATOM     68  C   UNL A   1      42.439  35.690  34.240  1.00  0.00     0.009 A 
ATOM     69  C   UNL A   1      41.139  34.630  35.982  1.00  0.00     0.009 A 
ATOM     70  C   UNL A   1      42.616  36.809  35.057  1.00  0.00     0.001 A 
ATOM     71  C   UNL A   1      41.294  35.759  36.786  1.00  0.00     0.001 A 
ATOM     72  C   UNL A   1      42.038  36.845  36.326  1.00  0.00     0.000 A 
ENDBRANCH  53  67
BRANCH  54  73
ATOM     73  C   UNL A   1      40.111  27.064  28.345  1.00  0.00    -0.014 A 
ATOM     74  C   UNL A   1      39.413  25.895  28.683  1.00  0.00     0.009 A 
ATOM     75  C   UNL A   1      40.659  27.180  27.058  1.00  0.00     0.009 A 
ATOM     76  C   UNL A   1      39.297  24.850  27.763  1.00  0.00     0.001 A 
ATOM     77  C   UNL A   1      40.517  26.146  26.131  1.00  0.00     0.001 A 
ATOM     78  C   UNL A   1      39.846  24.977  26.488  1.00  0.00     0.000 A 
ENDBRANCH  54  73
BRANCH  66  79
ATOM     79  C   UNL A   1      45.094  28.464  32.991  1.00  0.00    -0.014 A 
ATOM     80  C   UNL A   1      46.316  28.733  32.355  1.00  0.00     0.009 A 
ATOM     81  C   UNL A   1      45.059  27.530  34.036  1.00  0.00     0.009 A 
ATOM     82  C   UNL A   1      47.473  28.055  32.740  1.00  0.00     0.001 A 
ATOM     83  C   UNL A   1      46.223  26.874  34.438  1.00  0.00     0.001 A 
ATOM     84  C   UNL A   1      47.428  27.131  33.784  1.00  0.00     0.000 A 
ENDBRANCH  66  79
ENDBRANCH  40  41
ENDBRANCH  32  35
ENDBRANCH  30  31
ENDBRANCH  29  30
ENDBRANCH   1  29
TORSDOF 16
ENDMDL
MODEL 2
REMARK VINA RESULT:     -11.6      2.499      4.679
REMARK SMILES COc1ccccc1[C@@H]1CN(C(=O)Cc2csc(C)n2)C[C@H]1C(=O)NCCCCNC(=O)c1ccc(-c2c3nc(c(-c4ccccc4)c4ccc([nH]4)c(-c4ccccc4)c4nc(c(-c5ccccc5)c5ccc2[nH]5)C=C4)C=C3)cc1
REMARK SMILES IDX 27 1 26 2 25 3 23 4 24 5 22 7 9 8 10 9 11 10 21 11 8 12 3 13
REMARK SMILES IDX 4 14 5 15 7 16 6 17 2 18 1 19 12 20 13 21 14 22 15 23 16 24
REMARK SMILES IDX 20 25 17 26 18 27 19 28 28 29 29 30 30 31 31 32 32 34 33 35
REMARK SMILES IDX 34 36 80 37 35 38 79 39 36 40 37 41 38 42 73 43 39 44 78 45
REMARK SMILES IDX 72 46 74 47 40 48 77 49 71 50 70 51 41 53 63 54 48 55 62 56
REMARK SMILES IDX 49 57 52 58 61 59 75 60 50 61 51 62 60 64 76 65 53 66 42 67
REMARK SMILES IDX 43 68 47 69 44 70 46 71 45 72 64 73 65 74 69 75 66 76 68 77
REMARK SMILES IDX 67 78 54 79 55 80 59 81 56 82 58 83 57 84
REMARK H PARENT 25 6 30 33 74 52 52 63
REMARK Flexibility Score: inf
ROOT
ATOM      1  C   UNL A   1      33.345  31.543  27.499  1.00  0.00     0.023 C 
ENDROOT
BRANCH   1   2
ATOM      2  C   UNL A   1      33.564  30.072  27.158  1.00  0.00     0.116 C 
BRANCH   2   3
ATOM      3  N   UNL A   1      32.506  29.234  27.689  1.00  0.00    -0.356 N 
ATOM      4  C   UNL A   1      31.869  28.156  27.163  1.00  0.00     0.225 C 
ATOM      5  O   UNL A   1      30.994  27.628  27.855  1.00  0.00    -0.275 OA
ATOM      6  H   UNL A   1      32.196  29.490  28.588  1.00  0.00     0.163 HD
BRANCH   4   7
ATOM      7  C   UNL A   1      32.204  27.591  25.795  1.00  0.00     0.107 C 
ATOM      8  C   UNL A   1      31.652  26.176  25.538  1.00  0.00     0.057 C 
ATOM      9  C   UNL A   1      31.231  26.189  24.069  1.00  0.00     0.128 C 
ATOM     10  N   UNL A   1      30.909  27.582  23.799  1.00  0.00    -0.341 N 
ATOM     11  C   UNL A   1      31.674  28.467  24.660  1.00  0.00     0.133 C 
BRANCH   8  12
ATOM     12  C   UNL A   1      32.545  25.037  25.981  1.00  0.00    -0.000 A 
ATOM     13  C   UNL A   1      32.126  23.950  26.764  1.00  0.00     0.122 A 
ATOM     14  C   UNL A   1      33.028  22.952  27.148  1.00  0.00     0.047 A 
ATOM     15  C   UNL A   1      34.361  23.014  26.746  1.00  0.00     0.004 A 
ATOM     16  C   UNL A   1      33.896  25.074  25.582  1.00  0.00     0.008 A 
ATOM     17  C   UNL A   1      34.798  24.080  25.968  1.00  0.00     0.001 A 
BRANCH  13  18
ATOM     18  O   UNL A   1      30.870  23.899  27.304  1.00  0.00    -0.496 OA
ATOM     19  C   UNL A   1      30.120  22.773  26.854  1.00  0.00     0.278 C 
ENDBRANCH  13  18
ENDBRANCH   8  12
BRANCH  10  20
ATOM     20  C   UNL A   1      30.106  28.071  22.790  1.00  0.00     0.228 C 
ATOM     21  O   UNL A   1      30.506  28.124  21.624  1.00  0.00    -0.274 OA
BRANCH  20  22
ATOM     22  C   UNL A   1      28.728  28.600  23.155  1.00  0.00     0.157 C 
BRANCH  22  23
ATOM     23  C   UNL A   1      28.604  30.054  22.852  1.00  0.00     0.061 A 
ATOM     24  C   UNL A   1      28.964  31.108  23.670  1.00  0.00     0.091 A 
ATOM     25  N   UNL A   1      28.092  30.430  21.619  1.00  0.00    -0.246 NA
ATOM     26  S   UNL A   1      28.729  32.594  22.851  1.00  0.00    -0.127 S 
ATOM     27  C   UNL A   1      28.164  31.735  21.476  1.00  0.00     0.090 A 
ATOM     28  C   UNL A   1      27.814  32.458  20.224  1.00  0.00     0.079 C 
ENDBRANCH  22  23
ENDBRANCH  20  22
ENDBRANCH  10  20
ENDBRANCH   4   7
ENDBRANCH   2   3
ENDBRANCH   1   2
BRANCH   1  29
ATOM     29  C   UNL A   1      34.580  32.257  28.045  1.00  0.00     0.023 C 
BRANCH  29  30
ATOM     30  C   UNL A   1      34.536  33.776  27.946  1.00  0.00     0.116 C 
BRANCH  30  31
ATOM     31  N   UNL A   1      33.692  34.387  28.963  1.00  0.00    -0.352 N 
ATOM     32  C   UNL A   1      33.834  34.351  30.331  1.00  0.00     0.251 C 
ATOM     33  H   UNL A   1      32.917  34.892  28.628  1.00  0.00     0.163 HD
ATOM     34  O   UNL A   1      32.980  34.817  31.066  1.00  0.00    -0.269 OA
BRANCH  32  35
ATOM     35  C   UNL A   1      35.031  33.697  30.892  1.00  0.00     0.039 A 
ATOM     36  C   UNL A   1      34.868  32.549  31.669  1.00  0.00     0.014 A 
ATOM     37  C   UNL A   1      36.305  34.171  30.570  1.00  0.00     0.014 A 
ATOM     38  C   UNL A   1      35.992  31.821  32.056  1.00  0.00     0.010 A 
ATOM     39  C   UNL A   1      37.419  33.408  30.899  1.00  0.00     0.010 A 
ATOM     40  C   UNL A   1      37.271  32.220  31.633  1.00  0.00    -0.014 A 
BRANCH  40  41
ATOM     41  C   UNL A   1      38.470  31.396  31.915  1.00  0.00     0.031 A 
ATOM     42  C   UNL A   1      39.344  31.720  33.092  1.00  0.00     0.074 A 
ATOM     43  C   UNL A   1      38.824  30.421  31.053  1.00  0.00     0.049 A 
ATOM     44  N   UNL A   1      40.490  31.193  33.437  1.00  0.00    -0.248 NA
ATOM     45  C   UNL A   1      38.886  32.802  33.980  1.00  0.00     0.031 C 
ATOM     46  C   UNL A   1      38.086  30.045  29.844  1.00  0.00     0.029 A 
ATOM     47  N   UNL A   1      39.911  29.585  31.050  1.00  0.00    -0.354 N 
ATOM     48  C   UNL A   1      40.903  31.894  34.562  1.00  0.00     0.074 A 
ATOM     49  C   UNL A   1      39.903  32.907  34.822  1.00  0.00     0.031 C 
ATOM     50  C   UNL A   1      38.737  29.048  29.223  1.00  0.00     0.029 A 
ATOM     51  C   UNL A   1      39.956  28.743  29.965  1.00  0.00     0.049 A 
ATOM     52  H   UNL A   1      40.595  29.587  31.759  1.00  0.00     0.167 HD
ATOM     53  C   UNL A   1      42.011  31.704  35.315  1.00  0.00     0.031 A 
ATOM     54  C   UNL A   1      40.885  27.839  29.598  1.00  0.00     0.031 A 
ATOM     55  C   UNL A   1      42.989  30.679  35.073  1.00  0.00     0.049 A 
ATOM     56  C   UNL A   1      42.099  27.643  30.462  1.00  0.00     0.074 A 
ATOM     57  C   UNL A   1      44.096  30.349  35.833  1.00  0.00     0.029 A 
ATOM     58  N   UNL A   1      42.978  29.823  33.984  1.00  0.00    -0.354 N 
ATOM     59  N   UNL A   1      42.428  28.253  31.574  1.00  0.00    -0.248 NA
ATOM     60  C   UNL A   1      43.066  26.627  30.022  1.00  0.00     0.031 C 
ATOM     61  C   UNL A   1      44.785  29.324  35.178  1.00  0.00     0.029 A 
ATOM     62  C   UNL A   1      44.079  28.984  34.036  1.00  0.00     0.049 A 
ATOM     63  H   UNL A   1      42.291  29.811  33.278  1.00  0.00     0.167 HD
ATOM     64  C   UNL A   1      43.627  27.681  31.978  1.00  0.00     0.074 A 
ATOM     65  C   UNL A   1      43.956  26.663  31.003  1.00  0.00     0.031 C 
ATOM     66  C   UNL A   1      44.389  27.976  33.058  1.00  0.00     0.031 A 
BRANCH  53  67
ATOM     67  C   UNL A   1      42.232  32.631  36.476  1.00  0.00    -0.014 A 
ATOM     68  C   UNL A   1      41.752  32.322  37.757  1.00  0.00     0.009 A 
ATOM     69  C   UNL A   1      42.982  33.804  36.295  1.00  0.00     0.009 A 
ATOM     70  C   UNL A   1      41.998  33.182  38.830  1.00  0.00     0.001 A 
ATOM     71  C   UNL A   1      43.248  34.648  37.373  1.00  0.00     0.001 A 
ATOM     72  C   UNL A   1      42.751  34.340  38.639  1.00  0.00     0.000 A 
ENDBRANCH  53  67
BRANCH  54  73
ATOM     73  C   UNL A   1      40.714  27.055  28.347  1.00  0.00    -0.014 A 
ATOM     74  C   UNL A   1      39.940  25.884  28.338  1.00  0.00     0.009 A 
ATOM     75  C   UNL A   1      41.350  27.457  27.162  1.00  0.00     0.009 A 
ATOM     76  C   UNL A   1      39.834  25.116  27.176  1.00  0.00     0.001 A 
ATOM     77  C   UNL A   1      41.218  26.702  25.995  1.00  0.00     0.001 A 
ATOM     78  C   UNL A   1      40.470  25.525  26.006  1.00  0.00     0.000 A 
ENDBRANCH  54  73
BRANCH  66  79
ATOM     79  C   UNL A   1      45.639  27.167  33.257  1.00  0.00    -0.014 A 
ATOM     80  C   UNL A   1      45.611  25.950  33.956  1.00  0.00     0.009 A 
ATOM     81  C   UNL A   1      46.849  27.607  32.701  1.00  0.00     0.009 A 
ATOM     82  C   UNL A   1      46.780  25.206  34.120  1.00  0.00     0.001 A 
ATOM     83  C   UNL A   1      48.010  26.847  32.842  1.00  0.00     0.001 A 
ATOM     84  C   UNL A   1      47.976  25.651  33.559  1.00  0.00     0.000 A 
ENDBRANCH  66  79
ENDBRANCH  40  41
ENDBRANCH  32  35
ENDBRANCH  30  31
ENDBRANCH  29  30
ENDBRANCH   1  29
TORSDOF 16
ENDMDL
MODEL 3
REMARK VINA RESULT:     -11.6      1.173      5.754
REMARK SMILES COc1ccccc1[C@@H]1CN(C(=O)Cc2csc(C)n2)C[C@H]1C(=O)NCCCCNC(=O)c1ccc(-c2c3nc(c(-c4ccccc4)c4ccc([nH]4)c(-c4ccccc4)c4nc(c(-c5ccccc5)c5ccc2[nH]5)C=C4)C=C3)cc1
REMARK SMILES IDX 27 1 26 2 25 3 23 4 24 5 22 7 9 8 10 9 11 10 21 11 8 12 3 13
REMARK SMILES IDX 4 14 5 15 7 16 6 17 2 18 1 19 12 20 13 21 14 22 15 23 16 24
REMARK SMILES IDX 20 25 17 26 18 27 19 28 28 29 29 30 30 31 31 32 32 34 33 35
REMARK SMILES IDX 34 36 80 37 35 38 79 39 36 40 37 41 38 42 73 43 39 44 78 45
REMARK SMILES IDX 72 46 74 47 40 48 77 49 71 50 70 51 41 53 63 54 48 55 62 56
REMARK SMILES IDX 49 57 52 58 61 59 75 60 50 61 51 62 60 64 76 65 53 66 42 67
REMARK SMILES IDX 43 68 47 69 44 70 46 71 45 72 64 73 65 74 69 75 66 76 68 77
REMARK SMILES IDX 67 78 54 79 55 80 59 81 56 82 58 83 57 84
REMARK H PARENT 25 6 30 33 74 52 52 63
REMARK Flexibility Score: inf
ROOT
ATOM      1  C   UNL A   1      31.971  30.055  26.898  1.00  0.00     0.023 C 
ENDROOT
BRANCH   1   2
ATOM      2  C   UNL A   1      33.189  29.405  26.247  1.00  0.00     0.116 C 
BRANCH   2   3
ATOM      3  N   UNL A   1      33.232  29.653  24.818  1.00  0.00    -0.356 N 
ATOM      4  C   UNL A   1      32.834  28.893  23.766  1.00  0.00     0.225 C 
ATOM      5  O   UNL A   1      32.991  29.370  22.638  1.00  0.00    -0.275 OA
ATOM      6  H   UNL A   1      33.615  30.525  24.568  1.00  0.00     0.163 HD
BRANCH   4   7
ATOM      7  C   UNL A   1      32.207  27.521  23.933  1.00  0.00     0.107 C 
ATOM      8  C   UNL A   1      31.239  27.121  22.804  1.00  0.00     0.057 C 
ATOM      9  C   UNL A   1      31.484  25.628  22.599  1.00  0.00     0.128 C 
ATOM     10  N   UNL A   1      32.865  25.429  23.011  1.00  0.00    -0.341 N 
ATOM     11  C   UNL A   1      33.254  26.411  24.008  1.00  0.00     0.133 C 
BRANCH   8  12
ATOM     12  C   UNL A   1      29.801  27.556  22.993  1.00  0.00    -0.000 A 
ATOM     13  C   UNL A   1      29.241  28.725  22.454  1.00  0.00     0.122 A 
ATOM     14  C   UNL A   1      27.906  29.061  22.700  1.00  0.00     0.047 A 
ATOM     15  C   UNL A   1      27.102  28.230  23.479  1.00  0.00     0.004 A 
ATOM     16  C   UNL A   1      28.967  26.729  23.772  1.00  0.00     0.008 A 
ATOM     17  C   UNL A   1      27.634  27.066  24.021  1.00  0.00     0.001 A 
BRANCH  13  18
ATOM     18  O   UNL A   1      30.007  29.649  21.798  1.00  0.00    -0.496 OA
ATOM     19  C   UNL A   1      29.309  30.865  21.542  1.00  0.00     0.278 C 
ENDBRANCH  13  18
ENDBRANCH   8  12
BRANCH  10  20
ATOM     20  C   UNL A   1      33.702  24.394  22.650  1.00  0.00     0.228 C 
ATOM     21  O   UNL A   1      33.576  23.819  21.565  1.00  0.00    -0.274 OA
BRANCH  20  22
ATOM     22  C   UNL A   1      34.754  23.933  23.646  1.00  0.00     0.157 C 
BRANCH  22  23
ATOM     23  C   UNL A   1      34.211  22.907  24.579  1.00  0.00     0.061 A 
ATOM     24  C   UNL A   1      34.026  21.562  24.321  1.00  0.00     0.091 A 
ATOM     25  N   UNL A   1      33.858  23.301  25.862  1.00  0.00    -0.246 NA
ATOM     26  S   UNL A   1      33.473  20.763  25.732  1.00  0.00    -0.127 S 
ATOM     27  C   UNL A   1      33.514  22.256  26.580  1.00  0.00     0.090 A 
ATOM     28  C   UNL A   1      33.197  22.308  28.033  1.00  0.00     0.079 C 
ENDBRANCH  22  23
ENDBRANCH  20  22
ENDBRANCH  10  20
ENDBRANCH   4   7
ENDBRANCH   2   3
ENDBRANCH   1   2
BRANCH   1  29
ATOM     29  C   UNL A   1      31.843  31.555  26.640  1.00  0.00     0.023 C 
BRANCH  29  30
ATOM     30  C   UNL A   1      32.884  32.416  27.344  1.00  0.00     0.116 C 
BRANCH  30  31
ATOM     31  N   UNL A   1      32.453  33.794  27.525  1.00  0.00    -0.352 N 
ATOM     32  C   UNL A   1      32.971  34.752  28.365  1.00  0.00     0.251 C 
ATOM     33  H   UNL A   1      31.689  34.078  26.974  1.00  0.00     0.163 HD
ATOM     34  O   UNL A   1      32.430  35.838  28.493  1.00  0.00    -0.269 OA
BRANCH  32  35
ATOM     35  C   UNL A   1      34.180  34.420  29.142  1.00  0.00     0.039 A 
ATOM     36  C   UNL A   1      34.032  33.836  30.400  1.00  0.00     0.014 A 
ATOM     37  C   UNL A   1      35.446  34.606  28.582  1.00  0.00     0.014 A 
ATOM     38  C   UNL A   1      35.157  33.355  31.068  1.00  0.00     0.010 A 
ATOM     39  C   UNL A   1      36.558  34.066  29.217  1.00  0.00     0.010 A 
ATOM     40  C   UNL A   1      36.421  33.425  30.459  1.00  0.00    -0.014 A 
BRANCH  40  41
ATOM     41  C   UNL A   1      37.614  32.804  31.082  1.00  0.00     0.031 A 
ATOM     42  C   UNL A   1      38.262  31.612  30.439  1.00  0.00     0.074 A 
ATOM     43  C   UNL A   1      38.049  33.253  32.277  1.00  0.00     0.049 A 
ATOM     44  N   UNL A   1      39.238  30.864  30.886  1.00  0.00    -0.248 NA
ATOM     45  C   UNL A   1      37.723  31.186  29.137  1.00  0.00     0.031 C 
ATOM     46  C   UNL A   1      37.470  34.370  33.029  1.00  0.00     0.029 A 
ATOM     47  N   UNL A   1      39.066  32.805  33.081  1.00  0.00    -0.354 N 
ATOM     48  C   UNL A   1      39.409  29.864  29.938  1.00  0.00     0.074 A 
ATOM     49  C   UNL A   1      38.416  30.080  28.908  1.00  0.00     0.031 C 
ATOM     50  C   UNL A   1      38.147  34.525  34.178  1.00  0.00     0.029 A 
ATOM     51  C   UNL A   1      39.178  33.496  34.264  1.00  0.00     0.049 A 
ATOM     52  H   UNL A   1      39.660  32.060  32.834  1.00  0.00     0.167 HD
ATOM     53  C   UNL A   1      40.318  28.863  29.922  1.00  0.00     0.031 A 
ATOM     54  C   UNL A   1      40.006  33.309  35.310  1.00  0.00     0.031 A 
ATOM     55  C   UNL A   1      41.323  28.666  30.931  1.00  0.00     0.049 A 
ATOM     56  C   UNL A   1      41.014  32.195  35.258  1.00  0.00     0.074 A 
ATOM     57  C   UNL A   1      42.346  27.736  30.957  1.00  0.00     0.029 A 
ATOM     58  N   UNL A   1      41.426  29.410  32.096  1.00  0.00    -0.354 N 
ATOM     59  N   UNL A   1      41.222  31.315  34.310  1.00  0.00    -0.248 NA
ATOM     60  C   UNL A   1      41.905  32.055  36.419  1.00  0.00     0.031 C 
ATOM     61  C   UNL A   1      43.040  27.884  32.161  1.00  0.00     0.029 A 
ATOM     62  C   UNL A   1      42.478  28.938  32.862  1.00  0.00     0.049 A 
ATOM     63  H   UNL A   1      40.839  30.162  32.342  1.00  0.00     0.167 HD
ATOM     64  C   UNL A   1      42.280  30.531  34.750  1.00  0.00     0.074 A 
ATOM     65  C   UNL A   1      42.683  31.052  36.039  1.00  0.00     0.031 C 
ATOM     66  C   UNL A   1      42.865  29.471  34.142  1.00  0.00     0.031 A 
BRANCH  53  67
ATOM     67  C   UNL A   1      40.268  27.893  28.777  1.00  0.00    -0.014 A 
ATOM     68  C   UNL A   1      40.964  28.136  27.584  1.00  0.00     0.009 A 
ATOM     69  C   UNL A   1      39.558  26.689  28.918  1.00  0.00     0.009 A 
ATOM     70  C   UNL A   1      40.930  27.204  26.544  1.00  0.00     0.001 A 
ATOM     71  C   UNL A   1      39.547  25.749  27.888  1.00  0.00     0.001 A 
ATOM     72  C   UNL A   1      40.228  26.009  26.699  1.00  0.00     0.000 A 
ENDBRANCH  53  67
BRANCH  54  73
ATOM     73  C   UNL A   1      39.915  34.189  36.505  1.00  0.00    -0.014 A 
ATOM     74  C   UNL A   1      39.090  33.842  37.586  1.00  0.00     0.009 A 
ATOM     75  C   UNL A   1      40.630  35.396  36.556  1.00  0.00     0.009 A 
ATOM     76  C   UNL A   1      38.959  34.702  38.679  1.00  0.00     0.001 A 
ATOM     77  C   UNL A   1      40.519  36.239  37.663  1.00  0.00     0.001 A 
ATOM     78  C   UNL A   1      39.673  35.897  38.718  1.00  0.00     0.000 A 
ENDBRANCH  54  73
BRANCH  66  79
ATOM     79  C   UNL A   1      44.020  28.823  34.850  1.00  0.00    -0.014 A 
ATOM     80  C   UNL A   1      45.314  29.360  34.768  1.00  0.00     0.009 A 
ATOM     81  C   UNL A   1      43.800  27.688  35.645  1.00  0.00     0.009 A 
ATOM     82  C   UNL A   1      46.372  28.752  35.444  1.00  0.00     0.001 A 
ATOM     83  C   UNL A   1      44.855  27.099  36.343  1.00  0.00     0.001 A 
ATOM     84  C   UNL A   1      46.142  27.626  36.235  1.00  0.00     0.000 A 
ENDBRANCH  66  79
ENDBRANCH  40  41
ENDBRANCH  32  35
ENDBRANCH  30  31
ENDBRANCH  29  30
ENDBRANCH   1  29
TORSDOF 16
ENDMDL
