MODEL 1
REMARK VINA RESULT:     -10.3      0.000      0.000
REMARK SMILES Cc1ccc(C(=O)N2CCC(CC(=O)NCCCCNC(=O)c3ccc(-c4c5nc(c(-c6ccccc6)c6ccc([nH]6)c(-c6ccccc6)c6nc(c(-c7ccccc7)c7ccc4[nH]7)C=C6)C=C5)cc3)CC2)cn1
REMARK SMILES IDX 17 1 16 2 15 3 13 4 14 5 12 7 11 8 6 9 7 10 8 11 9 12 72 13
REMARK SMILES IDX 10 14 71 15 5 16 1 17 2 18 3 19 74 20 4 21 73 22 18 23 19 24
REMARK SMILES IDX 20 25 21 26 22 28 23 29 24 30 70 31 25 32 69 33 26 34 27 35
REMARK SMILES IDX 28 36 63 37 29 38 68 39 62 40 64 41 30 42 67 43 61 44 60 45
REMARK SMILES IDX 31 47 53 48 38 49 52 50 39 51 42 52 51 53 65 54 40 55 41 56
REMARK SMILES IDX 50 58 66 59 43 60 32 61 33 62 37 63 34 64 36 65 35 66 54 67
REMARK SMILES IDX 55 68 59 69 56 70 58 71 57 72 44 73 45 74 49 75 46 76 48 77
REMARK SMILES IDX 47 78
REMARK H PARENT 15 6 20 27 64 46 42 57
REMARK Flexibility Score: inf
ROOT
ATOM      1  C   UNL A   1      41.734  19.488  26.214  1.00  0.00     0.023 C 
ENDROOT
BRANCH   1   2
ATOM      2  C   UNL A   1      43.165  18.961  26.065  1.00  0.00     0.116 C 
BRANCH   2   3
ATOM      3  N   UNL A   1      43.592  18.945  24.675  1.00  0.00    -0.356 N 
ATOM      4  C   UNL A   1      44.583  19.643  24.047  1.00  0.00     0.220 C 
ATOM      5  O   UNL A   1      44.715  19.504  22.830  1.00  0.00    -0.275 OA
ATOM      6  H   UNL A   1      43.086  18.332  24.094  1.00  0.00     0.163 HD
BRANCH   4   7
ATOM      7  C   UNL A   1      45.493  20.580  24.827  1.00  0.00     0.103 C 
BRANCH   7   8
ATOM      8  C   UNL A   1      44.771  21.811  25.415  1.00  0.00     0.002 C 
ATOM      9  C   UNL A   1      45.479  25.756  25.277  1.00  0.00     0.255 C 
ATOM     10  O   UNL A   1      46.418  25.618  24.503  1.00  0.00    -0.269 OA
ATOM     11  N   UNL A   1      44.690  24.705  25.712  1.00  0.00    -0.339 N 
ATOM     12  C   UNL A   1      45.132  23.919  26.840  1.00  0.00     0.120 C 
ATOM     13  C   UNL A   1      43.758  24.064  24.805  1.00  0.00     0.120 C 
ATOM     14  C   UNL A   1      45.675  22.581  26.378  1.00  0.00     0.026 C 
ATOM     15  C   UNL A   1      44.293  22.734  24.281  1.00  0.00     0.026 C 
BRANCH   9  16
ATOM     16  C   UNL A   1      45.097  27.083  25.823  1.00  0.00     0.058 A 
ATOM     17  C   UNL A   1      43.797  30.834  27.348  1.00  0.00     0.066 C 
ATOM     18  C   UNL A   1      44.276  29.515  26.822  1.00  0.00     0.037 A 
ATOM     19  C   UNL A   1      45.560  29.069  27.110  1.00  0.00     0.024 A 
ATOM     20  N   UNL A   1      43.410  28.801  26.062  1.00  0.00    -0.261 NA
ATOM     21  C   UNL A   1      45.972  27.840  26.606  1.00  0.00     0.017 A 
ATOM     22  C   UNL A   1      43.835  27.602  25.581  1.00  0.00     0.125 A 
ENDBRANCH   9  16
ENDBRANCH   7   8
ENDBRANCH   4   7
ENDBRANCH   2   3
ENDBRANCH   1   2
BRANCH   1  23
ATOM     23  C   UNL A   1      41.590  20.998  26.198  1.00  0.00     0.023 C 
BRANCH  23  24
ATOM     24  C   UNL A   1      40.436  21.513  27.032  1.00  0.00     0.116 C 
BRANCH  24  25
ATOM     25  N   UNL A   1      39.270  21.896  26.243  1.00  0.00    -0.352 N 
ATOM     26  C   UNL A   1      38.678  23.134  26.131  1.00  0.00     0.251 C 
ATOM     27  H   UNL A   1      38.852  21.173  25.721  1.00  0.00     0.163 HD
ATOM     28  O   UNL A   1      37.644  23.285  25.501  1.00  0.00    -0.269 OA
BRANCH  26  29
ATOM     29  C   UNL A   1      39.300  24.271  26.837  1.00  0.00     0.039 A 
ATOM     30  C   UNL A   1      40.064  25.186  26.112  1.00  0.00     0.014 A 
ATOM     31  C   UNL A   1      39.026  24.482  28.190  1.00  0.00     0.014 A 
ATOM     32  C   UNL A   1      40.480  26.366  26.728  1.00  0.00     0.010 A 
ATOM     33  C   UNL A   1      39.338  25.704  28.763  1.00  0.00     0.010 A 
ATOM     34  C   UNL A   1      40.076  26.654  28.042  1.00  0.00    -0.014 A 
BRANCH  34  35
ATOM     35  C   UNL A   1      40.433  27.929  28.707  1.00  0.00     0.031 A 
ATOM     36  C   UNL A   1      41.802  28.086  29.309  1.00  0.00     0.074 A 
ATOM     37  C   UNL A   1      39.510  28.900  28.849  1.00  0.00     0.049 A 
ATOM     38  N   UNL A   1      42.280  29.065  30.033  1.00  0.00    -0.248 NA
ATOM     39  C   UNL A   1      42.746  26.973  29.106  1.00  0.00     0.031 C 
ATOM     40  C   UNL A   1      38.132  28.847  28.356  1.00  0.00     0.029 A 
ATOM     41  N   UNL A   1      39.595  30.125  29.461  1.00  0.00    -0.354 N 
ATOM     42  C   UNL A   1      43.560  28.668  30.397  1.00  0.00     0.074 A 
ATOM     43  C   UNL A   1      43.764  27.339  29.869  1.00  0.00     0.031 C 
ATOM     44  C   UNL A   1      37.515  30.003  28.651  1.00  0.00     0.029 A 
ATOM     45  C   UNL A   1      38.437  30.858  29.389  1.00  0.00     0.049 A 
ATOM     46  H   UNL A   1      40.411  30.447  29.910  1.00  0.00     0.167 HD
ATOM     47  C   UNL A   1      44.497  29.360  31.085  1.00  0.00     0.031 A 
ATOM     48  C   UNL A   1      38.153  32.085  29.866  1.00  0.00     0.031 A 
ATOM     49  C   UNL A   1      44.309  30.697  31.574  1.00  0.00     0.049 A 
ATOM     50  C   UNL A   1      39.216  32.842  30.612  1.00  0.00     0.074 A 
ATOM     51  C   UNL A   1      45.216  31.514  32.223  1.00  0.00     0.029 A 
ATOM     52  N   UNL A   1      43.130  31.416  31.454  1.00  0.00    -0.354 N 
ATOM     53  N   UNL A   1      40.444  32.479  30.897  1.00  0.00    -0.248 NA
ATOM     54  C   UNL A   1      38.857  34.184  31.093  1.00  0.00     0.031 C 
ATOM     55  C   UNL A   1      44.573  32.719  32.529  1.00  0.00     0.029 A 
ATOM     56  C   UNL A   1      43.280  32.665  32.030  1.00  0.00     0.049 A 
ATOM     57  H   UNL A   1      42.307  31.087  31.024  1.00  0.00     0.167 HD
ATOM     58  C   UNL A   1      41.011  33.555  31.565  1.00  0.00     0.074 A 
ATOM     59  C   UNL A   1      39.999  34.590  31.631  1.00  0.00     0.031 C 
ATOM     60  C   UNL A   1      42.260  33.678  32.077  1.00  0.00     0.031 A 
BRANCH  47  61
ATOM     61  C   UNL A   1      45.809  28.673  31.337  1.00  0.00    -0.014 A 
ATOM     62  C   UNL A   1      46.009  27.885  32.483  1.00  0.00     0.009 A 
ATOM     63  C   UNL A   1      46.859  28.810  30.416  1.00  0.00     0.009 A 
ATOM     64  C   UNL A   1      47.248  27.288  32.724  1.00  0.00     0.001 A 
ATOM     65  C   UNL A   1      48.087  28.186  30.644  1.00  0.00     0.001 A 
ATOM     66  C   UNL A   1      48.283  27.436  31.803  1.00  0.00     0.000 A 
ENDBRANCH  47  61
BRANCH  48  67
ATOM     67  C   UNL A   1      36.818  32.689  29.626  1.00  0.00    -0.014 A 
ATOM     68  C   UNL A   1      36.544  33.336  28.410  1.00  0.00     0.009 A 
ATOM     69  C   UNL A   1      35.814  32.631  30.604  1.00  0.00     0.009 A 
ATOM     70  C   UNL A   1      35.301  33.931  28.189  1.00  0.00     0.001 A 
ATOM     71  C   UNL A   1      34.563  33.206  30.369  1.00  0.00     0.001 A 
ATOM     72  C   UNL A   1      34.310  33.864  29.166  1.00  0.00     0.000 A 
ENDBRANCH  48  67
BRANCH  60  73
ATOM     73  C   UNL A   1      42.611  34.988  32.719  1.00  0.00    -0.014 A 
ATOM     74  C   UNL A   1      42.262  35.260  34.050  1.00  0.00     0.009 A 
ATOM     75  C   UNL A   1      43.346  35.939  31.996  1.00  0.00     0.009 A 
ATOM     76  C   UNL A   1      42.621  36.476  34.637  1.00  0.00     0.001 A 
ATOM     77  C   UNL A   1      43.726  37.141  32.592  1.00  0.00     0.001 A 
ATOM     78  C   UNL A   1      43.357  37.412  33.909  1.00  0.00     0.000 A 
ENDBRANCH  60  73
ENDBRANCH  34  35
ENDBRANCH  26  29
ENDBRANCH  24  25
ENDBRANCH  23  24
ENDBRANCH   1  23
TORSDOF 13
ENDMDL
MODEL 2
REMARK VINA RESULT:     -10.1      4.400      9.821
REMARK SMILES Cc1ccc(C(=O)N2CCC(CC(=O)NCCCCNC(=O)c3ccc(-c4c5nc(c(-c6ccccc6)c6ccc([nH]6)c(-c6ccccc6)c6nc(c(-c7ccccc7)c7ccc4[nH]7)C=C6)C=C5)cc3)CC2)cn1
REMARK SMILES IDX 17 1 16 2 15 3 13 4 14 5 12 7 11 8 6 9 7 10 8 11 9 12 72 13
REMARK SMILES IDX 10 14 71 15 5 16 1 17 2 18 3 19 74 20 4 21 73 22 18 23 19 24
REMARK SMILES IDX 20 25 21 26 22 28 23 29 24 30 70 31 25 32 69 33 26 34 27 35
REMARK SMILES IDX 28 36 63 37 29 38 68 39 62 40 64 41 30 42 67 43 61 44 60 45
REMARK SMILES IDX 31 47 53 48 38 49 52 50 39 51 42 52 51 53 65 54 40 55 41 56
REMARK SMILES IDX 50 58 66 59 43 60 32 61 33 62 37 63 34 64 36 65 35 66 54 67
REMARK SMILES IDX 55 68 59 69 56 70 58 71 57 72 44 73 45 74 49 75 46 76 48 77
REMARK SMILES IDX 47 78
REMARK H PARENT 15 6 20 27 64 46 42 57
REMARK Flexibility Score: inf
ROOT
ATOM      1  C   UNL A   1      36.350  20.192  24.986  1.00  0.00     0.023 C 
ENDROOT
BRANCH   1   2
ATOM      2  C   UNL A   1      34.904  20.686  24.874  1.00  0.00     0.116 C 
BRANCH   2   3
ATOM      3  N   UNL A   1      34.306  20.907  26.181  1.00  0.00    -0.356 N 
ATOM      4  C   UNL A   1      33.983  22.070  26.820  1.00  0.00     0.220 C 
ATOM      5  O   UNL A   1      33.539  22.003  27.967  1.00  0.00    -0.275 OA
ATOM      6  H   UNL A   1      34.102  20.087  26.686  1.00  0.00     0.163 HD
BRANCH   4   7
ATOM      7  C   UNL A   1      34.180  23.416  26.138  1.00  0.00     0.103 C 
BRANCH   7   8
ATOM      8  C   UNL A   1      32.962  24.357  26.242  1.00  0.00     0.002 C 
ATOM      9  C   UNL A   1      31.276  26.985  23.725  1.00  0.00     0.255 C 
ATOM     10  O   UNL A   1      32.029  26.676  22.809  1.00  0.00    -0.269 OA
ATOM     11  N   UNL A   1      31.284  26.360  24.960  1.00  0.00    -0.339 N 
ATOM     12  C   UNL A   1      32.224  26.803  25.962  1.00  0.00     0.120 C 
ATOM     13  C   UNL A   1      30.783  25.006  25.098  1.00  0.00     0.120 C 
ATOM     14  C   UNL A   1      33.372  25.821  26.088  1.00  0.00     0.026 C 
ATOM     15  C   UNL A   1      31.913  23.984  25.179  1.00  0.00     0.026 C 
BRANCH   9  16
ATOM     16  C   UNL A   1      30.275  28.073  23.588  1.00  0.00     0.058 A 
ATOM     17  C   UNL A   1      27.572  31.333  23.196  1.00  0.00     0.066 C 
ATOM     18  C   UNL A   1      28.508  30.170  23.326  1.00  0.00     0.037 A 
ATOM     19  C   UNL A   1      28.070  28.881  23.043  1.00  0.00     0.024 A 
ATOM     20  N   UNL A   1      29.773  30.436  23.732  1.00  0.00    -0.261 NA
ATOM     21  C   UNL A   1      28.964  27.824  23.174  1.00  0.00     0.017 A 
ATOM     22  C   UNL A   1      30.630  29.386  23.852  1.00  0.00     0.125 A 
ENDBRANCH   9  16
ENDBRANCH   7   8
ENDBRANCH   4   7
ENDBRANCH   2   3
ENDBRANCH   1   2
BRANCH   1  23
ATOM     23  C   UNL A   1      37.418  21.229  24.696  1.00  0.00     0.023 C 
BRANCH  23  24
ATOM     24  C   UNL A   1      38.552  21.238  25.699  1.00  0.00     0.116 C 
BRANCH  24  25
ATOM     25  N   UNL A   1      39.400  20.054  25.634  1.00  0.00    -0.352 N 
ATOM     26  C   UNL A   1      40.725  19.925  25.985  1.00  0.00     0.251 C 
ATOM     27  H   UNL A   1      38.967  19.238  25.293  1.00  0.00     0.163 HD
ATOM     28  O   UNL A   1      41.334  18.887  25.787  1.00  0.00    -0.269 OA
BRANCH  26  29
ATOM     29  C   UNL A   1      41.410  21.098  26.565  1.00  0.00     0.039 A 
ATOM     30  C   UNL A   1      41.958  22.056  25.712  1.00  0.00     0.014 A 
ATOM     31  C   UNL A   1      41.403  21.292  27.948  1.00  0.00     0.014 A 
ATOM     32  C   UNL A   1      42.420  23.258  26.245  1.00  0.00     0.010 A 
ATOM     33  C   UNL A   1      41.753  22.530  28.460  1.00  0.00     0.010 A 
ATOM     34  C   UNL A   1      42.275  23.522  27.616  1.00  0.00    -0.014 A 
BRANCH  34  35
ATOM     35  C   UNL A   1      42.685  24.816  28.211  1.00  0.00     0.031 A 
ATOM     36  C   UNL A   1      41.650  25.883  28.436  1.00  0.00     0.074 A 
ATOM     37  C   UNL A   1      43.986  25.063  28.462  1.00  0.00     0.049 A 
ATOM     38  N   UNL A   1      41.809  27.119  28.834  1.00  0.00    -0.248 NA
ATOM     39  C   UNL A   1      40.254  25.524  28.133  1.00  0.00     0.031 C 
ATOM     40  C   UNL A   1      45.092  24.129  28.238  1.00  0.00     0.029 A 
ATOM     41  N   UNL A   1      44.597  26.186  28.958  1.00  0.00    -0.354 N 
ATOM     42  C   UNL A   1      40.544  27.689  28.792  1.00  0.00     0.074 A 
ATOM     43  C   UNL A   1      39.639  26.688  28.275  1.00  0.00     0.031 C 
ATOM     44  C   UNL A   1      46.240  24.705  28.631  1.00  0.00     0.029 A 
ATOM     45  C   UNL A   1      45.957  26.059  29.094  1.00  0.00     0.049 A 
ATOM     46  H   UNL A   1      44.106  27.007  29.194  1.00  0.00     0.167 HD
ATOM     47  C   UNL A   1      40.160  28.928  29.178  1.00  0.00     0.031 A 
ATOM     48  C   UNL A   1      46.873  26.938  29.542  1.00  0.00     0.031 A 
ATOM     49  C   UNL A   1      41.053  29.908  29.730  1.00  0.00     0.049 A 
ATOM     50  C   UNL A   1      46.421  28.302  29.983  1.00  0.00     0.074 A 
ATOM     51  C   UNL A   1      40.757  31.168  30.216  1.00  0.00     0.029 A 
ATOM     52  N   UNL A   1      42.419  29.727  29.879  1.00  0.00    -0.354 N 
ATOM     53  N   UNL A   1      45.211  28.808  29.995  1.00  0.00    -0.248 NA
ATOM     54  C   UNL A   1      47.461  29.213  30.482  1.00  0.00     0.031 C 
ATOM     55  C   UNL A   1      41.953  31.766  30.628  1.00  0.00     0.029 A 
ATOM     56  C   UNL A   1      42.984  30.860  30.437  1.00  0.00     0.049 A 
ATOM     57  H   UNL A   1      42.914  28.916  29.623  1.00  0.00     0.167 HD
ATOM     58  C   UNL A   1      45.339  30.083  30.527  1.00  0.00     0.074 A 
ATOM     59  C   UNL A   1      46.743  30.270  30.837  1.00  0.00     0.031 C 
ATOM     60  C   UNL A   1      44.382  31.018  30.741  1.00  0.00     0.031 A 
BRANCH  47  61
ATOM     61  C   UNL A   1      38.708  29.276  29.018  1.00  0.00    -0.014 A 
ATOM     62  C   UNL A   1      37.804  29.132  30.083  1.00  0.00     0.009 A 
ATOM     63  C   UNL A   1      38.236  29.759  27.787  1.00  0.00     0.009 A 
ATOM     64  C   UNL A   1      36.449  29.419  29.905  1.00  0.00     0.001 A 
ATOM     65  C   UNL A   1      36.887  30.075  27.622  1.00  0.00     0.001 A 
ATOM     66  C   UNL A   1      35.993  29.894  28.676  1.00  0.00     0.000 A 
ENDBRANCH  47  61
BRANCH  48  67
ATOM     67  C   UNL A   1      48.304  26.547  29.630  1.00  0.00    -0.014 A 
ATOM     68  C   UNL A   1      48.790  25.904  30.780  1.00  0.00     0.009 A 
ATOM     69  C   UNL A   1      49.190  26.815  28.576  1.00  0.00     0.009 A 
ATOM     70  C   UNL A   1      50.140  25.560  30.881  1.00  0.00     0.001 A 
ATOM     71  C   UNL A   1      50.534  26.447  28.671  1.00  0.00     0.001 A 
ATOM     72  C   UNL A   1      51.010  25.829  29.826  1.00  0.00     0.000 A 
ENDBRANCH  48  67
BRANCH  60  73
ATOM     73  C   UNL A   1      44.814  32.308  31.373  1.00  0.00    -0.014 A 
ATOM     74  C   UNL A   1      44.855  32.455  32.768  1.00  0.00     0.009 A 
ATOM     75  C   UNL A   1      45.235  33.371  30.560  1.00  0.00     0.009 A 
ATOM     76  C   UNL A   1      45.286  33.656  33.336  1.00  0.00     0.001 A 
ATOM     77  C   UNL A   1      45.689  34.560  31.130  1.00  0.00     0.001 A 
ATOM     78  C   UNL A   1      45.707  34.704  32.517  1.00  0.00     0.000 A 
ENDBRANCH  60  73
ENDBRANCH  34  35
ENDBRANCH  26  29
ENDBRANCH  24  25
ENDBRANCH  23  24
ENDBRANCH   1  23
TORSDOF 13
ENDMDL
MODEL 3
REMARK VINA RESULT:     -10.1      4.229     10.356
REMARK SMILES Cc1ccc(C(=O)N2CCC(CC(=O)NCCCCNC(=O)c3ccc(-c4c5nc(c(-c6ccccc6)c6ccc([nH]6)c(-c6ccccc6)c6nc(c(-c7ccccc7)c7ccc4[nH]7)C=C6)C=C5)cc3)CC2)cn1
REMARK SMILES IDX 17 1 16 2 15 3 13 4 14 5 12 7 11 8 6 9 7 10 8 11 9 12 72 13
REMARK SMILES IDX 10 14 71 15 5 16 1 17 2 18 3 19 74 20 4 21 73 22 18 23 19 24
REMARK SMILES IDX 20 25 21 26 22 28 23 29 24 30 70 31 25 32 69 33 26 34 27 35
REMARK SMILES IDX 28 36 63 37 29 38 68 39 62 40 64 41 30 42 67 43 61 44 60 45
REMARK SMILES IDX 31 47 53 48 38 49 52 50 39 51 42 52 51 53 65 54 40 55 41 56
REMARK SMILES IDX 50 58 66 59 43 60 32 61 33 62 37 63 34 64 36 65 35 66 54 67
REMARK SMILES IDX 55 68 59 69 56 70 58 71 57 72 44 73 45 74 49 75 46 76 48 77
REMARK SMILES IDX 47 78
REMARK H PARENT 15 6 20 27 64 46 42 57
REMARK Flexibility Score: inf
ROOT
ATOM      1  C   UNL A   1      31.986  30.301  26.564  1.00  0.00     0.023 C 
ENDROOT
BRANCH   1   2
ATOM      2  C   UNL A   1      31.499  29.640  25.270  1.00  0.00     0.116 C 
BRANCH   2   3
ATOM      3  N   UNL A   1      32.577  29.483  24.306  1.00  0.00    -0.356 N 
ATOM      4  C   UNL A   1      33.474  28.467  24.140  1.00  0.00     0.220 C 
ATOM      5  O   UNL A   1      34.348  28.594  23.281  1.00  0.00    -0.275 OA
ATOM      6  H   UNL A   1      32.675  30.230  23.671  1.00  0.00     0.163 HD
BRANCH   4   7
ATOM      7  C   UNL A   1      33.406  27.217  25.004  1.00  0.00     0.103 C 
BRANCH   7   8
ATOM      8  C   UNL A   1      33.765  25.917  24.255  1.00  0.00     0.002 C 
ATOM      9  C   UNL A   1      32.793  22.062  24.789  1.00  0.00     0.255 C 
ATOM     10  O   UNL A   1      32.019  22.325  25.701  1.00  0.00    -0.269 OA
ATOM     11  N   UNL A   1      33.471  23.027  24.064  1.00  0.00    -0.339 N 
ATOM     12  C   UNL A   1      34.712  23.550  24.585  1.00  0.00     0.120 C 
ATOM     13  C   UNL A   1      32.759  23.871  23.123  1.00  0.00     0.120 C 
ATOM     14  C   UNL A   1      34.506  24.936  25.165  1.00  0.00     0.026 C 
ATOM     15  C   UNL A   1      32.491  25.262  23.692  1.00  0.00     0.026 C 
BRANCH   9  16
ATOM     16  C   UNL A   1      33.075  20.664  24.375  1.00  0.00     0.058 A 
ATOM     17  C   UNL A   1      34.018  16.644  23.359  1.00  0.00     0.066 C 
ATOM     18  C   UNL A   1      33.666  18.059  23.704  1.00  0.00     0.037 A 
ATOM     19  C   UNL A   1      32.545  18.660  23.143  1.00  0.00     0.024 A 
ATOM     20  N   UNL A   1      34.486  18.708  24.567  1.00  0.00    -0.261 NA
ATOM     21  C   UNL A   1      32.248  19.975  23.485  1.00  0.00     0.017 A 
ATOM     22  C   UNL A   1      34.174  19.993  24.886  1.00  0.00     0.125 A 
ENDBRANCH   9  16
ENDBRANCH   7   8
ENDBRANCH   4   7
ENDBRANCH   2   3
ENDBRANCH   1   2
BRANCH   1  23
ATOM     23  C   UNL A   1      31.769  31.800  26.652  1.00  0.00     0.023 C 
BRANCH  23  24
ATOM     24  C   UNL A   1      32.898  32.543  27.334  1.00  0.00     0.116 C 
BRANCH  24  25
ATOM     25  N   UNL A   1      32.565  33.919  27.685  1.00  0.00    -0.352 N 
ATOM     26  C   UNL A   1      33.197  34.756  28.576  1.00  0.00     0.251 C 
ATOM     27  H   UNL A   1      31.783  34.300  27.222  1.00  0.00     0.163 HD
ATOM     28  O   UNL A   1      32.746  35.859  28.838  1.00  0.00    -0.269 OA
BRANCH  26  29
ATOM     29  C   UNL A   1      34.415  34.264  29.251  1.00  0.00     0.039 A 
ATOM     30  C   UNL A   1      34.287  33.496  30.409  1.00  0.00     0.014 A 
ATOM     31  C   UNL A   1      35.666  34.474  28.667  1.00  0.00     0.014 A 
ATOM     32  C   UNL A   1      35.412  32.860  30.932  1.00  0.00     0.010 A 
ATOM     33  C   UNL A   1      36.755  33.749  29.119  1.00  0.00     0.010 A 
ATOM     34  C   UNL A   1      36.642  32.943  30.261  1.00  0.00    -0.014 A 
BRANCH  34  35
ATOM     35  C   UNL A   1      37.845  32.222  30.742  1.00  0.00     0.031 A 
ATOM     36  C   UNL A   1      38.634  32.791  31.888  1.00  0.00     0.074 A 
ATOM     37  C   UNL A   1      38.274  31.118  30.100  1.00  0.00     0.049 A 
ATOM     38  N   UNL A   1      39.773  32.388  32.388  1.00  0.00    -0.248 NA
ATOM     39  C   UNL A   1      38.090  34.001  32.529  1.00  0.00     0.031 C 
ATOM     40  C   UNL A   1      37.625  30.496  28.943  1.00  0.00     0.029 A 
ATOM     41  N   UNL A   1      39.369  30.325  30.330  1.00  0.00    -0.354 N 
ATOM     42  C   UNL A   1      40.096  33.313  33.373  1.00  0.00     0.074 A 
ATOM     43  C   UNL A   1      39.068  34.329  33.360  1.00  0.00     0.031 C 
ATOM     44  C   UNL A   1      38.313  29.398  28.590  1.00  0.00     0.029 A 
ATOM     45  C   UNL A   1      39.472  29.262  29.467  1.00  0.00     0.049 A 
ATOM     46  H   UNL A   1      40.020  30.501  31.048  1.00  0.00     0.167 HD
ATOM     47  C   UNL A   1      41.139  33.305  34.234  1.00  0.00     0.031 A 
ATOM     48  C   UNL A   1      40.398  28.288  29.392  1.00  0.00     0.031 A 
ATOM     49  C   UNL A   1      42.138  32.273  34.273  1.00  0.00     0.049 A 
ATOM     50  C   UNL A   1      41.538  28.288  30.372  1.00  0.00     0.074 A 
ATOM     51  C   UNL A   1      43.198  32.132  35.149  1.00  0.00     0.029 A 
ATOM     52  N   UNL A   1      42.188  31.198  33.400  1.00  0.00    -0.354 N 
ATOM     53  N   UNL A   1      41.798  29.137  31.337  1.00  0.00    -0.248 NA
ATOM     54  C   UNL A   1      42.508  27.191  30.256  1.00  0.00     0.031 C 
ATOM     55  C   UNL A   1      43.913  30.987  34.783  1.00  0.00     0.029 A 
ATOM     56  C   UNL A   1      43.271  30.394  33.707  1.00  0.00     0.049 A 
ATOM     57  H   UNL A   1      41.550  31.032  32.669  1.00  0.00     0.167 HD
ATOM     58  C   UNL A   1      42.943  28.662  31.961  1.00  0.00     0.074 A 
ATOM     59  C   UNL A   1      43.321  27.443  31.273  1.00  0.00     0.031 C 
ATOM     60  C   UNL A   1      43.622  29.184  33.011  1.00  0.00     0.031 A 
BRANCH  47  61
ATOM     61  C   UNL A   1      41.237  34.448  35.203  1.00  0.00    -0.014 A 
ATOM     62  C   UNL A   1      42.069  35.551  34.944  1.00  0.00     0.009 A 
ATOM     63  C   UNL A   1      40.487  34.427  36.389  1.00  0.00     0.009 A 
ATOM     64  C   UNL A   1      42.183  36.585  35.875  1.00  0.00     0.001 A 
ATOM     65  C   UNL A   1      40.579  35.478  37.303  1.00  0.00     0.001 A 
ATOM     66  C   UNL A   1      41.435  36.549  37.051  1.00  0.00     0.000 A 
ENDBRANCH  47  61
BRANCH  48  67
ATOM     67  C   UNL A   1      40.270  27.211  28.377  1.00  0.00    -0.014 A 
ATOM     68  C   UNL A   1      40.882  27.350  27.121  1.00  0.00     0.009 A 
ATOM     69  C   UNL A   1      39.536  26.047  28.649  1.00  0.00     0.009 A 
ATOM     70  C   UNL A   1      40.741  26.354  26.151  1.00  0.00     0.001 A 
ATOM     71  C   UNL A   1      39.419  25.043  27.685  1.00  0.00     0.001 A 
ATOM     72  C   UNL A   1      40.013  25.201  26.435  1.00  0.00     0.000 A 
ENDBRANCH  48  67
BRANCH  60  73
ATOM     73  C   UNL A   1      44.817  28.422  33.501  1.00  0.00    -0.014 A 
ATOM     74  C   UNL A   1      46.105  28.703  33.019  1.00  0.00     0.009 A 
ATOM     75  C   UNL A   1      44.657  27.448  34.498  1.00  0.00     0.009 A 
ATOM     76  C   UNL A   1      47.208  27.999  33.509  1.00  0.00     0.001 A 
ATOM     77  C   UNL A   1      45.763  26.765  35.003  1.00  0.00     0.001 A 
ATOM     78  C   UNL A   1      47.036  27.036  34.503  1.00  0.00     0.000 A 
ENDBRANCH  60  73
ENDBRANCH  34  35
ENDBRANCH  26  29
ENDBRANCH  24  25
ENDBRANCH  23  24
ENDBRANCH   1  23
TORSDOF 13
ENDMDL
