MODEL 1
REMARK VINA RESULT:     -12.1      0.000      0.000
REMARK SMILES Cc1cccc(-c2ccc(Cl)c(C(=O)NCCCCNC(=O)c3ccc(-c4c5nc(c(-c6ccccc6)c6ccc([nH]6)c(-c6ccccc6)c6nc(c(-c7ccccc7)c7ccc4[nH]7)C=C6)C=C5)cc3)c2)c1
REMARK SMILES IDX 18 1 17 2 16 3 15 4 13 5 14 6 12 8 7 9 8 10 71 11 9 12 10 13
REMARK SMILES IDX 11 14 6 15 1 16 2 17 3 18 72 19 4 20 5 21 19 22 20 23 21 24
REMARK SMILES IDX 22 26 23 27 24 28 70 29 25 30 69 31 26 32 27 33 28 34 63 35
REMARK SMILES IDX 29 36 68 37 62 38 64 39 30 40 67 41 61 42 60 43 31 45 53 46
REMARK SMILES IDX 38 47 52 48 39 49 42 50 51 51 65 52 40 53 41 54 50 56 66 57
REMARK SMILES IDX 43 58 32 59 33 60 37 61 34 62 36 63 35 64 54 65 55 66 59 67
REMARK SMILES IDX 56 68 58 69 57 70 44 71 45 72 49 73 46 74 48 75 47 76
REMARK H PARENT 15 7 20 25 64 44 42 55
REMARK Flexibility Score: inf
ROOT
ATOM      1  C   UNL A   1      38.613  21.401  25.688  1.00  0.00     0.023 C 
ENDROOT
BRANCH   1   2
ATOM      2  C   UNL A   1      37.492  21.411  24.657  1.00  0.00     0.023 C 
BRANCH   2   3
ATOM      3  C   UNL A   1      36.253  20.575  24.976  1.00  0.00     0.116 C 
BRANCH   3   4
ATOM      4  N   UNL A   1      35.506  20.996  26.151  1.00  0.00    -0.352 N 
ATOM      5  C   UNL A   1      34.443  21.865  26.282  1.00  0.00     0.252 C 
ATOM      6  O   UNL A   1      33.947  22.022  27.398  1.00  0.00    -0.269 OA
ATOM      7  H   UNL A   1      35.810  20.591  26.996  1.00  0.00     0.163 HD
BRANCH   5   8
ATOM      8  C   UNL A   1      33.940  22.689  25.154  1.00  0.00     0.059 A 
ATOM      9  C   UNL A   1      33.729  24.954  24.224  1.00  0.00    -0.017 A 
ATOM     10  C   UNL A   1      33.184  24.383  23.063  1.00  0.00     0.010 A 
ATOM     11  C   UNL A   1      34.165  24.083  25.237  1.00  0.00     0.024 A 
ATOM     12  C   UNL A   1      32.891  23.023  23.003  1.00  0.00     0.022 A 
ATOM     13  C   UNL A   1      33.187  22.193  24.085  1.00  0.00     0.053 A 
ATOM     14  Cl  UNL A   1      32.443  20.630  24.079  1.00  0.00    -0.083 Cl
BRANCH   9  15
ATOM     15  C   UNL A   1      33.688  26.418  24.395  1.00  0.00    -0.018 A 
ATOM     16  C   UNL A   1      33.667  28.839  27.365  1.00  0.00     0.044 C 
ATOM     17  C   UNL A   1      33.663  28.323  25.957  1.00  0.00    -0.051 A 
ATOM     18  C   UNL A   1      33.605  29.200  24.873  1.00  0.00     0.003 A 
ATOM     19  C   UNL A   1      33.705  26.947  25.704  1.00  0.00     0.012 A 
ATOM     20  C   UNL A   1      33.601  28.702  23.567  1.00  0.00     0.001 A 
ATOM     21  C   UNL A   1      33.646  27.322  23.328  1.00  0.00     0.009 A 
ENDBRANCH   9  15
ENDBRANCH   5   8
ENDBRANCH   3   4
ENDBRANCH   2   3
ENDBRANCH   1   2
BRANCH   1  22
ATOM     22  C   UNL A   1      38.826  22.689  26.472  1.00  0.00     0.116 C 
BRANCH  22  23
ATOM     23  N   UNL A   1      40.146  22.857  27.064  1.00  0.00    -0.352 N 
ATOM     24  C   UNL A   1      40.788  24.009  27.501  1.00  0.00     0.251 C 
ATOM     25  H   UNL A   1      40.664  22.026  27.171  1.00  0.00     0.163 HD
ATOM     26  O   UNL A   1      41.930  23.934  27.931  1.00  0.00    -0.269 OA
BRANCH  24  27
ATOM     27  C   UNL A   1      40.053  25.303  27.591  1.00  0.00     0.039 A 
ATOM     28  C   UNL A   1      40.416  26.328  26.705  1.00  0.00     0.014 A 
ATOM     29  C   UNL A   1      39.189  25.589  28.641  1.00  0.00     0.014 A 
ATOM     30  C   UNL A   1      40.157  27.656  27.042  1.00  0.00     0.010 A 
ATOM     31  C   UNL A   1      39.038  26.897  29.044  1.00  0.00     0.010 A 
ATOM     32  C   UNL A   1      39.590  27.927  28.282  1.00  0.00    -0.014 A 
BRANCH  32  33
ATOM     33  C   UNL A   1      39.673  29.218  28.951  1.00  0.00     0.031 A 
ATOM     34  C   UNL A   1      38.664  30.262  28.716  1.00  0.00     0.074 A 
ATOM     35  C   UNL A   1      40.582  29.369  29.939  1.00  0.00     0.049 A 
ATOM     36  N   UNL A   1      38.827  31.505  29.016  1.00  0.00    -0.248 NA
ATOM     37  C   UNL A   1      37.385  29.986  28.075  1.00  0.00     0.031 C 
ATOM     38  C   UNL A   1      40.614  30.389  30.982  1.00  0.00     0.029 A 
ATOM     39  N   UNL A   1      41.806  28.710  30.064  1.00  0.00    -0.354 N 
ATOM     40  C   UNL A   1      37.593  32.106  28.935  1.00  0.00     0.074 A 
ATOM     41  C   UNL A   1      36.761  31.155  28.236  1.00  0.00     0.031 C 
ATOM     42  C   UNL A   1      41.862  30.470  31.469  1.00  0.00     0.029 A 
ATOM     43  C   UNL A   1      42.707  29.630  30.636  1.00  0.00     0.049 A 
ATOM     44  H   UNL A   1      42.002  27.782  29.803  1.00  0.00     0.167 HD
ATOM     45  C   UNL A   1      37.377  33.274  29.607  1.00  0.00     0.031 A 
ATOM     46  C   UNL A   1      43.772  30.079  29.908  1.00  0.00     0.031 A 
ATOM     47  C   UNL A   1      38.606  33.797  30.215  1.00  0.00     0.049 A 
ATOM     48  C   UNL A   1      43.734  31.561  29.578  1.00  0.00     0.074 A 
ATOM     49  C   UNL A   1      39.084  33.900  31.511  1.00  0.00     0.029 A 
ATOM     50  N   UNL A   1      39.690  34.068  29.392  1.00  0.00    -0.354 N 
ATOM     51  N   UNL A   1      42.769  32.373  29.910  1.00  0.00    -0.248 NA
ATOM     52  C   UNL A   1      44.747  32.221  28.752  1.00  0.00     0.031 C 
ATOM     53  C   UNL A   1      40.472  34.226  31.452  1.00  0.00     0.029 A 
ATOM     54  C   UNL A   1      40.830  34.337  30.123  1.00  0.00     0.049 A 
ATOM     55  H   UNL A   1      39.650  34.067  28.409  1.00  0.00     0.167 HD
ATOM     56  C   UNL A   1      42.970  33.592  29.320  1.00  0.00     0.074 A 
ATOM     57  C   UNL A   1      44.229  33.453  28.613  1.00  0.00     0.031 C 
ATOM     58  C   UNL A   1      42.067  34.612  29.409  1.00  0.00     0.031 A 
BRANCH  45  59
ATOM     59  C   UNL A   1      35.997  33.809  29.922  1.00  0.00    -0.014 A 
ATOM     60  C   UNL A   1      35.178  34.279  28.879  1.00  0.00     0.009 A 
ATOM     61  C   UNL A   1      35.460  33.935  31.215  1.00  0.00     0.009 A 
ATOM     62  C   UNL A   1      33.955  34.923  29.120  1.00  0.00     0.001 A 
ATOM     63  C   UNL A   1      34.257  34.607  31.471  1.00  0.00     0.001 A 
ATOM     64  C   UNL A   1      33.509  35.114  30.420  1.00  0.00     0.000 A 
ENDBRANCH  45  59
BRANCH  46  65
ATOM     65  C   UNL A   1      44.348  29.027  29.020  1.00  0.00    -0.014 A 
ATOM     66  C   UNL A   1      45.146  28.024  29.608  1.00  0.00     0.009 A 
ATOM     67  C   UNL A   1      43.819  28.798  27.742  1.00  0.00     0.009 A 
ATOM     68  C   UNL A   1      45.308  26.782  28.987  1.00  0.00     0.001 A 
ATOM     69  C   UNL A   1      43.995  27.555  27.119  1.00  0.00     0.001 A 
ATOM     70  C   UNL A   1      44.704  26.538  27.757  1.00  0.00     0.000 A 
ENDBRANCH  46  65
BRANCH  58  71
ATOM     71  C   UNL A   1      42.268  35.965  28.783  1.00  0.00    -0.014 A 
ATOM     72  C   UNL A   1      41.846  36.266  27.481  1.00  0.00     0.009 A 
ATOM     73  C   UNL A   1      43.016  36.953  29.458  1.00  0.00     0.009 A 
ATOM     74  C   UNL A   1      42.105  37.518  26.906  1.00  0.00     0.001 A 
ATOM     75  C   UNL A   1      43.298  38.192  28.879  1.00  0.00     0.001 A 
ATOM     76  C   UNL A   1      42.830  38.479  27.605  1.00  0.00     0.000 A 
ENDBRANCH  58  71
ENDBRANCH  32  33
ENDBRANCH  24  27
ENDBRANCH  22  23
ENDBRANCH   1  22
TORSDOF 12
ENDMDL
MODEL 2
REMARK VINA RESULT:     -11.9      3.841      9.066
REMARK SMILES Cc1cccc(-c2ccc(Cl)c(C(=O)NCCCCNC(=O)c3ccc(-c4c5nc(c(-c6ccccc6)c6ccc([nH]6)c(-c6ccccc6)c6nc(c(-c7ccccc7)c7ccc4[nH]7)C=C6)C=C5)cc3)c2)c1
REMARK SMILES IDX 18 1 17 2 16 3 15 4 13 5 14 6 12 8 7 9 8 10 71 11 9 12 10 13
REMARK SMILES IDX 11 14 6 15 1 16 2 17 3 18 72 19 4 20 5 21 19 22 20 23 21 24
REMARK SMILES IDX 22 26 23 27 24 28 70 29 25 30 69 31 26 32 27 33 28 34 63 35
REMARK SMILES IDX 29 36 68 37 62 38 64 39 30 40 67 41 61 42 60 43 31 45 53 46
REMARK SMILES IDX 38 47 52 48 39 49 42 50 51 51 65 52 40 53 41 54 50 56 66 57
REMARK SMILES IDX 43 58 32 59 33 60 37 61 34 62 36 63 35 64 54 65 55 66 59 67
REMARK SMILES IDX 56 68 58 69 57 70 44 71 45 72 49 73 46 74 48 75 47 76
REMARK H PARENT 15 7 20 25 64 44 42 55
REMARK Flexibility Score: inf
ROOT
ATOM      1  C   UNL A   1      32.574  30.826  27.225  1.00  0.00     0.023 C 
ENDROOT
BRANCH   1   2
ATOM      2  C   UNL A   1      31.839  30.333  25.985  1.00  0.00     0.023 C 
BRANCH   2   3
ATOM      3  C   UNL A   1      32.677  29.622  24.923  1.00  0.00     0.116 C 
BRANCH   3   4
ATOM      4  N   UNL A   1      31.983  29.331  23.678  1.00  0.00    -0.352 N 
ATOM      5  C   UNL A   1      31.426  28.160  23.207  1.00  0.00     0.252 C 
ATOM      6  O   UNL A   1      30.843  28.182  22.124  1.00  0.00    -0.269 OA
ATOM      7  H   UNL A   1      31.896  30.099  23.068  1.00  0.00     0.163 HD
BRANCH   5   8
ATOM      8  C   UNL A   1      31.585  26.860  23.907  1.00  0.00     0.059 A 
ATOM      9  C   UNL A   1      33.146  25.074  24.551  1.00  0.00    -0.017 A 
ATOM     10  C   UNL A   1      32.106  24.486  25.289  1.00  0.00     0.010 A 
ATOM     11  C   UNL A   1      32.885  26.301  23.917  1.00  0.00     0.024 A 
ATOM     12  C   UNL A   1      30.809  24.989  25.224  1.00  0.00     0.022 A 
ATOM     13  C   UNL A   1      30.533  26.123  24.460  1.00  0.00     0.053 A 
ATOM     14  Cl  UNL A   1      28.864  26.435  24.125  1.00  0.00    -0.083 Cl
BRANCH   9  15
ATOM     15  C   UNL A   1      34.399  24.324  24.348  1.00  0.00    -0.018 A 
ATOM     16  C   UNL A   1      37.615  23.749  26.351  1.00  0.00     0.044 C 
ATOM     17  C   UNL A   1      36.597  23.675  25.251  1.00  0.00    -0.051 A 
ATOM     18  C   UNL A   1      36.848  22.941  24.091  1.00  0.00     0.003 A 
ATOM     19  C   UNL A   1      35.378  24.354  25.365  1.00  0.00     0.012 A 
ATOM     20  C   UNL A   1      35.889  22.883  23.077  1.00  0.00     0.001 A 
ATOM     21  C   UNL A   1      34.671  23.566  23.204  1.00  0.00     0.009 A 
ENDBRANCH   9  15
ENDBRANCH   5   8
ENDBRANCH   3   4
ENDBRANCH   2   3
ENDBRANCH   1   2
BRANCH   1  22
ATOM     22  C   UNL A   1      34.071  30.554  27.280  1.00  0.00     0.116 C 
BRANCH  22  23
ATOM     23  N   UNL A   1      34.872  31.562  27.959  1.00  0.00    -0.352 N 
ATOM     24  C   UNL A   1      36.117  31.453  28.567  1.00  0.00     0.251 C 
ATOM     25  H   UNL A   1      34.470  32.461  27.993  1.00  0.00     0.163 HD
ATOM     26  O   UNL A   1      36.599  32.425  29.128  1.00  0.00    -0.269 OA
BRANCH  24  27
ATOM     27  C   UNL A   1      36.932  30.214  28.416  1.00  0.00     0.039 A 
ATOM     28  C   UNL A   1      36.968  29.315  29.492  1.00  0.00     0.014 A 
ATOM     29  C   UNL A   1      37.806  30.031  27.351  1.00  0.00     0.014 A 
ATOM     30  C   UNL A   1      38.047  28.444  29.629  1.00  0.00     0.010 A 
ATOM     31  C   UNL A   1      38.936  29.267  27.538  1.00  0.00     0.010 A 
ATOM     32  C   UNL A   1      39.091  28.533  28.714  1.00  0.00    -0.014 A 
BRANCH  32  33
ATOM     33  C   UNL A   1      40.439  28.041  28.966  1.00  0.00     0.031 A 
ATOM     34  C   UNL A   1      40.885  26.743  28.439  1.00  0.00     0.074 A 
ATOM     35  C   UNL A   1      41.333  28.885  29.526  1.00  0.00     0.049 A 
ATOM     36  N   UNL A   1      41.924  26.109  28.862  1.00  0.00    -0.248 NA
ATOM     37  C   UNL A   1      40.155  26.026  27.400  1.00  0.00     0.031 C 
ATOM     38  C   UNL A   1      42.788  28.774  29.534  1.00  0.00     0.029 A 
ATOM     39  N   UNL A   1      41.063  29.941  30.396  1.00  0.00    -0.354 N 
ATOM     40  C   UNL A   1      42.190  25.113  27.953  1.00  0.00     0.074 A 
ATOM     41  C   UNL A   1      41.003  25.029  27.135  1.00  0.00     0.031 C 
ATOM     42  C   UNL A   1      43.272  29.527  30.535  1.00  0.00     0.029 A 
ATOM     43  C   UNL A   1      42.136  30.005  31.305  1.00  0.00     0.049 A 
ATOM     44  H   UNL A   1      40.273  30.529  30.377  1.00  0.00     0.167 HD
ATOM     45  C   UNL A   1      43.446  24.582  27.896  1.00  0.00     0.031 A 
ATOM     46  C   UNL A   1      41.923  29.730  32.627  1.00  0.00     0.031 A 
ATOM     47  C   UNL A   1      44.308  25.085  28.973  1.00  0.00     0.049 A 
ATOM     48  C   UNL A   1      42.628  28.484  33.136  1.00  0.00     0.074 A 
ATOM     49  C   UNL A   1      45.385  25.954  29.034  1.00  0.00     0.029 A 
ATOM     50  N   UNL A   1      43.908  24.890  30.287  1.00  0.00    -0.354 N 
ATOM     51  N   UNL A   1      43.358  27.690  32.403  1.00  0.00    -0.248 NA
ATOM     52  C   UNL A   1      42.474  27.983  34.503  1.00  0.00     0.031 C 
ATOM     53  C   UNL A   1      45.618  26.283  30.402  1.00  0.00     0.029 A 
ATOM     54  C   UNL A   1      44.694  25.602  31.171  1.00  0.00     0.049 A 
ATOM     55  H   UNL A   1      43.157  24.314  30.557  1.00  0.00     0.167 HD
ATOM     56  C   UNL A   1      43.705  26.584  33.130  1.00  0.00     0.074 A 
ATOM     57  C   UNL A   1      43.139  26.817  34.445  1.00  0.00     0.031 C 
ATOM     58  C   UNL A   1      44.388  25.532  32.591  1.00  0.00     0.031 A 
BRANCH  45  59
ATOM     59  C   UNL A   1      43.964  23.796  26.712  1.00  0.00    -0.014 A 
ATOM     60  C   UNL A   1      45.162  23.066  26.831  1.00  0.00     0.009 A 
ATOM     61  C   UNL A   1      43.366  23.771  25.440  1.00  0.00     0.009 A 
ATOM     62  C   UNL A   1      45.770  22.443  25.731  1.00  0.00     0.001 A 
ATOM     63  C   UNL A   1      43.982  23.182  24.327  1.00  0.00     0.001 A 
ATOM     64  C   UNL A   1      45.194  22.527  24.471  1.00  0.00     0.000 A 
ENDBRANCH  45  59
BRANCH  46  65
ATOM     65  C   UNL A   1      40.596  30.211  33.109  1.00  0.00    -0.014 A 
ATOM     66  C   UNL A   1      40.392  31.602  33.220  1.00  0.00     0.009 A 
ATOM     67  C   UNL A   1      39.474  29.370  33.079  1.00  0.00     0.009 A 
ATOM     68  C   UNL A   1      39.103  32.141  33.179  1.00  0.00     0.001 A 
ATOM     69  C   UNL A   1      38.185  29.917  33.051  1.00  0.00     0.001 A 
ATOM     70  C   UNL A   1      38.002  31.298  33.062  1.00  0.00     0.000 A 
ENDBRANCH  46  65
BRANCH  58  71
ATOM     71  C   UNL A   1      44.795  24.311  33.369  1.00  0.00    -0.014 A 
ATOM     72  C   UNL A   1      43.891  23.297  33.714  1.00  0.00     0.009 A 
ATOM     73  C   UNL A   1      46.101  24.208  33.895  1.00  0.00     0.009 A 
ATOM     74  C   UNL A   1      44.290  22.203  34.494  1.00  0.00     0.001 A 
ATOM     75  C   UNL A   1      46.496  23.132  34.692  1.00  0.00     0.001 A 
ATOM     76  C   UNL A   1      45.591  22.122  34.982  1.00  0.00     0.000 A 
ENDBRANCH  58  71
ENDBRANCH  32  33
ENDBRANCH  24  27
ENDBRANCH  22  23
ENDBRANCH   1  22
TORSDOF 12
ENDMDL
MODEL 3
REMARK VINA RESULT:     -11.8      3.234      8.400
REMARK SMILES Cc1cccc(-c2ccc(Cl)c(C(=O)NCCCCNC(=O)c3ccc(-c4c5nc(c(-c6ccccc6)c6ccc([nH]6)c(-c6ccccc6)c6nc(c(-c7ccccc7)c7ccc4[nH]7)C=C6)C=C5)cc3)c2)c1
REMARK SMILES IDX 18 1 17 2 16 3 15 4 13 5 14 6 12 8 7 9 8 10 71 11 9 12 10 13
REMARK SMILES IDX 11 14 6 15 1 16 2 17 3 18 72 19 4 20 5 21 19 22 20 23 21 24
REMARK SMILES IDX 22 26 23 27 24 28 70 29 25 30 69 31 26 32 27 33 28 34 63 35
REMARK SMILES IDX 29 36 68 37 62 38 64 39 30 40 67 41 61 42 60 43 31 45 53 46
REMARK SMILES IDX 38 47 52 48 39 49 42 50 51 51 65 52 40 53 41 54 50 56 66 57
REMARK SMILES IDX 43 58 32 59 33 60 37 61 34 62 36 63 35 64 54 65 55 66 59 67
REMARK SMILES IDX 56 68 58 69 57 70 44 71 45 72 49 73 46 74 48 75 47 76
REMARK H PARENT 15 7 20 25 64 44 42 55
REMARK Flexibility Score: inf
ROOT
ATOM      1  C   UNL A   1      34.038  28.551  26.696  1.00  0.00     0.023 C 
ENDROOT
BRANCH   1   2
ATOM      2  C   UNL A   1      34.030  28.599  25.174  1.00  0.00     0.023 C 
BRANCH   2   3
ATOM      3  C   UNL A   1      33.662  27.309  24.444  1.00  0.00     0.116 C 
BRANCH   3   4
ATOM      4  N   UNL A   1      32.920  26.338  25.235  1.00  0.00    -0.352 N 
ATOM      5  C   UNL A   1      33.199  25.023  25.544  1.00  0.00     0.252 C 
ATOM      6  O   UNL A   1      32.424  24.416  26.283  1.00  0.00    -0.269 OA
ATOM      7  H   UNL A   1      32.077  26.677  25.615  1.00  0.00     0.163 HD
BRANCH   5   8
ATOM      8  C   UNL A   1      34.340  24.285  24.945  1.00  0.00     0.059 A 
ATOM      9  C   UNL A   1      36.597  23.383  25.309  1.00  0.00    -0.017 A 
ATOM     10  C   UNL A   1      36.526  22.799  24.034  1.00  0.00     0.010 A 
ATOM     11  C   UNL A   1      35.464  24.070  25.777  1.00  0.00     0.024 A 
ATOM     12  C   UNL A   1      35.458  23.067  23.183  1.00  0.00     0.022 A 
ATOM     13  C   UNL A   1      34.409  23.883  23.607  1.00  0.00     0.053 A 
ATOM     14  Cl  UNL A   1      33.346  24.471  22.374  1.00  0.00    -0.083 Cl
BRANCH   9  15
ATOM     15  C   UNL A   1      37.883  23.383  26.032  1.00  0.00    -0.018 A 
ATOM     16  C   UNL A   1      40.696  20.852  26.637  1.00  0.00     0.044 C 
ATOM     17  C   UNL A   1      39.900  22.123  26.674  1.00  0.00    -0.051 A 
ATOM     18  C   UNL A   1      40.361  23.237  27.377  1.00  0.00     0.003 A 
ATOM     19  C   UNL A   1      38.670  22.211  26.011  1.00  0.00     0.012 A 
ATOM     20  C   UNL A   1      39.607  24.413  27.401  1.00  0.00     0.001 A 
ATOM     21  C   UNL A   1      38.378  24.489  26.731  1.00  0.00     0.009 A 
ENDBRANCH   9  15
ENDBRANCH   5   8
ENDBRANCH   3   4
ENDBRANCH   2   3
ENDBRANCH   1   2
BRANCH   1  22
ATOM     22  C   UNL A   1      34.741  29.698  27.409  1.00  0.00     0.116 C 
BRANCH  22  23
ATOM     23  N   UNL A   1      34.033  30.970  27.409  1.00  0.00    -0.352 N 
ATOM     24  C   UNL A   1      34.260  32.118  28.158  1.00  0.00     0.251 C 
ATOM     25  H   UNL A   1      33.276  31.027  26.781  1.00  0.00     0.163 HD
ATOM     26  O   UNL A   1      33.509  33.074  28.036  1.00  0.00    -0.269 OA
BRANCH  24  27
ATOM     27  C   UNL A   1      35.488  32.252  28.995  1.00  0.00     0.039 A 
ATOM     28  C   UNL A   1      36.574  32.960  28.460  1.00  0.00     0.014 A 
ATOM     29  C   UNL A   1      35.660  31.532  30.170  1.00  0.00     0.014 A 
ATOM     30  C   UNL A   1      37.861  32.706  28.929  1.00  0.00     0.010 A 
ATOM     31  C   UNL A   1      36.934  31.180  30.557  1.00  0.00     0.010 A 
ATOM     32  C   UNL A   1      38.035  31.710  29.883  1.00  0.00    -0.014 A 
BRANCH  32  33
ATOM     33  C   UNL A   1      39.300  31.032  30.132  1.00  0.00     0.031 A 
ATOM     34  C   UNL A   1      39.620  29.756  29.474  1.00  0.00     0.074 A 
ATOM     35  C   UNL A   1      40.254  31.692  30.824  1.00  0.00     0.049 A 
ATOM     36  N   UNL A   1      40.553  28.956  29.863  1.00  0.00    -0.248 NA
ATOM     37  C   UNL A   1      38.871  29.254  28.329  1.00  0.00     0.031 C 
ATOM     38  C   UNL A   1      41.684  31.404  30.879  1.00  0.00     0.029 A 
ATOM     39  N   UNL A   1      40.061  32.670  31.799  1.00  0.00    -0.354 N 
ATOM     40  C   UNL A   1      40.752  28.044  28.855  1.00  0.00     0.074 A 
ATOM     41  C   UNL A   1      39.611  28.197  27.984  1.00  0.00     0.031 C 
ATOM     42  C   UNL A   1      42.196  31.976  31.981  1.00  0.00     0.029 A 
ATOM     43  C   UNL A   1      41.082  32.499  32.755  1.00  0.00     0.049 A 
ATOM     44  H   UNL A   1      39.347  33.348  31.818  1.00  0.00     0.167 HD
ATOM     45  C   UNL A   1      41.939  27.373  28.789  1.00  0.00     0.031 A 
ATOM     46  C   UNL A   1      40.766  32.107  34.025  1.00  0.00     0.031 A 
ATOM     47  C   UNL A   1      42.792  27.643  29.952  1.00  0.00     0.049 A 
ATOM     48  C   UNL A   1      41.291  30.735  34.412  1.00  0.00     0.074 A 
ATOM     49  C   UNL A   1      43.958  28.362  30.160  1.00  0.00     0.029 A 
ATOM     50  N   UNL A   1      42.300  27.352  31.217  1.00  0.00    -0.354 N 
ATOM     51  N   UNL A   1      41.964  29.945  33.622  1.00  0.00    -0.248 NA
ATOM     52  C   UNL A   1      41.004  30.107  35.704  1.00  0.00     0.031 C 
ATOM     53  C   UNL A   1      44.152  28.505  31.566  1.00  0.00     0.029 A 
ATOM     54  C   UNL A   1      43.114  27.861  32.210  1.00  0.00     0.049 A 
ATOM     55  H   UNL A   1      41.473  26.846  31.385  1.00  0.00     0.167 HD
ATOM     56  C   UNL A   1      42.138  28.730  34.228  1.00  0.00     0.074 A 
ATOM     57  C   UNL A   1      41.531  28.882  35.536  1.00  0.00     0.031 C 
ATOM     58  C   UNL A   1      42.723  27.669  33.598  1.00  0.00     0.031 A 
BRANCH  45  59
ATOM     59  C   UNL A   1      42.427  26.666  27.543  1.00  0.00    -0.014 A 
ATOM     60  C   UNL A   1      43.162  25.473  27.663  1.00  0.00     0.009 A 
ATOM     61  C   UNL A   1      42.255  27.141  26.231  1.00  0.00     0.009 A 
ATOM     62  C   UNL A   1      43.768  24.854  26.559  1.00  0.00     0.001 A 
ATOM     63  C   UNL A   1      42.884  26.551  25.126  1.00  0.00     0.001 A 
ATOM     64  C   UNL A   1      43.654  25.411  25.293  1.00  0.00     0.000 A 
ENDBRANCH  45  59
BRANCH  46  65
ATOM     65  C   UNL A   1      39.478  32.689  34.503  1.00  0.00    -0.014 A 
ATOM     66  C   UNL A   1      39.413  34.083  34.705  1.00  0.00     0.009 A 
ATOM     67  C   UNL A   1      38.279  31.973  34.387  1.00  0.00     0.009 A 
ATOM     68  C   UNL A   1      38.187  34.755  34.668  1.00  0.00     0.001 A 
ATOM     69  C   UNL A   1      37.053  32.650  34.363  1.00  0.00     0.001 A 
ATOM     70  C   UNL A   1      37.011  34.040  34.464  1.00  0.00     0.000 A 
ENDBRANCH  46  65
BRANCH  58  71
ATOM     71  C   UNL A   1      42.941  26.329  34.243  1.00  0.00    -0.014 A 
ATOM     72  C   UNL A   1      44.097  25.565  34.029  1.00  0.00     0.009 A 
ATOM     73  C   UNL A   1      41.912  25.731  35.001  1.00  0.00     0.009 A 
ATOM     74  C   UNL A   1      44.241  24.292  34.597  1.00  0.00     0.001 A 
ATOM     75  C   UNL A   1      42.041  24.453  35.548  1.00  0.00     0.001 A 
ATOM     76  C   UNL A   1      43.214  23.737  35.355  1.00  0.00     0.000 A 
ENDBRANCH  58  71
ENDBRANCH  32  33
ENDBRANCH  24  27
ENDBRANCH  22  23
ENDBRANCH   1  22
TORSDOF 12
ENDMDL
