MODEL 1
REMARK VINA RESULT:     -11.6      0.000      0.000
REMARK SMILES CC[C@@H](C)[C@H](NC(=O)NCc1ccc(C)cc1)C(=O)NCCCCNC(=O)c1ccc(-c2c3nc(c(-c4ccccc4)c4ccc([nH]4)c(-c4ccccc4)c4nc(c(-c5ccccc5)c5ccc2[nH]5)C=C4)C=C3)cc1
REMARK SMILES IDX 22 1 21 2 20 3 18 4 19 5 5 7 3 8 4 9 2 10 1 11 6 12 7 13
REMARK SMILES IDX 8 15 9 16 10 18 11 19 12 20 17 21 13 22 16 23 14 24 15 25
REMARK SMILES IDX 23 26 24 27 25 28 26 29 27 31 28 32 29 33 75 34 30 35 74 36
REMARK SMILES IDX 31 37 32 38 33 39 68 40 34 41 73 42 67 43 69 44 35 45 72 46
REMARK SMILES IDX 66 47 65 48 36 50 58 51 43 52 57 53 44 54 47 55 56 56 70 57
REMARK SMILES IDX 45 58 46 59 55 61 71 62 48 63 37 64 38 65 42 66 39 67 41 68
REMARK SMILES IDX 40 69 59 70 60 71 64 72 61 73 63 74 62 75 49 76 50 77 54 78
REMARK SMILES IDX 51 79 53 80 52 81
REMARK H PARENT 20 6 6 14 9 17 25 30 69 49 47 60
REMARK Flexibility Score: inf
ROOT
ATOM      1  C   UNL A   1      31.705  29.757  25.242  1.00  0.00     0.023 C 
ENDROOT
BRANCH   1   2
ATOM      2  C   UNL A   1      31.451  28.951  23.966  1.00  0.00     0.116 C 
BRANCH   2   3
ATOM      3  N   UNL A   1      30.321  28.050  24.026  1.00  0.00    -0.354 N 
ATOM      4  C   UNL A   1      30.277  26.691  24.085  1.00  0.00     0.242 C 
ATOM      5  O   UNL A   1      29.187  26.193  24.396  1.00  0.00    -0.273 OA
ATOM      6  H   UNL A   1      29.440  28.491  24.022  1.00  0.00     0.163 HD
BRANCH   4   7
ATOM      7  C   UNL A   1      31.525  25.794  23.910  1.00  0.00     0.175 C 
BRANCH   7   8
ATOM      8  C   UNL A   1      32.502  25.900  25.160  1.00  0.00     0.018 C 
ATOM      9  C   UNL A   1      33.970  26.134  24.763  1.00  0.00     0.010 C 
BRANCH   8  10
ATOM     10  C   UNL A   1      32.334  24.793  26.247  1.00  0.00     0.002 C 
ATOM     11  C   UNL A   1      31.296  23.710  25.982  1.00  0.00     0.004 C 
ENDBRANCH   8  10
ENDBRANCH   7   8
BRANCH   7  12
ATOM     12  N   UNL A   1      32.205  25.994  22.624  1.00  0.00    -0.326 N 
ATOM     13  C   UNL A   1      32.803  25.215  21.726  1.00  0.00     0.315 C 
ATOM     14  H   UNL A   1      32.224  26.942  22.362  1.00  0.00     0.166 HD
ATOM     15  O   UNL A   1      33.272  25.776  20.731  1.00  0.00    -0.249 OA
ATOM     16  N   UNL A   1      32.897  23.889  21.774  1.00  0.00    -0.334 N 
ATOM     17  H   UNL A   1      33.091  23.490  20.895  1.00  0.00     0.165 HD
BRANCH  16  18
ATOM     18  C   UNL A   1      32.781  22.898  22.823  1.00  0.00     0.153 C 
BRANCH  18  19
ATOM     19  C   UNL A   1      34.100  22.564  23.464  1.00  0.00    -0.029 A 
ATOM     20  C   UNL A   1      34.163  21.609  24.485  1.00  0.00     0.006 A 
ATOM     21  C   UNL A   1      35.286  23.181  23.042  1.00  0.00     0.006 A 
ATOM     22  C   UNL A   1      35.379  21.320  25.109  1.00  0.00     0.004 A 
ATOM     23  C   UNL A   1      36.498  22.900  23.670  1.00  0.00     0.004 A 
ATOM     24  C   UNL A   1      36.552  21.975  24.714  1.00  0.00    -0.051 A 
ATOM     25  C   UNL A   1      37.846  21.688  25.413  1.00  0.00     0.044 C 
ENDBRANCH  18  19
ENDBRANCH  16  18
ENDBRANCH   7  12
ENDBRANCH   4   7
ENDBRANCH   2   3
ENDBRANCH   1   2
BRANCH   1  26
ATOM     26  C   UNL A   1      33.126  29.704  25.799  1.00  0.00     0.023 C 
BRANCH  26  27
ATOM     27  C   UNL A   1      33.221  30.101  27.258  1.00  0.00     0.116 C 
BRANCH  27  28
ATOM     28  N   UNL A   1      33.962  31.322  27.522  1.00  0.00    -0.352 N 
ATOM     29  C   UNL A   1      35.224  31.508  28.069  1.00  0.00     0.251 C 
ATOM     30  H   UNL A   1      33.494  32.152  27.273  1.00  0.00     0.163 HD
ATOM     31  O   UNL A   1      35.603  32.640  28.318  1.00  0.00    -0.269 OA
BRANCH  29  32
ATOM     32  C   UNL A   1      36.171  30.365  28.215  1.00  0.00     0.039 A 
ATOM     33  C   UNL A   1      36.228  29.701  29.452  1.00  0.00     0.014 A 
ATOM     34  C   UNL A   1      37.123  30.073  27.249  1.00  0.00     0.014 A 
ATOM     35  C   UNL A   1      37.361  28.960  29.795  1.00  0.00     0.010 A 
ATOM     36  C   UNL A   1      38.304  29.491  27.635  1.00  0.00     0.010 A 
ATOM     37  C   UNL A   1      38.439  28.962  28.920  1.00  0.00    -0.014 A 
BRANCH  37  38
ATOM     38  C   UNL A   1      39.773  28.468  29.209  1.00  0.00     0.031 A 
ATOM     39  C   UNL A   1      40.190  27.155  28.681  1.00  0.00     0.074 A 
ATOM     40  C   UNL A   1      40.690  29.328  29.702  1.00  0.00     0.049 A 
ATOM     41  N   UNL A   1      41.288  26.566  29.002  1.00  0.00    -0.248 NA
ATOM     42  C   UNL A   1      39.372  26.370  27.760  1.00  0.00     0.031 C 
ATOM     43  C   UNL A   1      42.143  29.242  29.594  1.00  0.00     0.029 A 
ATOM     44  N   UNL A   1      40.472  30.382  30.588  1.00  0.00    -0.354 N 
ATOM     45  C   UNL A   1      41.471  25.525  28.126  1.00  0.00     0.074 A 
ATOM     46  C   UNL A   1      40.212  25.383  27.439  1.00  0.00     0.031 C 
ATOM     47  C   UNL A   1      42.696  30.022  30.539  1.00  0.00     0.029 A 
ATOM     48  C   UNL A   1      41.619  30.471  31.403  1.00  0.00     0.049 A 
ATOM     49  H   UNL A   1      39.671  30.953  30.636  1.00  0.00     0.167 HD
ATOM     50  C   UNL A   1      42.716  24.989  27.998  1.00  0.00     0.031 A 
ATOM     51  C   UNL A   1      41.540  30.198  32.741  1.00  0.00     0.031 A 
ATOM     52  C   UNL A   1      43.659  25.575  28.950  1.00  0.00     0.049 A 
ATOM     53  C   UNL A   1      42.370  29.012  33.203  1.00  0.00     0.074 A 
ATOM     54  C   UNL A   1      44.705  26.479  28.856  1.00  0.00     0.029 A 
ATOM     55  N   UNL A   1      43.391  25.444  30.300  1.00  0.00    -0.354 N 
ATOM     56  N   UNL A   1      43.020  28.211  32.405  1.00  0.00    -0.248 NA
ATOM     57  C   UNL A   1      42.451  28.579  34.598  1.00  0.00     0.031 C 
ATOM     58  C   UNL A   1      45.079  26.862  30.177  1.00  0.00     0.029 A 
ATOM     59  C   UNL A   1      44.272  26.178  31.065  1.00  0.00     0.049 A 
ATOM     60  H   UNL A   1      42.660  24.896  30.670  1.00  0.00     0.167 HD
ATOM     61  C   UNL A   1      43.523  27.155  33.118  1.00  0.00     0.074 A 
ATOM     62  C   UNL A   1      43.150  27.435  34.492  1.00  0.00     0.031 C 
ATOM     63  C   UNL A   1      44.151  26.106  32.511  1.00  0.00     0.031 A 
BRANCH  50  64
ATOM     64  C   UNL A   1      43.150  24.062  26.889  1.00  0.00    -0.014 A 
ATOM     65  C   UNL A   1      43.083  22.671  27.095  1.00  0.00     0.009 A 
ATOM     66  C   UNL A   1      43.657  24.470  25.645  1.00  0.00     0.009 A 
ATOM     67  C   UNL A   1      43.563  21.752  26.152  1.00  0.00     0.001 A 
ATOM     68  C   UNL A   1      44.160  23.561  24.704  1.00  0.00     0.001 A 
ATOM     69  C   UNL A   1      44.121  22.199  24.963  1.00  0.00     0.000 A 
ENDBRANCH  50  64
BRANCH  51  70
ATOM     70  C   UNL A   1      40.215  30.574  33.318  1.00  0.00    -0.014 A 
ATOM     71  C   UNL A   1      39.943  31.942  33.525  1.00  0.00     0.009 A 
ATOM     72  C   UNL A   1      39.138  29.678  33.246  1.00  0.00     0.009 A 
ATOM     73  C   UNL A   1      38.628  32.414  33.522  1.00  0.00     0.001 A 
ATOM     74  C   UNL A   1      37.822  30.157  33.260  1.00  0.00     0.001 A 
ATOM     75  C   UNL A   1      37.570  31.525  33.356  1.00  0.00     0.000 A 
ENDBRANCH  51  70
BRANCH  63  76
ATOM     76  C   UNL A   1      44.663  24.871  33.209  1.00  0.00    -0.014 A 
ATOM     77  C   UNL A   1      46.002  24.683  33.567  1.00  0.00     0.009 A 
ATOM     78  C   UNL A   1      43.790  23.780  33.427  1.00  0.00     0.009 A 
ATOM     79  C   UNL A   1      46.430  23.489  34.166  1.00  0.00     0.001 A 
ATOM     80  C   UNL A   1      44.214  22.583  34.004  1.00  0.00     0.001 A 
ATOM     81  C   UNL A   1      45.538  22.442  34.386  1.00  0.00     0.000 A 
ENDBRANCH  63  76
ENDBRANCH  37  38
ENDBRANCH  29  32
ENDBRANCH  27  28
ENDBRANCH  26  27
ENDBRANCH   1  26
TORSDOF 16
ENDMDL
MODEL 2
REMARK VINA RESULT:     -11.5      2.487      3.823
REMARK SMILES CC[C@@H](C)[C@H](NC(=O)NCc1ccc(C)cc1)C(=O)NCCCCNC(=O)c1ccc(-c2c3nc(c(-c4ccccc4)c4ccc([nH]4)c(-c4ccccc4)c4nc(c(-c5ccccc5)c5ccc2[nH]5)C=C4)C=C3)cc1
REMARK SMILES IDX 22 1 21 2 20 3 18 4 19 5 5 7 3 8 4 9 2 10 1 11 6 12 7 13
REMARK SMILES IDX 8 15 9 16 10 18 11 19 12 20 17 21 13 22 16 23 14 24 15 25
REMARK SMILES IDX 23 26 24 27 25 28 26 29 27 31 28 32 29 33 75 34 30 35 74 36
REMARK SMILES IDX 31 37 32 38 33 39 68 40 34 41 73 42 67 43 69 44 35 45 72 46
REMARK SMILES IDX 66 47 65 48 36 50 58 51 43 52 57 53 44 54 47 55 56 56 70 57
REMARK SMILES IDX 45 58 46 59 55 61 71 62 48 63 37 64 38 65 42 66 39 67 41 68
REMARK SMILES IDX 40 69 59 70 60 71 64 72 61 73 63 74 62 75 49 76 50 77 54 78
REMARK SMILES IDX 51 79 53 80 52 81
REMARK H PARENT 20 6 6 14 9 17 25 30 69 49 47 60
REMARK Flexibility Score: inf
ROOT
ATOM      1  C   UNL A   1      34.807  30.511  27.257  1.00  0.00     0.023 C 
ENDROOT
BRANCH   1   2
ATOM      2  C   UNL A   1      34.266  29.080  27.314  1.00  0.00     0.116 C 
BRANCH   2   3
ATOM      3  N   UNL A   1      32.885  28.964  27.729  1.00  0.00    -0.354 N 
ATOM      4  C   UNL A   1      31.957  28.009  27.451  1.00  0.00     0.242 C 
ATOM      5  O   UNL A   1      30.936  28.018  28.151  1.00  0.00    -0.273 OA
ATOM      6  H   UNL A   1      32.563  29.695  28.306  1.00  0.00     0.163 HD
BRANCH   4   7
ATOM      7  C   UNL A   1      32.185  26.881  26.417  1.00  0.00     0.175 C 
BRANCH   7   8
ATOM      8  C   UNL A   1      31.907  27.381  24.933  1.00  0.00     0.018 C 
ATOM      9  C   UNL A   1      30.649  26.753  24.309  1.00  0.00     0.010 C 
BRANCH   8  10
ATOM     10  C   UNL A   1      33.135  27.368  23.973  1.00  0.00     0.002 C 
ATOM     11  C   UNL A   1      33.674  28.717  23.514  1.00  0.00     0.004 C 
ENDBRANCH   8  10
ENDBRANCH   7   8
BRANCH   7  12
ATOM     12  N   UNL A   1      31.479  25.638  26.752  1.00  0.00    -0.326 N 
ATOM     13  C   UNL A   1      31.783  24.343  26.785  1.00  0.00     0.315 C 
ATOM     14  H   UNL A   1      30.546  25.805  27.018  1.00  0.00     0.166 HD
ATOM     15  O   UNL A   1      30.884  23.571  27.135  1.00  0.00    -0.249 OA
ATOM     16  N   UNL A   1      32.973  23.808  26.526  1.00  0.00    -0.334 N 
ATOM     17  H   UNL A   1      33.071  22.902  26.897  1.00  0.00     0.165 HD
BRANCH  16  18
ATOM     18  C   UNL A   1      34.158  24.254  25.823  1.00  0.00     0.153 C 
BRANCH  18  19
ATOM     19  C   UNL A   1      35.126  23.138  25.537  1.00  0.00    -0.029 A 
ATOM     20  C   UNL A   1      34.650  21.869  25.186  1.00  0.00     0.006 A 
ATOM     21  C   UNL A   1      36.511  23.347  25.597  1.00  0.00     0.006 A 
ATOM     22  C   UNL A   1      35.542  20.819  24.954  1.00  0.00     0.004 A 
ATOM     23  C   UNL A   1      37.400  22.298  25.374  1.00  0.00     0.004 A 
ATOM     24  C   UNL A   1      36.922  21.025  25.061  1.00  0.00    -0.051 A 
ATOM     25  C   UNL A   1      37.872  19.884  24.848  1.00  0.00     0.044 C 
ENDBRANCH  18  19
ENDBRANCH  16  18
ENDBRANCH   7  12
ENDBRANCH   4   7
ENDBRANCH   2   3
ENDBRANCH   1   2
BRANCH   1  26
ATOM     26  C   UNL A   1      34.212  31.495  28.261  1.00  0.00     0.023 C 
BRANCH  26  27
ATOM     27  C   UNL A   1      34.034  32.895  27.708  1.00  0.00     0.116 C 
BRANCH  27  28
ATOM     28  N   UNL A   1      33.415  33.846  28.614  1.00  0.00    -0.352 N 
ATOM     29  C   UNL A   1      33.819  34.289  29.865  1.00  0.00     0.251 C 
ATOM     30  H   UNL A   1      32.573  34.239  28.289  1.00  0.00     0.163 HD
ATOM     31  O   UNL A   1      33.073  35.006  30.512  1.00  0.00    -0.269 OA
BRANCH  29  32
ATOM     32  C   UNL A   1      35.201  34.028  30.361  1.00  0.00     0.039 A 
ATOM     33  C   UNL A   1      36.282  34.354  29.523  1.00  0.00     0.014 A 
ATOM     34  C   UNL A   1      35.441  33.302  31.518  1.00  0.00     0.014 A 
ATOM     35  C   UNL A   1      37.522  33.743  29.715  1.00  0.00     0.010 A 
ATOM     36  C   UNL A   1      36.600  32.573  31.617  1.00  0.00     0.010 A 
ATOM     37  C   UNL A   1      37.632  32.767  30.696  1.00  0.00    -0.014 A 
BRANCH  37  38
ATOM     38  C   UNL A   1      38.750  31.857  30.874  1.00  0.00     0.031 A 
ATOM     39  C   UNL A   1      38.701  30.519  30.254  1.00  0.00     0.074 A 
ATOM     40  C   UNL A   1      39.914  32.348  31.350  1.00  0.00     0.049 A 
ATOM     41  N   UNL A   1      39.567  29.593  30.475  1.00  0.00    -0.248 NA
ATOM     42  C   UNL A   1      37.635  30.099  29.349  1.00  0.00     0.031 C 
ATOM     43  C   UNL A   1      41.258  31.815  31.147  1.00  0.00     0.029 A 
ATOM     44  N   UNL A   1      40.084  33.354  32.301  1.00  0.00    -0.354 N 
ATOM     45  C   UNL A   1      39.369  28.610  29.537  1.00  0.00     0.074 A 
ATOM     46  C   UNL A   1      38.101  28.921  28.925  1.00  0.00     0.031 C 
ATOM     47  C   UNL A   1      42.071  32.313  32.092  1.00  0.00     0.029 A 
ATOM     48  C   UNL A   1      41.234  33.019  33.045  1.00  0.00     0.049 A 
ATOM     49  H   UNL A   1      39.510  34.144  32.428  1.00  0.00     0.167 HD
ATOM     50  C   UNL A   1      40.370  27.718  29.304  1.00  0.00     0.031 A 
ATOM     51  C   UNL A   1      41.130  32.695  34.370  1.00  0.00     0.031 A 
ATOM     52  C   UNL A   1      41.491  27.909  30.223  1.00  0.00     0.049 A 
ATOM     53  C   UNL A   1      41.558  31.279  34.718  1.00  0.00     0.074 A 
ATOM     54  C   UNL A   1      42.766  28.439  30.108  1.00  0.00     0.029 A 
ATOM     55  N   UNL A   1      41.255  27.778  31.579  1.00  0.00    -0.354 N 
ATOM     56  N   UNL A   1      41.882  30.370  33.841  1.00  0.00    -0.248 NA
ATOM     57  C   UNL A   1      41.557  30.748  36.081  1.00  0.00     0.031 C 
ATOM     58  C   UNL A   1      43.301  28.594  31.421  1.00  0.00     0.029 A 
ATOM     59  C   UNL A   1      42.357  28.141  32.322  1.00  0.00     0.049 A 
ATOM     60  H   UNL A   1      40.405  27.465  31.966  1.00  0.00     0.167 HD
ATOM     61  C   UNL A   1      42.051  29.163  34.466  1.00  0.00     0.074 A 
ATOM     62  C   UNL A   1      41.849  29.451  35.873  1.00  0.00     0.031 C 
ATOM     63  C   UNL A   1      42.284  28.013  33.767  1.00  0.00     0.031 A 
BRANCH  50  64
ATOM     64  C   UNL A   1      40.435  26.779  28.124  1.00  0.00    -0.014 A 
ATOM     65  C   UNL A   1      39.699  25.579  28.163  1.00  0.00     0.009 A 
ATOM     66  C   UNL A   1      41.208  26.983  26.970  1.00  0.00     0.009 A 
ATOM     67  C   UNL A   1      39.790  24.614  27.152  1.00  0.00     0.001 A 
ATOM     68  C   UNL A   1      41.324  26.014  25.964  1.00  0.00     0.001 A 
ATOM     69  C   UNL A   1      40.621  24.823  26.059  1.00  0.00     0.000 A 
ENDBRANCH  50  64
BRANCH  51  70
ATOM     70  C   UNL A   1      40.022  33.431  35.048  1.00  0.00    -0.014 A 
ATOM     71  C   UNL A   1      38.744  32.836  35.071  1.00  0.00     0.009 A 
ATOM     72  C   UNL A   1      40.316  34.431  35.988  1.00  0.00     0.009 A 
ATOM     73  C   UNL A   1      37.837  33.138  36.091  1.00  0.00     0.001 A 
ATOM     74  C   UNL A   1      39.396  34.740  36.997  1.00  0.00     0.001 A 
ATOM     75  C   UNL A   1      38.178  34.065  37.072  1.00  0.00     0.000 A 
ENDBRANCH  51  70
BRANCH  63  76
ATOM     76  C   UNL A   1      42.405  26.635  34.369  1.00  0.00    -0.014 A 
ATOM     77  C   UNL A   1      41.497  26.114  35.296  1.00  0.00     0.009 A 
ATOM     78  C   UNL A   1      43.545  25.847  34.087  1.00  0.00     0.009 A 
ATOM     79  C   UNL A   1      41.691  24.845  35.864  1.00  0.00     0.001 A 
ATOM     80  C   UNL A   1      43.753  24.594  34.663  1.00  0.00     0.001 A 
ATOM     81  C   UNL A   1      42.815  24.086  35.547  1.00  0.00     0.000 A 
ENDBRANCH  63  76
ENDBRANCH  37  38
ENDBRANCH  29  32
ENDBRANCH  27  28
ENDBRANCH  26  27
ENDBRANCH   1  26
TORSDOF 16
ENDMDL
MODEL 3
REMARK VINA RESULT:     -11.5      3.312      8.409
REMARK SMILES CC[C@@H](C)[C@H](NC(=O)NCc1ccc(C)cc1)C(=O)NCCCCNC(=O)c1ccc(-c2c3nc(c(-c4ccccc4)c4ccc([nH]4)c(-c4ccccc4)c4nc(c(-c5ccccc5)c5ccc2[nH]5)C=C4)C=C3)cc1
REMARK SMILES IDX 22 1 21 2 20 3 18 4 19 5 5 7 3 8 4 9 2 10 1 11 6 12 7 13
REMARK SMILES IDX 8 15 9 16 10 18 11 19 12 20 17 21 13 22 16 23 14 24 15 25
REMARK SMILES IDX 23 26 24 27 25 28 26 29 27 31 28 32 29 33 75 34 30 35 74 36
REMARK SMILES IDX 31 37 32 38 33 39 68 40 34 41 73 42 67 43 69 44 35 45 72 46
REMARK SMILES IDX 66 47 65 48 36 50 58 51 43 52 57 53 44 54 47 55 56 56 70 57
REMARK SMILES IDX 45 58 46 59 55 61 71 62 48 63 37 64 38 65 42 66 39 67 41 68
REMARK SMILES IDX 40 69 59 70 60 71 64 72 61 73 63 74 62 75 49 76 50 77 54 78
REMARK SMILES IDX 51 79 53 80 52 81
REMARK H PARENT 20 6 6 14 9 17 25 30 69 49 47 60
REMARK Flexibility Score: inf
ROOT
ATOM      1  C   UNL A   1      36.158  20.713  24.881  1.00  0.00     0.023 C 
ENDROOT
BRANCH   1   2
ATOM      2  C   UNL A   1      35.214  21.104  26.020  1.00  0.00     0.116 C 
BRANCH   2   3
ATOM      3  N   UNL A   1      33.887  20.531  25.939  1.00  0.00    -0.354 N 
ATOM      4  C   UNL A   1      32.724  21.061  25.472  1.00  0.00     0.242 C 
ATOM      5  O   UNL A   1      31.800  20.261  25.275  1.00  0.00    -0.273 OA
ATOM      6  H   UNL A   1      33.813  19.610  26.278  1.00  0.00     0.163 HD
BRANCH   4   7
ATOM      7  C   UNL A   1      32.569  22.548  25.074  1.00  0.00     0.175 C 
BRANCH   7   8
ATOM      8  C   UNL A   1      31.069  23.048  25.252  1.00  0.00     0.018 C 
ATOM      9  C   UNL A   1      30.685  24.169  24.271  1.00  0.00     0.010 C 
BRANCH   8  10
ATOM     10  C   UNL A   1      30.622  23.339  26.717  1.00  0.00     0.002 C 
ATOM     11  C   UNL A   1      29.365  22.636  27.214  1.00  0.00     0.004 C 
ENDBRANCH   8  10
ENDBRANCH   7   8
BRANCH   7  12
ATOM     12  N   UNL A   1      33.129  22.854  23.753  1.00  0.00    -0.326 N 
ATOM     13  C   UNL A   1      34.009  23.726  23.264  1.00  0.00     0.315 C 
ATOM     14  H   UNL A   1      32.762  22.269  23.052  1.00  0.00     0.166 HD
ATOM     15  O   UNL A   1      34.228  23.671  22.050  1.00  0.00    -0.249 OA
ATOM     16  N   UNL A   1      34.708  24.613  23.966  1.00  0.00    -0.334 N 
ATOM     17  H   UNL A   1      35.504  24.936  23.484  1.00  0.00     0.165 HD
BRANCH  16  18
ATOM     18  C   UNL A   1      34.568  25.214  25.276  1.00  0.00     0.153 C 
BRANCH  18  19
ATOM     19  C   UNL A   1      33.732  26.464  25.262  1.00  0.00    -0.029 A 
ATOM     20  C   UNL A   1      32.816  26.708  26.292  1.00  0.00     0.006 A 
ATOM     21  C   UNL A   1      33.865  27.413  24.238  1.00  0.00     0.006 A 
ATOM     22  C   UNL A   1      32.011  27.849  26.266  1.00  0.00     0.004 A 
ATOM     23  C   UNL A   1      33.057  28.547  24.208  1.00  0.00     0.004 A 
ATOM     24  C   UNL A   1      32.117  28.769  25.216  1.00  0.00    -0.051 A 
ATOM     25  C   UNL A   1      31.224  29.972  25.175  1.00  0.00     0.044 C 
ENDBRANCH  18  19
ENDBRANCH  16  18
ENDBRANCH   7  12
ENDBRANCH   4   7
ENDBRANCH   2   3
ENDBRANCH   1   2
BRANCH   1  26
ATOM     26  C   UNL A   1      37.320  21.666  24.615  1.00  0.00     0.023 C 
BRANCH  26  27
ATOM     27  C   UNL A   1      37.708  22.503  25.817  1.00  0.00     0.116 C 
BRANCH  27  28
ATOM     28  N   UNL A   1      39.006  22.198  26.392  1.00  0.00    -0.352 N 
ATOM     29  C   UNL A   1      39.995  23.042  26.878  1.00  0.00     0.251 C 
ATOM     30  H   UNL A   1      39.220  21.238  26.446  1.00  0.00     0.163 HD
ATOM     31  O   UNL A   1      41.072  22.570  27.204  1.00  0.00    -0.269 OA
BRANCH  29  32
ATOM     32  C   UNL A   1      39.710  24.481  27.146  1.00  0.00     0.039 A 
ATOM     33  C   UNL A   1      40.291  25.443  26.301  1.00  0.00     0.014 A 
ATOM     34  C   UNL A   1      39.066  24.899  28.300  1.00  0.00     0.014 A 
ATOM     35  C   UNL A   1      40.441  26.759  26.743  1.00  0.00     0.010 A 
ATOM     36  C   UNL A   1      39.354  26.141  28.810  1.00  0.00     0.010 A 
ATOM     37  C   UNL A   1      40.071  27.064  28.046  1.00  0.00    -0.014 A 
BRANCH  37  38
ATOM     38  C   UNL A   1      40.379  28.292  28.756  1.00  0.00     0.031 A 
ATOM     39  C   UNL A   1      39.329  29.315  28.922  1.00  0.00     0.074 A 
ATOM     40  C   UNL A   1      41.512  28.351  29.488  1.00  0.00     0.049 A 
ATOM     41  N   UNL A   1      39.540  30.491  29.400  1.00  0.00    -0.248 NA
ATOM     42  C   UNL A   1      37.940  29.104  28.522  1.00  0.00     0.031 C 
ATOM     43  C   UNL A   1      41.787  29.204  30.640  1.00  0.00     0.029 A 
ATOM     44  N   UNL A   1      42.740  27.760  29.196  1.00  0.00    -0.354 N 
ATOM     45  C   UNL A   1      38.317  31.056  29.664  1.00  0.00     0.074 A 
ATOM     46  C   UNL A   1      37.357  30.200  29.013  1.00  0.00     0.031 C 
ATOM     47  C   UNL A   1      43.117  29.276  30.820  1.00  0.00     0.029 A 
ATOM     48  C   UNL A   1      43.737  28.637  29.673  1.00  0.00     0.049 A 
ATOM     49  H   UNL A   1      42.884  26.897  28.742  1.00  0.00     0.167 HD
ATOM     50  C   UNL A   1      38.257  32.117  30.515  1.00  0.00     0.031 A 
ATOM     51  C   UNL A   1      44.578  29.269  28.799  1.00  0.00     0.031 A 
ATOM     52  C   UNL A   1      39.589  32.557  30.927  1.00  0.00     0.049 A 
ATOM     53  C   UNL A   1      44.475  30.785  28.795  1.00  0.00     0.074 A 
ATOM     54  C   UNL A   1      40.335  32.450  32.090  1.00  0.00     0.029 A 
ATOM     55  N   UNL A   1      40.470  32.981  29.949  1.00  0.00    -0.354 N 
ATOM     56  N   UNL A   1      43.582  31.466  29.458  1.00  0.00    -0.248 NA
ATOM     57  C   UNL A   1      45.312  31.648  27.960  1.00  0.00     0.031 C 
ATOM     58  C   UNL A   1      41.672  32.847  31.796  1.00  0.00     0.029 A 
ATOM     59  C   UNL A   1      41.727  33.210  30.464  1.00  0.00     0.049 A 
ATOM     60  H   UNL A   1      40.229  33.103  29.001  1.00  0.00     0.167 HD
ATOM     61  C   UNL A   1      43.654  32.788  29.108  1.00  0.00     0.074 A 
ATOM     62  C   UNL A   1      44.762  32.856  28.174  1.00  0.00     0.031 C 
ATOM     63  C   UNL A   1      42.757  33.708  29.569  1.00  0.00     0.031 A 
BRANCH  50  64
ATOM     64  C   UNL A   1      36.992  32.658  31.136  1.00  0.00    -0.014 A 
ATOM     65  C   UNL A   1      36.635  32.243  32.433  1.00  0.00     0.009 A 
ATOM     66  C   UNL A   1      36.097  33.540  30.509  1.00  0.00     0.009 A 
ATOM     67  C   UNL A   1      35.427  32.622  33.032  1.00  0.00     0.001 A 
ATOM     68  C   UNL A   1      34.875  33.907  31.091  1.00  0.00     0.001 A 
ATOM     69  C   UNL A   1      34.536  33.440  32.352  1.00  0.00     0.000 A 
ENDBRANCH  50  64
BRANCH  51  70
ATOM     70  C   UNL A   1      44.866  28.440  27.592  1.00  0.00    -0.014 A 
ATOM     71  C   UNL A   1      45.706  27.317  27.739  1.00  0.00     0.009 A 
ATOM     72  C   UNL A   1      44.013  28.500  26.479  1.00  0.00     0.009 A 
ATOM     73  C   UNL A   1      45.595  26.227  26.872  1.00  0.00     0.001 A 
ATOM     74  C   UNL A   1      43.918  27.410  25.606  1.00  0.00     0.001 A 
ATOM     75  C   UNL A   1      44.676  26.261  25.827  1.00  0.00     0.000 A 
ENDBRANCH  51  70
BRANCH  63  76
ATOM     76  C   UNL A   1      42.716  35.163  29.173  1.00  0.00    -0.014 A 
ATOM     77  C   UNL A   1      42.000  35.647  28.074  1.00  0.00     0.009 A 
ATOM     78  C   UNL A   1      43.526  36.096  29.862  1.00  0.00     0.009 A 
ATOM     79  C   UNL A   1      42.045  37.004  27.722  1.00  0.00     0.001 A 
ATOM     80  C   UNL A   1      43.590  37.443  29.504  1.00  0.00     0.001 A 
ATOM     81  C   UNL A   1      42.836  37.900  28.436  1.00  0.00     0.000 A 
ENDBRANCH  63  76
ENDBRANCH  37  38
ENDBRANCH  29  32
ENDBRANCH  27  28
ENDBRANCH  26  27
ENDBRANCH   1  26
TORSDOF 16
ENDMDL
