MODEL 1
REMARK VINA RESULT:     -14.4      0.000      0.000
REMARK SMILES Cc1cc(/C=C2/C(=O)NC(=S)[NH+]=C2NCCCCNC(=O)c2ccc(-c3c4nc(c(-c5ccccc5)c5ccc([nH]5)c(-c5ccccc5)c5nc(c(-c6ccccc6)c6ccc3[nH]6)C=C5)C=C4)cc2)c(C)n1-c1cccc(C(=O)[O-])c1
REMARK SMILES IDX 16 1 15 2 14 3 5 4 6 5 7 6 13 7 8 8 9 9 12 10 10 11 11 15
REMARK SMILES IDX 4 16 1 17 2 18 3 19 72 20 70 21 71 22 73 23 74 24 81 25
REMARK SMILES IDX 75 26 77 27 76 28 78 29 79 30 80 31 17 32 18 33 19 34 20 35
REMARK SMILES IDX 21 37 22 38 23 39 69 40 24 41 68 42 25 43 26 44 27 45 62 46
REMARK SMILES IDX 28 47 67 48 61 49 63 50 29 51 66 52 60 53 59 54 30 56 52 57
REMARK SMILES IDX 37 58 51 59 38 60 41 61 50 62 64 63 39 64 40 65 49 67 65 68
REMARK SMILES IDX 42 69 31 70 32 71 36 72 33 73 35 74 34 75 53 76 54 77 58 78
REMARK SMILES IDX 55 79 57 80 56 81 43 82 44 83 48 84 45 85 47 86 46 87
REMARK H PARENT 9 12 12 13 14 14 19 36 63 55 41 66
REMARK Flexibility Score: inf
ROOT
ATOM      1  C   UNL A   1      30.726  26.370  26.671  1.00  0.00     0.039 C 
ENDROOT
BRANCH   1   2
ATOM      2  C   UNL A   1      30.453  25.432  25.482  1.00  0.00     0.194 C 
BRANCH   2   3
ATOM      3  N   UNL A   1      29.989  25.916  24.194  1.00  0.00    -0.305 N 
ATOM      4  C   UNL A   1      33.135  26.080  23.489  1.00  0.00     0.032 C 
ATOM      5  C   UNL A   1      32.194  27.052  23.461  1.00  0.00     0.128 C 
ATOM      6  C   UNL A   1      32.713  28.429  23.271  1.00  0.00     0.319 C 
ATOM      7  C   UNL A   1      30.688  26.930  23.527  1.00  0.00     0.234 C 
ATOM      8  O   UNL A   1      33.851  28.782  23.556  1.00  0.00    -0.250 OA
ATOM      9  N   UNL A   1      31.812  29.283  22.708  1.00  0.00    -0.229 N 
ATOM     10  N   UNL A   1      29.941  27.858  22.984  1.00  0.00    -0.236 N 
ATOM     11  C   UNL A   1      30.497  28.997  22.453  1.00  0.00     0.295 C 
ATOM     12  H   UNL A   1      32.133  30.181  22.466  1.00  0.00     0.268 HD
ATOM     13  H   UNL A   1      28.964  27.739  22.957  1.00  0.00     0.268 HD
ATOM     14  H   UNL A   1      29.180  25.531  23.788  1.00  0.00     0.256 HD
ATOM     15  S   UNL A   1      29.631  30.143  21.583  1.00  0.00    -0.005 S 
BRANCH   4  16
ATOM     16  C   UNL A   1      32.961  24.663  23.587  1.00  0.00    -0.003 A 
ATOM     17  C   UNL A   1      32.080  21.341  22.216  1.00  0.00     0.065 C 
ATOM     18  C   UNL A   1      32.587  22.519  22.982  1.00  0.00     0.020 A 
ATOM     19  C   UNL A   1      32.376  23.840  22.613  1.00  0.00     0.031 A 
ATOM     20  N   UNL A   1      33.300  22.514  24.193  1.00  0.00    -0.318 N 
ATOM     21  C   UNL A   1      33.319  23.852  24.647  1.00  0.00     0.027 A 
ATOM     22  C   UNL A   1      33.810  24.328  25.973  1.00  0.00     0.065 C 
BRANCH  20  23
ATOM     23  C   UNL A   1      34.138  21.463  24.751  1.00  0.00     0.046 A 
ATOM     24  C   UNL A   1      35.925  21.785  24.856  1.00  0.00     0.026 A 
ATOM     25  C   UNL A   1      33.551  19.760  24.628  1.00  0.00     0.036 A 
ATOM     26  C   UNL A   1      37.110  20.410  24.711  1.00  0.00     0.003 A 
ATOM     27  C   UNL A   1      34.723  18.381  24.656  1.00  0.00    -0.001 A 
ATOM     28  C   UNL A   1      36.496  18.687  24.682  1.00  0.00     0.010 A 
BRANCH  27  29
ATOM     29  C   UNL A   1      34.260  16.978  24.576  1.00  0.00     0.072 C 
ATOM     30  O   UNL A   1      34.076  16.236  25.521  1.00  0.00    -0.545 OA
ATOM     31  O   UNL A   1      34.143  16.554  23.305  1.00  0.00    -0.545 OA
ENDBRANCH  27  29
ENDBRANCH  20  23
ENDBRANCH   4  16
ENDBRANCH   2   3
ENDBRANCH   1   2
BRANCH   1  32
ATOM     32  C   UNL A   1      31.932  27.294  26.938  1.00  0.00     0.024 C 
BRANCH  32  33
ATOM     33  C   UNL A   1      31.817  28.980  26.847  1.00  0.00     0.116 C 
BRANCH  33  34
ATOM     34  N   UNL A   1      32.887  30.648  27.491  1.00  0.00    -0.352 N 
ATOM     35  C   UNL A   1      34.293  31.178  27.989  1.00  0.00     0.251 C 
ATOM     36  H   UNL A   1      32.270  31.415  27.483  1.00  0.00     0.163 HD
ATOM     37  O   UNL A   1      34.333  32.401  28.180  1.00  0.00    -0.269 OA
BRANCH  35  38
ATOM     38  C   UNL A   1      35.645  30.320  28.294  1.00  0.00     0.039 A 
ATOM     39  C   UNL A   1      36.659  30.264  27.344  1.00  0.00     0.014 A 
ATOM     40  C   UNL A   1      36.034  29.735  29.528  1.00  0.00     0.014 A 
ATOM     41  C   UNL A   1      38.038  29.937  27.707  1.00  0.00     0.010 A 
ATOM     42  C   UNL A   1      37.432  29.228  29.833  1.00  0.00     0.010 A 
ATOM     43  C   UNL A   1      38.541  29.368  28.954  1.00  0.00    -0.014 A 
BRANCH  43  44
ATOM     44  C   UNL A   1      40.038  28.463  28.842  1.00  0.00     0.031 A 
ATOM     45  C   UNL A   1      40.504  28.741  30.223  1.00  0.00     0.074 A 
ATOM     46  C   UNL A   1      41.053  27.810  28.061  1.00  0.00     0.049 A 
ATOM     47  N   UNL A   1      40.614  30.013  30.446  1.00  0.00    -0.248 NA
ATOM     48  C   UNL A   1      40.344  27.936  31.432  1.00  0.00     0.031 C 
ATOM     49  C   UNL A   1      41.151  27.635  26.590  1.00  0.00     0.029 A 
ATOM     50  N   UNL A   1      42.327  27.140  28.399  1.00  0.00    -0.354 N 
ATOM     51  C   UNL A   1      40.736  30.225  31.787  1.00  0.00     0.074 A 
ATOM     52  C   UNL A   1      40.411  28.913  32.358  1.00  0.00     0.031 C 
ATOM     53  C   UNL A   1      42.202  26.835  26.197  1.00  0.00     0.029 A 
ATOM     54  C   UNL A   1      43.035  26.395  27.326  1.00  0.00     0.049 A 
ATOM     55  H   UNL A   1      42.696  27.188  29.310  1.00  0.00     0.167 HD
ATOM     56  C   UNL A   1      41.771  31.078  32.034  1.00  0.00     0.031 A 
ATOM     57  C   UNL A   1      44.230  25.611  27.315  1.00  0.00     0.031 A 
ATOM     58  C   UNL A   1      42.997  30.311  32.063  1.00  0.00     0.049 A 
ATOM     59  C   UNL A   1      45.065  26.255  28.326  1.00  0.00     0.074 A 
ATOM     60  C   UNL A   1      43.284  29.088  32.647  1.00  0.00     0.029 A 
ATOM     61  N   UNL A   1      43.861  30.459  31.000  1.00  0.00    -0.354 N 
ATOM     62  N   UNL A   1      45.690  27.364  28.078  1.00  0.00    -0.248 NA
ATOM     63  C   UNL A   1      45.300  25.657  29.630  1.00  0.00     0.031 C 
ATOM     64  C   UNL A   1      43.866  28.347  31.603  1.00  0.00     0.029 A 
ATOM     65  C   UNL A   1      44.425  29.239  30.702  1.00  0.00     0.049 A 
ATOM     66  H   UNL A   1      44.046  31.303  30.527  1.00  0.00     0.167 HD
ATOM     67  C   UNL A   1      45.798  27.879  29.329  1.00  0.00     0.074 A 
ATOM     68  C   UNL A   1      45.821  26.730  30.227  1.00  0.00     0.031 C 
ATOM     69  C   UNL A   1      45.226  29.092  29.521  1.00  0.00     0.031 A 
BRANCH  56  70
ATOM     70  C   UNL A   1      41.608  32.392  31.257  1.00  0.00    -0.014 A 
ATOM     71  C   UNL A   1      40.367  33.027  31.251  1.00  0.00     0.009 A 
ATOM     72  C   UNL A   1      42.610  32.924  30.400  1.00  0.00     0.009 A 
ATOM     73  C   UNL A   1      40.121  34.101  30.380  1.00  0.00     0.001 A 
ATOM     74  C   UNL A   1      42.349  33.947  29.489  1.00  0.00     0.001 A 
ATOM     75  C   UNL A   1      41.097  34.537  29.479  1.00  0.00     0.000 A 
ENDBRANCH  56  70
BRANCH  57  76
ATOM     76  C   UNL A   1      45.243  24.559  26.608  1.00  0.00    -0.014 A 
ATOM     77  C   UNL A   1      45.099  23.126  26.804  1.00  0.00     0.009 A 
ATOM     78  C   UNL A   1      45.936  24.860  25.422  1.00  0.00     0.009 A 
ATOM     79  C   UNL A   1      45.508  22.123  25.876  1.00  0.00     0.001 A 
ATOM     80  C   UNL A   1      46.372  23.848  24.497  1.00  0.00     0.001 A 
ATOM     81  C   UNL A   1      46.133  22.490  24.702  1.00  0.00     0.000 A 
ENDBRANCH  57  76
BRANCH  69  82
ATOM     82  C   UNL A   1      45.324  30.119  28.413  1.00  0.00    -0.014 A 
ATOM     83  C   UNL A   1      46.486  30.831  28.050  1.00  0.00     0.009 A 
ATOM     84  C   UNL A   1      44.146  30.412  27.713  1.00  0.00     0.009 A 
ATOM     85  C   UNL A   1      46.459  31.814  27.049  1.00  0.00     0.001 A 
ATOM     86  C   UNL A   1      44.124  31.363  26.690  1.00  0.00     0.001 A 
ATOM     87  C   UNL A   1      45.277  32.073  26.366  1.00  0.00     0.000 A 
ENDBRANCH  69  82
ENDBRANCH  43  44
ENDBRANCH  35  38
ENDBRANCH  33  34
ENDBRANCH  32  33
ENDBRANCH   1  32
TORSDOF 13
ENDMDL
MODEL 2
REMARK VINA RESULT:     -14.1      3.198      8.881
REMARK SMILES Cc1cc(/C=C2/C(=O)NC(=S)[NH+]=C2NCCCCNC(=O)c2ccc(-c3c4nc(c(-c5ccccc5)c5ccc([nH]5)c(-c5ccccc5)c5nc(c(-c6ccccc6)c6ccc3[nH]6)C=C5)C=C4)cc2)c(C)n1-c1cccc(C(=O)[O-])c1
REMARK SMILES IDX 16 1 15 2 14 3 5 4 6 5 7 6 13 7 8 8 9 9 12 10 10 11 11 15
REMARK SMILES IDX 4 16 1 17 2 18 3 19 72 20 70 21 71 22 73 23 74 24 81 25
REMARK SMILES IDX 75 26 77 27 76 28 78 29 79 30 80 31 17 32 18 33 19 34 20 35
REMARK SMILES IDX 21 37 22 38 23 39 69 40 24 41 68 42 25 43 26 44 27 45 62 46
REMARK SMILES IDX 28 47 67 48 61 49 63 50 29 51 66 52 60 53 59 54 30 56 52 57
REMARK SMILES IDX 37 58 51 59 38 60 41 61 50 62 64 63 39 64 40 65 49 67 65 68
REMARK SMILES IDX 42 69 31 70 32 71 36 72 33 73 35 74 34 75 53 76 54 77 58 78
REMARK SMILES IDX 55 79 57 80 56 81 43 82 44 83 48 84 45 85 47 86 46 87
REMARK H PARENT 9 12 12 13 14 14 19 36 63 55 41 66
REMARK Flexibility Score: inf
ROOT
ATOM      1  C   UNL A   1      34.772  23.392  22.603  1.00  0.00     0.039 C 
ENDROOT
BRANCH   1   2
ATOM      2  C   UNL A   1      33.240  23.520  22.682  1.00  0.00     0.194 C 
BRANCH   2   3
ATOM      3  N   UNL A   1      32.387  22.433  23.126  1.00  0.00    -0.305 N 
ATOM      4  C   UNL A   1      32.644  23.843  26.017  1.00  0.00     0.032 C 
ATOM      5  C   UNL A   1      32.955  22.580  25.644  1.00  0.00     0.128 C 
ATOM      6  C   UNL A   1      33.702  21.788  26.653  1.00  0.00     0.319 C 
ATOM      7  C   UNL A   1      32.591  21.839  24.377  1.00  0.00     0.234 C 
ATOM      8  O   UNL A   1      34.389  22.277  27.542  1.00  0.00    -0.250 OA
ATOM      9  N   UNL A   1      33.530  20.442  26.530  1.00  0.00    -0.229 N 
ATOM     10  N   UNL A   1      32.514  20.531  24.393  1.00  0.00    -0.236 N 
ATOM     11  C   UNL A   1      32.864  19.813  25.512  1.00  0.00     0.295 C 
ATOM     12  H   UNL A   1      33.919  19.873  27.232  1.00  0.00     0.268 HD
ATOM     13  H   UNL A   1      32.200  20.055  23.591  1.00  0.00     0.268 HD
ATOM     14  H   UNL A   1      31.661  22.111  22.544  1.00  0.00     0.256 HD
ATOM     15  S   UNL A   1      32.622  18.159  25.675  1.00  0.00    -0.005 S 
BRANCH   4  16
ATOM     16  C   UNL A   1      31.882  24.828  25.312  1.00  0.00    -0.003 A 
ATOM     17  C   UNL A   1      28.713  26.321  24.122  1.00  0.00     0.065 C 
ATOM     18  C   UNL A   1      30.107  25.999  24.550  1.00  0.00     0.020 A 
ATOM     19  C   UNL A   1      30.502  24.771  25.063  1.00  0.00     0.031 A 
ATOM     20  N   UNL A   1      31.242  26.823  24.471  1.00  0.00    -0.318 N 
ATOM     21  C   UNL A   1      32.354  25.994  24.741  1.00  0.00     0.027 A 
ATOM     22  C   UNL A   1      33.791  26.372  24.608  1.00  0.00     0.065 C 
BRANCH  20  23
ATOM     23  C   UNL A   1      31.311  28.277  24.443  1.00  0.00     0.046 A 
ATOM     24  C   UNL A   1      32.125  29.103  25.843  1.00  0.00     0.026 A 
ATOM     25  C   UNL A   1      30.049  29.164  23.503  1.00  0.00     0.036 A 
ATOM     26  C   UNL A   1      31.582  30.760  26.367  1.00  0.00     0.003 A 
ATOM     27  C   UNL A   1      29.630  30.875  23.919  1.00  0.00    -0.001 A 
ATOM     28  C   UNL A   1      30.372  31.679  25.347  1.00  0.00     0.010 A 
BRANCH  27  29
ATOM     29  C   UNL A   1      28.613  31.624  23.148  1.00  0.00     0.072 C 
ATOM     30  O   UNL A   1      28.842  32.445  22.280  1.00  0.00    -0.545 OA
ATOM     31  O   UNL A   1      27.364  31.371  23.576  1.00  0.00    -0.545 OA
ENDBRANCH  27  29
ENDBRANCH  20  23
ENDBRANCH   4  16
ENDBRANCH   2   3
ENDBRANCH   1   2
BRANCH   1  32
ATOM     32  C   UNL A   1      35.819  23.398  23.735  1.00  0.00     0.024 C 
BRANCH  32  33
ATOM     33  C   UNL A   1      36.615  21.992  24.239  1.00  0.00     0.116 C 
BRANCH  33  34
ATOM     34  N   UNL A   1      38.421  21.464  25.134  1.00  0.00    -0.352 N 
ATOM     35  C   UNL A   1      39.569  21.930  26.120  1.00  0.00     0.251 C 
ATOM     36  H   UNL A   1      38.654  20.562  24.817  1.00  0.00     0.163 HD
ATOM     37  O   UNL A   1      40.435  21.070  26.329  1.00  0.00    -0.269 OA
BRANCH  35  38
ATOM     38  C   UNL A   1      39.748  23.378  26.848  1.00  0.00     0.039 A 
ATOM     39  C   UNL A   1      38.653  24.224  26.986  1.00  0.00     0.014 A 
ATOM     40  C   UNL A   1      40.883  23.849  27.559  1.00  0.00     0.014 A 
ATOM     41  C   UNL A   1      38.615  25.276  28.001  1.00  0.00     0.010 A 
ATOM     42  C   UNL A   1      40.878  25.060  28.475  1.00  0.00     0.010 A 
ATOM     43  C   UNL A   1      39.712  25.805  28.805  1.00  0.00    -0.014 A 
BRANCH  43  44
ATOM     44  C   UNL A   1      39.528  27.453  29.376  1.00  0.00     0.031 A 
ATOM     45  C   UNL A   1      40.740  27.995  28.713  1.00  0.00     0.074 A 
ATOM     46  C   UNL A   1      38.940  28.410  30.272  1.00  0.00     0.049 A 
ATOM     47  N   UNL A   1      41.812  27.371  29.088  1.00  0.00    -0.248 NA
ATOM     48  C   UNL A   1      40.864  28.670  27.424  1.00  0.00     0.031 C 
ATOM     49  C   UNL A   1      37.942  28.209  31.353  1.00  0.00     0.029 A 
ATOM     50  N   UNL A   1      39.121  29.863  30.475  1.00  0.00    -0.354 N 
ATOM     51  C   UNL A   1      42.832  27.682  28.240  1.00  0.00     0.074 A 
ATOM     52  C   UNL A   1      42.147  28.373  27.141  1.00  0.00     0.031 C 
ATOM     53  C   UNL A   1      37.502  29.383  31.925  1.00  0.00     0.029 A 
ATOM     54  C   UNL A   1      38.181  30.570  31.382  1.00  0.00     0.049 A 
ATOM     55  H   UNL A   1      39.847  30.350  30.020  1.00  0.00     0.167 HD
ATOM     56  C   UNL A   1      43.948  28.015  28.951  1.00  0.00     0.031 A 
ATOM     57  C   UNL A   1      38.039  31.941  31.758  1.00  0.00     0.031 A 
ATOM     58  C   UNL A   1      43.853  29.411  29.319  1.00  0.00     0.049 A 
ATOM     59  C   UNL A   1      39.408  32.447  31.712  1.00  0.00     0.074 A 
ATOM     60  C   UNL A   1      43.452  30.514  28.583  1.00  0.00     0.029 A 
ATOM     61  N   UNL A   1      43.602  29.700  30.643  1.00  0.00    -0.354 N 
ATOM     62  N   UNL A   1      40.255  32.188  32.660  1.00  0.00    -0.248 NA
ATOM     63  C   UNL A   1      39.875  33.321  30.648  1.00  0.00     0.031 C 
ATOM     64  C   UNL A   1      42.488  31.130  29.402  1.00  0.00     0.029 A 
ATOM     65  C   UNL A   1      42.756  30.783  30.717  1.00  0.00     0.049 A 
ATOM     66  H   UNL A   1      43.969  29.210  31.415  1.00  0.00     0.167 HD
ATOM     67  C   UNL A   1      41.429  32.284  31.984  1.00  0.00     0.074 A 
ATOM     68  C   UNL A   1      41.181  33.224  30.898  1.00  0.00     0.031 C 
ATOM     69  C   UNL A   1      42.202  31.171  31.982  1.00  0.00     0.031 A 
BRANCH  56  70
ATOM     70  C   UNL A   1      44.337  26.901  29.932  1.00  0.00    -0.014 A 
ATOM     71  C   UNL A   1      44.548  25.612  29.446  1.00  0.00     0.009 A 
ATOM     72  C   UNL A   1      44.336  27.066  31.345  1.00  0.00     0.009 A 
ATOM     73  C   UNL A   1      44.685  24.531  30.332  1.00  0.00     0.001 A 
ATOM     74  C   UNL A   1      44.409  25.987  32.224  1.00  0.00     0.001 A 
ATOM     75  C   UNL A   1      44.583  24.713  31.714  1.00  0.00     0.000 A 
ENDBRANCH  56  70
BRANCH  57  76
ATOM     76  C   UNL A   1      37.215  33.157  32.446  1.00  0.00    -0.014 A 
ATOM     77  C   UNL A   1      36.240  33.929  31.694  1.00  0.00     0.009 A 
ATOM     78  C   UNL A   1      36.976  33.216  33.831  1.00  0.00     0.009 A 
ATOM     79  C   UNL A   1      35.108  34.593  32.252  1.00  0.00     0.001 A 
ATOM     80  C   UNL A   1      35.848  33.907  34.398  1.00  0.00     0.001 A 
ATOM     81  C   UNL A   1      34.899  34.565  33.616  1.00  0.00     0.000 A 
ENDBRANCH  57  76
BRANCH  69  82
ATOM     82  C   UNL A   1      42.275  30.342  33.245  1.00  0.00    -0.014 A 
ATOM     83  C   UNL A   1      41.558  29.152  33.494  1.00  0.00     0.009 A 
ATOM     84  C   UNL A   1      43.101  30.819  34.272  1.00  0.00     0.009 A 
ATOM     85  C   UNL A   1      41.644  28.490  34.727  1.00  0.00     0.001 A 
ATOM     86  C   UNL A   1      43.218  30.141  35.488  1.00  0.00     0.001 A 
ATOM     87  C   UNL A   1      42.481  28.984  35.721  1.00  0.00     0.000 A 
ENDBRANCH  69  82
ENDBRANCH  43  44
ENDBRANCH  35  38
ENDBRANCH  33  34
ENDBRANCH  32  33
ENDBRANCH   1  32
TORSDOF 13
ENDMDL
MODEL 3
REMARK VINA RESULT:     -13.1      3.554      7.648
REMARK SMILES Cc1cc(/C=C2/C(=O)NC(=S)[NH+]=C2NCCCCNC(=O)c2ccc(-c3c4nc(c(-c5ccccc5)c5ccc([nH]5)c(-c5ccccc5)c5nc(c(-c6ccccc6)c6ccc3[nH]6)C=C5)C=C4)cc2)c(C)n1-c1cccc(C(=O)[O-])c1
REMARK SMILES IDX 16 1 15 2 14 3 5 4 6 5 7 6 13 7 8 8 9 9 12 10 10 11 11 15
REMARK SMILES IDX 4 16 1 17 2 18 3 19 72 20 70 21 71 22 73 23 74 24 81 25
REMARK SMILES IDX 75 26 77 27 76 28 78 29 79 30 80 31 17 32 18 33 19 34 20 35
REMARK SMILES IDX 21 37 22 38 23 39 69 40 24 41 68 42 25 43 26 44 27 45 62 46
REMARK SMILES IDX 28 47 67 48 61 49 63 50 29 51 66 52 60 53 59 54 30 56 52 57
REMARK SMILES IDX 37 58 51 59 38 60 41 61 50 62 64 63 39 64 40 65 49 67 65 68
REMARK SMILES IDX 42 69 31 70 32 71 36 72 33 73 35 74 34 75 53 76 54 77 58 78
REMARK SMILES IDX 55 79 57 80 56 81 43 82 44 83 48 84 45 85 47 86 46 87
REMARK H PARENT 9 12 12 13 14 14 19 36 63 55 41 66
REMARK Flexibility Score: inf
ROOT
ATOM      1  C   UNL A   1      35.059  23.194  22.787  1.00  0.00     0.039 C 
ENDROOT
BRANCH   1   2
ATOM      2  C   UNL A   1      33.528  23.350  22.809  1.00  0.00     0.194 C 
BRANCH   2   3
ATOM      3  N   UNL A   1      32.637  22.263  23.171  1.00  0.00    -0.305 N 
ATOM      4  C   UNL A   1      32.684  23.631  26.094  1.00  0.00     0.032 C 
ATOM      5  C   UNL A   1      33.014  22.371  25.728  1.00  0.00     0.128 C 
ATOM      6  C   UNL A   1      33.677  21.559  26.778  1.00  0.00     0.319 C 
ATOM      7  C   UNL A   1      32.742  21.650  24.426  1.00  0.00     0.234 C 
ATOM      8  O   UNL A   1      34.298  22.030  27.723  1.00  0.00    -0.250 OA
ATOM      9  N   UNL A   1      33.507  20.216  26.623  1.00  0.00    -0.229 N 
ATOM     10  N   UNL A   1      32.656  20.343  24.417  1.00  0.00    -0.236 N 
ATOM     11  C   UNL A   1      32.916  19.607  25.549  1.00  0.00     0.295 C 
ATOM     12  H   UNL A   1      33.839  19.635  27.344  1.00  0.00     0.268 HD
ATOM     13  H   UNL A   1      32.400  19.880  23.587  1.00  0.00     0.268 HD
ATOM     14  H   UNL A   1      31.955  21.955  22.532  1.00  0.00     0.256 HD
ATOM     15  S   UNL A   1      32.652  17.953  25.669  1.00  0.00    -0.005 S 
BRANCH   4  16
ATOM     16  C   UNL A   1      31.983  24.631  25.348  1.00  0.00    -0.003 A 
ATOM     17  C   UNL A   1      28.925  26.151  23.924  1.00  0.00     0.065 C 
ATOM     18  C   UNL A   1      30.278  25.819  24.462  1.00  0.00     0.020 A 
ATOM     19  C   UNL A   1      30.630  24.580  24.981  1.00  0.00     0.031 A 
ATOM     20  N   UNL A   1      31.414  26.644  24.498  1.00  0.00    -0.318 N 
ATOM     21  C   UNL A   1      32.501  25.809  24.845  1.00  0.00     0.027 A 
ATOM     22  C   UNL A   1      33.943  26.190  24.843  1.00  0.00     0.065 C 
BRANCH  20  23
ATOM     23  C   UNL A   1      31.483  28.099  24.508  1.00  0.00     0.046 A 
ATOM     24  C   UNL A   1      32.288  28.888  25.934  1.00  0.00     0.026 A 
ATOM     25  C   UNL A   1      30.227  29.009  23.583  1.00  0.00     0.036 A 
ATOM     26  C   UNL A   1      31.741  30.532  26.496  1.00  0.00     0.003 A 
ATOM     27  C   UNL A   1      29.805  30.709  24.039  1.00  0.00    -0.001 A 
ATOM     28  C   UNL A   1      30.538  31.476  25.492  1.00  0.00     0.010 A 
BRANCH  27  29
ATOM     29  C   UNL A   1      28.794  31.477  23.281  1.00  0.00     0.072 C 
ATOM     30  O   UNL A   1      27.647  31.682  23.631  1.00  0.00    -0.545 OA
ATOM     31  O   UNL A   1      29.251  31.868  22.078  1.00  0.00    -0.545 OA
ENDBRANCH  27  29
ENDBRANCH  20  23
ENDBRANCH   4  16
ENDBRANCH   2   3
ENDBRANCH   1   2
BRANCH   1  32
ATOM     32  C   UNL A   1      36.126  23.837  23.697  1.00  0.00     0.024 C 
BRANCH  32  33
ATOM     33  C   UNL A   1      36.806  23.019  25.012  1.00  0.00     0.116 C 
BRANCH  33  34
ATOM     34  N   UNL A   1      38.006  21.349  25.353  1.00  0.00    -0.352 N 
ATOM     35  C   UNL A   1      39.437  20.848  25.813  1.00  0.00     0.251 C 
ATOM     36  H   UNL A   1      37.469  20.552  25.145  1.00  0.00     0.163 HD
ATOM     37  O   UNL A   1      39.542  19.616  25.880  1.00  0.00    -0.269 OA
BRANCH  35  38
ATOM     38  C   UNL A   1      40.752  21.741  26.171  1.00  0.00     0.039 A 
ATOM     39  C   UNL A   1      41.997  21.130  26.273  1.00  0.00     0.014 A 
ATOM     40  C   UNL A   1      40.845  23.157  26.220  1.00  0.00     0.014 A 
ATOM     41  C   UNL A   1      43.242  21.884  26.120  1.00  0.00     0.010 A 
ATOM     42  C   UNL A   1      42.151  23.930  26.245  1.00  0.00     0.010 A 
ATOM     43  C   UNL A   1      43.435  23.331  26.122  1.00  0.00    -0.014 A 
BRANCH  43  44
ATOM     44  C   UNL A   1      45.018  23.898  26.620  1.00  0.00     0.031 A 
ATOM     45  C   UNL A   1      44.692  24.059  28.059  1.00  0.00     0.074 A 
ATOM     46  C   UNL A   1      46.311  24.440  26.305  1.00  0.00     0.049 A 
ATOM     47  N   UNL A   1      43.702  24.878  28.238  1.00  0.00    -0.248 NA
ATOM     48  C   UNL A   1      44.902  23.128  29.164  1.00  0.00     0.031 C 
ATOM     49  C   UNL A   1      46.900  24.782  24.986  1.00  0.00     0.029 A 
ATOM     50  N   UNL A   1      47.462  24.874  27.125  1.00  0.00    -0.354 N 
ATOM     51  C   UNL A   1      43.244  24.754  29.516  1.00  0.00     0.074 A 
ATOM     52  C   UNL A   1      43.929  23.548  29.996  1.00  0.00     0.031 C 
ATOM     53  C   UNL A   1      48.224  25.158  25.052  1.00  0.00     0.029 A 
ATOM     54  C   UNL A   1      48.733  25.207  26.431  1.00  0.00     0.049 A 
ATOM     55  H   UNL A   1      47.388  24.941  28.104  1.00  0.00     0.167 HD
ATOM     56  C   UNL A   1      43.098  25.987  30.082  1.00  0.00     0.031 A 
ATOM     57  C   UNL A   1      50.023  25.602  26.903  1.00  0.00     0.031 A 
ATOM     58  C   UNL A   1      44.381  26.404  30.602  1.00  0.00     0.049 A 
ATOM     59  C   UNL A   1      49.721  26.359  28.115  1.00  0.00     0.074 A 
ATOM     60  C   UNL A   1      45.339  25.701  31.316  1.00  0.00     0.029 A 
ATOM     61  N   UNL A   1      45.042  27.408  29.927  1.00  0.00    -0.354 N 
ATOM     62  N   UNL A   1      49.277  27.577  28.057  1.00  0.00    -0.248 NA
ATOM     63  C   UNL A   1      49.967  25.823  29.443  1.00  0.00     0.031 C 
ATOM     64  C   UNL A   1      46.528  25.937  30.601  1.00  0.00     0.029 A 
ATOM     65  C   UNL A   1      46.392  27.139  29.924  1.00  0.00     0.049 A 
ATOM     66  H   UNL A   1      44.616  28.193  29.512  1.00  0.00     0.167 HD
ATOM     67  C   UNL A   1      48.599  27.655  29.230  1.00  0.00     0.074 A 
ATOM     68  C   UNL A   1      49.265  26.724  30.132  1.00  0.00     0.031 C 
ATOM     69  C   UNL A   1      47.278  27.941  29.133  1.00  0.00     0.031 A 
BRANCH  56  70
ATOM     70  C   UNL A   1      42.192  26.887  29.231  1.00  0.00    -0.014 A 
ATOM     71  C   UNL A   1      41.006  26.364  28.717  1.00  0.00     0.009 A 
ATOM     72  C   UNL A   1      42.568  28.186  28.793  1.00  0.00     0.009 A 
ATOM     73  C   UNL A   1      40.268  27.080  27.761  1.00  0.00     0.001 A 
ATOM     74  C   UNL A   1      41.872  28.871  27.797  1.00  0.00     0.001 A 
ATOM     75  C   UNL A   1      40.716  28.313  27.278  1.00  0.00     0.000 A 
ENDBRANCH  56  70
BRANCH  57  76
ATOM     76  C   UNL A   1      51.607  25.874  26.678  1.00  0.00    -0.014 A 
ATOM     77  C   UNL A   1      52.413  24.990  25.854  1.00  0.00     0.009 A 
ATOM     78  C   UNL A   1      52.174  27.157  26.785  1.00  0.00     0.009 A 
ATOM     79  C   UNL A   1      53.589  25.374  25.142  1.00  0.00     0.001 A 
ATOM     80  C   UNL A   1      53.374  27.538  26.088  1.00  0.00     0.001 A 
ATOM     81  C   UNL A   1      54.062  26.666  25.245  1.00  0.00     0.000 A 
ENDBRANCH  57  76
BRANCH  69  82
ATOM     82  C   UNL A   1      46.832  28.940  28.086  1.00  0.00    -0.014 A 
ATOM     83  C   UNL A   1      46.322  28.624  26.809  1.00  0.00     0.009 A 
ATOM     84  C   UNL A   1      46.975  30.298  28.402  1.00  0.00     0.009 A 
ATOM     85  C   UNL A   1      45.999  29.626  25.882  1.00  0.00     0.001 A 
ATOM     86  C   UNL A   1      46.617  31.299  27.495  1.00  0.00     0.001 A 
ATOM     87  C   UNL A   1      46.141  30.964  26.232  1.00  0.00     0.000 A 
ENDBRANCH  69  82
ENDBRANCH  43  44
ENDBRANCH  35  38
ENDBRANCH  33  34
ENDBRANCH  32  33
ENDBRANCH   1  32
TORSDOF 13
ENDMDL
