MODEL 1
REMARK VINA RESULT:     -12.2      0.000      0.000
REMARK SMILES CC1=C(C(=O)NCCCCNC(=O)c2ccc(-c3c4nc(c(-c5ccccc5)c5ccc([nH]5)c(-c5ccccc5)c5nc(c(-c6ccccc6)c6ccc3[nH]6)C=C5)C=C4)cc2)[C@H](c2ccc(Cl)cc2)n2ncnc2N1
REMARK SMILES IDX 9 1 8 2 7 3 6 4 4 5 5 6 3 8 1 9 2 10 75 11 62 12 74 13 70 15
REMARK SMILES IDX 73 16 71 17 72 18 63 19 64 20 69 21 65 22 68 23 66 24 67 25
REMARK SMILES IDX 10 26 11 27 12 28 13 30 14 31 15 32 61 33 16 34 60 35 17 36
REMARK SMILES IDX 18 37 19 38 54 39 20 40 59 41 53 42 55 43 21 44 58 45 52 46
REMARK SMILES IDX 51 47 22 49 44 50 29 51 43 52 30 53 33 54 42 55 56 56 31 57
REMARK SMILES IDX 32 58 41 60 57 61 34 62 23 63 24 64 28 65 25 66 27 67 26 68
REMARK SMILES IDX 45 69 46 70 50 71 47 72 49 73 48 74 35 75 36 76 40 77 37 78
REMARK SMILES IDX 39 79 38 80
REMARK H PARENT 6 7 75 14 11 29 55 48 33 59
REMARK Flexibility Score: inf
ROOT
ATOM      1  C   UNL A   1      39.239  20.943  25.488  1.00  0.00     0.023 C 
ENDROOT
BRANCH   1   2
ATOM      2  C   UNL A   1      39.274  22.366  26.064  1.00  0.00     0.023 C 
BRANCH   2   3
ATOM      3  C   UNL A   1      37.963  23.153  25.922  1.00  0.00     0.116 C 
BRANCH   3   4
ATOM      4  N   UNL A   1      37.551  23.203  24.541  1.00  0.00    -0.352 N 
ATOM      5  C   UNL A   1      36.401  23.064  23.856  1.00  0.00     0.251 C 
ATOM      6  O   UNL A   1      36.588  23.001  22.632  1.00  0.00    -0.270 OA
ATOM      7  H   UNL A   1      38.310  23.389  23.943  1.00  0.00     0.163 HD
BRANCH   5   8
ATOM      8  C   UNL A   1      34.976  23.027  24.357  1.00  0.00     0.065 C 
ATOM      9  C   UNL A   1      33.635  24.787  23.018  1.00  0.00     0.065 C 
ATOM     10  C   UNL A   1      33.848  23.750  24.084  1.00  0.00     0.026 C 
ATOM     11  N   UNL A   1      32.731  23.646  24.922  1.00  0.00    -0.328 N 
ATOM     12  C   UNL A   1      34.883  21.962  25.513  1.00  0.00     0.179 C 
ATOM     13  C   UNL A   1      32.788  23.127  26.158  1.00  0.00     0.226 A 
ATOM     14  H   UNL A   1      31.864  23.970  24.590  1.00  0.00     0.169 HD
ATOM     15  N   UNL A   1      33.874  22.378  26.494  1.00  0.00    -0.219 N 
ATOM     16  N   UNL A   1      31.975  23.210  27.177  1.00  0.00    -0.200 NA
ATOM     17  N   UNL A   1      33.823  21.989  27.786  1.00  0.00    -0.157 NA
ATOM     18  C   UNL A   1      32.651  22.522  28.154  1.00  0.00     0.248 A 
BRANCH  12  19
ATOM     19  C   UNL A   1      34.594  20.536  24.978  1.00  0.00    -0.018 A 
ATOM     20  C   UNL A   1      33.319  20.127  24.536  1.00  0.00     0.008 A 
ATOM     21  C   UNL A   1      35.626  19.577  24.940  1.00  0.00     0.008 A 
ATOM     22  C   UNL A   1      33.085  18.824  24.083  1.00  0.00     0.021 A 
ATOM     23  C   UNL A   1      35.397  18.278  24.469  1.00  0.00     0.021 A 
ATOM     24  C   UNL A   1      34.125  17.907  24.047  1.00  0.00     0.041 A 
ATOM     25  Cl  UNL A   1      33.839  16.305  23.488  1.00  0.00    -0.084 Cl
ENDBRANCH  12  19
ENDBRANCH   5   8
ENDBRANCH   3   4
ENDBRANCH   2   3
ENDBRANCH   1   2
BRANCH   1  26
ATOM     26  C   UNL A   1      39.739  19.870  26.449  1.00  0.00     0.116 C 
BRANCH  26  27
ATOM     27  N   UNL A   1      40.946  19.193  25.975  1.00  0.00    -0.352 N 
ATOM     28  C   UNL A   1      42.178  19.763  25.710  1.00  0.00     0.251 C 
ATOM     29  H   UNL A   1      40.872  18.222  25.827  1.00  0.00     0.163 HD
ATOM     30  O   UNL A   1      42.980  19.239  24.959  1.00  0.00    -0.269 OA
BRANCH  28  31
ATOM     31  C   UNL A   1      42.510  21.018  26.404  1.00  0.00     0.039 A 
ATOM     32  C   UNL A   1      42.875  22.173  25.707  1.00  0.00     0.014 A 
ATOM     33  C   UNL A   1      42.378  21.020  27.791  1.00  0.00     0.014 A 
ATOM     34  C   UNL A   1      43.031  23.359  26.421  1.00  0.00     0.010 A 
ATOM     35  C   UNL A   1      42.391  22.211  28.469  1.00  0.00     0.010 A 
ATOM     36  C   UNL A   1      42.769  23.372  27.801  1.00  0.00    -0.014 A 
BRANCH  36  37
ATOM     37  C   UNL A   1      42.730  24.620  28.557  1.00  0.00     0.031 A 
ATOM     38  C   UNL A   1      41.592  25.509  28.195  1.00  0.00     0.074 A 
ATOM     39  C   UNL A   1      43.504  24.840  29.642  1.00  0.00     0.049 A 
ATOM     40  N   UNL A   1      41.653  26.645  27.589  1.00  0.00    -0.248 NA
ATOM     41  C   UNL A   1      40.217  25.014  28.392  1.00  0.00     0.031 C 
ATOM     42  C   UNL A   1      44.451  23.915  30.282  1.00  0.00     0.029 A 
ATOM     43  N   UNL A   1      43.524  25.906  30.488  1.00  0.00    -0.354 N 
ATOM     44  C   UNL A   1      40.345  27.119  27.526  1.00  0.00     0.074 A 
ATOM     45  C   UNL A   1      39.499  26.001  27.851  1.00  0.00     0.031 C 
ATOM     46  C   UNL A   1      44.763  24.362  31.520  1.00  0.00     0.029 A 
ATOM     47  C   UNL A   1      44.186  25.681  31.693  1.00  0.00     0.049 A 
ATOM     48  H   UNL A   1      43.106  26.768  30.264  1.00  0.00     0.167 HD
ATOM     49  C   UNL A   1      40.089  28.457  27.488  1.00  0.00     0.031 A 
ATOM     50  C   UNL A   1      44.250  26.520  32.759  1.00  0.00     0.031 A 
ATOM     51  C   UNL A   1      41.288  29.208  27.207  1.00  0.00     0.049 A 
ATOM     52  C   UNL A   1      43.921  27.872  32.264  1.00  0.00     0.074 A 
ATOM     53  C   UNL A   1      42.180  29.281  26.159  1.00  0.00     0.029 A 
ATOM     54  N   UNL A   1      41.931  29.739  28.300  1.00  0.00    -0.354 N 
ATOM     55  N   UNL A   1      44.687  28.538  31.453  1.00  0.00    -0.248 NA
ATOM     56  C   UNL A   1      42.535  28.305  32.316  1.00  0.00     0.031 C 
ATOM     57  C   UNL A   1      43.459  29.435  26.774  1.00  0.00     0.029 A 
ATOM     58  C   UNL A   1      43.275  29.537  28.155  1.00  0.00     0.049 A 
ATOM     59  H   UNL A   1      41.495  30.190  29.059  1.00  0.00     0.167 HD
ATOM     60  C   UNL A   1      43.810  29.135  30.563  1.00  0.00     0.074 A 
ATOM     61  C   UNL A   1      42.503  29.064  31.217  1.00  0.00     0.031 C 
ATOM     62  C   UNL A   1      44.183  29.358  29.267  1.00  0.00     0.031 A 
BRANCH  49  63
ATOM     63  C   UNL A   1      38.904  29.108  28.170  1.00  0.00    -0.014 A 
ATOM     64  C   UNL A   1      38.724  28.885  29.549  1.00  0.00     0.009 A 
ATOM     65  C   UNL A   1      37.814  29.664  27.477  1.00  0.00     0.009 A 
ATOM     66  C   UNL A   1      37.492  29.116  30.172  1.00  0.00     0.001 A 
ATOM     67  C   UNL A   1      36.594  29.933  28.105  1.00  0.00     0.001 A 
ATOM     68  C   UNL A   1      36.423  29.629  29.447  1.00  0.00     0.000 A 
ENDBRANCH  49  63
BRANCH  50  69
ATOM     69  C   UNL A   1      44.361  26.244  34.208  1.00  0.00    -0.014 A 
ATOM     70  C   UNL A   1      43.361  25.517  34.877  1.00  0.00     0.009 A 
ATOM     71  C   UNL A   1      45.592  26.417  34.862  1.00  0.00     0.009 A 
ATOM     72  C   UNL A   1      43.604  24.938  36.130  1.00  0.00     0.001 A 
ATOM     73  C   UNL A   1      45.835  25.837  36.115  1.00  0.00     0.001 A 
ATOM     74  C   UNL A   1      44.847  25.082  36.740  1.00  0.00     0.000 A 
ENDBRANCH  50  69
BRANCH  62  75
ATOM     75  C   UNL A   1      45.645  29.191  28.926  1.00  0.00    -0.014 A 
ATOM     76  C   UNL A   1      46.574  30.250  28.918  1.00  0.00     0.009 A 
ATOM     77  C   UNL A   1      46.124  27.890  28.722  1.00  0.00     0.009 A 
ATOM     78  C   UNL A   1      47.931  30.011  28.678  1.00  0.00     0.001 A 
ATOM     79  C   UNL A   1      47.481  27.649  28.504  1.00  0.00     0.001 A 
ATOM     80  C   UNL A   1      48.385  28.709  28.475  1.00  0.00     0.000 A 
ENDBRANCH  62  75
ENDBRANCH  36  37
ENDBRANCH  28  31
ENDBRANCH  26  27
ENDBRANCH   1  26
TORSDOF 12
ENDMDL
MODEL 2
REMARK VINA RESULT:     -11.9      2.971      7.164
REMARK SMILES CC1=C(C(=O)NCCCCNC(=O)c2ccc(-c3c4nc(c(-c5ccccc5)c5ccc([nH]5)c(-c5ccccc5)c5nc(c(-c6ccccc6)c6ccc3[nH]6)C=C5)C=C4)cc2)[C@H](c2ccc(Cl)cc2)n2ncnc2N1
REMARK SMILES IDX 9 1 8 2 7 3 6 4 4 5 5 6 3 8 1 9 2 10 75 11 62 12 74 13 70 15
REMARK SMILES IDX 73 16 71 17 72 18 63 19 64 20 69 21 65 22 68 23 66 24 67 25
REMARK SMILES IDX 10 26 11 27 12 28 13 30 14 31 15 32 61 33 16 34 60 35 17 36
REMARK SMILES IDX 18 37 19 38 54 39 20 40 59 41 53 42 55 43 21 44 58 45 52 46
REMARK SMILES IDX 51 47 22 49 44 50 29 51 43 52 30 53 33 54 42 55 56 56 31 57
REMARK SMILES IDX 32 58 41 60 57 61 34 62 23 63 24 64 28 65 25 66 27 67 26 68
REMARK SMILES IDX 45 69 46 70 50 71 47 72 49 73 48 74 35 75 36 76 40 77 37 78
REMARK SMILES IDX 39 79 38 80
REMARK H PARENT 6 7 75 14 11 29 55 48 33 59
REMARK Flexibility Score: inf
ROOT
ATOM      1  C   UNL A   1      33.698  28.761  26.804  1.00  0.00     0.023 C 
ENDROOT
BRANCH   1   2
ATOM      2  C   UNL A   1      33.291  27.317  26.480  1.00  0.00     0.023 C 
BRANCH   2   3
ATOM      3  C   UNL A   1      31.780  27.090  26.325  1.00  0.00     0.116 C 
BRANCH   3   4
ATOM      4  N   UNL A   1      31.408  25.799  26.850  1.00  0.00    -0.352 N 
ATOM      5  C   UNL A   1      31.252  24.552  26.367  1.00  0.00     0.251 C 
ATOM      6  O   UNL A   1      30.721  23.793  27.190  1.00  0.00    -0.270 OA
ATOM      7  H   UNL A   1      31.221  25.841  27.816  1.00  0.00     0.163 HD
BRANCH   5   8
ATOM      8  C   UNL A   1      31.666  23.975  25.034  1.00  0.00     0.065 C 
ATOM      9  C   UNL A   1      30.761  25.547  23.191  1.00  0.00     0.065 C 
ATOM     10  C   UNL A   1      31.433  24.317  23.731  1.00  0.00     0.026 C 
ATOM     11  N   UNL A   1      31.738  23.414  22.705  1.00  0.00    -0.328 N 
ATOM     12  C   UNL A   1      32.449  22.633  25.294  1.00  0.00     0.179 C 
ATOM     13  C   UNL A   1      31.953  22.107  22.919  1.00  0.00     0.226 A 
ATOM     14  H   UNL A   1      31.798  23.753  21.784  1.00  0.00     0.169 HD
ATOM     15  N   UNL A   1      32.211  21.695  24.191  1.00  0.00    -0.219 N 
ATOM     16  N   UNL A   1      31.948  21.078  22.113  1.00  0.00    -0.200 NA
ATOM     17  N   UNL A   1      32.331  20.353  24.259  1.00  0.00    -0.157 NA
ATOM     18  C   UNL A   1      32.161  20.028  22.971  1.00  0.00     0.248 A 
BRANCH  12  19
ATOM     19  C   UNL A   1      33.965  22.871  25.515  1.00  0.00    -0.018 A 
ATOM     20  C   UNL A   1      34.599  24.096  25.220  1.00  0.00     0.008 A 
ATOM     21  C   UNL A   1      34.776  21.830  26.009  1.00  0.00     0.008 A 
ATOM     22  C   UNL A   1      35.975  24.270  25.406  1.00  0.00     0.021 A 
ATOM     23  C   UNL A   1      36.149  22.009  26.213  1.00  0.00     0.021 A 
ATOM     24  C   UNL A   1      36.743  23.229  25.905  1.00  0.00     0.041 A 
ATOM     25  Cl  UNL A   1      38.435  23.443  26.137  1.00  0.00    -0.084 Cl
ENDBRANCH  12  19
ENDBRANCH   5   8
ENDBRANCH   3   4
ENDBRANCH   2   3
ENDBRANCH   1   2
BRANCH   1  26
ATOM     26  C   UNL A   1      35.152  28.917  27.236  1.00  0.00     0.116 C 
BRANCH  26  27
ATOM     27  N   UNL A   1      35.320  29.824  28.370  1.00  0.00    -0.352 N 
ATOM     28  C   UNL A   1      36.337  29.814  29.308  1.00  0.00     0.251 C 
ATOM     29  H   UNL A   1      34.631  30.519  28.479  1.00  0.00     0.163 HD
ATOM     30  O   UNL A   1      36.198  30.310  30.411  1.00  0.00    -0.269 OA
BRANCH  28  31
ATOM     31  C   UNL A   1      37.621  29.213  28.912  1.00  0.00     0.039 A 
ATOM     32  C   UNL A   1      38.333  29.659  27.796  1.00  0.00     0.014 A 
ATOM     33  C   UNL A   1      38.128  28.216  29.744  1.00  0.00     0.014 A 
ATOM     34  C   UNL A   1      39.606  29.143  27.570  1.00  0.00     0.010 A 
ATOM     35  C   UNL A   1      39.432  27.818  29.603  1.00  0.00     0.010 A 
ATOM     36  C   UNL A   1      40.156  28.235  28.490  1.00  0.00    -0.014 A 
BRANCH  36  37
ATOM     37  C   UNL A   1      41.551  27.814  28.404  1.00  0.00     0.031 A 
ATOM     38  C   UNL A   1      41.755  26.552  27.644  1.00  0.00     0.074 A 
ATOM     39  C   UNL A   1      42.577  28.615  28.769  1.00  0.00     0.049 A 
ATOM     40  N   UNL A   1      42.126  25.410  28.115  1.00  0.00    -0.248 NA
ATOM     41  C   UNL A   1      41.358  26.508  26.225  1.00  0.00     0.031 C 
ATOM     42  C   UNL A   1      42.517  30.003  29.249  1.00  0.00     0.029 A 
ATOM     43  N   UNL A   1      43.917  28.398  28.674  1.00  0.00    -0.354 N 
ATOM     44  C   UNL A   1      42.228  24.557  27.019  1.00  0.00     0.074 A 
ATOM     45  C   UNL A   1      41.562  25.222  25.930  1.00  0.00     0.031 C 
ATOM     46  C   UNL A   1      43.744  30.567  29.175  1.00  0.00     0.029 A 
ATOM     47  C   UNL A   1      44.703  29.541  28.814  1.00  0.00     0.049 A 
ATOM     48  H   UNL A   1      44.300  27.505  28.521  1.00  0.00     0.167 HD
ATOM     49  C   UNL A   1      43.097  23.506  27.032  1.00  0.00     0.031 A 
ATOM     50  C   UNL A   1      46.046  29.634  28.642  1.00  0.00     0.031 A 
ATOM     51  C   UNL A   1      43.588  23.254  28.365  1.00  0.00     0.049 A 
ATOM     52  C   UNL A   1      46.592  28.266  28.753  1.00  0.00     0.074 A 
ATOM     53  C   UNL A   1      43.025  22.890  29.569  1.00  0.00     0.029 A 
ATOM     54  N   UNL A   1      44.818  23.793  28.660  1.00  0.00    -0.354 N 
ATOM     55  N   UNL A   1      46.590  27.587  29.862  1.00  0.00    -0.248 NA
ATOM     56  C   UNL A   1      46.736  27.482  27.538  1.00  0.00     0.031 C 
ATOM     57  C   UNL A   1      43.745  23.635  30.552  1.00  0.00     0.029 A 
ATOM     58  C   UNL A   1      44.763  24.344  29.911  1.00  0.00     0.049 A 
ATOM     59  H   UNL A   1      45.605  23.783  28.070  1.00  0.00     0.167 HD
ATOM     60  C   UNL A   1      46.255  26.300  29.476  1.00  0.00     0.074 A 
ATOM     61  C   UNL A   1      46.484  26.267  28.032  1.00  0.00     0.031 C 
ATOM     62  C   UNL A   1      45.549  25.487  30.319  1.00  0.00     0.031 A 
BRANCH  49  63
ATOM     63  C   UNL A   1      43.864  23.032  25.817  1.00  0.00    -0.014 A 
ATOM     64  C   UNL A   1      43.850  21.655  25.515  1.00  0.00     0.009 A 
ATOM     65  C   UNL A   1      44.826  23.810  25.149  1.00  0.00     0.009 A 
ATOM     66  C   UNL A   1      44.807  21.082  24.669  1.00  0.00     0.001 A 
ATOM     67  C   UNL A   1      45.759  23.247  24.272  1.00  0.00     0.001 A 
ATOM     68  C   UNL A   1      45.769  21.877  24.057  1.00  0.00     0.000 A 
ENDBRANCH  49  63
BRANCH  50  69
ATOM     69  C   UNL A   1      46.892  30.757  28.181  1.00  0.00    -0.014 A 
ATOM     70  C   UNL A   1      46.646  31.377  26.944  1.00  0.00     0.009 A 
ATOM     71  C   UNL A   1      47.731  31.422  29.091  1.00  0.00     0.009 A 
ATOM     72  C   UNL A   1      47.176  32.642  26.651  1.00  0.00     0.001 A 
ATOM     73  C   UNL A   1      48.259  32.687  28.798  1.00  0.00     0.001 A 
ATOM     74  C   UNL A   1      47.966  33.304  27.585  1.00  0.00     0.000 A 
ENDBRANCH  50  69
BRANCH  62  75
ATOM     75  C   UNL A   1      45.396  25.936  31.753  1.00  0.00    -0.014 A 
ATOM     76  C   UNL A   1      44.316  26.709  32.222  1.00  0.00     0.009 A 
ATOM     77  C   UNL A   1      46.322  25.455  32.689  1.00  0.00     0.009 A 
ATOM     78  C   UNL A   1      44.192  27.016  33.581  1.00  0.00     0.001 A 
ATOM     79  C   UNL A   1      46.186  25.744  34.047  1.00  0.00     0.001 A 
ATOM     80  C   UNL A   1      45.126  26.529  34.494  1.00  0.00     0.000 A 
ENDBRANCH  62  75
ENDBRANCH  36  37
ENDBRANCH  28  31
ENDBRANCH  26  27
ENDBRANCH   1  26
TORSDOF 12
ENDMDL
MODEL 3
REMARK VINA RESULT:     -11.8      2.904      6.967
REMARK SMILES CC1=C(C(=O)NCCCCNC(=O)c2ccc(-c3c4nc(c(-c5ccccc5)c5ccc([nH]5)c(-c5ccccc5)c5nc(c(-c6ccccc6)c6ccc3[nH]6)C=C5)C=C4)cc2)[C@H](c2ccc(Cl)cc2)n2ncnc2N1
REMARK SMILES IDX 9 1 8 2 7 3 6 4 4 5 5 6 3 8 1 9 2 10 75 11 62 12 74 13 70 15
REMARK SMILES IDX 73 16 71 17 72 18 63 19 64 20 69 21 65 22 68 23 66 24 67 25
REMARK SMILES IDX 10 26 11 27 12 28 13 30 14 31 15 32 61 33 16 34 60 35 17 36
REMARK SMILES IDX 18 37 19 38 54 39 20 40 59 41 53 42 55 43 21 44 58 45 52 46
REMARK SMILES IDX 51 47 22 49 44 50 29 51 43 52 30 53 33 54 42 55 56 56 31 57
REMARK SMILES IDX 32 58 41 60 57 61 34 62 23 63 24 64 28 65 25 66 27 67 26 68
REMARK SMILES IDX 45 69 46 70 50 71 47 72 49 73 48 74 35 75 36 76 40 77 37 78
REMARK SMILES IDX 39 79 38 80
REMARK H PARENT 6 7 75 14 11 29 55 48 33 59
REMARK Flexibility Score: inf
ROOT
ATOM      1  C   UNL A   1      33.325  27.877  26.928  1.00  0.00     0.023 C 
ENDROOT
BRANCH   1   2
ATOM      2  C   UNL A   1      32.788  26.956  25.824  1.00  0.00     0.023 C 
BRANCH   2   3
ATOM      3  C   UNL A   1      31.312  26.558  25.973  1.00  0.00     0.116 C 
BRANCH   3   4
ATOM      4  N   UNL A   1      31.195  25.325  26.711  1.00  0.00    -0.352 N 
ATOM      5  C   UNL A   1      31.216  24.008  26.430  1.00  0.00     0.251 C 
ATOM      6  O   UNL A   1      30.873  23.315  27.399  1.00  0.00    -0.270 OA
ATOM      7  H   UNL A   1      31.068  25.488  27.674  1.00  0.00     0.163 HD
BRANCH   5   8
ATOM      8  C   UNL A   1      31.629  23.298  25.162  1.00  0.00     0.065 C 
ATOM      9  C   UNL A   1      30.540  24.550  23.179  1.00  0.00     0.065 C 
ATOM     10  C   UNL A   1      31.326  23.454  23.838  1.00  0.00     0.026 C 
ATOM     11  N   UNL A   1      31.668  22.452  22.920  1.00  0.00    -0.328 N 
ATOM     12  C   UNL A   1      32.527  22.064  25.552  1.00  0.00     0.179 C 
ATOM     13  C   UNL A   1      31.995  21.203  23.286  1.00  0.00     0.226 A 
ATOM     14  H   UNL A   1      31.670  22.675  21.962  1.00  0.00     0.169 HD
ATOM     15  N   UNL A   1      32.328  20.977  24.586  1.00  0.00    -0.219 N 
ATOM     16  N   UNL A   1      32.045  20.083  22.615  1.00  0.00    -0.200 NA
ATOM     17  N   UNL A   1      32.557  19.668  24.816  1.00  0.00    -0.157 NA
ATOM     18  C   UNL A   1      32.371  19.170  23.586  1.00  0.00     0.248 A 
BRANCH  12  19
ATOM     19  C   UNL A   1      34.025  22.442  25.676  1.00  0.00    -0.018 A 
ATOM     20  C   UNL A   1      35.050  21.480  25.790  1.00  0.00     0.008 A 
ATOM     21  C   UNL A   1      34.409  23.797  25.703  1.00  0.00     0.008 A 
ATOM     22  C   UNL A   1      36.392  21.853  25.927  1.00  0.00     0.021 A 
ATOM     23  C   UNL A   1      35.753  24.172  25.823  1.00  0.00     0.021 A 
ATOM     24  C   UNL A   1      36.738  23.197  25.939  1.00  0.00     0.041 A 
ATOM     25  Cl  UNL A   1      38.387  23.658  26.105  1.00  0.00    -0.084 Cl
ENDBRANCH  12  19
ENDBRANCH   5   8
ENDBRANCH   3   4
ENDBRANCH   2   3
ENDBRANCH   1   2
BRANCH   1  26
ATOM     26  C   UNL A   1      34.561  28.674  26.527  1.00  0.00     0.116 C 
BRANCH  26  27
ATOM     27  N   UNL A   1      34.420  30.110  26.764  1.00  0.00    -0.352 N 
ATOM     28  C   UNL A   1      34.999  30.854  27.776  1.00  0.00     0.251 C 
ATOM     29  H   UNL A   1      33.847  30.603  26.132  1.00  0.00     0.163 HD
ATOM     30  O   UNL A   1      34.530  31.916  28.142  1.00  0.00    -0.269 OA
BRANCH  28  31
ATOM     31  C   UNL A   1      36.238  30.335  28.378  1.00  0.00     0.039 A 
ATOM     32  C   UNL A   1      36.244  29.688  29.616  1.00  0.00     0.014 A 
ATOM     33  C   UNL A   1      37.402  30.461  27.621  1.00  0.00     0.014 A 
ATOM     34  C   UNL A   1      37.427  29.095  30.051  1.00  0.00     0.010 A 
ATOM     35  C   UNL A   1      38.521  29.757  27.982  1.00  0.00     0.010 A 
ATOM     36  C   UNL A   1      38.557  29.119  29.218  1.00  0.00    -0.014 A 
BRANCH  36  37
ATOM     37  C   UNL A   1      39.756  28.352  29.539  1.00  0.00     0.031 A 
ATOM     38  C   UNL A   1      40.052  28.275  30.996  1.00  0.00     0.074 A 
ATOM     39  C   UNL A   1      40.397  27.587  28.628  1.00  0.00     0.049 A 
ATOM     40  N   UNL A   1      41.035  28.827  31.622  1.00  0.00    -0.248 NA
ATOM     41  C   UNL A   1      39.062  27.641  31.886  1.00  0.00     0.031 C 
ATOM     42  C   UNL A   1      40.023  27.339  27.229  1.00  0.00     0.029 A 
ATOM     43  N   UNL A   1      41.467  26.762  28.793  1.00  0.00    -0.354 N 
ATOM     44  C   UNL A   1      40.919  28.426  32.950  1.00  0.00     0.074 A 
ATOM     45  C   UNL A   1      39.598  27.871  33.087  1.00  0.00     0.031 C 
ATOM     46  C   UNL A   1      40.698  26.265  26.757  1.00  0.00     0.029 A 
ATOM     47  C   UNL A   1      41.673  25.860  27.750  1.00  0.00     0.049 A 
ATOM     48  H   UNL A   1      42.049  26.800  29.586  1.00  0.00     0.167 HD
ATOM     49  C   UNL A   1      42.020  28.327  33.748  1.00  0.00     0.031 A 
ATOM     50  C   UNL A   1      42.580  24.851  27.711  1.00  0.00     0.031 A 
ATOM     51  C   UNL A   1      43.160  28.972  33.142  1.00  0.00     0.049 A 
ATOM     52  C   UNL A   1      43.611  25.157  28.723  1.00  0.00     0.074 A 
ATOM     53  C   UNL A   1      43.472  30.257  32.754  1.00  0.00     0.029 A 
ATOM     54  N   UNL A   1      44.029  28.144  32.473  1.00  0.00    -0.354 N 
ATOM     55  N   UNL A   1      44.436  26.157  28.617  1.00  0.00    -0.248 NA
ATOM     56  C   UNL A   1      43.441  24.624  30.063  1.00  0.00     0.031 C 
ATOM     57  C   UNL A   1      44.208  30.107  31.540  1.00  0.00     0.029 A 
ATOM     58  C   UNL A   1      44.382  28.743  31.295  1.00  0.00     0.049 A 
ATOM     59  H   UNL A   1      44.345  27.267  32.790  1.00  0.00     0.167 HD
ATOM     60  C   UNL A   1      44.514  26.675  29.900  1.00  0.00     0.074 A 
ATOM     61  C   UNL A   1      43.988  25.620  30.765  1.00  0.00     0.031 C 
ATOM     62  C   UNL A   1      44.720  28.012  30.094  1.00  0.00     0.031 A 
BRANCH  49  63
ATOM     63  C   UNL A   1      42.200  27.262  34.808  1.00  0.00    -0.014 A 
ATOM     64  C   UNL A   1      42.572  25.968  34.395  1.00  0.00     0.009 A 
ATOM     65  C   UNL A   1      41.736  27.390  36.129  1.00  0.00     0.009 A 
ATOM     66  C   UNL A   1      42.395  24.856  35.227  1.00  0.00     0.001 A 
ATOM     67  C   UNL A   1      41.595  26.287  36.977  1.00  0.00     0.001 A 
ATOM     68  C   UNL A   1      41.895  25.015  36.514  1.00  0.00     0.000 A 
ENDBRANCH  49  63
BRANCH  50  69
ATOM     69  C   UNL A   1      42.543  23.536  27.034  1.00  0.00    -0.014 A 
ATOM     70  C   UNL A   1      43.546  23.172  26.120  1.00  0.00     0.009 A 
ATOM     71  C   UNL A   1      41.703  22.520  27.523  1.00  0.00     0.009 A 
ATOM     72  C   UNL A   1      43.738  21.832  25.752  1.00  0.00     0.001 A 
ATOM     73  C   UNL A   1      41.895  21.182  27.155  1.00  0.00     0.001 A 
ATOM     74  C   UNL A   1      42.924  20.836  26.284  1.00  0.00     0.000 A 
ENDBRANCH  50  69
BRANCH  62  75
ATOM     75  C   UNL A   1      45.131  28.834  28.895  1.00  0.00    -0.014 A 
ATOM     76  C   UNL A   1      46.468  29.028  28.499  1.00  0.00     0.009 A 
ATOM     77  C   UNL A   1      44.116  29.333  28.067  1.00  0.00     0.009 A 
ATOM     78  C   UNL A   1      46.774  29.729  27.327  1.00  0.00     0.001 A 
ATOM     79  C   UNL A   1      44.420  30.013  26.887  1.00  0.00     0.001 A 
ATOM     80  C   UNL A   1      45.748  30.218  26.520  1.00  0.00     0.000 A 
ENDBRANCH  62  75
ENDBRANCH  36  37
ENDBRANCH  28  31
ENDBRANCH  26  27
ENDBRANCH   1  26
TORSDOF 12
ENDMDL
