MODEL 1
REMARK VINA RESULT:     -10.2      0.000      0.000
REMARK SMILES CCOC[C@@H](O)C[C@]1(C(=O)NCCCCNC(=O)c2ccc(-c3c4nc(c(-c5ccccc5)c5ccc([nH]5)c(-c5ccccc5)c5nc(c(-c6ccccc6)c6ccc3[nH]6)C=C5)C=C4)cc2)CCc2ccccc21
REMARK SMILES IDX 12 1 11 2 9 3 10 4 8 6 67 7 74 8 68 9 69 10 73 11 70 12
REMARK SMILES IDX 72 13 71 14 7 15 5 16 4 17 3 18 2 19 1 20 6 21 13 23 14 24
REMARK SMILES IDX 15 25 16 26 17 27 18 29 19 30 20 31 66 32 21 33 65 34 22 35
REMARK SMILES IDX 23 36 24 37 59 38 25 39 64 40 58 41 60 42 26 43 63 44 57 45
REMARK SMILES IDX 56 46 27 48 49 49 34 50 48 51 35 52 38 53 47 54 61 55 36 56
REMARK SMILES IDX 37 57 46 59 62 60 39 61 28 62 29 63 33 64 30 65 32 66 31 67
REMARK SMILES IDX 50 68 51 69 55 70 52 71 54 72 53 73 40 74 41 75 45 76 42 77
REMARK SMILES IDX 44 78 43 79
REMARK H PARENT 11 5 6 22 16 28 60 47 38 58
REMARK Flexibility Score: inf
ROOT
ATOM      1  C   UNL A   1      33.438  29.220  25.233  1.00  0.00     0.116 C 
ENDROOT
BRANCH   1   2
ATOM      2  N   UNL A   1      33.766  28.964  23.845  1.00  0.00    -0.355 N 
ATOM      3  C   UNL A   1      33.733  27.828  23.094  1.00  0.00     0.230 C 
ATOM      4  O   UNL A   1      34.040  27.981  21.905  1.00  0.00    -0.274 OA
ATOM      5  H   UNL A   1      34.070  29.761  23.353  1.00  0.00     0.163 HD
BRANCH   3   6
ATOM      6  C   UNL A   1      33.370  26.423  23.662  1.00  0.00     0.077 C 
ATOM      7  C   UNL A   1      34.116  26.159  24.999  1.00  0.00     0.026 C 
ATOM      8  C   UNL A   1      31.918  26.319  24.053  1.00  0.00    -0.029 A 
ATOM      9  C   UNL A   1      33.084  25.880  26.105  1.00  0.00     0.037 C 
ATOM     10  C   UNL A   1      31.771  25.978  25.401  1.00  0.00    -0.044 A 
ATOM     11  C   UNL A   1      30.803  26.515  23.245  1.00  0.00     0.005 A 
ATOM     12  C   UNL A   1      30.514  25.816  25.964  1.00  0.00     0.004 A 
ATOM     13  C   UNL A   1      29.536  26.343  23.801  1.00  0.00     0.000 A 
ATOM     14  C   UNL A   1      29.393  25.994  25.152  1.00  0.00     0.000 A 
BRANCH   6  15
ATOM     15  C   UNL A   1      33.753  25.355  22.593  1.00  0.00     0.056 C 
BRANCH  15  16
ATOM     16  C   UNL A   1      33.862  23.868  22.995  1.00  0.00     0.141 C 
BRANCH  16  17
ATOM     17  C   UNL A   1      32.953  22.924  22.188  1.00  0.00     0.191 C 
BRANCH  17  18
ATOM     18  O   UNL A   1      32.189  22.019  22.990  1.00  0.00    -0.379 OA
BRANCH  18  19
ATOM     19  C   UNL A   1      32.553  21.871  24.362  1.00  0.00     0.157 C 
ATOM     20  C   UNL A   1      31.507  22.268  25.390  1.00  0.00     0.035 C 
ENDBRANCH  18  19
ENDBRANCH  17  18
ENDBRANCH  16  17
BRANCH  16  21
ATOM     21  O   UNL A   1      35.237  23.506  22.793  1.00  0.00    -0.391 OA
ATOM     22  H   UNL A   1      35.593  23.121  23.609  1.00  0.00     0.211 HD
ENDBRANCH  16  21
ENDBRANCH  15  16
ENDBRANCH   6  15
ENDBRANCH   3   6
ENDBRANCH   1   2
BRANCH   1  23
ATOM     23  C   UNL A   1      32.005  29.711  25.402  1.00  0.00     0.023 C 
BRANCH  23  24
ATOM     24  C   UNL A   1      31.758  30.513  26.678  1.00  0.00     0.023 C 
BRANCH  24  25
ATOM     25  C   UNL A   1      32.871  31.487  27.055  1.00  0.00     0.116 C 
BRANCH  25  26
ATOM     26  N   UNL A   1      32.396  32.824  27.375  1.00  0.00    -0.352 N 
ATOM     27  C   UNL A   1      33.015  33.785  28.144  1.00  0.00     0.251 C 
ATOM     28  H   UNL A   1      31.523  33.074  26.995  1.00  0.00     0.163 HD
ATOM     29  O   UNL A   1      32.461  34.839  28.401  1.00  0.00    -0.269 OA
BRANCH  27  30
ATOM     30  C   UNL A   1      34.355  33.489  28.690  1.00  0.00     0.039 A 
ATOM     31  C   UNL A   1      34.449  32.795  29.899  1.00  0.00     0.014 A 
ATOM     32  C   UNL A   1      35.503  33.835  27.975  1.00  0.00     0.014 A 
ATOM     33  C   UNL A   1      35.701  32.381  30.354  1.00  0.00     0.010 A 
ATOM     34  C   UNL A   1      36.742  33.364  28.395  1.00  0.00     0.010 A 
ATOM     35  C   UNL A   1      36.851  32.627  29.585  1.00  0.00    -0.014 A 
BRANCH  35  36
ATOM     36  C   UNL A   1      38.178  32.113  30.001  1.00  0.00     0.031 A 
ATOM     37  C   UNL A   1      38.676  30.798  29.467  1.00  0.00     0.074 A 
ATOM     38  C   UNL A   1      38.897  32.790  30.917  1.00  0.00     0.049 A 
ATOM     39  N   UNL A   1      39.772  30.151  29.767  1.00  0.00    -0.248 NA
ATOM     40  C   UNL A   1      37.816  30.108  28.491  1.00  0.00     0.031 C 
ATOM     41  C   UNL A   1      38.500  34.051  31.550  1.00  0.00     0.029 A 
ATOM     42  N   UNL A   1      40.112  32.504  31.486  1.00  0.00    -0.354 N 
ATOM     43  C   UNL A   1      39.722  28.969  29.038  1.00  0.00     0.074 A 
ATOM     44  C   UNL A   1      38.472  28.970  28.311  1.00  0.00     0.031 C 
ATOM     45  C   UNL A   1      39.464  34.438  32.401  1.00  0.00     0.029 A 
ATOM     46  C   UNL A   1      40.527  33.440  32.402  1.00  0.00     0.049 A 
ATOM     47  H   UNL A   1      40.638  31.702  31.259  1.00  0.00     0.167 HD
ATOM     48  C   UNL A   1      40.641  27.979  28.969  1.00  0.00     0.031 A 
ATOM     49  C   UNL A   1      41.639  33.485  33.161  1.00  0.00     0.031 A 
ATOM     50  C   UNL A   1      41.900  27.994  29.662  1.00  0.00     0.049 A 
ATOM     51  C   UNL A   1      42.651  32.380  33.047  1.00  0.00     0.074 A 
ATOM     52  C   UNL A   1      42.934  27.076  29.590  1.00  0.00     0.029 A 
ATOM     53  N   UNL A   1      42.297  28.977  30.554  1.00  0.00    -0.354 N 
ATOM     54  N   UNL A   1      42.627  31.312  32.287  1.00  0.00    -0.248 NA
ATOM     55  C   UNL A   1      43.852  32.493  33.888  1.00  0.00     0.031 C 
ATOM     56  C   UNL A   1      43.940  27.483  30.470  1.00  0.00     0.029 A 
ATOM     57  C   UNL A   1      43.552  28.677  31.056  1.00  0.00     0.049 A 
ATOM     58  H   UNL A   1      41.766  29.770  30.795  1.00  0.00     0.167 HD
ATOM     59  C   UNL A   1      43.819  30.645  32.535  1.00  0.00     0.074 A 
ATOM     60  C   UNL A   1      44.550  31.434  33.504  1.00  0.00     0.031 C 
ATOM     61  C   UNL A   1      44.268  29.481  32.008  1.00  0.00     0.031 A 
BRANCH  48  62
ATOM     62  C   UNL A   1      40.325  26.792  28.106  1.00  0.00    -0.014 A 
ATOM     63  C   UNL A   1      40.817  26.695  26.796  1.00  0.00     0.009 A 
ATOM     64  C   UNL A   1      39.573  25.729  28.633  1.00  0.00     0.009 A 
ATOM     65  C   UNL A   1      40.542  25.567  26.020  1.00  0.00     0.001 A 
ATOM     66  C   UNL A   1      39.321  24.592  27.864  1.00  0.00     0.001 A 
ATOM     67  C   UNL A   1      39.800  24.514  26.557  1.00  0.00     0.000 A 
ENDBRANCH  48  62
BRANCH  49  68
ATOM     68  C   UNL A   1      41.870  34.620  34.093  1.00  0.00    -0.014 A 
ATOM     69  C   UNL A   1      42.511  35.786  33.645  1.00  0.00     0.009 A 
ATOM     70  C   UNL A   1      41.486  34.530  35.439  1.00  0.00     0.009 A 
ATOM     71  C   UNL A   1      42.797  36.823  34.537  1.00  0.00     0.001 A 
ATOM     72  C   UNL A   1      41.749  35.580  36.322  1.00  0.00     0.001 A 
ATOM     73  C   UNL A   1      42.415  36.719  35.873  1.00  0.00     0.000 A 
ENDBRANCH  49  68
BRANCH  61  74
ATOM     74  C   UNL A   1      45.629  29.015  32.435  1.00  0.00    -0.014 A 
ATOM     75  C   UNL A   1      46.785  29.422  31.752  1.00  0.00     0.009 A 
ATOM     76  C   UNL A   1      45.757  28.189  33.563  1.00  0.00     0.009 A 
ATOM     77  C   UNL A   1      48.042  28.986  32.174  1.00  0.00     0.001 A 
ATOM     78  C   UNL A   1      47.016  27.777  33.999  1.00  0.00     0.001 A 
ATOM     79  C   UNL A   1      48.157  28.169  33.299  1.00  0.00     0.000 A 
ENDBRANCH  61  74
ENDBRANCH  35  36
ENDBRANCH  27  30
ENDBRANCH  25  26
ENDBRANCH  24  25
ENDBRANCH  23  24
ENDBRANCH   1  23
TORSDOF 17
ENDMDL
MODEL 2
REMARK VINA RESULT:     -10.0      1.007      2.199
REMARK SMILES CCOC[C@@H](O)C[C@]1(C(=O)NCCCCNC(=O)c2ccc(-c3c4nc(c(-c5ccccc5)c5ccc([nH]5)c(-c5ccccc5)c5nc(c(-c6ccccc6)c6ccc3[nH]6)C=C5)C=C4)cc2)CCc2ccccc21
REMARK SMILES IDX 12 1 11 2 9 3 10 4 8 6 67 7 74 8 68 9 69 10 73 11 70 12
REMARK SMILES IDX 72 13 71 14 7 15 5 16 4 17 3 18 2 19 1 20 6 21 13 23 14 24
REMARK SMILES IDX 15 25 16 26 17 27 18 29 19 30 20 31 66 32 21 33 65 34 22 35
REMARK SMILES IDX 23 36 24 37 59 38 25 39 64 40 58 41 60 42 26 43 63 44 57 45
REMARK SMILES IDX 56 46 27 48 49 49 34 50 48 51 35 52 38 53 47 54 61 55 36 56
REMARK SMILES IDX 37 57 46 59 62 60 39 61 28 62 29 63 33 64 30 65 32 66 31 67
REMARK SMILES IDX 50 68 51 69 55 70 52 71 54 72 53 73 40 74 41 75 45 76 42 77
REMARK SMILES IDX 44 78 43 79
REMARK H PARENT 11 5 6 22 16 28 60 47 38 58
REMARK Flexibility Score: inf
ROOT
ATOM      1  C   UNL A   1      33.109  28.792  25.325  1.00  0.00     0.116 C 
ENDROOT
BRANCH   1   2
ATOM      2  N   UNL A   1      33.625  28.688  23.975  1.00  0.00    -0.355 N 
ATOM      3  C   UNL A   1      33.534  27.705  23.036  1.00  0.00     0.230 C 
ATOM      4  O   UNL A   1      34.063  27.971  21.951  1.00  0.00    -0.274 OA
ATOM      5  H   UNL A   1      34.138  29.476  23.682  1.00  0.00     0.163 HD
BRANCH   3   6
ATOM      6  C   UNL A   1      32.849  26.327  23.287  1.00  0.00     0.077 C 
ATOM      7  C   UNL A   1      32.446  25.659  21.945  1.00  0.00     0.026 C 
ATOM      8  C   UNL A   1      33.790  25.323  23.902  1.00  0.00    -0.029 A 
ATOM      9  C   UNL A   1      33.131  24.286  21.840  1.00  0.00     0.037 C 
ATOM     10  C   UNL A   1      33.909  24.177  23.110  1.00  0.00    -0.044 A 
ATOM     11  C   UNL A   1      34.489  25.434  25.099  1.00  0.00     0.005 A 
ATOM     12  C   UNL A   1      34.716  23.119  23.501  1.00  0.00     0.004 A 
ATOM     13  C   UNL A   1      35.295  24.369  25.504  1.00  0.00     0.000 A 
ATOM     14  C   UNL A   1      35.405  23.218  24.710  1.00  0.00     0.000 A 
BRANCH   6  15
ATOM     15  C   UNL A   1      31.598  26.566  24.187  1.00  0.00     0.056 C 
BRANCH  15  16
ATOM     16  C   UNL A   1      30.692  25.377  24.574  1.00  0.00     0.141 C 
BRANCH  16  17
ATOM     17  C   UNL A   1      30.417  25.255  26.083  1.00  0.00     0.191 C 
BRANCH  17  18
ATOM     18  O   UNL A   1      31.491  24.676  26.829  1.00  0.00    -0.379 OA
BRANCH  18  19
ATOM     19  C   UNL A   1      31.790  23.298  26.610  1.00  0.00     0.157 C 
ATOM     20  C   UNL A   1      32.799  22.662  27.552  1.00  0.00     0.035 C 
ENDBRANCH  18  19
ENDBRANCH  17  18
ENDBRANCH  16  17
BRANCH  16  21
ATOM     21  O   UNL A   1      29.456  25.581  23.872  1.00  0.00    -0.391 OA
ATOM     22  H   UNL A   1      28.713  25.371  24.459  1.00  0.00     0.211 HD
ENDBRANCH  16  21
ENDBRANCH  15  16
ENDBRANCH   6  15
ENDBRANCH   3   6
ENDBRANCH   1   2
BRANCH   1  23
ATOM     23  C   UNL A   1      31.961  29.790  25.424  1.00  0.00     0.023 C 
BRANCH  23  24
ATOM     24  C   UNL A   1      31.867  30.512  26.767  1.00  0.00     0.023 C 
BRANCH  24  25
ATOM     25  C   UNL A   1      32.973  31.529  27.034  1.00  0.00     0.116 C 
BRANCH  25  26
ATOM     26  N   UNL A   1      32.480  32.850  27.393  1.00  0.00    -0.352 N 
ATOM     27  C   UNL A   1      33.078  33.789  28.205  1.00  0.00     0.251 C 
ATOM     28  H   UNL A   1      31.610  33.106  27.008  1.00  0.00     0.163 HD
ATOM     29  O   UNL A   1      32.511  34.828  28.490  1.00  0.00    -0.269 OA
BRANCH  27  30
ATOM     30  C   UNL A   1      34.413  33.486  28.761  1.00  0.00     0.039 A 
ATOM     31  C   UNL A   1      34.495  32.750  29.945  1.00  0.00     0.014 A 
ATOM     32  C   UNL A   1      35.568  33.868  28.076  1.00  0.00     0.014 A 
ATOM     33  C   UNL A   1      35.744  32.331  30.404  1.00  0.00     0.010 A 
ATOM     34  C   UNL A   1      36.805  33.393  28.499  1.00  0.00     0.010 A 
ATOM     35  C   UNL A   1      36.903  32.615  29.663  1.00  0.00    -0.014 A 
BRANCH  35  36
ATOM     36  C   UNL A   1      38.228  32.098  30.081  1.00  0.00     0.031 A 
ATOM     37  C   UNL A   1      38.723  30.782  29.550  1.00  0.00     0.074 A 
ATOM     38  C   UNL A   1      38.948  32.775  30.997  1.00  0.00     0.049 A 
ATOM     39  N   UNL A   1      39.818  30.132  29.852  1.00  0.00    -0.248 NA
ATOM     40  C   UNL A   1      37.863  30.091  28.574  1.00  0.00     0.031 C 
ATOM     41  C   UNL A   1      38.554  34.038  31.627  1.00  0.00     0.029 A 
ATOM     42  N   UNL A   1      40.162  32.487  31.567  1.00  0.00    -0.354 N 
ATOM     43  C   UNL A   1      39.765  28.949  29.125  1.00  0.00     0.074 A 
ATOM     44  C   UNL A   1      38.516  28.951  28.397  1.00  0.00     0.031 C 
ATOM     45  C   UNL A   1      39.518  34.424  32.479  1.00  0.00     0.029 A 
ATOM     46  C   UNL A   1      40.579  33.424  32.482  1.00  0.00     0.049 A 
ATOM     47  H   UNL A   1      40.687  31.684  31.342  1.00  0.00     0.167 HD
ATOM     48  C   UNL A   1      40.682  27.956  29.058  1.00  0.00     0.031 A 
ATOM     49  C   UNL A   1      41.690  33.467  33.242  1.00  0.00     0.031 A 
ATOM     50  C   UNL A   1      41.941  27.970  29.753  1.00  0.00     0.049 A 
ATOM     51  C   UNL A   1      42.700  32.359  33.130  1.00  0.00     0.074 A 
ATOM     52  C   UNL A   1      42.972  27.048  29.683  1.00  0.00     0.029 A 
ATOM     53  N   UNL A   1      42.339  28.953  30.643  1.00  0.00    -0.354 N 
ATOM     54  N   UNL A   1      42.673  31.291  32.372  1.00  0.00    -0.248 NA
ATOM     55  C   UNL A   1      43.900  32.471  33.972  1.00  0.00     0.031 C 
ATOM     56  C   UNL A   1      43.979  27.455  30.563  1.00  0.00     0.029 A 
ATOM     57  C   UNL A   1      43.593  28.651  31.147  1.00  0.00     0.049 A 
ATOM     58  H   UNL A   1      41.810  29.748  30.883  1.00  0.00     0.167 HD
ATOM     59  C   UNL A   1      43.863  30.621  32.622  1.00  0.00     0.074 A 
ATOM     60  C   UNL A   1      44.595  31.410  33.591  1.00  0.00     0.031 C 
ATOM     61  C   UNL A   1      44.311  29.455  32.098  1.00  0.00     0.031 A 
BRANCH  48  62
ATOM     62  C   UNL A   1      40.363  26.768  28.198  1.00  0.00    -0.014 A 
ATOM     63  C   UNL A   1      39.518  25.746  28.657  1.00  0.00     0.009 A 
ATOM     64  C   UNL A   1      40.867  26.700  26.890  1.00  0.00     0.009 A 
ATOM     65  C   UNL A   1      39.204  24.666  27.829  1.00  0.00     0.001 A 
ATOM     66  C   UNL A   1      40.531  25.632  26.057  1.00  0.00     0.001 A 
ATOM     67  C   UNL A   1      39.705  24.614  26.529  1.00  0.00     0.000 A 
ENDBRANCH  48  62
BRANCH  49  68
ATOM     68  C   UNL A   1      41.923  34.603  34.171  1.00  0.00    -0.014 A 
ATOM     69  C   UNL A   1      42.564  35.769  33.722  1.00  0.00     0.009 A 
ATOM     70  C   UNL A   1      41.542  34.515  35.519  1.00  0.00     0.009 A 
ATOM     71  C   UNL A   1      42.852  36.806  34.611  1.00  0.00     0.001 A 
ATOM     72  C   UNL A   1      41.807  35.566  36.399  1.00  0.00     0.001 A 
ATOM     73  C   UNL A   1      42.472  36.704  35.948  1.00  0.00     0.000 A 
ENDBRANCH  49  68
BRANCH  61  74
ATOM     74  C   UNL A   1      45.670  28.986  32.527  1.00  0.00    -0.014 A 
ATOM     75  C   UNL A   1      45.833  28.153  33.643  1.00  0.00     0.009 A 
ATOM     76  C   UNL A   1      46.798  29.351  31.775  1.00  0.00     0.009 A 
ATOM     77  C   UNL A   1      47.107  27.718  34.016  1.00  0.00     0.001 A 
ATOM     78  C   UNL A   1      48.066  28.893  32.134  1.00  0.00     0.001 A 
ATOM     79  C   UNL A   1      48.220  28.084  33.258  1.00  0.00     0.000 A 
ENDBRANCH  61  74
ENDBRANCH  35  36
ENDBRANCH  27  30
ENDBRANCH  25  26
ENDBRANCH  24  25
ENDBRANCH  23  24
ENDBRANCH   1  23
TORSDOF 17
ENDMDL
MODEL 3
REMARK VINA RESULT:     -10.0      1.217      6.333
REMARK SMILES CCOC[C@@H](O)C[C@]1(C(=O)NCCCCNC(=O)c2ccc(-c3c4nc(c(-c5ccccc5)c5ccc([nH]5)c(-c5ccccc5)c5nc(c(-c6ccccc6)c6ccc3[nH]6)C=C5)C=C4)cc2)CCc2ccccc21
REMARK SMILES IDX 12 1 11 2 9 3 10 4 8 6 67 7 74 8 68 9 69 10 73 11 70 12
REMARK SMILES IDX 72 13 71 14 7 15 5 16 4 17 3 18 2 19 1 20 6 21 13 23 14 24
REMARK SMILES IDX 15 25 16 26 17 27 18 29 19 30 20 31 66 32 21 33 65 34 22 35
REMARK SMILES IDX 23 36 24 37 59 38 25 39 64 40 58 41 60 42 26 43 63 44 57 45
REMARK SMILES IDX 56 46 27 48 49 49 34 50 48 51 35 52 38 53 47 54 61 55 36 56
REMARK SMILES IDX 37 57 46 59 62 60 39 61 28 62 29 63 33 64 30 65 32 66 31 67
REMARK SMILES IDX 50 68 51 69 55 70 52 71 54 72 53 73 40 74 41 75 45 76 42 77
REMARK SMILES IDX 44 78 43 79
REMARK H PARENT 11 5 6 22 16 28 60 47 38 58
REMARK Flexibility Score: inf
ROOT
ATOM      1  C   UNL A   1      31.430  29.675  25.025  1.00  0.00     0.116 C 
ENDROOT
BRANCH   1   2
ATOM      2  N   UNL A   1      32.553  29.528  24.122  1.00  0.00    -0.355 N 
ATOM      3  C   UNL A   1      32.998  28.474  23.382  1.00  0.00     0.230 C 
ATOM      4  O   UNL A   1      33.980  28.715  22.670  1.00  0.00    -0.274 OA
ATOM      5  H   UNL A   1      33.096  30.344  24.025  1.00  0.00     0.163 HD
BRANCH   3   6
ATOM      6  C   UNL A   1      32.362  27.052  23.429  1.00  0.00     0.077 C 
ATOM      7  C   UNL A   1      32.004  26.560  22.000  1.00  0.00     0.026 C 
ATOM      8  C   UNL A   1      33.330  26.006  23.920  1.00  0.00    -0.029 A 
ATOM      9  C   UNL A   1      32.741  25.239  21.722  1.00  0.00     0.037 C 
ATOM     10  C   UNL A   1      33.503  24.984  22.981  1.00  0.00    -0.044 A 
ATOM     11  C   UNL A   1      34.006  25.976  25.134  1.00  0.00     0.005 A 
ATOM     12  C   UNL A   1      34.343  23.911  23.240  1.00  0.00     0.004 A 
ATOM     13  C   UNL A   1      34.844  24.894  25.406  1.00  0.00     0.000 A 
ATOM     14  C   UNL A   1      35.010  23.868  24.465  1.00  0.00     0.000 A 
BRANCH   6  15
ATOM     15  C   UNL A   1      31.089  27.121  24.327  1.00  0.00     0.056 C 
BRANCH  15  16
ATOM     16  C   UNL A   1      30.325  25.826  24.679  1.00  0.00     0.141 C 
BRANCH  16  17
ATOM     17  C   UNL A   1      30.044  25.643  26.181  1.00  0.00     0.191 C 
BRANCH  17  18
ATOM     18  O   UNL A   1      30.198  24.299  26.646  1.00  0.00    -0.379 OA
BRANCH  18  19
ATOM     19  C   UNL A   1      31.492  23.705  26.555  1.00  0.00     0.157 C 
ATOM     20  C   UNL A   1      31.640  22.540  25.590  1.00  0.00     0.035 C 
ENDBRANCH  18  19
ENDBRANCH  17  18
ENDBRANCH  16  17
BRANCH  16  21
ATOM     21  O   UNL A   1      29.083  25.896  23.960  1.00  0.00    -0.391 OA
ATOM     22  H   UNL A   1      29.084  25.235  23.250  1.00  0.00     0.211 HD
ENDBRANCH  16  21
ENDBRANCH  15  16
ENDBRANCH   6  15
ENDBRANCH   3   6
ENDBRANCH   1   2
BRANCH   1  23
ATOM     23  C   UNL A   1      31.859  30.192  26.393  1.00  0.00     0.023 C 
BRANCH  23  24
ATOM     24  C   UNL A   1      31.618  31.685  26.607  1.00  0.00     0.023 C 
BRANCH  24  25
ATOM     25  C   UNL A   1      32.775  32.442  27.253  1.00  0.00     0.116 C 
BRANCH  25  26
ATOM     26  N   UNL A   1      32.448  33.810  27.621  1.00  0.00    -0.352 N 
ATOM     27  C   UNL A   1      33.132  34.649  28.474  1.00  0.00     0.251 C 
ATOM     28  H   UNL A   1      31.636  34.186  27.208  1.00  0.00     0.163 HD
ATOM     29  O   UNL A   1      32.696  35.750  28.759  1.00  0.00    -0.269 OA
BRANCH  27  30
ATOM     30  C   UNL A   1      34.391  34.162  29.074  1.00  0.00     0.039 A 
ATOM     31  C   UNL A   1      34.332  33.456  30.278  1.00  0.00     0.014 A 
ATOM     32  C   UNL A   1      35.607  34.344  28.413  1.00  0.00     0.014 A 
ATOM     33  C   UNL A   1      35.490  32.865  30.782  1.00  0.00     0.010 A 
ATOM     34  C   UNL A   1      36.746  33.699  28.882  1.00  0.00     0.010 A 
ATOM     35  C   UNL A   1      36.696  32.948  30.067  1.00  0.00    -0.014 A 
BRANCH  35  36
ATOM     36  C   UNL A   1      37.916  32.248  30.534  1.00  0.00     0.031 A 
ATOM     37  C   UNL A   1      38.756  32.850  31.626  1.00  0.00     0.074 A 
ATOM     38  C   UNL A   1      38.310  31.114  29.922  1.00  0.00     0.049 A 
ATOM     39  N   UNL A   1      39.892  32.426  32.119  1.00  0.00    -0.248 NA
ATOM     40  C   UNL A   1      38.271  34.105  32.223  1.00  0.00     0.031 C 
ATOM     41  C   UNL A   1      37.610  30.456  28.815  1.00  0.00     0.029 A 
ATOM     42  N   UNL A   1      39.405  30.317  30.139  1.00  0.00    -0.354 N 
ATOM     43  C   UNL A   1      40.269  33.374  33.062  1.00  0.00     0.074 A 
ATOM     44  C   UNL A   1      39.263  34.413  33.048  1.00  0.00     0.031 C 
ATOM     45  C   UNL A   1      38.282  29.347  28.466  1.00  0.00     0.029 A 
ATOM     46  C   UNL A   1      39.475  29.232  29.298  1.00  0.00     0.049 A 
ATOM     47  H   UNL A   1      40.079  30.504  30.833  1.00  0.00     0.167 HD
ATOM     48  C   UNL A   1      41.348  33.372  33.878  1.00  0.00     0.031 A 
ATOM     49  C   UNL A   1      40.401  28.259  29.204  1.00  0.00     0.031 A 
ATOM     50  C   UNL A   1      42.329  32.323  33.919  1.00  0.00     0.049 A 
ATOM     51  C   UNL A   1      41.578  28.274  30.138  1.00  0.00     0.074 A 
ATOM     52  C   UNL A   1      43.413  32.191  34.770  1.00  0.00     0.029 A 
ATOM     53  N   UNL A   1      42.345  31.225  33.074  1.00  0.00    -0.354 N 
ATOM     54  N   UNL A   1      41.873  29.132  31.083  1.00  0.00    -0.248 NA
ATOM     55  C   UNL A   1      42.546  27.175  30.000  1.00  0.00     0.031 C 
ATOM     56  C   UNL A   1      44.108  31.032  34.413  1.00  0.00     0.029 A 
ATOM     57  C   UNL A   1      43.432  30.421  33.369  1.00  0.00     0.049 A 
ATOM     58  H   UNL A   1      41.682  31.044  32.369  1.00  0.00     0.167 HD
ATOM     59  C   UNL A   1      43.040  28.662  31.671  1.00  0.00     0.074 A 
ATOM     60  C   UNL A   1      43.391  27.435  30.986  1.00  0.00     0.031 C 
ATOM     61  C   UNL A   1      43.758  29.198  32.686  1.00  0.00     0.031 A 
BRANCH  48  62
ATOM     62  C   UNL A   1      41.526  34.541  34.803  1.00  0.00    -0.014 A 
ATOM     63  C   UNL A   1      40.958  34.544  36.086  1.00  0.00     0.009 A 
ATOM     64  C   UNL A   1      42.322  35.628  34.406  1.00  0.00     0.009 A 
ATOM     65  C   UNL A   1      41.164  35.626  36.946  1.00  0.00     0.001 A 
ATOM     66  C   UNL A   1      42.546  36.695  35.277  1.00  0.00     0.001 A 
ATOM     67  C   UNL A   1      41.963  36.696  36.543  1.00  0.00     0.000 A 
ENDBRANCH  48  62
BRANCH  49  68
ATOM     68  C   UNL A   1      40.255  27.175  28.198  1.00  0.00    -0.014 A 
ATOM     69  C   UNL A   1      39.557  25.999  28.518  1.00  0.00     0.009 A 
ATOM     70  C   UNL A   1      40.843  27.292  26.930  1.00  0.00     0.009 A 
ATOM     71  C   UNL A   1      39.484  24.948  27.601  1.00  0.00     0.001 A 
ATOM     72  C   UNL A   1      40.744  26.250  26.006  1.00  0.00     0.001 A 
ATOM     73  C   UNL A   1      40.076  25.075  26.346  1.00  0.00     0.000 A 
ENDBRANCH  49  68
BRANCH  61  74
ATOM     74  C   UNL A   1      44.968  28.440  33.147  1.00  0.00    -0.014 A 
ATOM     75  C   UNL A   1      46.235  28.693  32.602  1.00  0.00     0.009 A 
ATOM     76  C   UNL A   1      44.841  27.488  34.172  1.00  0.00     0.009 A 
ATOM     77  C   UNL A   1      47.350  27.984  33.055  1.00  0.00     0.001 A 
ATOM     78  C   UNL A   1      45.961  26.801  34.641  1.00  0.00     0.001 A 
ATOM     79  C   UNL A   1      47.212  27.044  34.076  1.00  0.00     0.000 A 
ENDBRANCH  61  74
ENDBRANCH  35  36
ENDBRANCH  27  30
ENDBRANCH  25  26
ENDBRANCH  24  25
ENDBRANCH  23  24
ENDBRANCH   1  23
TORSDOF 17
ENDMDL
