MODEL 1
REMARK VINA RESULT:     -12.5      0.000      0.000
REMARK SMILES CCC[C@@H]1CCc2nc3c(F)cccc3c(C(=O)NCCCCNC(=O)c3ccc(-c4c5nc(c(-c6ccccc6)c6ccc([nH]6)c(-c6ccccc6)c6nc(c(-c7ccccc7)c7ccc4[nH]7)C=C6)C=C5)cc3)c2C1
REMARK SMILES IDX 21 1 20 2 19 3 17 4 18 5 16 7 4 8 5 9 76 10 6 11 75 12 7 13
REMARK SMILES IDX 8 14 15 15 9 16 14 17 10 18 13 19 11 20 12 21 3 22 2 23 1 24
REMARK SMILES IDX 22 25 23 26 24 27 25 28 26 30 27 31 28 32 74 33 29 34 73 35
REMARK SMILES IDX 30 36 31 37 32 38 67 39 33 40 72 41 66 42 68 43 34 44 71 45
REMARK SMILES IDX 65 46 64 47 35 49 57 50 42 51 56 52 43 53 46 54 55 55 69 56
REMARK SMILES IDX 44 57 45 58 54 60 70 61 47 62 36 63 37 64 41 65 38 66 40 67
REMARK SMILES IDX 39 68 58 69 59 70 63 71 60 72 62 73 61 74 48 75 49 76 53 77
REMARK SMILES IDX 50 78 52 79 51 80
REMARK H PARENT 19 6 24 29 68 48 46 59
REMARK Flexibility Score: inf
ROOT
ATOM      1  C   UNL A   1      37.407  21.505  24.567  1.00  0.00     0.023 C 
ENDROOT
BRANCH   1   2
ATOM      2  C   UNL A   1      37.237  22.533  25.699  1.00  0.00     0.116 C 
BRANCH   2   3
ATOM      3  N   UNL A   1      36.047  22.203  26.464  1.00  0.00    -0.352 N 
ATOM      4  C   UNL A   1      34.791  22.770  26.438  1.00  0.00     0.252 C 
ATOM      5  O   UNL A   1      34.234  22.914  27.526  1.00  0.00    -0.269 OA
ATOM      6  H   UNL A   1      36.155  21.457  27.099  1.00  0.00     0.163 HD
BRANCH   4   7
ATOM      7  C   UNL A   1      34.048  23.075  25.167  1.00  0.00     0.054 A 
ATOM      8  C   UNL A   1      32.465  19.658  24.364  1.00  0.00    -0.006 C 
ATOM      9  C   UNL A   1      32.289  19.840  22.851  1.00  0.00     0.010 C 
ATOM     10  C   UNL A   1      33.640  20.534  24.840  1.00  0.00     0.042 C 
ATOM     11  C   UNL A   1      32.017  21.295  22.502  1.00  0.00     0.057 C 
ATOM     12  C   UNL A   1      33.522  21.987  24.427  1.00  0.00    -0.013 A 
ATOM     13  C   UNL A   1      32.893  22.287  23.219  1.00  0.00     0.045 A 
ATOM     14  N   UNL A   1      32.889  23.525  22.681  1.00  0.00    -0.249 NA
ATOM     15  C   UNL A   1      33.807  24.403  24.711  1.00  0.00     0.016 A 
ATOM     16  C   UNL A   1      33.335  24.564  23.399  1.00  0.00     0.107 A 
ATOM     17  C   UNL A   1      33.941  25.578  25.488  1.00  0.00     0.011 A 
ATOM     18  C   UNL A   1      33.280  25.852  22.858  1.00  0.00     0.149 A 
ATOM     19  C   UNL A   1      33.872  26.857  24.940  1.00  0.00     0.004 A 
ATOM     20  F   UNL A   1      32.899  26.025  21.582  1.00  0.00    -0.205 F 
ATOM     21  C   UNL A   1      33.581  26.992  23.597  1.00  0.00     0.041 A 
BRANCH   8  22
ATOM     22  C   UNL A   1      32.646  18.159  24.683  1.00  0.00     0.003 C 
BRANCH  22  23
ATOM     23  C   UNL A   1      34.025  17.553  24.404  1.00  0.00    -0.003 C 
ATOM     24  C   UNL A   1      34.085  16.673  23.166  1.00  0.00     0.004 C 
ENDBRANCH  22  23
ENDBRANCH   8  22
ENDBRANCH   4   7
ENDBRANCH   2   3
ENDBRANCH   1   2
BRANCH   1  25
ATOM     25  C   UNL A   1      38.055  20.187  24.969  1.00  0.00     0.023 C 
BRANCH  25  26
ATOM     26  C   UNL A   1      39.159  20.319  25.999  1.00  0.00     0.116 C 
BRANCH  26  27
ATOM     27  N   UNL A   1      40.164  19.265  25.907  1.00  0.00    -0.352 N 
ATOM     28  C   UNL A   1      41.514  19.369  26.133  1.00  0.00     0.251 C 
ATOM     29  H   UNL A   1      39.834  18.373  25.651  1.00  0.00     0.163 HD
ATOM     30  O   UNL A   1      42.271  18.424  25.944  1.00  0.00    -0.269 OA
BRANCH  28  31
ATOM     31  C   UNL A   1      42.032  20.672  26.577  1.00  0.00     0.039 A 
ATOM     32  C   UNL A   1      42.409  21.611  25.617  1.00  0.00     0.014 A 
ATOM     33  C   UNL A   1      42.005  20.992  27.938  1.00  0.00     0.014 A 
ATOM     34  C   UNL A   1      42.696  22.913  26.022  1.00  0.00     0.010 A 
ATOM     35  C   UNL A   1      42.220  22.304  28.329  1.00  0.00     0.010 A 
ATOM     36  C   UNL A   1      42.571  23.270  27.374  1.00  0.00    -0.014 A 
BRANCH  36  37
ATOM     37  C   UNL A   1      42.861  24.646  27.828  1.00  0.00     0.031 A 
ATOM     38  C   UNL A   1      44.288  25.059  28.027  1.00  0.00     0.074 A 
ATOM     39  C   UNL A   1      41.853  25.495  28.100  1.00  0.00     0.049 A 
ATOM     40  N   UNL A   1      44.761  26.193  28.472  1.00  0.00    -0.248 NA
ATOM     41  C   UNL A   1      45.319  24.057  27.704  1.00  0.00     0.031 C 
ATOM     42  C   UNL A   1      40.426  25.194  27.969  1.00  0.00     0.029 A 
ATOM     43  N   UNL A   1      41.881  26.793  28.543  1.00  0.00    -0.354 N 
ATOM     44  C   UNL A   1      46.140  26.035  28.494  1.00  0.00     0.074 A 
ATOM     45  C   UNL A   1      46.427  24.685  28.067  1.00  0.00     0.031 C 
ATOM     46  C   UNL A   1      39.716  26.290  28.289  1.00  0.00     0.029 A 
ATOM     47  C   UNL A   1      40.635  27.357  28.673  1.00  0.00     0.049 A 
ATOM     48  H   UNL A   1      42.715  27.274  28.749  1.00  0.00     0.167 HD
ATOM     49  C   UNL A   1      47.085  26.945  28.814  1.00  0.00     0.031 A 
ATOM     50  C   UNL A   1      40.280  28.599  29.052  1.00  0.00     0.031 A 
ATOM     51  C   UNL A   1      46.802  28.294  29.208  1.00  0.00     0.049 A 
ATOM     52  C   UNL A   1      41.349  29.591  29.411  1.00  0.00     0.074 A 
ATOM     53  C   UNL A   1      47.694  29.306  29.513  1.00  0.00     0.029 A 
ATOM     54  N   UNL A   1      45.527  28.820  29.338  1.00  0.00    -0.354 N 
ATOM     55  N   UNL A   1      42.651  29.435  29.405  1.00  0.00    -0.248 NA
ATOM     56  C   UNL A   1      40.903  30.929  29.827  1.00  0.00     0.031 C 
ATOM     57  C   UNL A   1      46.955  30.443  29.852  1.00  0.00     0.029 A 
ATOM     58  C   UNL A   1      45.608  30.144  29.727  1.00  0.00     0.049 A 
ATOM     59  H   UNL A   1      44.691  28.327  29.178  1.00  0.00     0.167 HD
ATOM     60  C   UNL A   1      43.179  30.656  29.799  1.00  0.00     0.074 A 
ATOM     61  C   UNL A   1      42.060  31.546  30.031  1.00  0.00     0.031 C 
ATOM     62  C   UNL A   1      44.479  31.008  29.951  1.00  0.00     0.031 A 
BRANCH  49  63
ATOM     63  C   UNL A   1      48.515  26.507  28.727  1.00  0.00    -0.014 A 
ATOM     64  C   UNL A   1      49.179  26.001  29.855  1.00  0.00     0.009 A 
ATOM     65  C   UNL A   1      49.197  26.575  27.503  1.00  0.00     0.009 A 
ATOM     66  C   UNL A   1      50.509  25.588  29.764  1.00  0.00     0.001 A 
ATOM     67  C   UNL A   1      50.520  26.143  27.411  1.00  0.00     0.001 A 
ATOM     68  C   UNL A   1      51.176  25.656  28.542  1.00  0.00     0.000 A 
ENDBRANCH  49  63
BRANCH  50  69
ATOM     69  C   UNL A   1      38.846  28.980  29.065  1.00  0.00    -0.014 A 
ATOM     70  C   UNL A   1      38.095  28.844  30.242  1.00  0.00     0.009 A 
ATOM     71  C   UNL A   1      38.232  29.511  27.921  1.00  0.00     0.009 A 
ATOM     72  C   UNL A   1      36.752  29.227  30.270  1.00  0.00     0.001 A 
ATOM     73  C   UNL A   1      36.894  29.907  27.958  1.00  0.00     0.001 A 
ATOM     74  C   UNL A   1      36.154  29.762  29.132  1.00  0.00     0.000 A 
ENDBRANCH  50  69
BRANCH  62  75
ATOM     75  C   UNL A   1      44.776  32.414  30.378  1.00  0.00    -0.014 A 
ATOM     76  C   UNL A   1      44.926  32.731  31.735  1.00  0.00     0.009 A 
ATOM     77  C   UNL A   1      45.027  33.395  29.408  1.00  0.00     0.009 A 
ATOM     78  C   UNL A   1      45.324  34.014  32.113  1.00  0.00     0.001 A 
ATOM     79  C   UNL A   1      45.440  34.672  29.790  1.00  0.00     0.001 A 
ATOM     80  C   UNL A   1      45.589  34.979  31.142  1.00  0.00     0.000 A 
ENDBRANCH  62  75
ENDBRANCH  36  37
ENDBRANCH  28  31
ENDBRANCH  26  27
ENDBRANCH  25  26
ENDBRANCH   1  25
TORSDOF 13
ENDMDL
MODEL 2
REMARK VINA RESULT:     -12.5      4.645      9.676
REMARK SMILES CCC[C@@H]1CCc2nc3c(F)cccc3c(C(=O)NCCCCNC(=O)c3ccc(-c4c5nc(c(-c6ccccc6)c6ccc([nH]6)c(-c6ccccc6)c6nc(c(-c7ccccc7)c7ccc4[nH]7)C=C6)C=C5)cc3)c2C1
REMARK SMILES IDX 21 1 20 2 19 3 17 4 18 5 16 7 4 8 5 9 76 10 6 11 75 12 7 13
REMARK SMILES IDX 8 14 15 15 9 16 14 17 10 18 13 19 11 20 12 21 3 22 2 23 1 24
REMARK SMILES IDX 22 25 23 26 24 27 25 28 26 30 27 31 28 32 74 33 29 34 73 35
REMARK SMILES IDX 30 36 31 37 32 38 67 39 33 40 72 41 66 42 68 43 34 44 71 45
REMARK SMILES IDX 65 46 64 47 35 49 57 50 42 51 56 52 43 53 46 54 55 55 69 56
REMARK SMILES IDX 44 57 45 58 54 60 70 61 47 62 36 63 37 64 41 65 38 66 40 67
REMARK SMILES IDX 39 68 58 69 59 70 63 71 60 72 62 73 61 74 48 75 49 76 53 77
REMARK SMILES IDX 50 78 52 79 51 80
REMARK H PARENT 19 6 24 29 68 48 46 59
REMARK Flexibility Score: inf
ROOT
ATOM      1  C   UNL A   1      31.897  30.286  26.788  1.00  0.00     0.023 C 
ENDROOT
BRANCH   1   2
ATOM      2  C   UNL A   1      33.355  29.897  26.490  1.00  0.00     0.116 C 
BRANCH   2   3
ATOM      3  N   UNL A   1      33.496  29.640  25.067  1.00  0.00    -0.352 N 
ATOM      4  C   UNL A   1      33.516  28.444  24.381  1.00  0.00     0.252 C 
ATOM      5  O   UNL A   1      34.327  28.358  23.460  1.00  0.00    -0.269 OA
ATOM      6  H   UNL A   1      33.590  30.444  24.507  1.00  0.00     0.163 HD
BRANCH   4   7
ATOM      7  C   UNL A   1      32.524  27.339  24.617  1.00  0.00     0.054 A 
ATOM      8  C   UNL A   1      29.490  28.591  22.603  1.00  0.00    -0.006 C 
ATOM      9  C   UNL A   1      28.390  27.829  23.354  1.00  0.00     0.010 C 
ATOM     10  C   UNL A   1      30.678  28.822  23.557  1.00  0.00     0.042 C 
ATOM     11  C   UNL A   1      28.903  26.493  23.868  1.00  0.00     0.057 C 
ATOM     12  C   UNL A   1      31.181  27.556  24.220  1.00  0.00    -0.013 A 
ATOM     13  C   UNL A   1      30.264  26.545  24.507  1.00  0.00     0.045 A 
ATOM     14  N   UNL A   1      30.576  25.460  25.246  1.00  0.00    -0.249 NA
ATOM     15  C   UNL A   1      32.889  26.076  25.165  1.00  0.00     0.016 A 
ATOM     16  C   UNL A   1      31.853  25.223  25.575  1.00  0.00     0.107 A 
ATOM     17  C   UNL A   1      34.207  25.576  25.276  1.00  0.00     0.011 A 
ATOM     18  C   UNL A   1      32.177  24.070  26.296  1.00  0.00     0.149 A 
ATOM     19  C   UNL A   1      34.518  24.418  25.987  1.00  0.00     0.004 A 
ATOM     20  F   UNL A   1      31.199  23.274  26.761  1.00  0.00    -0.205 F 
ATOM     21  C   UNL A   1      33.490  23.681  26.542  1.00  0.00     0.041 A 
BRANCH   8  22
ATOM     22  C   UNL A   1      28.904  29.895  22.020  1.00  0.00     0.003 C 
BRANCH  22  23
ATOM     23  C   UNL A   1      27.549  30.350  22.569  1.00  0.00    -0.003 C 
ATOM     24  C   UNL A   1      27.633  31.421  23.644  1.00  0.00     0.004 C 
ENDBRANCH  22  23
ENDBRANCH   8  22
ENDBRANCH   4   7
ENDBRANCH   2   3
ENDBRANCH   1   2
BRANCH   1  25
ATOM     25  C   UNL A   1      31.612  31.781  26.841  1.00  0.00     0.023 C 
BRANCH  25  26
ATOM     26  C   UNL A   1      32.797  32.631  27.254  1.00  0.00     0.116 C 
BRANCH  26  27
ATOM     27  N   UNL A   1      32.429  33.989  27.637  1.00  0.00    -0.352 N 
ATOM     28  C   UNL A   1      33.055  34.805  28.547  1.00  0.00     0.251 C 
ATOM     29  H   UNL A   1      31.635  34.365  27.191  1.00  0.00     0.163 HD
ATOM     30  O   UNL A   1      32.599  35.904  28.844  1.00  0.00    -0.269 OA
BRANCH  28  31
ATOM     31  C   UNL A   1      34.279  34.299  29.186  1.00  0.00     0.039 A 
ATOM     32  C   UNL A   1      34.167  33.532  30.346  1.00  0.00     0.014 A 
ATOM     33  C   UNL A   1      35.509  34.478  28.547  1.00  0.00     0.014 A 
ATOM     34  C   UNL A   1      35.295  32.876  30.833  1.00  0.00     0.010 A 
ATOM     35  C   UNL A   1      36.613  33.767  28.992  1.00  0.00     0.010 A 
ATOM     36  C   UNL A   1      36.513  32.966  30.139  1.00  0.00    -0.014 A 
BRANCH  36  37
ATOM     37  C   UNL A   1      37.722  32.272  30.630  1.00  0.00     0.031 A 
ATOM     38  C   UNL A   1      38.465  32.848  31.798  1.00  0.00     0.074 A 
ATOM     39  C   UNL A   1      38.168  31.167  30.006  1.00  0.00     0.049 A 
ATOM     40  N   UNL A   1      39.574  32.436  32.350  1.00  0.00    -0.248 NA
ATOM     41  C   UNL A   1      37.897  34.062  32.411  1.00  0.00     0.031 C 
ATOM     42  C   UNL A   1      37.541  30.532  28.845  1.00  0.00     0.029 A 
ATOM     43  N   UNL A   1      39.259  30.379  30.269  1.00  0.00    -0.354 N 
ATOM     44  C   UNL A   1      39.842  33.344  33.365  1.00  0.00     0.074 A 
ATOM     45  C   UNL A   1      38.812  34.356  33.322  1.00  0.00     0.031 C 
ATOM     46  C   UNL A   1      38.239  29.431  28.519  1.00  0.00     0.029 A 
ATOM     47  C   UNL A   1      39.374  29.299  29.428  1.00  0.00     0.049 A 
ATOM     48  H   UNL A   1      39.900  30.569  30.992  1.00  0.00     0.167 HD
ATOM     49  C   UNL A   1      40.844  33.321  34.271  1.00  0.00     0.031 A 
ATOM     50  C   UNL A   1      40.288  28.312  29.403  1.00  0.00     0.031 A 
ATOM     51  C   UNL A   1      41.849  32.300  34.333  1.00  0.00     0.049 A 
ATOM     52  C   UNL A   1      41.397  28.312  30.415  1.00  0.00     0.074 A 
ATOM     53  C   UNL A   1      42.883  32.165  35.241  1.00  0.00     0.029 A 
ATOM     54  N   UNL A   1      41.935  31.232  33.455  1.00  0.00    -0.354 N 
ATOM     55  N   UNL A   1      41.625  29.165  31.385  1.00  0.00    -0.248 NA
ATOM     56  C   UNL A   1      42.373  27.215  30.335  1.00  0.00     0.031 C 
ATOM     57  C   UNL A   1      43.612  31.024  34.897  1.00  0.00     0.029 A 
ATOM     58  C   UNL A   1      43.011  30.435  33.796  1.00  0.00     0.049 A 
ATOM     59  H   UNL A   1      41.323  31.065  32.704  1.00  0.00     0.167 HD
ATOM     60  C   UNL A   1      42.758  28.701  32.038  1.00  0.00     0.074 A 
ATOM     61  C   UNL A   1      43.169  27.488  31.360  1.00  0.00     0.031 C 
ATOM     62  C   UNL A   1      43.398  29.233  33.107  1.00  0.00     0.031 A 
BRANCH  49  63
ATOM     63  C   UNL A   1      40.881  34.427  35.281  1.00  0.00    -0.014 A 
ATOM     64  C   UNL A   1      40.209  34.300  36.506  1.00  0.00     0.009 A 
ATOM     65  C   UNL A   1      41.613  35.594  35.018  1.00  0.00     0.009 A 
ATOM     66  C   UNL A   1      40.254  35.331  37.445  1.00  0.00     0.001 A 
ATOM     67  C   UNL A   1      41.672  36.615  35.966  1.00  0.00     0.001 A 
ATOM     68  C   UNL A   1      40.988  36.485  37.176  1.00  0.00     0.000 A 
ENDBRANCH  49  63
BRANCH  50  69
ATOM     69  C   UNL A   1      40.161  27.219  28.407  1.00  0.00    -0.014 A 
ATOM     70  C   UNL A   1      40.796  27.327  27.161  1.00  0.00     0.009 A 
ATOM     71  C   UNL A   1      39.438  26.054  28.706  1.00  0.00     0.009 A 
ATOM     72  C   UNL A   1      40.704  26.291  26.230  1.00  0.00     0.001 A 
ATOM     73  C   UNL A   1      39.361  25.014  27.778  1.00  0.00     0.001 A 
ATOM     74  C   UNL A   1      39.992  25.134  26.540  1.00  0.00     0.000 A 
ENDBRANCH  50  69
BRANCH  62  75
ATOM     75  C   UNL A   1      44.605  28.512  33.627  1.00  0.00    -0.014 A 
ATOM     76  C   UNL A   1      45.891  28.867  33.197  1.00  0.00     0.009 A 
ATOM     77  C   UNL A   1      44.457  27.558  34.645  1.00  0.00     0.009 A 
ATOM     78  C   UNL A   1      47.012  28.275  33.779  1.00  0.00     0.001 A 
ATOM     79  C   UNL A   1      45.582  26.980  35.236  1.00  0.00     0.001 A 
ATOM     80  C   UNL A   1      46.857  27.340  34.803  1.00  0.00     0.000 A 
ENDBRANCH  62  75
ENDBRANCH  36  37
ENDBRANCH  28  31
ENDBRANCH  26  27
ENDBRANCH  25  26
ENDBRANCH   1  25
TORSDOF 13
ENDMDL
MODEL 3
REMARK VINA RESULT:     -12.2      0.992      5.952
REMARK SMILES CCC[C@@H]1CCc2nc3c(F)cccc3c(C(=O)NCCCCNC(=O)c3ccc(-c4c5nc(c(-c6ccccc6)c6ccc([nH]6)c(-c6ccccc6)c6nc(c(-c7ccccc7)c7ccc4[nH]7)C=C6)C=C5)cc3)c2C1
REMARK SMILES IDX 21 1 20 2 19 3 17 4 18 5 16 7 4 8 5 9 76 10 6 11 75 12 7 13
REMARK SMILES IDX 8 14 15 15 9 16 14 17 10 18 13 19 11 20 12 21 3 22 2 23 1 24
REMARK SMILES IDX 22 25 23 26 24 27 25 28 26 30 27 31 28 32 74 33 29 34 73 35
REMARK SMILES IDX 30 36 31 37 32 38 67 39 33 40 72 41 66 42 68 43 34 44 71 45
REMARK SMILES IDX 65 46 64 47 35 49 57 50 42 51 56 52 43 53 46 54 55 55 69 56
REMARK SMILES IDX 44 57 45 58 54 60 70 61 47 62 36 63 37 64 41 65 38 66 40 67
REMARK SMILES IDX 39 68 58 69 59 70 63 71 60 72 62 73 61 74 48 75 49 76 53 77
REMARK SMILES IDX 50 78 52 79 51 80
REMARK H PARENT 19 6 24 29 68 48 46 59
REMARK Flexibility Score: inf
ROOT
ATOM      1  C   UNL A   1      37.410  21.655  24.603  1.00  0.00     0.023 C 
ENDROOT
BRANCH   1   2
ATOM      2  C   UNL A   1      37.191  22.637  25.767  1.00  0.00     0.116 C 
BRANCH   2   3
ATOM      3  N   UNL A   1      35.977  22.270  26.475  1.00  0.00    -0.352 N 
ATOM      4  C   UNL A   1      34.721  22.837  26.433  1.00  0.00     0.252 C 
ATOM      5  O   UNL A   1      34.127  22.928  27.506  1.00  0.00    -0.269 OA
ATOM      6  H   UNL A   1      36.065  21.496  27.078  1.00  0.00     0.163 HD
BRANCH   4   7
ATOM      7  C   UNL A   1      34.021  23.200  25.152  1.00  0.00     0.054 A 
ATOM      8  C   UNL A   1      32.419  19.837  24.174  1.00  0.00    -0.006 C 
ATOM      9  C   UNL A   1      32.291  20.079  22.664  1.00  0.00     0.010 C 
ATOM     10  C   UNL A   1      33.590  20.679  24.717  1.00  0.00     0.042 C 
ATOM     11  C   UNL A   1      32.049  21.549  22.363  1.00  0.00     0.057 C 
ATOM     12  C   UNL A   1      33.503  22.148  24.357  1.00  0.00    -0.013 A 
ATOM     13  C   UNL A   1      32.915  22.501  23.142  1.00  0.00     0.045 A 
ATOM     14  N   UNL A   1      32.944  23.759  22.652  1.00  0.00    -0.249 NA
ATOM     15  C   UNL A   1      33.811  24.547  24.741  1.00  0.00     0.016 A 
ATOM     16  C   UNL A   1      33.381  24.764  23.422  1.00  0.00     0.107 A 
ATOM     17  C   UNL A   1      33.937  25.690  25.565  1.00  0.00     0.011 A 
ATOM     18  C   UNL A   1      33.359  26.071  22.929  1.00  0.00     0.149 A 
ATOM     19  C   UNL A   1      33.901  26.990  25.065  1.00  0.00     0.004 A 
ATOM     20  F   UNL A   1      33.019  26.298  21.649  1.00  0.00    -0.205 F 
ATOM     21  C   UNL A   1      33.653  27.179  23.719  1.00  0.00     0.041 A 
BRANCH   8  22
ATOM     22  C   UNL A   1      32.570  18.325  24.441  1.00  0.00     0.003 C 
BRANCH  22  23
ATOM     23  C   UNL A   1      32.812  17.428  23.223  1.00  0.00    -0.003 C 
ATOM     24  C   UNL A   1      34.200  16.811  23.163  1.00  0.00     0.004 C 
ENDBRANCH  22  23
ENDBRANCH   8  22
ENDBRANCH   4   7
ENDBRANCH   2   3
ENDBRANCH   1   2
BRANCH   1  25
ATOM     25  C   UNL A   1      38.067  20.332  24.973  1.00  0.00     0.023 C 
BRANCH  25  26
ATOM     26  C   UNL A   1      39.266  20.463  25.889  1.00  0.00     0.116 C 
BRANCH  26  27
ATOM     27  N   UNL A   1      40.117  19.277  25.900  1.00  0.00    -0.352 N 
ATOM     28  C   UNL A   1      41.473  19.218  26.105  1.00  0.00     0.251 C 
ATOM     29  H   UNL A   1      39.664  18.418  25.740  1.00  0.00     0.163 HD
ATOM     30  O   UNL A   1      42.091  18.163  26.009  1.00  0.00    -0.269 OA
BRANCH  28  31
ATOM     31  C   UNL A   1      42.172  20.475  26.409  1.00  0.00     0.039 A 
ATOM     32  C   UNL A   1      42.606  21.278  25.354  1.00  0.00     0.014 A 
ATOM     33  C   UNL A   1      42.262  20.905  27.736  1.00  0.00     0.014 A 
ATOM     34  C   UNL A   1      43.075  22.561  25.629  1.00  0.00     0.010 A 
ATOM     35  C   UNL A   1      42.660  22.207  28.000  1.00  0.00     0.010 A 
ATOM     36  C   UNL A   1      43.072  23.039  26.949  1.00  0.00    -0.014 A 
BRANCH  36  37
ATOM     37  C   UNL A   1      43.554  24.400  27.267  1.00  0.00     0.031 A 
ATOM     38  C   UNL A   1      42.566  25.432  27.722  1.00  0.00     0.074 A 
ATOM     39  C   UNL A   1      44.852  24.713  27.104  1.00  0.00     0.049 A 
ATOM     40  N   UNL A   1      42.763  26.694  27.996  1.00  0.00    -0.248 NA
ATOM     41  C   UNL A   1      41.167  24.992  27.867  1.00  0.00     0.031 C 
ATOM     42  C   UNL A   1      45.898  23.798  26.642  1.00  0.00     0.029 A 
ATOM     43  N   UNL A   1      45.513  25.896  27.316  1.00  0.00    -0.354 N 
ATOM     44  C   UNL A   1      41.516  27.199  28.333  1.00  0.00     0.074 A 
ATOM     45  C   UNL A   1      40.560  26.125  28.182  1.00  0.00     0.031 C 
ATOM     46  C   UNL A   1      47.076  24.445  26.640  1.00  0.00     0.029 A 
ATOM     47  C   UNL A   1      46.863  25.823  27.073  1.00  0.00     0.049 A 
ATOM     48  H   UNL A   1      45.063  26.719  27.613  1.00  0.00     0.167 HD
ATOM     49  C   UNL A   1      41.197  28.441  28.758  1.00  0.00     0.031 A 
ATOM     50  C   UNL A   1      47.819  26.763  27.196  1.00  0.00     0.031 A 
ATOM     51  C   UNL A   1      42.150  29.497  28.938  1.00  0.00     0.049 A 
ATOM     52  C   UNL A   1      47.441  28.139  27.663  1.00  0.00     0.074 A 
ATOM     53  C   UNL A   1      41.933  30.780  29.405  1.00  0.00     0.029 A 
ATOM     54  N   UNL A   1      43.505  29.384  28.670  1.00  0.00    -0.354 N 
ATOM     55  N   UNL A   1      46.259  28.596  28.000  1.00  0.00    -0.248 NA
ATOM     56  C   UNL A   1      48.524  29.128  27.769  1.00  0.00     0.031 C 
ATOM     57  C   UNL A   1      43.156  31.455  29.396  1.00  0.00     0.029 A 
ATOM     58  C   UNL A   1      44.137  30.580  28.954  1.00  0.00     0.049 A 
ATOM     59  H   UNL A   1      43.949  28.576  28.328  1.00  0.00     0.167 HD
ATOM     60  C   UNL A   1      46.458  29.918  28.373  1.00  0.00     0.074 A 
ATOM     61  C   UNL A   1      47.873  30.190  28.227  1.00  0.00     0.031 C 
ATOM     62  C   UNL A   1      45.546  30.824  28.801  1.00  0.00     0.031 A 
BRANCH  49  63
ATOM     63  C   UNL A   1      39.759  28.709  29.078  1.00  0.00    -0.014 A 
ATOM     64  C   UNL A   1      39.249  28.442  30.357  1.00  0.00     0.009 A 
ATOM     65  C   UNL A   1      38.913  29.257  28.103  1.00  0.00     0.009 A 
ATOM     66  C   UNL A   1      37.909  28.701  30.650  1.00  0.00     0.001 A 
ATOM     67  C   UNL A   1      37.579  29.533  28.404  1.00  0.00     0.001 A 
ATOM     68  C   UNL A   1      37.077  29.250  29.675  1.00  0.00     0.000 A 
ENDBRANCH  49  63
BRANCH  50  69
ATOM     69  C   UNL A   1      49.232  26.413  26.912  1.00  0.00    -0.014 A 
ATOM     70  C   UNL A   1      49.770  26.641  25.636  1.00  0.00     0.009 A 
ATOM     71  C   UNL A   1      50.059  25.885  27.915  1.00  0.00     0.009 A 
ATOM     72  C   UNL A   1      51.107  26.341  25.369  1.00  0.00     0.001 A 
ATOM     73  C   UNL A   1      51.399  25.600  27.649  1.00  0.00     0.001 A 
ATOM     74  C   UNL A   1      51.921  25.826  26.376  1.00  0.00     0.000 A 
ENDBRANCH  50  69
BRANCH  62  75
ATOM     75  C   UNL A   1      46.039  32.195  29.157  1.00  0.00    -0.014 A 
ATOM     76  C   UNL A   1      46.009  33.232  28.214  1.00  0.00     0.009 A 
ATOM     77  C   UNL A   1      46.417  32.475  30.478  1.00  0.00     0.009 A 
ATOM     78  C   UNL A   1      46.353  34.530  28.591  1.00  0.00     0.001 A 
ATOM     79  C   UNL A   1      46.744  33.778  30.854  1.00  0.00     0.001 A 
ATOM     80  C   UNL A   1      46.711  34.804  29.911  1.00  0.00     0.000 A 
ENDBRANCH  62  75
ENDBRANCH  36  37
ENDBRANCH  28  31
ENDBRANCH  26  27
ENDBRANCH  25  26
ENDBRANCH   1  25
TORSDOF 13
ENDMDL
