MODEL 1
REMARK VINA RESULT:     -11.3      0.000      0.000
REMARK SMILES CC1(C)[C@H](C(=O)Nc2ccccc2C(N)=O)[C@@H]1C(=O)NCCCCNC(=O)c1ccc(-c2c3nc(c(-c4ccccc4)c4ccc([nH]4)c(-c4ccccc4)c4nc(c(-c5ccccc5)c5ccc2[nH]5)C=C4)C=C3)cc1
REMARK SMILES IDX 22 1 21 2 20 3 18 4 19 5 17 7 1 8 2 9 3 10 4 11 5 12 6 13
REMARK SMILES IDX 7 14 8 16 9 17 13 18 10 19 12 20 11 21 14 22 15 23 16 24
REMARK SMILES IDX 23 27 24 28 25 29 26 30 27 32 28 33 29 34 75 35 30 36 74 37
REMARK SMILES IDX 31 38 32 39 33 40 68 41 34 42 73 43 67 44 69 45 35 46 72 47
REMARK SMILES IDX 66 48 65 49 36 51 58 52 43 53 57 54 44 55 47 56 56 57 70 58
REMARK SMILES IDX 45 59 46 60 55 62 71 63 48 64 37 65 38 66 42 67 39 68 41 69
REMARK SMILES IDX 40 70 59 71 60 72 64 73 61 74 63 75 62 76 49 77 50 78 54 79
REMARK SMILES IDX 51 80 53 81 52 82
REMARK H PARENT 20 6 7 15 15 25 15 26 25 31 69 50 47 61
REMARK Flexibility Score: inf
ROOT
ATOM      1  C   UNL A   1      37.258  20.903  24.795  1.00  0.00     0.023 C 
ENDROOT
BRANCH   1   2
ATOM      2  C   UNL A   1      35.876  20.597  25.354  1.00  0.00     0.116 C 
BRANCH   2   3
ATOM      3  N   UNL A   1      35.485  21.543  26.370  1.00  0.00    -0.356 N 
ATOM      4  C   UNL A   1      34.274  22.143  26.547  1.00  0.00     0.224 C 
ATOM      5  O   UNL A   1      34.201  23.089  27.322  1.00  0.00    -0.275 OA
ATOM      6  H   UNL A   1      36.183  21.789  27.019  1.00  0.00     0.163 HD
BRANCH   4   7
ATOM      7  C   UNL A   1      33.082  21.699  25.760  1.00  0.00     0.098 C 
ATOM      8  C   UNL A   1      32.280  21.466  23.265  1.00  0.00     0.013 C 
ATOM      9  C   UNL A   1      32.825  22.343  24.387  1.00  0.00    -0.011 C 
ATOM     10  C   UNL A   1      33.897  23.263  23.874  1.00  0.00     0.013 C 
ATOM     11  C   UNL A   1      31.827  22.529  25.513  1.00  0.00     0.098 C 
BRANCH  11  12
ATOM     12  C   UNL A   1      31.367  23.497  26.540  1.00  0.00     0.228 C 
ATOM     13  O   UNL A   1      30.807  23.006  27.527  1.00  0.00    -0.274 OA
ATOM     14  N   UNL A   1      31.630  24.831  26.617  1.00  0.00    -0.325 N 
ATOM     15  H   UNL A   1      31.429  25.227  27.496  1.00  0.00     0.169 HD
BRANCH  14  16
ATOM     16  C   UNL A   1      32.125  25.740  25.693  1.00  0.00     0.053 A 
ATOM     17  C   UNL A   1      33.259  26.448  26.116  1.00  0.00     0.027 A 
ATOM     18  C   UNL A   1      31.565  25.986  24.431  1.00  0.00     0.063 A 
ATOM     19  C   UNL A   1      33.935  27.283  25.234  1.00  0.00     0.002 A 
ATOM     20  C   UNL A   1      32.246  26.846  23.553  1.00  0.00     0.016 A 
ATOM     21  C   UNL A   1      33.444  27.458  23.943  1.00  0.00     0.001 A 
BRANCH  18  22
ATOM     22  C   UNL A   1      30.230  25.431  24.061  1.00  0.00     0.250 C 
ATOM     23  N   UNL A   1      29.121  26.001  24.621  1.00  0.00    -0.366 N 
ATOM     24  O   UNL A   1      30.101  24.494  23.283  1.00  0.00    -0.269 OA
ATOM     25  H   UNL A   1      29.218  26.754  25.247  1.00  0.00     0.159 HD
ATOM     26  H   UNL A   1      28.225  25.658  24.398  1.00  0.00     0.159 HD
ENDBRANCH  18  22
ENDBRANCH  14  16
ENDBRANCH  11  12
ENDBRANCH   4   7
ENDBRANCH   2   3
ENDBRANCH   1   2
BRANCH   1  27
ATOM     27  C   UNL A   1      38.264  19.756  24.910  1.00  0.00     0.023 C 
BRANCH  27  28
ATOM     28  C   UNL A   1      39.241  19.855  26.077  1.00  0.00     0.116 C 
BRANCH  28  29
ATOM     29  N   UNL A   1      40.489  19.153  25.832  1.00  0.00    -0.352 N 
ATOM     30  C   UNL A   1      41.781  19.610  25.919  1.00  0.00     0.251 C 
ATOM     31  H   UNL A   1      40.395  18.209  25.565  1.00  0.00     0.163 HD
ATOM     32  O   UNL A   1      42.708  18.923  25.506  1.00  0.00    -0.269 OA
BRANCH  30  33
ATOM     33  C   UNL A   1      42.054  20.944  26.494  1.00  0.00     0.039 A 
ATOM     34  C   UNL A   1      42.345  22.005  25.632  1.00  0.00     0.014 A 
ATOM     35  C   UNL A   1      42.040  21.147  27.876  1.00  0.00     0.014 A 
ATOM     36  C   UNL A   1      42.580  23.276  26.156  1.00  0.00     0.010 A 
ATOM     37  C   UNL A   1      42.176  22.432  28.389  1.00  0.00     0.010 A 
ATOM     38  C   UNL A   1      42.476  23.506  27.538  1.00  0.00    -0.014 A 
BRANCH  38  39
ATOM     39  C   UNL A   1      42.739  24.850  28.113  1.00  0.00     0.031 A 
ATOM     40  C   UNL A   1      44.139  25.227  28.527  1.00  0.00     0.074 A 
ATOM     41  C   UNL A   1      41.726  25.719  28.292  1.00  0.00     0.049 A 
ATOM     42  N   UNL A   1      44.572  26.342  29.058  1.00  0.00    -0.248 NA
ATOM     43  C   UNL A   1      45.185  24.205  28.347  1.00  0.00     0.031 C 
ATOM     44  C   UNL A   1      40.321  25.465  27.970  1.00  0.00     0.029 A 
ATOM     45  N   UNL A   1      41.727  27.000  28.786  1.00  0.00    -0.354 N 
ATOM     46  C   UNL A   1      45.929  26.149  29.287  1.00  0.00     0.074 A 
ATOM     47  C   UNL A   1      46.233  24.789  28.903  1.00  0.00     0.031 C 
ATOM     48  C   UNL A   1      39.603  26.568  28.237  1.00  0.00     0.029 A 
ATOM     49  C   UNL A   1      40.487  27.592  28.783  1.00  0.00     0.049 A 
ATOM     50  H   UNL A   1      42.539  27.452  29.111  1.00  0.00     0.167 HD
ATOM     51  C   UNL A   1      46.848  27.029  29.748  1.00  0.00     0.031 A 
ATOM     52  C   UNL A   1      40.107  28.823  29.175  1.00  0.00     0.031 A 
ATOM     53  C   UNL A   1      46.549  28.386  30.117  1.00  0.00     0.049 A 
ATOM     54  C   UNL A   1      41.146  29.780  29.692  1.00  0.00     0.074 A 
ATOM     55  C   UNL A   1      47.416  29.373  30.551  1.00  0.00     0.029 A 
ATOM     56  N   UNL A   1      45.281  28.947  30.095  1.00  0.00    -0.354 N 
ATOM     57  N   UNL A   1      42.436  29.603  29.841  1.00  0.00    -0.248 NA
ATOM     58  C   UNL A   1      40.674  31.119  30.075  1.00  0.00     0.031 C 
ATOM     59  C   UNL A   1      46.664  30.516  30.845  1.00  0.00     0.029 A 
ATOM     60  C   UNL A   1      45.340  30.261  30.525  1.00  0.00     0.049 A 
ATOM     61  H   UNL A   1      44.461  28.480  29.815  1.00  0.00     0.167 HD
ATOM     62  C   UNL A   1      42.936  30.819  30.294  1.00  0.00     0.074 A 
ATOM     63  C   UNL A   1      41.811  31.726  30.382  1.00  0.00     0.031 C 
ATOM     64  C   UNL A   1      44.213  31.154  30.602  1.00  0.00     0.031 A 
BRANCH  51  65
ATOM     65  C   UNL A   1      48.266  26.542  29.882  1.00  0.00    -0.014 A 
ATOM     66  C   UNL A   1      49.203  26.727  28.851  1.00  0.00     0.009 A 
ATOM     67  C   UNL A   1      48.679  25.909  31.064  1.00  0.00     0.009 A 
ATOM     68  C   UNL A   1      50.507  26.247  28.983  1.00  0.00     0.001 A 
ATOM     69  C   UNL A   1      49.993  25.462  31.208  1.00  0.00     0.001 A 
ATOM     70  C   UNL A   1      50.903  25.621  30.164  1.00  0.00     0.000 A 
ENDBRANCH  51  65
BRANCH  52  71
ATOM     71  C   UNL A   1      38.683  29.237  29.066  1.00  0.00    -0.014 A 
ATOM     72  C   UNL A   1      37.807  29.079  30.152  1.00  0.00     0.009 A 
ATOM     73  C   UNL A   1      38.184  29.774  27.868  1.00  0.00     0.009 A 
ATOM     74  C   UNL A   1      36.457  29.415  30.030  1.00  0.00     0.001 A 
ATOM     75  C   UNL A   1      36.840  30.140  27.760  1.00  0.00     0.001 A 
ATOM     76  C   UNL A   1      35.975  29.949  28.836  1.00  0.00     0.000 A 
ENDBRANCH  52  71
BRANCH  64  77
ATOM     77  C   UNL A   1      44.473  32.581  31.002  1.00  0.00    -0.014 A 
ATOM     78  C   UNL A   1      44.761  33.575  30.054  1.00  0.00     0.009 A 
ATOM     79  C   UNL A   1      44.396  32.939  32.358  1.00  0.00     0.009 A 
ATOM     80  C   UNL A   1      45.014  34.887  30.460  1.00  0.00     0.001 A 
ATOM     81  C   UNL A   1      44.614  34.258  32.758  1.00  0.00     0.001 A 
ATOM     82  C   UNL A   1      44.936  35.228  31.811  1.00  0.00     0.000 A 
ENDBRANCH  64  77
ENDBRANCH  38  39
ENDBRANCH  30  33
ENDBRANCH  28  29
ENDBRANCH  27  28
ENDBRANCH   1  27
TORSDOF 14
ENDMDL
MODEL 2
REMARK VINA RESULT:     -11.3      0.631      5.957
REMARK SMILES CC1(C)[C@H](C(=O)Nc2ccccc2C(N)=O)[C@@H]1C(=O)NCCCCNC(=O)c1ccc(-c2c3nc(c(-c4ccccc4)c4ccc([nH]4)c(-c4ccccc4)c4nc(c(-c5ccccc5)c5ccc2[nH]5)C=C4)C=C3)cc1
REMARK SMILES IDX 22 1 21 2 20 3 18 4 19 5 17 7 1 8 2 9 3 10 4 11 5 12 6 13
REMARK SMILES IDX 7 14 8 16 9 17 13 18 10 19 12 20 11 21 14 22 15 23 16 24
REMARK SMILES IDX 23 27 24 28 25 29 26 30 27 32 28 33 29 34 75 35 30 36 74 37
REMARK SMILES IDX 31 38 32 39 33 40 68 41 34 42 73 43 67 44 69 45 35 46 72 47
REMARK SMILES IDX 66 48 65 49 36 51 58 52 43 53 57 54 44 55 47 56 56 57 70 58
REMARK SMILES IDX 45 59 46 60 55 62 71 63 48 64 37 65 38 66 42 67 39 68 41 69
REMARK SMILES IDX 40 70 59 71 60 72 64 73 61 74 63 75 62 76 49 77 50 78 54 79
REMARK SMILES IDX 51 80 53 81 52 82
REMARK H PARENT 20 6 7 15 15 25 15 26 25 31 69 50 47 61
REMARK Flexibility Score: inf
ROOT
ATOM      1  C   UNL A   1      37.027  20.928  24.741  1.00  0.00     0.023 C 
ENDROOT
BRANCH   1   2
ATOM      2  C   UNL A   1      35.703  20.547  25.386  1.00  0.00     0.116 C 
BRANCH   2   3
ATOM      3  N   UNL A   1      35.319  21.477  26.419  1.00  0.00    -0.356 N 
ATOM      4  C   UNL A   1      34.118  22.096  26.598  1.00  0.00     0.224 C 
ATOM      5  O   UNL A   1      34.056  23.026  27.395  1.00  0.00    -0.275 OA
ATOM      6  H   UNL A   1      36.016  21.693  27.081  1.00  0.00     0.163 HD
BRANCH   4   7
ATOM      7  C   UNL A   1      32.927  21.694  25.790  1.00  0.00     0.098 C 
ATOM      8  C   UNL A   1      32.150  21.524  23.282  1.00  0.00     0.013 C 
ATOM      9  C   UNL A   1      32.701  22.368  24.426  1.00  0.00    -0.011 C 
ATOM     10  C   UNL A   1      33.800  23.271  23.942  1.00  0.00     0.013 C 
ATOM     11  C   UNL A   1      31.694  22.557  25.544  1.00  0.00     0.098 C 
BRANCH  11  12
ATOM     12  C   UNL A   1      31.244  23.517  26.582  1.00  0.00     0.228 C 
ATOM     13  O   UNL A   1      30.653  23.023  27.549  1.00  0.00    -0.274 OA
ATOM     14  N   UNL A   1      31.544  24.841  26.692  1.00  0.00    -0.325 N 
ATOM     15  H   UNL A   1      31.339  25.225  27.575  1.00  0.00     0.169 HD
BRANCH  14  16
ATOM     16  C   UNL A   1      32.081  25.753  25.794  1.00  0.00     0.053 A 
ATOM     17  C   UNL A   1      33.283  26.345  26.209  1.00  0.00     0.027 A 
ATOM     18  C   UNL A   1      31.501  26.109  24.568  1.00  0.00     0.063 A 
ATOM     19  C   UNL A   1      33.996  27.167  25.344  1.00  0.00     0.002 A 
ATOM     20  C   UNL A   1      32.222  26.956  23.709  1.00  0.00     0.016 A 
ATOM     21  C   UNL A   1      33.479  27.448  24.083  1.00  0.00     0.001 A 
BRANCH  18  22
ATOM     22  C   UNL A   1      30.114  25.683  24.221  1.00  0.00     0.250 C 
ATOM     23  N   UNL A   1      29.962  24.662  23.324  1.00  0.00    -0.366 N 
ATOM     24  O   UNL A   1      29.123  26.212  24.708  1.00  0.00    -0.269 OA
ATOM     25  H   UNL A   1      30.755  24.233  22.929  1.00  0.00     0.159 HD
ATOM     26  H   UNL A   1      29.060  24.357  23.073  1.00  0.00     0.159 HD
ENDBRANCH  18  22
ENDBRANCH  14  16
ENDBRANCH  11  12
ENDBRANCH   4   7
ENDBRANCH   2   3
ENDBRANCH   1   2
BRANCH   1  27
ATOM     27  C   UNL A   1      38.131  19.878  24.875  1.00  0.00     0.023 C 
BRANCH  27  28
ATOM     28  C   UNL A   1      39.142  20.127  25.990  1.00  0.00     0.116 C 
BRANCH  28  29
ATOM     29  N   UNL A   1      40.302  19.256  25.907  1.00  0.00    -0.352 N 
ATOM     30  C   UNL A   1      41.632  19.555  26.068  1.00  0.00     0.251 C 
ATOM     31  H   UNL A   1      40.106  18.312  25.705  1.00  0.00     0.163 HD
ATOM     32  O   UNL A   1      42.490  18.725  25.790  1.00  0.00    -0.269 OA
BRANCH  30  33
ATOM     33  C   UNL A   1      42.034  20.890  26.561  1.00  0.00     0.039 A 
ATOM     34  C   UNL A   1      42.362  21.882  25.632  1.00  0.00     0.014 A 
ATOM     35  C   UNL A   1      42.104  21.159  27.929  1.00  0.00     0.014 A 
ATOM     36  C   UNL A   1      42.718  23.155  26.079  1.00  0.00     0.010 A 
ATOM     37  C   UNL A   1      42.362  22.453  28.369  1.00  0.00     0.010 A 
ATOM     38  C   UNL A   1      42.700  23.458  27.451  1.00  0.00    -0.014 A 
BRANCH  38  39
ATOM     39  C   UNL A   1      43.093  24.803  27.943  1.00  0.00     0.031 A 
ATOM     40  C   UNL A   1      42.034  25.843  28.207  1.00  0.00     0.074 A 
ATOM     41  C   UNL A   1      44.393  25.104  28.125  1.00  0.00     0.049 A 
ATOM     42  N   UNL A   1      42.171  27.075  28.626  1.00  0.00    -0.248 NA
ATOM     43  C   UNL A   1      40.638  25.456  27.937  1.00  0.00     0.031 C 
ATOM     44  C   UNL A   1      45.518  24.202  27.870  1.00  0.00     0.029 A 
ATOM     45  N   UNL A   1      44.987  26.257  28.575  1.00  0.00    -0.354 N 
ATOM     46  C   UNL A   1      40.889  27.609  28.654  1.00  0.00     0.074 A 
ATOM     47  C   UNL A   1      39.996  26.594  28.144  1.00  0.00     0.031 C 
ATOM     48  C   UNL A   1      46.661  24.822  28.205  1.00  0.00     0.029 A 
ATOM     49  C   UNL A   1      46.356  26.174  28.661  1.00  0.00     0.049 A 
ATOM     50  H   UNL A   1      44.480  27.067  28.814  1.00  0.00     0.167 HD
ATOM     51  C   UNL A   1      40.482  28.825  29.090  1.00  0.00     0.031 A 
ATOM     52  C   UNL A   1      47.262  27.085  29.065  1.00  0.00     0.031 A 
ATOM     53  C   UNL A   1      41.368  29.832  29.609  1.00  0.00     0.049 A 
ATOM     54  C   UNL A   1      46.786  28.432  29.536  1.00  0.00     0.074 A 
ATOM     55  C   UNL A   1      41.052  31.078  30.120  1.00  0.00     0.029 A 
ATOM     56  N   UNL A   1      42.746  29.705  29.683  1.00  0.00    -0.354 N 
ATOM     57  N   UNL A   1      45.563  28.898  29.618  1.00  0.00    -0.248 NA
ATOM     58  C   UNL A   1      47.819  29.371  29.993  1.00  0.00     0.031 C 
ATOM     59  C   UNL A   1      42.245  31.728  30.452  1.00  0.00     0.029 A 
ATOM     60  C   UNL A   1      43.297  30.859  30.214  1.00  0.00     0.049 A 
ATOM     61  H   UNL A   1      43.258  28.913  29.399  1.00  0.00     0.167 HD
ATOM     62  C   UNL A   1      45.677  30.167  30.174  1.00  0.00     0.074 A 
ATOM     63  C   UNL A   1      47.087  30.390  30.421  1.00  0.00     0.031 C 
ATOM     64  C   UNL A   1      44.702  31.063  30.460  1.00  0.00     0.031 A 
BRANCH  51  65
ATOM     65  C   UNL A   1      39.010  29.130  29.015  1.00  0.00    -0.014 A 
ATOM     66  C   UNL A   1      38.166  28.933  30.121  1.00  0.00     0.009 A 
ATOM     67  C   UNL A   1      38.462  29.642  27.830  1.00  0.00     0.009 A 
ATOM     68  C   UNL A   1      36.799  29.199  30.027  1.00  0.00     0.001 A 
ATOM     69  C   UNL A   1      37.100  29.941  27.748  1.00  0.00     0.001 A 
ATOM     70  C   UNL A   1      36.268  29.708  28.843  1.00  0.00     0.000 A 
ENDBRANCH  51  65
BRANCH  52  71
ATOM     71  C   UNL A   1      48.710  26.747  29.073  1.00  0.00    -0.014 A 
ATOM     72  C   UNL A   1      49.500  26.960  27.932  1.00  0.00     0.009 A 
ATOM     73  C   UNL A   1      49.309  26.192  30.215  1.00  0.00     0.009 A 
ATOM     74  C   UNL A   1      50.846  26.590  27.922  1.00  0.00     0.001 A 
ATOM     75  C   UNL A   1      50.664  25.854  30.213  1.00  0.00     0.001 A 
ATOM     76  C   UNL A   1      51.429  26.041  29.063  1.00  0.00     0.000 A 
ENDBRANCH  52  71
BRANCH  64  77
ATOM     77  C   UNL A   1      45.118  32.343  31.133  1.00  0.00    -0.014 A 
ATOM     78  C   UNL A   1      45.448  33.492  30.398  1.00  0.00     0.009 A 
ATOM     79  C   UNL A   1      45.151  32.402  32.536  1.00  0.00     0.009 A 
ATOM     80  C   UNL A   1      45.846  34.659  31.053  1.00  0.00     0.001 A 
ATOM     81  C   UNL A   1      45.516  33.580  33.188  1.00  0.00     0.001 A 
ATOM     82  C   UNL A   1      45.876  34.703  32.447  1.00  0.00     0.000 A 
ENDBRANCH  64  77
ENDBRANCH  38  39
ENDBRANCH  30  33
ENDBRANCH  28  29
ENDBRANCH  27  28
ENDBRANCH   1  27
TORSDOF 14
ENDMDL
MODEL 3
REMARK VINA RESULT:     -11.2      1.073      6.090
REMARK SMILES CC1(C)[C@H](C(=O)Nc2ccccc2C(N)=O)[C@@H]1C(=O)NCCCCNC(=O)c1ccc(-c2c3nc(c(-c4ccccc4)c4ccc([nH]4)c(-c4ccccc4)c4nc(c(-c5ccccc5)c5ccc2[nH]5)C=C4)C=C3)cc1
REMARK SMILES IDX 22 1 21 2 20 3 18 4 19 5 17 7 1 8 2 9 3 10 4 11 5 12 6 13
REMARK SMILES IDX 7 14 8 16 9 17 13 18 10 19 12 20 11 21 14 22 15 23 16 24
REMARK SMILES IDX 23 27 24 28 25 29 26 30 27 32 28 33 29 34 75 35 30 36 74 37
REMARK SMILES IDX 31 38 32 39 33 40 68 41 34 42 73 43 67 44 69 45 35 46 72 47
REMARK SMILES IDX 66 48 65 49 36 51 58 52 43 53 57 54 44 55 47 56 56 57 70 58
REMARK SMILES IDX 45 59 46 60 55 62 71 63 48 64 37 65 38 66 42 67 39 68 41 69
REMARK SMILES IDX 40 70 59 71 60 72 64 73 61 74 63 75 62 76 49 77 50 78 54 79
REMARK SMILES IDX 51 80 53 81 52 82
REMARK H PARENT 20 6 7 15 15 25 15 26 25 31 69 50 47 61
REMARK Flexibility Score: inf
ROOT
ATOM      1  C   UNL A   1      36.124  20.570  25.004  1.00  0.00     0.023 C 
ENDROOT
BRANCH   1   2
ATOM      2  C   UNL A   1      36.136  21.982  24.434  1.00  0.00     0.116 C 
BRANCH   2   3
ATOM      3  N   UNL A   1      35.726  22.960  25.412  1.00  0.00    -0.356 N 
ATOM      4  C   UNL A   1      34.462  23.343  25.748  1.00  0.00     0.224 C 
ATOM      5  O   UNL A   1      34.321  24.350  26.432  1.00  0.00    -0.275 OA
ATOM      6  H   UNL A   1      36.454  23.411  25.898  1.00  0.00     0.163 HD
BRANCH   4   7
ATOM      7  C   UNL A   1      33.277  22.590  25.234  1.00  0.00     0.098 C 
ATOM      8  C   UNL A   1      31.980  22.151  22.987  1.00  0.00     0.013 C 
ATOM      9  C   UNL A   1      32.530  23.141  24.008  1.00  0.00    -0.011 C 
ATOM     10  C   UNL A   1      33.159  24.321  23.322  1.00  0.00     0.013 C 
ATOM     11  C   UNL A   1      31.825  23.044  25.347  1.00  0.00     0.098 C 
BRANCH  11  12
ATOM     12  C   UNL A   1      31.390  23.846  26.517  1.00  0.00     0.228 C 
ATOM     13  O   UNL A   1      31.446  23.273  27.611  1.00  0.00    -0.274 OA
ATOM     14  N   UNL A   1      31.101  25.176  26.566  1.00  0.00    -0.325 N 
ATOM     15  H   UNL A   1      31.067  25.544  27.478  1.00  0.00     0.169 HD
BRANCH  14  16
ATOM     16  C   UNL A   1      30.842  26.112  25.574  1.00  0.00     0.053 A 
ATOM     17  C   UNL A   1      29.754  25.801  24.745  1.00  0.00     0.027 A 
ATOM     18  C   UNL A   1      31.587  27.280  25.358  1.00  0.00     0.063 A 
ATOM     19  C   UNL A   1      29.302  26.720  23.806  1.00  0.00     0.002 A 
ATOM     20  C   UNL A   1      31.132  28.194  24.393  1.00  0.00     0.016 A 
ATOM     21  C   UNL A   1      29.974  27.929  23.651  1.00  0.00     0.001 A 
BRANCH  18  22
ATOM     22  C   UNL A   1      32.883  27.505  26.061  1.00  0.00     0.250 C 
ATOM     23  N   UNL A   1      34.038  27.262  25.370  1.00  0.00    -0.366 N 
ATOM     24  O   UNL A   1      32.944  27.895  27.220  1.00  0.00    -0.269 OA
ATOM     25  H   UNL A   1      33.997  26.947  24.438  1.00  0.00     0.159 HD
ATOM     26  H   UNL A   1      34.911  27.400  25.805  1.00  0.00     0.159 HD
ENDBRANCH  18  22
ENDBRANCH  14  16
ENDBRANCH  11  12
ENDBRANCH   4   7
ENDBRANCH   2   3
ENDBRANCH   1   2
BRANCH   1  27
ATOM     27  C   UNL A   1      37.430  19.795  24.822  1.00  0.00     0.023 C 
BRANCH  27  28
ATOM     28  C   UNL A   1      38.631  20.345  25.584  1.00  0.00     0.116 C 
BRANCH  28  29
ATOM     29  N   UNL A   1      39.719  19.388  25.693  1.00  0.00    -0.352 N 
ATOM     30  C   UNL A   1      41.028  19.590  26.056  1.00  0.00     0.251 C 
ATOM     31  H   UNL A   1      39.483  18.457  25.475  1.00  0.00     0.163 HD
ATOM     32  O   UNL A   1      41.851  18.691  25.925  1.00  0.00    -0.269 OA
BRANCH  30  33
ATOM     33  C   UNL A   1      41.452  20.902  26.589  1.00  0.00     0.039 A 
ATOM     34  C   UNL A   1      41.943  21.864  25.703  1.00  0.00     0.014 A 
ATOM     35  C   UNL A   1      41.381  21.179  27.956  1.00  0.00     0.014 A 
ATOM     36  C   UNL A   1      42.323  23.117  26.184  1.00  0.00     0.010 A 
ATOM     37  C   UNL A   1      41.666  22.458  28.420  1.00  0.00     0.010 A 
ATOM     38  C   UNL A   1      42.168  23.433  27.545  1.00  0.00    -0.014 A 
BRANCH  38  39
ATOM     39  C   UNL A   1      42.583  24.756  28.076  1.00  0.00     0.031 A 
ATOM     40  C   UNL A   1      41.554  25.837  28.283  1.00  0.00     0.074 A 
ATOM     41  C   UNL A   1      43.881  25.000  28.344  1.00  0.00     0.049 A 
ATOM     42  N   UNL A   1      41.715  27.059  28.725  1.00  0.00    -0.248 NA
ATOM     43  C   UNL A   1      40.164  25.512  27.921  1.00  0.00     0.031 C 
ATOM     44  C   UNL A   1      44.981  24.054  28.151  1.00  0.00     0.029 A 
ATOM     45  N   UNL A   1      44.492  26.123  28.844  1.00  0.00    -0.354 N 
ATOM     46  C   UNL A   1      40.457  27.646  28.677  1.00  0.00     0.074 A 
ATOM     47  C   UNL A   1      39.557  26.674  28.100  1.00  0.00     0.031 C 
ATOM     48  C   UNL A   1      46.126  24.622  28.566  1.00  0.00     0.029 A 
ATOM     49  C   UNL A   1      45.847  25.982  29.017  1.00  0.00     0.049 A 
ATOM     50  H   UNL A   1      44.005  26.951  29.059  1.00  0.00     0.167 HD
ATOM     51  C   UNL A   1      40.074  28.874  29.099  1.00  0.00     0.031 A 
ATOM     52  C   UNL A   1      46.763  26.850  29.488  1.00  0.00     0.031 A 
ATOM     53  C   UNL A   1      40.965  29.838  29.685  1.00  0.00     0.049 A 
ATOM     54  C   UNL A   1      46.314  28.212  29.943  1.00  0.00     0.074 A 
ATOM     55  C   UNL A   1      40.669  31.092  30.189  1.00  0.00     0.029 A 
ATOM     56  N   UNL A   1      42.330  29.653  29.846  1.00  0.00    -0.354 N 
ATOM     57  N   UNL A   1      45.109  28.728  29.952  1.00  0.00    -0.248 NA
ATOM     58  C   UNL A   1      47.354  29.103  30.476  1.00  0.00     0.031 C 
ATOM     59  C   UNL A   1      41.864  31.689  30.605  1.00  0.00     0.029 A 
ATOM     60  C   UNL A   1      42.892  30.777  30.425  1.00  0.00     0.049 A 
ATOM     61  H   UNL A   1      42.825  28.842  29.587  1.00  0.00     0.167 HD
ATOM     62  C   UNL A   1      45.239  29.987  30.528  1.00  0.00     0.074 A 
ATOM     63  C   UNL A   1      46.638  30.148  30.867  1.00  0.00     0.031 C 
ATOM     64  C   UNL A   1      44.285  30.921  30.762  1.00  0.00     0.031 A 
BRANCH  51  65
ATOM     65  C   UNL A   1      38.623  29.241  28.935  1.00  0.00    -0.014 A 
ATOM     66  C   UNL A   1      38.130  29.741  27.718  1.00  0.00     0.009 A 
ATOM     67  C   UNL A   1      37.732  29.064  30.004  1.00  0.00     0.009 A 
ATOM     68  C   UNL A   1      36.786  30.099  27.591  1.00  0.00     0.001 A 
ATOM     69  C   UNL A   1      36.381  29.388  29.863  1.00  0.00     0.001 A 
ATOM     70  C   UNL A   1      35.912  29.916  28.661  1.00  0.00     0.000 A 
ENDBRANCH  51  65
BRANCH  52  71
ATOM     71  C   UNL A   1      48.192  26.452  29.585  1.00  0.00    -0.014 A 
ATOM     72  C   UNL A   1      48.672  25.783  30.722  1.00  0.00     0.009 A 
ATOM     73  C   UNL A   1      49.091  26.754  28.549  1.00  0.00     0.009 A 
ATOM     74  C   UNL A   1      50.027  25.460  30.836  1.00  0.00     0.001 A 
ATOM     75  C   UNL A   1      50.437  26.400  28.652  1.00  0.00     0.001 A 
ATOM     76  C   UNL A   1      50.907  25.765  29.800  1.00  0.00     0.000 A 
ENDBRANCH  52  71
BRANCH  64  77
ATOM     77  C   UNL A   1      44.711  32.176  31.474  1.00  0.00    -0.014 A 
ATOM     78  C   UNL A   1      44.641  32.294  32.871  1.00  0.00     0.009 A 
ATOM     79  C   UNL A   1      45.219  33.251  30.726  1.00  0.00     0.009 A 
ATOM     80  C   UNL A   1      45.028  33.480  33.499  1.00  0.00     0.001 A 
ATOM     81  C   UNL A   1      45.638  34.421  31.360  1.00  0.00     0.001 A 
ATOM     82  C   UNL A   1      45.530  34.540  32.744  1.00  0.00     0.000 A 
ENDBRANCH  64  77
ENDBRANCH  38  39
ENDBRANCH  30  33
ENDBRANCH  28  29
ENDBRANCH  27  28
ENDBRANCH   1  27
TORSDOF 14
ENDMDL
