MODEL 1
REMARK VINA RESULT:     -11.5      0.000      0.000
REMARK SMILES Cc1cc(-c2cncc(C(=O)NCCCCNC(=O)c3ccc(-c4c5nc(c(-c6ccccc6)c6ccc([nH]6)c(-c6ccccc6)c6nc(c(-c7ccccc7)c7ccc4[nH]7)C=C6)C=C5)cc3)c2)ccc1F
REMARK SMILES IDX 15 1 14 2 13 3 12 4 10 5 11 6 9 8 5 9 6 10 68 11 7 12 8 13
REMARK SMILES IDX 4 14 1 15 2 16 3 17 71 18 70 19 72 20 69 21 16 22 17 23
REMARK SMILES IDX 18 24 19 26 20 27 21 28 67 29 22 30 66 31 23 32 24 33 25 34
REMARK SMILES IDX 60 35 26 36 65 37 59 38 61 39 27 40 64 41 58 42 57 43 28 45
REMARK SMILES IDX 50 46 35 47 49 48 36 49 39 50 48 51 62 52 37 53 38 54 47 56
REMARK SMILES IDX 63 57 40 58 29 59 30 60 34 61 31 62 33 63 32 64 51 65 52 66
REMARK SMILES IDX 56 67 53 68 55 69 54 70 41 71 42 72 46 73 43 74 45 75 44 76
REMARK H PARENT 12 7 17 25 61 44 39 55
REMARK Flexibility Score: inf
ROOT
ATOM      1  C   UNL A   1      32.414  28.275  27.024  1.00  0.00     0.023 C 
ENDROOT
BRANCH   1   2
ATOM      2  C   UNL A   1      32.298  27.071  26.086  1.00  0.00     0.023 C 
BRANCH   2   3
ATOM      3  C   UNL A   1      30.860  26.687  25.730  1.00  0.00     0.116 C 
BRANCH   3   4
ATOM      4  N   UNL A   1      30.424  25.535  26.499  1.00  0.00    -0.352 N 
ATOM      5  C   UNL A   1      30.766  24.206  26.448  1.00  0.00     0.252 C 
ATOM      6  O   UNL A   1      30.264  23.458  27.287  1.00  0.00    -0.269 OA
ATOM      7  H   UNL A   1      29.757  25.748  27.190  1.00  0.00     0.163 HD
BRANCH   5   8
ATOM      8  C   UNL A   1      31.730  23.640  25.474  1.00  0.00     0.058 A 
ATOM      9  C   UNL A   1      33.927  22.935  24.699  1.00  0.00     0.001 A 
ATOM     10  C   UNL A   1      33.309  22.469  23.544  1.00  0.00     0.119 A 
ATOM     11  C   UNL A   1      33.110  23.571  25.645  1.00  0.00     0.025 A 
ATOM     12  N   UNL A   1      31.982  22.572  23.302  1.00  0.00    -0.263 NA
ATOM     13  C   UNL A   1      31.226  23.146  24.274  1.00  0.00     0.124 A 
BRANCH   9  14
ATOM     14  C   UNL A   1      35.345  22.714  24.984  1.00  0.00    -0.016 A 
ATOM     15  C   UNL A   1      37.824  19.801  24.869  1.00  0.00     0.047 C 
ATOM     16  C   UNL A   1      37.242  21.165  25.081  1.00  0.00    -0.015 A 
ATOM     17  C   UNL A   1      35.900  21.434  24.782  1.00  0.00     0.015 A 
ATOM     18  C   UNL A   1      38.028  22.198  25.588  1.00  0.00     0.126 A 
ATOM     19  C   UNL A   1      37.504  23.472  25.791  1.00  0.00     0.040 A 
ATOM     20  F   UNL A   1      39.313  21.969  25.892  1.00  0.00    -0.207 F 
ATOM     21  C   UNL A   1      36.165  23.732  25.488  1.00  0.00     0.012 A 
ENDBRANCH   9  14
ENDBRANCH   5   8
ENDBRANCH   3   4
ENDBRANCH   2   3
ENDBRANCH   1   2
BRANCH   1  22
ATOM     22  C   UNL A   1      33.816  28.865  27.147  1.00  0.00     0.116 C 
BRANCH  22  23
ATOM     23  N   UNL A   1      33.838  30.181  27.770  1.00  0.00    -0.352 N 
ATOM     24  C   UNL A   1      34.865  30.782  28.460  1.00  0.00     0.251 C 
ATOM     25  H   UNL A   1      33.010  30.708  27.689  1.00  0.00     0.163 HD
ATOM     26  O   UNL A   1      34.706  31.868  29.002  1.00  0.00    -0.269 OA
BRANCH  24  27
ATOM     27  C   UNL A   1      36.154  30.072  28.579  1.00  0.00     0.039 A 
ATOM     28  C   UNL A   1      37.066  30.155  27.524  1.00  0.00     0.014 A 
ATOM     29  C   UNL A   1      36.483  29.392  29.755  1.00  0.00     0.014 A 
ATOM     30  C   UNL A   1      38.350  29.633  27.684  1.00  0.00     0.010 A 
ATOM     31  C   UNL A   1      37.778  28.917  29.931  1.00  0.00     0.010 A 
ATOM     32  C   UNL A   1      38.728  29.056  28.907  1.00  0.00    -0.014 A 
BRANCH  32  33
ATOM     33  C   UNL A   1      40.130  28.650  29.167  1.00  0.00     0.031 A 
ATOM     34  C   UNL A   1      41.109  29.627  29.748  1.00  0.00     0.074 A 
ATOM     35  C   UNL A   1      40.543  27.427  28.780  1.00  0.00     0.049 A 
ATOM     36  N   UNL A   1      42.397  29.488  29.936  1.00  0.00    -0.248 NA
ATOM     37  C   UNL A   1      40.576  30.939  30.147  1.00  0.00     0.031 C 
ATOM     38  C   UNL A   1      39.696  26.401  28.166  1.00  0.00     0.029 A 
ATOM     39  N   UNL A   1      41.786  26.849  28.826  1.00  0.00    -0.354 N 
ATOM     40  C   UNL A   1      42.832  30.698  30.457  1.00  0.00     0.074 A 
ATOM     41  C   UNL A   1      41.678  31.571  30.526  1.00  0.00     0.031 C 
ATOM     42  C   UNL A   1      40.443  25.317  27.902  1.00  0.00     0.029 A 
ATOM     43  C   UNL A   1      41.824  25.584  28.290  1.00  0.00     0.049 A 
ATOM     44  H   UNL A   1      42.575  27.297  29.207  1.00  0.00     0.167 HD
ATOM     45  C   UNL A   1      44.079  31.048  30.852  1.00  0.00     0.031 A 
ATOM     46  C   UNL A   1      42.857  24.741  28.113  1.00  0.00     0.031 A 
ATOM     47  C   UNL A   1      45.222  30.179  30.796  1.00  0.00     0.049 A 
ATOM     48  C   UNL A   1      44.233  25.162  28.539  1.00  0.00     0.074 A 
ATOM     49  C   UNL A   1      46.510  30.419  31.243  1.00  0.00     0.029 A 
ATOM     50  N   UNL A   1      45.219  28.906  30.250  1.00  0.00    -0.354 N 
ATOM     51  N   UNL A   1      44.616  26.286  29.094  1.00  0.00    -0.248 NA
ATOM     52  C   UNL A   1      45.320  24.198  28.313  1.00  0.00     0.031 C 
ATOM     53  C   UNL A   1      47.296  29.306  30.929  1.00  0.00     0.029 A 
ATOM     54  C   UNL A   1      46.488  28.359  30.322  1.00  0.00     0.049 A 
ATOM     55  H   UNL A   1      44.430  28.456  29.868  1.00  0.00     0.167 HD
ATOM     56  C   UNL A   1      45.983  26.159  29.297  1.00  0.00     0.074 A 
ATOM     57  C   UNL A   1      46.361  24.845  28.819  1.00  0.00     0.031 C 
ATOM     58  C   UNL A   1      46.849  27.054  29.832  1.00  0.00     0.031 A 
BRANCH  45  59
ATOM     59  C   UNL A   1      44.269  32.443  31.375  1.00  0.00    -0.014 A 
ATOM     60  C   UNL A   1      44.140  32.727  32.744  1.00  0.00     0.009 A 
ATOM     61  C   UNL A   1      44.613  33.477  30.492  1.00  0.00     0.009 A 
ATOM     62  C   UNL A   1      44.321  34.031  33.213  1.00  0.00     0.001 A 
ATOM     63  C   UNL A   1      44.816  34.774  30.969  1.00  0.00     0.001 A 
ATOM     64  C   UNL A   1      44.662  35.051  32.326  1.00  0.00     0.000 A 
ENDBRANCH  45  59
BRANCH  46  65
ATOM     65  C   UNL A   1      42.629  23.412  27.494  1.00  0.00    -0.014 A 
ATOM     66  C   UNL A   1      42.835  23.225  26.119  1.00  0.00     0.009 A 
ATOM     67  C   UNL A   1      42.211  22.323  28.274  1.00  0.00     0.009 A 
ATOM     68  C   UNL A   1      42.609  21.978  25.533  1.00  0.00     0.001 A 
ATOM     69  C   UNL A   1      42.007  21.071  27.689  1.00  0.00     0.001 A 
ATOM     70  C   UNL A   1      42.199  20.901  26.319  1.00  0.00     0.000 A 
ENDBRANCH  46  65
BRANCH  58  71
ATOM     71  C   UNL A   1      48.285  26.635  29.937  1.00  0.00    -0.014 A 
ATOM     72  C   UNL A   1      48.731  25.855  31.015  1.00  0.00     0.009 A 
ATOM     73  C   UNL A   1      49.191  26.987  28.925  1.00  0.00     0.009 A 
ATOM     74  C   UNL A   1      50.066  25.453  31.087  1.00  0.00     0.001 A 
ATOM     75  C   UNL A   1      50.520  26.566  28.990  1.00  0.00     0.001 A 
ATOM     76  C   UNL A   1      50.957  25.804  30.074  1.00  0.00     0.000 A 
ENDBRANCH  58  71
ENDBRANCH  32  33
ENDBRANCH  24  27
ENDBRANCH  22  23
ENDBRANCH   1  22
TORSDOF 12
ENDMDL
MODEL 2
REMARK VINA RESULT:     -11.5      3.494      6.406
REMARK SMILES Cc1cc(-c2cncc(C(=O)NCCCCNC(=O)c3ccc(-c4c5nc(c(-c6ccccc6)c6ccc([nH]6)c(-c6ccccc6)c6nc(c(-c7ccccc7)c7ccc4[nH]7)C=C6)C=C5)cc3)c2)ccc1F
REMARK SMILES IDX 15 1 14 2 13 3 12 4 10 5 11 6 9 8 5 9 6 10 68 11 7 12 8 13
REMARK SMILES IDX 4 14 1 15 2 16 3 17 71 18 70 19 72 20 69 21 16 22 17 23
REMARK SMILES IDX 18 24 19 26 20 27 21 28 67 29 22 30 66 31 23 32 24 33 25 34
REMARK SMILES IDX 60 35 26 36 65 37 59 38 61 39 27 40 64 41 58 42 57 43 28 45
REMARK SMILES IDX 50 46 35 47 49 48 36 49 39 50 48 51 62 52 37 53 38 54 47 56
REMARK SMILES IDX 63 57 40 58 29 59 30 60 34 61 31 62 33 63 32 64 51 65 52 66
REMARK SMILES IDX 56 67 53 68 55 69 54 70 41 71 42 72 46 73 43 74 45 75 44 76
REMARK H PARENT 12 7 17 25 61 44 39 55
REMARK Flexibility Score: inf
ROOT
ATOM      1  C   UNL A   1      33.464  33.702  28.027  1.00  0.00     0.023 C 
ENDROOT
BRANCH   1   2
ATOM      2  C   UNL A   1      33.695  34.733  29.135  1.00  0.00     0.023 C 
BRANCH   2   3
ATOM      3  C   UNL A   1      34.630  34.258  30.251  1.00  0.00     0.116 C 
BRANCH   3   4
ATOM      4  N   UNL A   1      33.874  33.733  31.373  1.00  0.00    -0.352 N 
ATOM      5  C   UNL A   1      34.245  33.341  32.637  1.00  0.00     0.252 C 
ATOM      6  O   UNL A   1      33.353  32.988  33.407  1.00  0.00    -0.269 OA
ATOM      7  H   UNL A   1      32.911  33.640  31.195  1.00  0.00     0.163 HD
BRANCH   5   8
ATOM      8  C   UNL A   1      35.645  33.365  33.128  1.00  0.00     0.058 A 
ATOM      9  C   UNL A   1      37.825  32.405  33.625  1.00  0.00     0.001 A 
ATOM     10  C   UNL A   1      38.238  33.678  34.003  1.00  0.00     0.119 A 
ATOM     11  C   UNL A   1      36.487  32.261  33.230  1.00  0.00     0.025 A 
ATOM     12  N   UNL A   1      37.438  34.769  33.985  1.00  0.00    -0.263 NA
ATOM     13  C   UNL A   1      36.166  34.587  33.541  1.00  0.00     0.124 A 
BRANCH   9  14
ATOM     14  C   UNL A   1      38.739  31.265  33.549  1.00  0.00    -0.016 A 
ATOM     15  C   UNL A   1      38.595  27.602  32.451  1.00  0.00     0.047 C 
ATOM     16  C   UNL A   1      39.099  28.906  32.989  1.00  0.00    -0.015 A 
ATOM     17  C   UNL A   1      38.272  30.036  33.040  1.00  0.00     0.015 A 
ATOM     18  C   UNL A   1      40.408  29.020  33.455  1.00  0.00     0.126 A 
ATOM     19  C   UNL A   1      40.893  30.225  33.957  1.00  0.00     0.040 A 
ATOM     20  F   UNL A   1      41.220  27.954  33.427  1.00  0.00    -0.207 F 
ATOM     21  C   UNL A   1      40.063  31.347  34.002  1.00  0.00     0.012 A 
ENDBRANCH   9  14
ENDBRANCH   5   8
ENDBRANCH   3   4
ENDBRANCH   2   3
ENDBRANCH   1   2
BRANCH   1  22
ATOM     22  C   UNL A   1      34.462  32.548  28.000  1.00  0.00     0.116 C 
BRANCH  22  23
ATOM     23  N   UNL A   1      33.865  31.274  27.623  1.00  0.00    -0.352 N 
ATOM     24  C   UNL A   1      34.451  30.030  27.601  1.00  0.00     0.251 C 
ATOM     25  H   UNL A   1      32.920  31.309  27.348  1.00  0.00     0.163 HD
ATOM     26  O   UNL A   1      33.841  29.057  27.179  1.00  0.00    -0.269 OA
BRANCH  24  27
ATOM     27  C   UNL A   1      35.852  29.894  28.049  1.00  0.00     0.039 A 
ATOM     28  C   UNL A   1      36.099  29.488  29.362  1.00  0.00     0.014 A 
ATOM     29  C   UNL A   1      36.905  30.097  27.154  1.00  0.00     0.014 A 
ATOM     30  C   UNL A   1      37.406  29.194  29.755  1.00  0.00     0.010 A 
ATOM     31  C   UNL A   1      38.199  29.755  27.532  1.00  0.00     0.010 A 
ATOM     32  C   UNL A   1      38.456  29.278  28.827  1.00  0.00    -0.014 A 
BRANCH  32  33
ATOM     33  C   UNL A   1      39.820  28.808  29.163  1.00  0.00     0.031 A 
ATOM     34  C   UNL A   1      40.807  29.737  29.805  1.00  0.00     0.074 A 
ATOM     35  C   UNL A   1      40.200  27.570  28.791  1.00  0.00     0.049 A 
ATOM     36  N   UNL A   1      42.075  29.540  30.066  1.00  0.00    -0.248 NA
ATOM     37  C   UNL A   1      40.311  31.071  30.183  1.00  0.00     0.031 C 
ATOM     38  C   UNL A   1      39.346  26.585  28.123  1.00  0.00     0.029 A 
ATOM     39  N   UNL A   1      41.412  26.936  28.905  1.00  0.00    -0.354 N 
ATOM     40  C   UNL A   1      42.533  30.728  30.620  1.00  0.00     0.074 A 
ATOM     41  C   UNL A   1      41.416  31.651  30.628  1.00  0.00     0.031 C 
ATOM     42  C   UNL A   1      40.057  25.470  27.894  1.00  0.00     0.029 A 
ATOM     43  C   UNL A   1      41.424  25.674  28.362  1.00  0.00     0.049 A 
ATOM     44  H   UNL A   1      42.197  27.347  29.333  1.00  0.00     0.167 HD
ATOM     45  C   UNL A   1      43.769  31.020  31.088  1.00  0.00     0.031 A 
ATOM     46  C   UNL A   1      42.427  24.786  28.238  1.00  0.00     0.031 A 
ATOM     47  C   UNL A   1      44.875  30.100  31.091  1.00  0.00     0.049 A 
ATOM     48  C   UNL A   1      43.794  25.142  28.746  1.00  0.00     0.074 A 
ATOM     49  C   UNL A   1      46.144  30.281  31.612  1.00  0.00     0.029 A 
ATOM     50  N   UNL A   1      44.845  28.831  30.537  1.00  0.00    -0.354 N 
ATOM     51  N   UNL A   1      44.194  26.245  29.329  1.00  0.00    -0.248 NA
ATOM     52  C   UNL A   1      44.848  24.132  28.575  1.00  0.00     0.031 C 
ATOM     53  C   UNL A   1      46.896  29.134  31.335  1.00  0.00     0.029 A 
ATOM     54  C   UNL A   1      46.083  28.227  30.677  1.00  0.00     0.049 A 
ATOM     55  H   UNL A   1      44.060  28.419  30.107  1.00  0.00     0.167 HD
ATOM     56  C   UNL A   1      45.540  26.057  29.609  1.00  0.00     0.074 A 
ATOM     57  C   UNL A   1      45.886  24.729  29.145  1.00  0.00     0.031 C 
ATOM     58  C   UNL A   1      46.413  26.910  30.199  1.00  0.00     0.031 A 
BRANCH  45  59
ATOM     59  C   UNL A   1      43.991  32.402  31.631  1.00  0.00    -0.014 A 
ATOM     60  C   UNL A   1      43.760  32.695  32.984  1.00  0.00     0.009 A 
ATOM     61  C   UNL A   1      44.468  33.414  30.784  1.00  0.00     0.009 A 
ATOM     62  C   UNL A   1      43.972  33.986  33.472  1.00  0.00     0.001 A 
ATOM     63  C   UNL A   1      44.701  34.698  31.282  1.00  0.00     0.001 A 
ATOM     64  C   UNL A   1      44.445  34.985  32.621  1.00  0.00     0.000 A 
ENDBRANCH  45  59
BRANCH  46  65
ATOM     65  C   UNL A   1      42.176  23.471  27.599  1.00  0.00    -0.014 A 
ATOM     66  C   UNL A   1      42.518  23.260  26.255  1.00  0.00     0.009 A 
ATOM     67  C   UNL A   1      41.600  22.419  28.328  1.00  0.00     0.009 A 
ATOM     68  C   UNL A   1      42.271  22.027  25.647  1.00  0.00     0.001 A 
ATOM     69  C   UNL A   1      41.375  21.181  27.724  1.00  0.00     0.001 A 
ATOM     70  C   UNL A   1      41.703  20.987  26.383  1.00  0.00     0.000 A 
ENDBRANCH  46  65
BRANCH  58  71
ATOM     71  C   UNL A   1      47.821  26.426  30.383  1.00  0.00    -0.014 A 
ATOM     72  C   UNL A   1      48.224  25.821  31.583  1.00  0.00     0.009 A 
ATOM     73  C   UNL A   1      48.741  26.538  29.330  1.00  0.00     0.009 A 
ATOM     74  C   UNL A   1      49.531  25.355  31.731  1.00  0.00     0.001 A 
ATOM     75  C   UNL A   1      50.041  26.051  29.474  1.00  0.00     0.001 A 
ATOM     76  C   UNL A   1      50.436  25.466  30.677  1.00  0.00     0.000 A 
ENDBRANCH  58  71
ENDBRANCH  32  33
ENDBRANCH  24  27
ENDBRANCH  22  23
ENDBRANCH   1  22
TORSDOF 12
ENDMDL
MODEL 3
REMARK VINA RESULT:     -11.3      3.134      8.218
REMARK SMILES Cc1cc(-c2cncc(C(=O)NCCCCNC(=O)c3ccc(-c4c5nc(c(-c6ccccc6)c6ccc([nH]6)c(-c6ccccc6)c6nc(c(-c7ccccc7)c7ccc4[nH]7)C=C6)C=C5)cc3)c2)ccc1F
REMARK SMILES IDX 15 1 14 2 13 3 12 4 10 5 11 6 9 8 5 9 6 10 68 11 7 12 8 13
REMARK SMILES IDX 4 14 1 15 2 16 3 17 71 18 70 19 72 20 69 21 16 22 17 23
REMARK SMILES IDX 18 24 19 26 20 27 21 28 67 29 22 30 66 31 23 32 24 33 25 34
REMARK SMILES IDX 60 35 26 36 65 37 59 38 61 39 27 40 64 41 58 42 57 43 28 45
REMARK SMILES IDX 50 46 35 47 49 48 36 49 39 50 48 51 62 52 37 53 38 54 47 56
REMARK SMILES IDX 63 57 40 58 29 59 30 60 34 61 31 62 33 63 32 64 51 65 52 66
REMARK SMILES IDX 56 67 53 68 55 69 54 70 41 71 42 72 46 73 43 74 45 75 44 76
REMARK H PARENT 12 7 17 25 61 44 39 55
REMARK Flexibility Score: inf
ROOT
ATOM      1  C   UNL A   1      36.243  22.885  24.273  1.00  0.00     0.023 C 
ENDROOT
BRANCH   1   2
ATOM      2  C   UNL A   1      34.761  23.137  24.564  1.00  0.00     0.023 C 
BRANCH   2   3
ATOM      3  C   UNL A   1      33.806  22.542  23.527  1.00  0.00     0.116 C 
BRANCH   3   4
ATOM      4  N   UNL A   1      33.729  23.384  22.347  1.00  0.00    -0.352 N 
ATOM      5  C   UNL A   1      33.108  24.586  22.107  1.00  0.00     0.252 C 
ATOM      6  O   UNL A   1      33.275  25.100  21.001  1.00  0.00    -0.269 OA
ATOM      7  H   UNL A   1      34.217  23.026  21.572  1.00  0.00     0.163 HD
BRANCH   5   8
ATOM      8  C   UNL A   1      32.292  25.307  23.113  1.00  0.00     0.058 A 
ATOM      9  C   UNL A   1      31.905  26.922  24.893  1.00  0.00     0.001 A 
ATOM     10  C   UNL A   1      30.559  26.577  24.836  1.00  0.00     0.119 A 
ATOM     11  C   UNL A   1      32.775  26.226  24.040  1.00  0.00     0.025 A 
ATOM     12  N   UNL A   1      30.052  25.643  24.000  1.00  0.00    -0.263 NA
ATOM     13  C   UNL A   1      30.927  25.038  23.155  1.00  0.00     0.124 A 
BRANCH   9  14
ATOM     14  C   UNL A   1      32.410  28.011  25.728  1.00  0.00    -0.016 A 
ATOM     15  C   UNL A   1      31.473  31.639  26.504  1.00  0.00     0.047 C 
ATOM     16  C   UNL A   1      32.200  30.329  26.495  1.00  0.00    -0.015 A 
ATOM     17  C   UNL A   1      31.729  29.245  25.744  1.00  0.00     0.015 A 
ATOM     18  C   UNL A   1      33.368  30.164  27.237  1.00  0.00     0.126 A 
ATOM     19  C   UNL A   1      34.055  28.954  27.242  1.00  0.00     0.040 A 
ATOM     20  F   UNL A   1      33.848  31.186  27.959  1.00  0.00    -0.207 F 
ATOM     21  C   UNL A   1      33.578  27.876  26.492  1.00  0.00     0.012 A 
ENDBRANCH   9  14
ENDBRANCH   5   8
ENDBRANCH   3   4
ENDBRANCH   2   3
ENDBRANCH   1   2
BRANCH   1  22
ATOM     22  C   UNL A   1      37.215  23.572  25.228  1.00  0.00     0.116 C 
BRANCH  22  23
ATOM     23  N   UNL A   1      38.385  22.765  25.542  1.00  0.00    -0.352 N 
ATOM     24  C   UNL A   1      39.500  23.122  26.263  1.00  0.00     0.251 C 
ATOM     25  H   UNL A   1      38.378  21.844  25.191  1.00  0.00     0.163 HD
ATOM     26  O   UNL A   1      40.448  22.356  26.375  1.00  0.00    -0.269 OA
BRANCH  24  27
ATOM     27  C   UNL A   1      39.559  24.471  26.863  1.00  0.00     0.039 A 
ATOM     28  C   UNL A   1      38.999  24.667  28.127  1.00  0.00     0.014 A 
ATOM     29  C   UNL A   1      40.226  25.509  26.207  1.00  0.00     0.014 A 
ATOM     30  C   UNL A   1      39.189  25.886  28.780  1.00  0.00     0.010 A 
ATOM     31  C   UNL A   1      40.457  26.705  26.880  1.00  0.00     0.010 A 
ATOM     32  C   UNL A   1      39.962  26.893  28.180  1.00  0.00    -0.014 A 
BRANCH  32  33
ATOM     33  C   UNL A   1      40.326  28.127  28.916  1.00  0.00     0.031 A 
ATOM     34  C   UNL A   1      41.623  28.211  29.665  1.00  0.00     0.074 A 
ATOM     35  C   UNL A   1      39.434  29.134  28.993  1.00  0.00     0.049 A 
ATOM     36  N   UNL A   1      42.057  29.160  30.455  1.00  0.00    -0.248 NA
ATOM     37  C   UNL A   1      42.542  27.071  29.525  1.00  0.00     0.031 C 
ATOM     38  C   UNL A   1      38.121  29.155  28.343  1.00  0.00     0.029 A 
ATOM     39  N   UNL A   1      39.489  30.325  29.670  1.00  0.00    -0.354 N 
ATOM     40  C   UNL A   1      43.289  28.724  30.922  1.00  0.00     0.074 A 
ATOM     41  C   UNL A   1      43.519  27.412  30.353  1.00  0.00     0.031 C 
ATOM     42  C   UNL A   1      37.500  30.307  28.646  1.00  0.00     0.029 A 
ATOM     43  C   UNL A   1      38.350  31.084  29.541  1.00  0.00     0.049 A 
ATOM     44  H   UNL A   1      40.269  30.609  30.199  1.00  0.00     0.167 HD
ATOM     45  C   UNL A   1      44.155  29.363  31.744  1.00  0.00     0.031 A 
ATOM     46  C   UNL A   1      38.020  32.265  30.094  1.00  0.00     0.031 A 
ATOM     47  C   UNL A   1      43.932  30.670  32.301  1.00  0.00     0.049 A 
ATOM     48  C   UNL A   1      38.988  32.942  31.019  1.00  0.00     0.074 A 
ATOM     49  C   UNL A   1      44.784  31.430  33.083  1.00  0.00     0.029 A 
ATOM     50  N   UNL A   1      42.770  31.406  32.142  1.00  0.00    -0.354 N 
ATOM     51  N   UNL A   1      40.180  32.548  31.397  1.00  0.00    -0.248 NA
ATOM     52  C   UNL A   1      38.566  34.227  31.595  1.00  0.00     0.031 C 
ATOM     53  C   UNL A   1      44.120  32.610  33.433  1.00  0.00     0.029 A 
ATOM     54  C   UNL A   1      42.870  32.600  32.837  1.00  0.00     0.049 A 
ATOM     55  H   UNL A   1      41.988  31.123  31.614  1.00  0.00     0.167 HD
ATOM     56  C   UNL A   1      40.655  33.541  32.242  1.00  0.00     0.074 A 
ATOM     57  C   UNL A   1      39.631  34.563  32.311  1.00  0.00     0.031 C 
ATOM     58  C   UNL A   1      41.837  33.600  32.903  1.00  0.00     0.031 A 
BRANCH  45  59
ATOM     59  C   UNL A   1      45.426  28.645  32.097  1.00  0.00    -0.014 A 
ATOM     60  C   UNL A   1      46.603  28.853  31.362  1.00  0.00     0.009 A 
ATOM     61  C   UNL A   1      45.452  27.776  33.199  1.00  0.00     0.009 A 
ATOM     62  C   UNL A   1      47.776  28.177  31.705  1.00  0.00     0.001 A 
ATOM     63  C   UNL A   1      46.633  27.121  33.553  1.00  0.00     0.001 A 
ATOM     64  C   UNL A   1      47.791  27.315  32.802  1.00  0.00     0.000 A 
ENDBRANCH  45  59
BRANCH  46  65
ATOM     65  C   UNL A   1      36.705  32.882  29.791  1.00  0.00    -0.014 A 
ATOM     66  C   UNL A   1      36.507  33.574  28.588  1.00  0.00     0.009 A 
ATOM     67  C   UNL A   1      35.641  32.777  30.701  1.00  0.00     0.009 A 
ATOM     68  C   UNL A   1      35.274  34.166  28.307  1.00  0.00     0.001 A 
ATOM     69  C   UNL A   1      34.402  33.352  30.407  1.00  0.00     0.001 A 
ATOM     70  C   UNL A   1      34.221  34.051  29.215  1.00  0.00     0.000 A 
ENDBRANCH  46  65
BRANCH  58  71
ATOM     71  C   UNL A   1      42.086  34.814  33.748  1.00  0.00    -0.014 A 
ATOM     72  C   UNL A   1      41.702  34.846  35.096  1.00  0.00     0.009 A 
ATOM     73  C   UNL A   1      42.754  35.921  33.200  1.00  0.00     0.009 A 
ATOM     74  C   UNL A   1      41.962  35.973  35.876  1.00  0.00     0.001 A 
ATOM     75  C   UNL A   1      43.031  37.038  33.988  1.00  0.00     0.001 A 
ATOM     76  C   UNL A   1      42.630  37.066  35.324  1.00  0.00     0.000 A 
ENDBRANCH  58  71
ENDBRANCH  32  33
ENDBRANCH  24  27
ENDBRANCH  22  23
ENDBRANCH   1  22
TORSDOF 12
ENDMDL
