MODEL 1
REMARK VINA RESULT:     -11.5      0.000      0.000
REMARK SMILES O=C(CS[C@H](C(=O)Nc1ccc(C(F)(F)F)cc1)c1ccccc1)NCCCCNC(=O)c1ccc(-c2c3nc(c(-c4ccccc4)c4ccc([nH]4)c(-c4ccccc4)c4nc(c(-c5ccccc5)c5ccc2[nH]5)C=C4)C=C3)cc1
REMARK SMILES IDX 26 1 25 2 1 3 2 4 3 6 4 7 5 8 19 9 20 10 24 11 21 12 23 13
REMARK SMILES IDX 22 14 6 15 7 16 8 17 9 19 10 20 18 21 11 22 17 23 12 24
REMARK SMILES IDX 13 25 14 26 15 27 16 28 27 29 28 30 29 31 30 32 31 33 32 35
REMARK SMILES IDX 33 36 34 37 80 38 35 39 79 40 36 41 37 42 38 43 73 44 39 45
REMARK SMILES IDX 78 46 72 47 74 48 40 49 77 50 71 51 70 52 41 54 63 55 48 56
REMARK SMILES IDX 62 57 49 58 52 59 61 60 75 61 50 62 51 63 60 65 76 66 53 67
REMARK SMILES IDX 42 68 43 69 47 70 44 71 46 72 45 73 64 74 65 75 69 76 66 77
REMARK SMILES IDX 68 78 67 79 54 80 55 81 59 82 56 83 58 84 57 85
REMARK H PARENT 25 5 8 18 30 34 74 53 52 64
REMARK Flexibility Score: inf
ROOT
ATOM      1  C   UNL A   1      31.087  29.375  24.596  1.00  0.00     0.116 C 
ENDROOT
BRANCH   1   2
ATOM      2  N   UNL A   1      31.491  28.130  23.961  1.00  0.00    -0.355 N 
ATOM      3  O   UNL A   1      30.347  28.594  22.027  1.00  0.00    -0.274 OA
ATOM      4  C   UNL A   1      31.101  27.853  22.653  1.00  0.00     0.230 C 
ATOM      5  H   UNL A   1      32.041  27.481  24.457  1.00  0.00     0.163 HD
BRANCH   4   6
ATOM      6  C   UNL A   1      31.667  26.574  22.058  1.00  0.00     0.170 C 
BRANCH   6   7
ATOM      7  S   UNL A   1      33.357  26.145  22.623  1.00  0.00    -0.134 SA
BRANCH   7   8
ATOM      8  C   UNL A   1      33.237  24.445  23.356  1.00  0.00     0.166 C 
BRANCH   8   9
ATOM      9  C   UNL A   1      34.590  23.949  23.843  1.00  0.00    -0.026 A 
ATOM     10  C   UNL A   1      35.404  23.145  23.048  1.00  0.00     0.005 A 
ATOM     11  C   UNL A   1      35.103  24.335  25.092  1.00  0.00     0.005 A 
ATOM     12  C   UNL A   1      36.673  22.727  23.453  1.00  0.00     0.000 A 
ATOM     13  C   UNL A   1      36.389  23.950  25.494  1.00  0.00     0.000 A 
ATOM     14  C   UNL A   1      37.173  23.143  24.675  1.00  0.00     0.000 A 
ENDBRANCH   8   9
BRANCH   8  15
ATOM     15  C   UNL A   1      31.991  24.250  24.279  1.00  0.00     0.242 C 
ATOM     16  O   UNL A   1      31.468  25.156  24.933  1.00  0.00    -0.273 OA
ATOM     17  N   UNL A   1      31.348  23.021  24.253  1.00  0.00    -0.325 N 
ATOM     18  H   UNL A   1      30.364  23.034  24.202  1.00  0.00     0.169 HD
BRANCH  17  19
ATOM     19  C   UNL A   1      31.964  21.761  24.291  1.00  0.00     0.041 A 
ATOM     20  C   UNL A   1      32.511  21.255  25.466  1.00  0.00     0.027 A 
ATOM     21  C   UNL A   1      32.108  21.027  23.124  1.00  0.00     0.027 A 
ATOM     22  C   UNL A   1      33.022  19.946  25.484  1.00  0.00     0.015 A 
ATOM     23  C   UNL A   1      32.559  19.716  23.138  1.00  0.00     0.015 A 
ATOM     24  C   UNL A   1      32.996  19.145  24.329  1.00  0.00     0.056 A 
BRANCH  24  25
ATOM     25  C   UNL A   1      33.466  17.714  24.333  1.00  0.00     0.416 C 
ATOM     26  F   UNL A   1      33.635  17.234  25.590  1.00  0.00    -0.166 F 
ATOM     27  F   UNL A   1      32.604  16.869  23.709  1.00  0.00    -0.166 F 
ATOM     28  F   UNL A   1      34.669  17.547  23.711  1.00  0.00    -0.166 F 
ENDBRANCH  24  25
ENDBRANCH  17  19
ENDBRANCH   8  15
ENDBRANCH   7   8
ENDBRANCH   6   7
ENDBRANCH   4   6
ENDBRANCH   1   2
BRANCH   1  29
ATOM     29  C   UNL A   1      31.861  29.803  25.854  1.00  0.00     0.023 C 
BRANCH  29  30
ATOM     30  C   UNL A   1      31.594  31.169  26.507  1.00  0.00     0.023 C 
BRANCH  30  31
ATOM     31  C   UNL A   1      32.763  32.043  26.987  1.00  0.00     0.116 C 
BRANCH  31  32
ATOM     32  N   UNL A   1      32.417  33.344  27.528  1.00  0.00    -0.352 N 
ATOM     33  C   UNL A   1      33.126  34.175  28.378  1.00  0.00     0.251 C 
ATOM     34  H   UNL A   1      31.539  33.691  27.246  1.00  0.00     0.163 HD
ATOM     35  O   UNL A   1      32.647  35.255  28.695  1.00  0.00    -0.269 OA
BRANCH  33  36
ATOM     36  C   UNL A   1      34.443  33.775  28.951  1.00  0.00     0.039 A 
ATOM     37  C   UNL A   1      34.464  33.049  30.148  1.00  0.00     0.014 A 
ATOM     38  C   UNL A   1      35.654  34.135  28.364  1.00  0.00     0.014 A 
ATOM     39  C   UNL A   1      35.680  32.605  30.692  1.00  0.00     0.010 A 
ATOM     40  C   UNL A   1      36.866  33.656  28.882  1.00  0.00     0.010 A 
ATOM     41  C   UNL A   1      36.895  32.863  30.037  1.00  0.00    -0.014 A 
BRANCH  41  42
ATOM     42  C   UNL A   1      38.170  32.219  30.471  1.00  0.00     0.031 A 
ATOM     43  C   UNL A   1      39.102  32.866  31.463  1.00  0.00     0.074 A 
ATOM     44  C   UNL A   1      38.547  31.065  29.884  1.00  0.00     0.049 A 
ATOM     45  N   UNL A   1      40.274  32.451  31.888  1.00  0.00    -0.248 NA
ATOM     46  C   UNL A   1      38.681  34.151  32.030  1.00  0.00     0.031 C 
ATOM     47  C   UNL A   1      37.785  30.350  28.859  1.00  0.00     0.029 A 
ATOM     48  N   UNL A   1      39.672  30.294  30.058  1.00  0.00    -0.354 N 
ATOM     49  C   UNL A   1      40.745  33.442  32.742  1.00  0.00     0.074 A 
ATOM     50  C   UNL A   1      39.740  34.484  32.757  1.00  0.00     0.031 C 
ATOM     51  C   UNL A   1      38.443  29.230  28.523  1.00  0.00     0.029 A 
ATOM     52  C   UNL A   1      39.690  29.163  29.278  1.00  0.00     0.049 A 
ATOM     53  H   UNL A   1      40.395  30.530  30.682  1.00  0.00     0.167 HD
ATOM     54  C   UNL A   1      41.902  33.481  33.451  1.00  0.00     0.031 A 
ATOM     55  C   UNL A   1      40.601  28.176  29.178  1.00  0.00     0.031 A 
ATOM     56  C   UNL A   1      42.891  32.432  33.472  1.00  0.00     0.049 A 
ATOM     57  C   UNL A   1      41.844  28.212  30.018  1.00  0.00     0.074 A 
ATOM     58  C   UNL A   1      44.041  32.348  34.242  1.00  0.00     0.029 A 
ATOM     59  N   UNL A   1      42.850  31.286  32.697  1.00  0.00    -0.354 N 
ATOM     60  N   UNL A   1      42.233  29.119  30.878  1.00  0.00    -0.248 NA
ATOM     61  C   UNL A   1      42.767  27.074  29.882  1.00  0.00     0.031 C 
ATOM     62  C   UNL A   1      44.718  31.171  33.900  1.00  0.00     0.029 A 
ATOM     63  C   UNL A   1      43.962  30.498  32.956  1.00  0.00     0.049 A 
ATOM     64  H   UNL A   1      42.137  31.062  32.055  1.00  0.00     0.167 HD
ATOM     65  C   UNL A   1      43.429  28.650  31.407  1.00  0.00     0.074 A 
ATOM     66  C   UNL A   1      43.695  27.372  30.780  1.00  0.00     0.031 C 
ATOM     67  C   UNL A   1      44.230  29.229  32.332  1.00  0.00     0.031 A 
BRANCH  54  68
ATOM     68  C   UNL A   1      42.178  34.710  34.280  1.00  0.00    -0.014 A 
ATOM     69  C   UNL A   1      41.830  34.769  35.638  1.00  0.00     0.009 A 
ATOM     70  C   UNL A   1      42.868  35.794  33.711  1.00  0.00     0.009 A 
ATOM     71  C   UNL A   1      42.135  35.900  36.399  1.00  0.00     0.001 A 
ATOM     72  C   UNL A   1      43.197  36.912  34.481  1.00  0.00     0.001 A 
ATOM     73  C   UNL A   1      42.822  36.967  35.822  1.00  0.00     0.000 A 
ENDBRANCH  54  68
BRANCH  55  74
ATOM     74  C   UNL A   1      40.345  27.031  28.265  1.00  0.00    -0.014 A 
ATOM     75  C   UNL A   1      39.560  25.951  28.695  1.00  0.00     0.009 A 
ATOM     76  C   UNL A   1      40.880  27.014  26.969  1.00  0.00     0.009 A 
ATOM     77  C   UNL A   1      39.336  24.862  27.851  1.00  0.00     0.001 A 
ATOM     78  C   UNL A   1      40.631  25.935  26.118  1.00  0.00     0.001 A 
ATOM     79  C   UNL A   1      39.866  24.857  26.563  1.00  0.00     0.000 A 
ENDBRANCH  55  74
BRANCH  67  80
ATOM     80  C   UNL A   1      45.458  28.471  32.754  1.00  0.00    -0.014 A 
ATOM     81  C   UNL A   1      46.690  28.655  32.108  1.00  0.00     0.009 A 
ATOM     82  C   UNL A   1      45.386  27.577  33.834  1.00  0.00     0.009 A 
ATOM     83  C   UNL A   1      47.816  27.936  32.513  1.00  0.00     0.001 A 
ATOM     84  C   UNL A   1      46.519  26.878  34.254  1.00  0.00     0.001 A 
ATOM     85  C   UNL A   1      47.731  27.052  33.588  1.00  0.00     0.000 A 
ENDBRANCH  67  80
ENDBRANCH  41  42
ENDBRANCH  33  36
ENDBRANCH  31  32
ENDBRANCH  30  31
ENDBRANCH  29  30
ENDBRANCH   1  29
TORSDOF 17
ENDMDL
MODEL 2
REMARK VINA RESULT:     -11.2      0.452      5.805
REMARK SMILES O=C(CS[C@H](C(=O)Nc1ccc(C(F)(F)F)cc1)c1ccccc1)NCCCCNC(=O)c1ccc(-c2c3nc(c(-c4ccccc4)c4ccc([nH]4)c(-c4ccccc4)c4nc(c(-c5ccccc5)c5ccc2[nH]5)C=C4)C=C3)cc1
REMARK SMILES IDX 26 1 25 2 1 3 2 4 3 6 4 7 5 8 19 9 20 10 24 11 21 12 23 13
REMARK SMILES IDX 22 14 6 15 7 16 8 17 9 19 10 20 18 21 11 22 17 23 12 24
REMARK SMILES IDX 13 25 14 26 15 27 16 28 27 29 28 30 29 31 30 32 31 33 32 35
REMARK SMILES IDX 33 36 34 37 80 38 35 39 79 40 36 41 37 42 38 43 73 44 39 45
REMARK SMILES IDX 78 46 72 47 74 48 40 49 77 50 71 51 70 52 41 54 63 55 48 56
REMARK SMILES IDX 62 57 49 58 52 59 61 60 75 61 50 62 51 63 60 65 76 66 53 67
REMARK SMILES IDX 42 68 43 69 47 70 44 71 46 72 45 73 64 74 65 75 69 76 66 77
REMARK SMILES IDX 68 78 67 79 54 80 55 81 59 82 56 83 58 84 57 85
REMARK H PARENT 25 5 8 18 30 34 74 53 52 64
REMARK Flexibility Score: inf
ROOT
ATOM      1  C   UNL A   1      31.178  29.293  24.844  1.00  0.00     0.116 C 
ENDROOT
BRANCH   1   2
ATOM      2  N   UNL A   1      31.471  28.014  24.216  1.00  0.00    -0.355 N 
ATOM      3  O   UNL A   1      30.851  28.750  22.132  1.00  0.00    -0.274 OA
ATOM      4  C   UNL A   1      31.314  27.859  22.841  1.00  0.00     0.230 C 
ATOM      5  H   UNL A   1      31.781  27.257  24.764  1.00  0.00     0.163 HD
BRANCH   4   6
ATOM      6  C   UNL A   1      31.749  26.515  22.281  1.00  0.00     0.170 C 
BRANCH   6   7
ATOM      7  S   UNL A   1      33.479  26.046  22.662  1.00  0.00    -0.134 SA
BRANCH   7   8
ATOM      8  C   UNL A   1      33.396  24.362  23.435  1.00  0.00     0.166 C 
BRANCH   8   9
ATOM      9  C   UNL A   1      34.764  23.899  23.915  1.00  0.00    -0.026 A 
ATOM     10  C   UNL A   1      35.291  24.317  25.135  1.00  0.00     0.005 A 
ATOM     11  C   UNL A   1      35.524  22.979  23.175  1.00  0.00     0.005 A 
ATOM     12  C   UNL A   1      36.517  23.858  25.620  1.00  0.00     0.000 A 
ATOM     13  C   UNL A   1      36.740  22.485  23.668  1.00  0.00     0.000 A 
ATOM     14  C   UNL A   1      37.237  22.928  24.890  1.00  0.00     0.000 A 
ENDBRANCH   8   9
BRANCH   8  15
ATOM     15  C   UNL A   1      32.166  24.167  24.377  1.00  0.00     0.242 C 
ATOM     16  O   UNL A   1      31.674  25.066  25.065  1.00  0.00    -0.273 OA
ATOM     17  N   UNL A   1      31.497  22.952  24.333  1.00  0.00    -0.325 N 
ATOM     18  H   UNL A   1      30.513  22.986  24.302  1.00  0.00     0.169 HD
BRANCH  17  19
ATOM     19  C   UNL A   1      32.088  21.680  24.327  1.00  0.00     0.041 A 
ATOM     20  C   UNL A   1      31.975  20.831  23.231  1.00  0.00     0.027 A 
ATOM     21  C   UNL A   1      32.737  21.215  25.461  1.00  0.00     0.027 A 
ATOM     22  C   UNL A   1      32.672  19.610  23.225  1.00  0.00     0.015 A 
ATOM     23  C   UNL A   1      33.472  20.039  25.449  1.00  0.00     0.015 A 
ATOM     24  C   UNL A   1      33.475  19.233  24.316  1.00  0.00     0.056 A 
BRANCH  24  25
ATOM     25  C   UNL A   1      34.294  17.969  24.311  1.00  0.00     0.416 C 
ATOM     26  F   UNL A   1      35.599  18.203  24.601  1.00  0.00    -0.166 F 
ATOM     27  F   UNL A   1      33.857  17.048  25.210  1.00  0.00    -0.166 F 
ATOM     28  F   UNL A   1      34.294  17.339  23.101  1.00  0.00    -0.166 F 
ENDBRANCH  24  25
ENDBRANCH  17  19
ENDBRANCH   8  15
ENDBRANCH   7   8
ENDBRANCH   6   7
ENDBRANCH   4   6
ENDBRANCH   1   2
BRANCH   1  29
ATOM     29  C   UNL A   1      32.055  29.704  26.039  1.00  0.00     0.023 C 
BRANCH  29  30
ATOM     30  C   UNL A   1      31.780  31.014  26.795  1.00  0.00     0.023 C 
BRANCH  30  31
ATOM     31  C   UNL A   1      32.844  32.122  26.843  1.00  0.00     0.116 C 
BRANCH  31  32
ATOM     32  N   UNL A   1      32.442  33.378  27.450  1.00  0.00    -0.352 N 
ATOM     33  C   UNL A   1      33.108  34.184  28.356  1.00  0.00     0.251 C 
ATOM     34  H   UNL A   1      31.556  33.707  27.174  1.00  0.00     0.163 HD
ATOM     35  O   UNL A   1      32.584  35.226  28.726  1.00  0.00    -0.269 OA
BRANCH  33  36
ATOM     36  C   UNL A   1      34.430  33.800  28.928  1.00  0.00     0.039 A 
ATOM     37  C   UNL A   1      34.461  32.989  30.068  1.00  0.00     0.014 A 
ATOM     38  C   UNL A   1      35.634  34.255  28.395  1.00  0.00     0.014 A 
ATOM     39  C   UNL A   1      35.686  32.559  30.605  1.00  0.00     0.010 A 
ATOM     40  C   UNL A   1      36.857  33.793  28.903  1.00  0.00     0.010 A 
ATOM     41  C   UNL A   1      36.900  32.918  29.997  1.00  0.00    -0.014 A 
BRANCH  41  42
ATOM     42  C   UNL A   1      38.195  32.299  30.411  1.00  0.00     0.031 A 
ATOM     43  C   UNL A   1      38.703  31.015  29.808  1.00  0.00     0.074 A 
ATOM     44  C   UNL A   1      38.885  32.857  31.426  1.00  0.00     0.049 A 
ATOM     45  N   UNL A   1      39.781  30.330  30.111  1.00  0.00    -0.248 NA
ATOM     46  C   UNL A   1      37.887  30.410  28.749  1.00  0.00     0.031 C 
ATOM     47  C   UNL A   1      38.490  34.064  32.154  1.00  0.00     0.029 A 
ATOM     48  N   UNL A   1      40.062  32.477  32.026  1.00  0.00    -0.354 N 
ATOM     49  C   UNL A   1      39.753  29.194  29.308  1.00  0.00     0.074 A 
ATOM     50  C   UNL A   1      38.541  29.278  28.521  1.00  0.00     0.031 C 
ATOM     51  C   UNL A   1      39.423  34.345  33.077  1.00  0.00     0.029 A 
ATOM     52  C   UNL A   1      40.463  33.323  33.033  1.00  0.00     0.049 A 
ATOM     53  H   UNL A   1      40.568  31.677  31.762  1.00  0.00     0.167 HD
ATOM     54  C   UNL A   1      40.651  28.180  29.230  1.00  0.00     0.031 A 
ATOM     55  C   UNL A   1      41.546  33.290  33.832  1.00  0.00     0.031 A 
ATOM     56  C   UNL A   1      41.879  28.107  29.982  1.00  0.00     0.049 A 
ATOM     57  C   UNL A   1      42.558  32.190  33.684  1.00  0.00     0.074 A 
ATOM     58  C   UNL A   1      42.893  27.166  29.886  1.00  0.00     0.029 A 
ATOM     59  N   UNL A   1      42.265  29.005  30.962  1.00  0.00    -0.354 N 
ATOM     60  N   UNL A   1      42.551  31.169  32.864  1.00  0.00    -0.248 NA
ATOM     61  C   UNL A   1      43.734  32.250  34.564  1.00  0.00     0.031 C 
ATOM     62  C   UNL A   1      43.872  27.471  30.839  1.00  0.00     0.029 A 
ATOM     63  C   UNL A   1      43.491  28.631  31.491  1.00  0.00     0.049 A 
ATOM     64  H   UNL A   1      41.746  29.794  31.242  1.00  0.00     0.167 HD
ATOM     65  C   UNL A   1      43.734  30.482  33.109  1.00  0.00     0.074 A 
ATOM     66  C   UNL A   1      44.438  31.209  34.144  1.00  0.00     0.031 C 
ATOM     67  C   UNL A   1      44.192  29.351  32.522  1.00  0.00     0.031 A 
BRANCH  54  68
ATOM     68  C   UNL A   1      40.348  27.043  28.287  1.00  0.00    -0.014 A 
ATOM     69  C   UNL A   1      40.837  27.035  26.971  1.00  0.00     0.009 A 
ATOM     70  C   UNL A   1      39.628  25.928  28.748  1.00  0.00     0.009 A 
ATOM     71  C   UNL A   1      40.581  25.951  26.127  1.00  0.00     0.001 A 
ATOM     72  C   UNL A   1      39.399  24.833  27.912  1.00  0.00     0.001 A 
ATOM     73  C   UNL A   1      39.868  24.850  26.599  1.00  0.00     0.000 A 
ENDBRANCH  54  68
BRANCH  55  74
ATOM     74  C   UNL A   1      41.757  34.372  34.829  1.00  0.00    -0.014 A 
ATOM     75  C   UNL A   1      42.327  35.590  34.434  1.00  0.00     0.009 A 
ATOM     76  C   UNL A   1      41.390  34.193  36.170  1.00  0.00     0.009 A 
ATOM     77  C   UNL A   1      42.550  36.603  35.369  1.00  0.00     0.001 A 
ATOM     78  C   UNL A   1      41.588  35.217  37.098  1.00  0.00     0.001 A 
ATOM     79  C   UNL A   1      42.175  36.418  36.699  1.00  0.00     0.000 A 
ENDBRANCH  55  74
BRANCH  67  80
ATOM     80  C   UNL A   1      45.538  28.843  32.959  1.00  0.00    -0.014 A 
ATOM     81  C   UNL A   1      45.671  27.965  34.046  1.00  0.00     0.009 A 
ATOM     82  C   UNL A   1      46.689  29.229  32.253  1.00  0.00     0.009 A 
ATOM     83  C   UNL A   1      46.932  27.511  34.438  1.00  0.00     0.001 A 
ATOM     84  C   UNL A   1      47.946  28.753  32.631  1.00  0.00     0.001 A 
ATOM     85  C   UNL A   1      48.067  27.901  33.728  1.00  0.00     0.000 A 
ENDBRANCH  67  80
ENDBRANCH  41  42
ENDBRANCH  33  36
ENDBRANCH  31  32
ENDBRANCH  30  31
ENDBRANCH  29  30
ENDBRANCH   1  29
TORSDOF 17
ENDMDL
MODEL 3
REMARK VINA RESULT:     -11.2      4.428      9.081
REMARK SMILES O=C(CS[C@H](C(=O)Nc1ccc(C(F)(F)F)cc1)c1ccccc1)NCCCCNC(=O)c1ccc(-c2c3nc(c(-c4ccccc4)c4ccc([nH]4)c(-c4ccccc4)c4nc(c(-c5ccccc5)c5ccc2[nH]5)C=C4)C=C3)cc1
REMARK SMILES IDX 26 1 25 2 1 3 2 4 3 6 4 7 5 8 19 9 20 10 24 11 21 12 23 13
REMARK SMILES IDX 22 14 6 15 7 16 8 17 9 19 10 20 18 21 11 22 17 23 12 24
REMARK SMILES IDX 13 25 14 26 15 27 16 28 27 29 28 30 29 31 30 32 31 33 32 35
REMARK SMILES IDX 33 36 34 37 80 38 35 39 79 40 36 41 37 42 38 43 73 44 39 45
REMARK SMILES IDX 78 46 72 47 74 48 40 49 77 50 71 51 70 52 41 54 63 55 48 56
REMARK SMILES IDX 62 57 49 58 52 59 61 60 75 61 50 62 51 63 60 65 76 66 53 67
REMARK SMILES IDX 42 68 43 69 47 70 44 71 46 72 45 73 64 74 65 75 69 76 66 77
REMARK SMILES IDX 68 78 67 79 54 80 55 81 59 82 56 83 58 84 57 85
REMARK H PARENT 25 5 8 18 30 34 74 53 52 64
REMARK Flexibility Score: inf
ROOT
ATOM      1  C   UNL A   1      35.429  23.101  23.327  1.00  0.00     0.116 C 
ENDROOT
BRANCH   1   2
ATOM      2  N   UNL A   1      34.577  23.772  24.298  1.00  0.00    -0.355 N 
ATOM      3  O   UNL A   1      33.637  21.808  25.022  1.00  0.00    -0.274 OA
ATOM      4  C   UNL A   1      33.745  23.028  25.129  1.00  0.00     0.230 C 
ATOM      5  H   UNL A   1      34.589  24.754  24.367  1.00  0.00     0.163 HD
BRANCH   4   6
ATOM      6  C   UNL A   1      32.980  23.824  26.173  1.00  0.00     0.170 C 
BRANCH   6   7
ATOM      7  S   UNL A   1      31.218  24.125  25.772  1.00  0.00    -0.134 SA
BRANCH   7   8
ATOM      8  C   UNL A   1      31.152  25.791  24.960  1.00  0.00     0.166 C 
BRANCH   8   9
ATOM      9  C   UNL A   1      31.920  26.834  25.760  1.00  0.00    -0.026 A 
ATOM     10  C   UNL A   1      31.380  27.424  26.900  1.00  0.00     0.005 A 
ATOM     11  C   UNL A   1      33.231  27.198  25.414  1.00  0.00     0.005 A 
ATOM     12  C   UNL A   1      32.090  28.339  27.680  1.00  0.00     0.000 A 
ATOM     13  C   UNL A   1      33.965  28.090  26.208  1.00  0.00     0.000 A 
ATOM     14  C   UNL A   1      33.393  28.663  27.340  1.00  0.00     0.000 A 
ENDBRANCH   8   9
BRANCH   8  15
ATOM     15  C   UNL A   1      31.351  25.739  23.412  1.00  0.00     0.242 C 
ATOM     16  O   UNL A   1      32.204  25.049  22.848  1.00  0.00    -0.273 OA
ATOM     17  N   UNL A   1      30.424  26.395  22.614  1.00  0.00    -0.325 N 
ATOM     18  H   UNL A   1      30.087  25.905  21.828  1.00  0.00     0.169 HD
BRANCH  17  19
ATOM     19  C   UNL A   1      29.920  27.688  22.819  1.00  0.00     0.041 A 
ATOM     20  C   UNL A   1      30.744  28.807  22.756  1.00  0.00     0.027 A 
ATOM     21  C   UNL A   1      28.590  27.863  23.171  1.00  0.00     0.027 A 
ATOM     22  C   UNL A   1      30.178  30.090  22.862  1.00  0.00     0.015 A 
ATOM     23  C   UNL A   1      28.010  29.121  23.224  1.00  0.00     0.015 A 
ATOM     24  C   UNL A   1      28.793  30.255  23.039  1.00  0.00     0.056 A 
BRANCH  24  25
ATOM     25  C   UNL A   1      28.145  31.614  23.080  1.00  0.00     0.416 C 
ATOM     26  F   UNL A   1      27.006  31.616  23.817  1.00  0.00    -0.166 F 
ATOM     27  F   UNL A   1      28.950  32.572  23.611  1.00  0.00    -0.166 F 
ATOM     28  F   UNL A   1      27.784  32.071  21.846  1.00  0.00    -0.166 F 
ENDBRANCH  24  25
ENDBRANCH  17  19
ENDBRANCH   8  15
ENDBRANCH   7   8
ENDBRANCH   6   7
ENDBRANCH   4   6
ENDBRANCH   1   2
BRANCH   1  29
ATOM     29  C   UNL A   1      36.846  22.718  23.786  1.00  0.00     0.023 C 
BRANCH  29  30
ATOM     30  C   UNL A   1      37.145  21.297  24.292  1.00  0.00     0.023 C 
BRANCH  30  31
ATOM     31  C   UNL A   1      38.034  21.083  25.526  1.00  0.00     0.116 C 
BRANCH  31  32
ATOM     32  N   UNL A   1      39.032  20.033  25.428  1.00  0.00    -0.352 N 
ATOM     33  C   UNL A   1      40.339  19.999  25.881  1.00  0.00     0.251 C 
ATOM     34  H   UNL A   1      38.731  19.216  24.966  1.00  0.00     0.163 HD
ATOM     35  O   UNL A   1      41.006  18.988  25.706  1.00  0.00    -0.269 OA
BRANCH  33  36
ATOM     36  C   UNL A   1      40.974  21.174  26.542  1.00  0.00     0.039 A 
ATOM     37  C   UNL A   1      41.558  22.163  25.741  1.00  0.00     0.014 A 
ATOM     38  C   UNL A   1      41.046  21.304  27.927  1.00  0.00     0.014 A 
ATOM     39  C   UNL A   1      42.117  23.314  26.322  1.00  0.00     0.010 A 
ATOM     40  C   UNL A   1      41.564  22.470  28.507  1.00  0.00     0.010 A 
ATOM     41  C   UNL A   1      42.082  23.503  27.713  1.00  0.00    -0.014 A 
BRANCH  41  42
ATOM     42  C   UNL A   1      42.466  24.806  28.335  1.00  0.00     0.031 A 
ATOM     43  C   UNL A   1      41.462  25.898  28.600  1.00  0.00     0.074 A 
ATOM     44  C   UNL A   1      43.769  25.050  28.578  1.00  0.00     0.049 A 
ATOM     45  N   UNL A   1      41.661  27.104  29.079  1.00  0.00    -0.248 NA
ATOM     46  C   UNL A   1      40.063  25.612  28.261  1.00  0.00     0.031 C 
ATOM     47  C   UNL A   1      44.867  24.117  28.316  1.00  0.00     0.029 A 
ATOM     48  N   UNL A   1      44.393  26.160  29.095  1.00  0.00    -0.354 N 
ATOM     49  C   UNL A   1      40.420  27.733  29.064  1.00  0.00     0.074 A 
ATOM     50  C   UNL A   1      39.483  26.779  28.510  1.00  0.00     0.031 C 
ATOM     51  C   UNL A   1      46.022  24.679  28.704  1.00  0.00     0.029 A 
ATOM     52  C   UNL A   1      45.756  26.021  29.210  1.00  0.00     0.049 A 
ATOM     53  H   UNL A   1      43.911  26.976  29.357  1.00  0.00     0.167 HD
ATOM     54  C   UNL A   1      40.089  28.983  29.475  1.00  0.00     0.031 A 
ATOM     55  C   UNL A   1      46.692  26.871  29.673  1.00  0.00     0.031 A 
ATOM     56  C   UNL A   1      41.008  29.927  30.063  1.00  0.00     0.049 A 
ATOM     57  C   UNL A   1      46.293  28.227  30.179  1.00  0.00     0.074 A 
ATOM     58  C   UNL A   1      40.734  31.175  30.600  1.00  0.00     0.029 A 
ATOM     59  N   UNL A   1      42.372  29.730  30.197  1.00  0.00    -0.354 N 
ATOM     60  N   UNL A   1      45.104  28.771  30.229  1.00  0.00    -0.248 NA
ATOM     61  C   UNL A   1      47.370  29.078  30.708  1.00  0.00     0.031 C 
ATOM     62  C   UNL A   1      41.939  31.751  31.019  1.00  0.00     0.029 A 
ATOM     63  C   UNL A   1      42.955  30.840  30.790  1.00  0.00     0.049 A 
ATOM     64  H   UNL A   1      42.857  28.921  29.913  1.00  0.00     0.167 HD
ATOM     65  C   UNL A   1      45.283  30.016  30.821  1.00  0.00     0.074 A 
ATOM     66  C   UNL A   1      46.694  30.140  31.123  1.00  0.00     0.031 C 
ATOM     67  C   UNL A   1      44.357  30.966  31.090  1.00  0.00     0.031 A 
BRANCH  54  68
ATOM     68  C   UNL A   1      38.657  29.423  29.308  1.00  0.00    -0.014 A 
ATOM     69  C   UNL A   1      37.749  29.377  30.377  1.00  0.00     0.009 A 
ATOM     70  C   UNL A   1      38.233  29.966  28.083  1.00  0.00     0.009 A 
ATOM     71  C   UNL A   1      36.438  29.831  30.213  1.00  0.00     0.001 A 
ATOM     72  C   UNL A   1      36.930  30.446  27.930  1.00  0.00     0.001 A 
ATOM     73  C   UNL A   1      36.031  30.369  28.993  1.00  0.00     0.000 A 
ENDBRANCH  54  68
BRANCH  55  74
ATOM     74  C   UNL A   1      48.114  26.442  29.720  1.00  0.00    -0.014 A 
ATOM     75  C   UNL A   1      48.950  26.653  28.614  1.00  0.00     0.009 A 
ATOM     76  C   UNL A   1      48.640  25.826  30.865  1.00  0.00     0.009 A 
ATOM     77  C   UNL A   1      50.280  26.232  28.643  1.00  0.00     0.001 A 
ATOM     78  C   UNL A   1      49.978  25.430  30.901  1.00  0.00     0.001 A 
ATOM     79  C   UNL A   1      50.795  25.626  29.788  1.00  0.00     0.000 A 
ENDBRANCH  55  74
BRANCH  67  80
ATOM     80  C   UNL A   1      44.830  32.216  31.778  1.00  0.00    -0.014 A 
ATOM     81  C   UNL A   1      44.851  32.317  33.178  1.00  0.00     0.009 A 
ATOM     82  C   UNL A   1      45.290  33.299  31.013  1.00  0.00     0.009 A 
ATOM     83  C   UNL A   1      45.290  33.490  33.796  1.00  0.00     0.001 A 
ATOM     84  C   UNL A   1      45.752  34.462  31.634  1.00  0.00     0.001 A 
ATOM     85  C   UNL A   1      45.744  34.559  33.024  1.00  0.00     0.000 A 
ENDBRANCH  67  80
ENDBRANCH  41  42
ENDBRANCH  33  36
ENDBRANCH  31  32
ENDBRANCH  30  31
ENDBRANCH  29  30
ENDBRANCH   1  29
TORSDOF 17
ENDMDL
