MODEL 1
REMARK VINA RESULT:     -11.4      0.000      0.000
REMARK SMILES CCc1cc(OC(F)(F)F)cc2c1O[C@H](C(F)(F)F)C(C(=O)NCCCCNC(=O)c1ccc(-c3c4nc(c(-c5ccccc5)c5ccc([nH]5)c(-c5ccccc5)c5nc(c(-c6ccccc6)c6ccc3[nH]6)C=C5)C=C4)cc1)=C2
REMARK SMILES IDX 25 1 24 2 23 3 21 4 22 5 20 7 3 8 4 9 13 10 5 11 12 12 14 13
REMARK SMILES IDX 11 14 79 15 15 16 2 17 1 18 6 19 7 20 8 21 9 22 10 23 16 24
REMARK SMILES IDX 17 25 18 26 19 27 26 28 27 29 28 30 29 31 30 33 31 34 32 35
REMARK SMILES IDX 78 36 33 37 77 38 34 39 35 40 36 41 71 42 37 43 76 44 70 45
REMARK SMILES IDX 72 46 38 47 75 48 69 49 68 50 39 52 61 53 46 54 60 55 47 56
REMARK SMILES IDX 50 57 59 58 73 59 48 60 49 61 58 63 74 64 51 65 40 66 41 67
REMARK SMILES IDX 45 68 42 69 44 70 43 71 62 72 63 73 67 74 64 75 66 76 65 77
REMARK SMILES IDX 52 78 53 79 57 80 54 81 56 82 55 83
REMARK H PARENT 23 6 28 32 72 51 50 62
REMARK Flexibility Score: inf
ROOT
ATOM      1  C   UNL A   1      39.105  22.574  26.467  1.00  0.00     0.023 C 
ENDROOT
BRANCH   1   2
ATOM      2  C   UNL A   1      38.081  23.576  25.930  1.00  0.00     0.116 C 
BRANCH   2   3
ATOM      3  N   UNL A   1      37.701  23.242  24.573  1.00  0.00    -0.352 N 
ATOM      4  C   UNL A   1      36.508  23.239  23.928  1.00  0.00     0.251 C 
ATOM      5  O   UNL A   1      36.519  22.939  22.733  1.00  0.00    -0.270 OA
ATOM      6  H   UNL A   1      38.457  22.962  24.009  1.00  0.00     0.163 HD
BRANCH   4   7
ATOM      7  C   UNL A   1      35.222  23.672  24.555  1.00  0.00     0.067 C 
ATOM      8  C   UNL A   1      31.237  24.288  25.773  1.00  0.00    -0.002 A 
ATOM      9  C   UNL A   1      30.811  25.607  26.026  1.00  0.00     0.054 A 
ATOM     10  C   UNL A   1      32.567  24.079  25.366  1.00  0.00     0.131 A 
ATOM     11  C   UNL A   1      31.688  26.687  25.891  1.00  0.00     0.130 A 
ATOM     12  C   UNL A   1      33.456  25.149  25.254  1.00  0.00     0.021 A 
ATOM     13  O   UNL A   1      32.932  22.800  25.023  1.00  0.00    -0.475 OA
ATOM     14  C   UNL A   1      33.011  26.448  25.516  1.00  0.00     0.058 A 
ATOM     15  C   UNL A   1      34.812  24.928  24.770  1.00  0.00     0.025 C 
ATOM     16  C   UNL A   1      34.356  22.507  25.008  1.00  0.00     0.314 C 
BRANCH   8  17
ATOM     17  C   UNL A   1      30.324  23.087  25.929  1.00  0.00     0.036 C 
ATOM     18  C   UNL A   1      29.559  22.961  27.241  1.00  0.00     0.009 C 
ENDBRANCH   8  17
BRANCH  11  19
ATOM     19  O   UNL A   1      31.395  28.007  26.080  1.00  0.00    -0.406 OA
BRANCH  19  20
ATOM     20  C   UNL A   1      31.786  28.610  27.301  1.00  0.00     0.573 C 
ATOM     21  F   UNL A   1      31.130  28.062  28.347  1.00  0.00    -0.132 F 
ATOM     22  F   UNL A   1      33.117  28.498  27.493  1.00  0.00    -0.132 F 
ATOM     23  F   UNL A   1      31.474  29.924  27.253  1.00  0.00    -0.132 F 
ENDBRANCH  19  20
ENDBRANCH  11  19
BRANCH  16  24
ATOM     24  C   UNL A   1      34.786  21.942  26.379  1.00  0.00     0.429 C 
ATOM     25  F   UNL A   1      35.081  22.931  27.260  1.00  0.00    -0.167 F 
ATOM     26  F   UNL A   1      33.790  21.206  26.931  1.00  0.00    -0.167 F 
ATOM     27  F   UNL A   1      35.879  21.149  26.320  1.00  0.00    -0.167 F 
ENDBRANCH  16  24
ENDBRANCH   4   7
ENDBRANCH   2   3
ENDBRANCH   1   2
BRANCH   1  28
ATOM     28  C   UNL A   1      39.152  21.255  25.691  1.00  0.00     0.023 C 
BRANCH  28  29
ATOM     29  C   UNL A   1      39.637  20.056  26.500  1.00  0.00     0.116 C 
BRANCH  29  30
ATOM     30  N   UNL A   1      40.781  19.385  25.906  1.00  0.00    -0.352 N 
ATOM     31  C   UNL A   1      42.077  19.831  25.798  1.00  0.00     0.251 C 
ATOM     32  H   UNL A   1      40.604  18.493  25.529  1.00  0.00     0.163 HD
ATOM     33  O   UNL A   1      42.904  19.183  25.171  1.00  0.00    -0.269 OA
BRANCH  31  34
ATOM     34  C   UNL A   1      42.449  21.123  26.408  1.00  0.00     0.039 A 
ATOM     35  C   UNL A   1      42.768  22.190  25.565  1.00  0.00     0.014 A 
ATOM     36  C   UNL A   1      42.463  21.290  27.795  1.00  0.00     0.014 A 
ATOM     37  C   UNL A   1      43.043  23.442  26.115  1.00  0.00     0.010 A 
ATOM     38  C   UNL A   1      42.665  22.555  28.337  1.00  0.00     0.010 A 
ATOM     39  C   UNL A   1      42.961  23.642  27.503  1.00  0.00    -0.014 A 
BRANCH  39  40
ATOM     40  C   UNL A   1      43.175  24.988  28.086  1.00  0.00     0.031 A 
ATOM     41  C   UNL A   1      44.551  25.429  28.498  1.00  0.00     0.074 A 
ATOM     42  C   UNL A   1      42.118  25.800  28.282  1.00  0.00     0.049 A 
ATOM     43  N   UNL A   1      44.932  26.574  29.008  1.00  0.00    -0.248 NA
ATOM     44  C   UNL A   1      45.640  24.451  28.340  1.00  0.00     0.031 C 
ATOM     45  C   UNL A   1      40.725  25.467  27.975  1.00  0.00     0.029 A 
ATOM     46  N   UNL A   1      42.053  27.077  28.779  1.00  0.00    -0.354 N 
ATOM     47  C   UNL A   1      46.296  26.449  29.239  1.00  0.00     0.074 A 
ATOM     48  C   UNL A   1      46.667  25.100  28.869  1.00  0.00     0.031 C 
ATOM     49  C   UNL A   1      39.948  26.526  28.253  1.00  0.00     0.029 A 
ATOM     50  C   UNL A   1      40.782  27.599  28.787  1.00  0.00     0.049 A 
ATOM     51  H   UNL A   1      42.840  27.572  29.101  1.00  0.00     0.167 HD
ATOM     52  C   UNL A   1      47.167  27.380  29.696  1.00  0.00     0.031 A 
ATOM     53  C   UNL A   1      40.339  28.810  29.172  1.00  0.00     0.031 A 
ATOM     54  C   UNL A   1      46.799  28.722  30.057  1.00  0.00     0.049 A 
ATOM     55  C   UNL A   1      41.327  29.827  29.671  1.00  0.00     0.074 A 
ATOM     56  C   UNL A   1      47.616  29.757  30.477  1.00  0.00     0.029 A 
ATOM     57  N   UNL A   1      45.503  29.215  30.043  1.00  0.00    -0.354 N 
ATOM     58  N   UNL A   1      42.626  29.720  29.806  1.00  0.00    -0.248 NA
ATOM     59  C   UNL A   1      40.785  31.139  30.052  1.00  0.00     0.031 C 
ATOM     60  C   UNL A   1      46.807  30.863  30.765  1.00  0.00     0.029 A 
ATOM     61  C   UNL A   1      45.495  30.533  30.468  1.00  0.00     0.049 A 
ATOM     62  H   UNL A   1      44.707  28.704  29.772  1.00  0.00     0.167 HD
ATOM     63  C   UNL A   1      43.061  30.958  30.259  1.00  0.00     0.074 A 
ATOM     64  C   UNL A   1      41.890  31.804  30.359  1.00  0.00     0.031 C 
ATOM     65  C   UNL A   1      44.320  31.359  30.563  1.00  0.00     0.031 A 
BRANCH  52  66
ATOM     66  C   UNL A   1      48.607  26.970  29.833  1.00  0.00    -0.014 A 
ATOM     67  C   UNL A   1      49.087  26.384  31.016  1.00  0.00     0.009 A 
ATOM     68  C   UNL A   1      49.490  27.144  28.756  1.00  0.00     0.009 A 
ATOM     69  C   UNL A   1      50.429  26.016  31.131  1.00  0.00     0.001 A 
ATOM     70  C   UNL A   1      50.825  26.747  28.863  1.00  0.00     0.001 A 
ATOM     71  C   UNL A   1      51.295  26.194  30.053  1.00  0.00     0.000 A 
ENDBRANCH  52  66
BRANCH  53  72
ATOM     72  C   UNL A   1      38.894  29.141  29.067  1.00  0.00    -0.014 A 
ATOM     73  C   UNL A   1      38.050  29.006  30.181  1.00  0.00     0.009 A 
ATOM     74  C   UNL A   1      38.349  29.593  27.855  1.00  0.00     0.009 A 
ATOM     75  C   UNL A   1      36.687  29.287  30.074  1.00  0.00     0.001 A 
ATOM     76  C   UNL A   1      36.991  29.900  27.759  1.00  0.00     0.001 A 
ATOM     77  C   UNL A   1      36.159  29.738  28.866  1.00  0.00     0.000 A 
ENDBRANCH  53  72
BRANCH  65  78
ATOM     78  C   UNL A   1      44.496  32.787  31.000  1.00  0.00    -0.014 A 
ATOM     79  C   UNL A   1      44.742  33.810  30.070  1.00  0.00     0.009 A 
ATOM     80  C   UNL A   1      44.384  33.115  32.360  1.00  0.00     0.009 A 
ATOM     81  C   UNL A   1      44.911  35.128  30.502  1.00  0.00     0.001 A 
ATOM     82  C   UNL A   1      44.523  34.436  32.784  1.00  0.00     0.001 A 
ATOM     83  C   UNL A   1      44.796  35.440  31.856  1.00  0.00     0.000 A 
ENDBRANCH  65  78
ENDBRANCH  39  40
ENDBRANCH  31  34
ENDBRANCH  29  30
ENDBRANCH  28  29
ENDBRANCH   1  28
TORSDOF 15
ENDMDL
MODEL 2
REMARK VINA RESULT:     -11.1      1.501      2.312
REMARK SMILES CCc1cc(OC(F)(F)F)cc2c1O[C@H](C(F)(F)F)C(C(=O)NCCCCNC(=O)c1ccc(-c3c4nc(c(-c5ccccc5)c5ccc([nH]5)c(-c5ccccc5)c5nc(c(-c6ccccc6)c6ccc3[nH]6)C=C5)C=C4)cc1)=C2
REMARK SMILES IDX 25 1 24 2 23 3 21 4 22 5 20 7 3 8 4 9 13 10 5 11 12 12 14 13
REMARK SMILES IDX 11 14 79 15 15 16 2 17 1 18 6 19 7 20 8 21 9 22 10 23 16 24
REMARK SMILES IDX 17 25 18 26 19 27 26 28 27 29 28 30 29 31 30 33 31 34 32 35
REMARK SMILES IDX 78 36 33 37 77 38 34 39 35 40 36 41 71 42 37 43 76 44 70 45
REMARK SMILES IDX 72 46 38 47 75 48 69 49 68 50 39 52 61 53 46 54 60 55 47 56
REMARK SMILES IDX 50 57 59 58 73 59 48 60 49 61 58 63 74 64 51 65 40 66 41 67
REMARK SMILES IDX 45 68 42 69 44 70 43 71 62 72 63 73 67 74 64 75 66 76 65 77
REMARK SMILES IDX 52 78 53 79 57 80 54 81 56 82 55 83
REMARK H PARENT 23 6 28 32 72 51 50 62
REMARK Flexibility Score: inf
ROOT
ATOM      1  C   UNL A   1      37.077  21.107  24.611  1.00  0.00     0.023 C 
ENDROOT
BRANCH   1   2
ATOM      2  C   UNL A   1      36.776  22.018  25.803  1.00  0.00     0.116 C 
BRANCH   2   3
ATOM      3  N   UNL A   1      35.568  21.594  26.478  1.00  0.00    -0.352 N 
ATOM      4  C   UNL A   1      34.326  22.133  26.564  1.00  0.00     0.251 C 
ATOM      5  O   UNL A   1      33.481  21.495  27.194  1.00  0.00    -0.270 OA
ATOM      6  H   UNL A   1      35.667  20.748  26.972  1.00  0.00     0.163 HD
BRANCH   4   7
ATOM      7  C   UNL A   1      33.913  23.387  25.862  1.00  0.00     0.067 C 
ATOM      8  C   UNL A   1      33.316  26.636  23.248  1.00  0.00    -0.002 A 
ATOM      9  C   UNL A   1      33.194  27.926  23.802  1.00  0.00     0.054 A 
ATOM     10  C   UNL A   1      33.515  25.549  24.118  1.00  0.00     0.131 A 
ATOM     11  C   UNL A   1      33.256  28.127  25.184  1.00  0.00     0.130 A 
ATOM     12  C   UNL A   1      33.552  25.738  25.501  1.00  0.00     0.021 A 
ATOM     13  O   UNL A   1      33.737  24.317  23.553  1.00  0.00    -0.475 OA
ATOM     14  C   UNL A   1      33.423  27.027  26.026  1.00  0.00     0.058 A 
ATOM     15  C   UNL A   1      33.824  24.614  26.387  1.00  0.00     0.025 C 
ATOM     16  C   UNL A   1      33.531  23.158  24.408  1.00  0.00     0.314 C 
BRANCH   8  17
ATOM     17  C   UNL A   1      33.233  26.372  21.758  1.00  0.00     0.036 C 
ATOM     18  C   UNL A   1      31.868  25.995  21.193  1.00  0.00     0.009 C 
ENDBRANCH   8  17
BRANCH  11  19
ATOM     19  O   UNL A   1      33.178  29.321  25.841  1.00  0.00    -0.406 OA
BRANCH  19  20
ATOM     20  C   UNL A   1      31.896  29.799  26.208  1.00  0.00     0.573 C 
ATOM     21  F   UNL A   1      31.917  31.132  26.423  1.00  0.00    -0.132 F 
ATOM     22  F   UNL A   1      30.979  29.507  25.263  1.00  0.00    -0.132 F 
ATOM     23  F   UNL A   1      31.524  29.195  27.359  1.00  0.00    -0.132 F 
ENDBRANCH  19  20
ENDBRANCH  11  19
BRANCH  16  24
ATOM     24  C   UNL A   1      32.086  22.640  24.245  1.00  0.00     0.429 C 
ATOM     25  F   UNL A   1      32.041  21.284  24.195  1.00  0.00    -0.167 F 
ATOM     26  F   UNL A   1      31.316  23.022  25.293  1.00  0.00    -0.167 F 
ATOM     27  F   UNL A   1      31.476  23.080  23.123  1.00  0.00    -0.167 F 
ENDBRANCH  16  24
ENDBRANCH   4   7
ENDBRANCH   2   3
ENDBRANCH   1   2
BRANCH   1  28
ATOM     28  C   UNL A   1      37.951  19.897  24.957  1.00  0.00     0.023 C 
BRANCH  28  29
ATOM     29  C   UNL A   1      39.106  20.195  25.907  1.00  0.00     0.116 C 
BRANCH  29  30
ATOM     30  N   UNL A   1      40.201  19.245  25.798  1.00  0.00    -0.352 N 
ATOM     31  C   UNL A   1      41.538  19.445  26.041  1.00  0.00     0.251 C 
ATOM     32  H   UNL A   1      39.950  18.337  25.511  1.00  0.00     0.163 HD
ATOM     33  O   UNL A   1      42.350  18.563  25.799  1.00  0.00    -0.269 OA
BRANCH  31  34
ATOM     34  C   UNL A   1      41.992  20.754  26.554  1.00  0.00     0.039 A 
ATOM     35  C   UNL A   1      42.361  21.737  25.634  1.00  0.00     0.014 A 
ATOM     36  C   UNL A   1      42.032  21.018  27.925  1.00  0.00     0.014 A 
ATOM     37  C   UNL A   1      42.714  23.007  26.090  1.00  0.00     0.010 A 
ATOM     38  C   UNL A   1      42.313  22.305  28.373  1.00  0.00     0.010 A 
ATOM     39  C   UNL A   1      42.660  23.310  27.461  1.00  0.00    -0.014 A 
BRANCH  39  40
ATOM     40  C   UNL A   1      42.958  24.680  27.944  1.00  0.00     0.031 A 
ATOM     41  C   UNL A   1      44.378  25.112  28.179  1.00  0.00     0.074 A 
ATOM     42  C   UNL A   1      41.942  25.523  28.210  1.00  0.00     0.049 A 
ATOM     43  N   UNL A   1      44.830  26.273  28.582  1.00  0.00    -0.248 NA
ATOM     44  C   UNL A   1      45.428  24.104  27.957  1.00  0.00     0.031 C 
ATOM     45  C   UNL A   1      40.519  25.204  28.075  1.00  0.00     0.029 A 
ATOM     46  N   UNL A   1      41.952  26.825  28.642  1.00  0.00    -0.354 N 
ATOM     47  C   UNL A   1      46.209  26.131  28.670  1.00  0.00     0.074 A 
ATOM     48  C   UNL A   1      46.516  24.758  28.334  1.00  0.00     0.031 C 
ATOM     49  C   UNL A   1      39.794  26.293  28.379  1.00  0.00     0.029 A 
ATOM     50  C   UNL A   1      40.698  27.374  28.760  1.00  0.00     0.049 A 
ATOM     51  H   UNL A   1      42.778  27.319  28.849  1.00  0.00     0.167 HD
ATOM     52  C   UNL A   1      47.140  27.065  28.979  1.00  0.00     0.031 A 
ATOM     53  C   UNL A   1      40.318  28.612  29.125  1.00  0.00     0.031 A 
ATOM     54  C   UNL A   1      46.834  28.432  29.305  1.00  0.00     0.049 A 
ATOM     55  C   UNL A   1      41.371  29.633  29.458  1.00  0.00     0.074 A 
ATOM     56  C   UNL A   1      47.709  29.470  29.578  1.00  0.00     0.029 A 
ATOM     57  N   UNL A   1      45.553  28.951  29.406  1.00  0.00    -0.354 N 
ATOM     58  N   UNL A   1      42.675  29.504  29.457  1.00  0.00    -0.248 NA
ATOM     59  C   UNL A   1      40.895  30.974  29.825  1.00  0.00     0.031 C 
ATOM     60  C   UNL A   1      46.954  30.606  29.891  1.00  0.00     0.029 A 
ATOM     61  C   UNL A   1      45.612  30.290  29.758  1.00  0.00     0.049 A 
ATOM     62  H   UNL A   1      44.724  28.444  29.251  1.00  0.00     0.167 HD
ATOM     63  C   UNL A   1      43.177  30.755  29.793  1.00  0.00     0.074 A 
ATOM     64  C   UNL A   1      42.038  31.630  29.974  1.00  0.00     0.031 C 
ATOM     65  C   UNL A   1      44.468  31.145  29.936  1.00  0.00     0.031 A 
BRANCH  52  66
ATOM     66  C   UNL A   1      48.580  26.633  28.979  1.00  0.00    -0.014 A 
ATOM     67  C   UNL A   1      49.342  26.640  27.799  1.00  0.00     0.009 A 
ATOM     68  C   UNL A   1      49.192  26.239  30.179  1.00  0.00     0.009 A 
ATOM     69  C   UNL A   1      50.676  26.228  27.814  1.00  0.00     0.001 A 
ATOM     70  C   UNL A   1      50.535  25.856  30.197  1.00  0.00     0.001 A 
ATOM     71  C   UNL A   1      51.272  25.841  29.014  1.00  0.00     0.000 A 
ENDBRANCH  52  66
BRANCH  53  72
ATOM     72  C   UNL A   1      38.876  28.969  29.161  1.00  0.00    -0.014 A 
ATOM     73  C   UNL A   1      38.209  29.357  27.989  1.00  0.00     0.009 A 
ATOM     74  C   UNL A   1      38.159  28.925  30.367  1.00  0.00     0.009 A 
ATOM     75  C   UNL A   1      36.862  29.723  28.029  1.00  0.00     0.001 A 
ATOM     76  C   UNL A   1      36.805  29.265  30.399  1.00  0.00     0.001 A 
ATOM     77  C   UNL A   1      36.160  29.672  29.232  1.00  0.00     0.000 A 
ENDBRANCH  53  72
BRANCH  65  78
ATOM     78  C   UNL A   1      44.713  32.589  30.273  1.00  0.00    -0.014 A 
ATOM     79  C   UNL A   1      44.850  33.016  31.604  1.00  0.00     0.009 A 
ATOM     80  C   UNL A   1      44.839  33.530  29.239  1.00  0.00     0.009 A 
ATOM     81  C   UNL A   1      45.068  34.365  31.891  1.00  0.00     0.001 A 
ATOM     82  C   UNL A   1      45.088  34.871  29.529  1.00  0.00     0.001 A 
ATOM     83  C   UNL A   1      45.192  35.289  30.855  1.00  0.00     0.000 A 
ENDBRANCH  65  78
ENDBRANCH  39  40
ENDBRANCH  31  34
ENDBRANCH  29  30
ENDBRANCH  28  29
ENDBRANCH   1  28
TORSDOF 15
ENDMDL
MODEL 3
REMARK VINA RESULT:     -11.0      3.512      8.809
REMARK SMILES CCc1cc(OC(F)(F)F)cc2c1O[C@H](C(F)(F)F)C(C(=O)NCCCCNC(=O)c1ccc(-c3c4nc(c(-c5ccccc5)c5ccc([nH]5)c(-c5ccccc5)c5nc(c(-c6ccccc6)c6ccc3[nH]6)C=C5)C=C4)cc1)=C2
REMARK SMILES IDX 25 1 24 2 23 3 21 4 22 5 20 7 3 8 4 9 13 10 5 11 12 12 14 13
REMARK SMILES IDX 11 14 79 15 15 16 2 17 1 18 6 19 7 20 8 21 9 22 10 23 16 24
REMARK SMILES IDX 17 25 18 26 19 27 26 28 27 29 28 30 29 31 30 33 31 34 32 35
REMARK SMILES IDX 78 36 33 37 77 38 34 39 35 40 36 41 71 42 37 43 76 44 70 45
REMARK SMILES IDX 72 46 38 47 75 48 69 49 68 50 39 52 61 53 46 54 60 55 47 56
REMARK SMILES IDX 50 57 59 58 73 59 48 60 49 61 58 63 74 64 51 65 40 66 41 67
REMARK SMILES IDX 45 68 42 69 44 70 43 71 62 72 63 73 67 74 64 75 66 76 65 77
REMARK SMILES IDX 52 78 53 79 57 80 54 81 56 82 55 83
REMARK H PARENT 23 6 28 32 72 51 50 62
REMARK Flexibility Score: inf
ROOT
ATOM      1  C   UNL A   1      31.987  30.027  26.741  1.00  0.00     0.023 C 
ENDROOT
BRANCH   1   2
ATOM      2  C   UNL A   1      33.261  29.722  25.951  1.00  0.00     0.116 C 
BRANCH   2   3
ATOM      3  N   UNL A   1      32.989  29.708  24.528  1.00  0.00    -0.352 N 
ATOM      4  C   UNL A   1      32.815  28.700  23.636  1.00  0.00     0.251 C 
ATOM      5  O   UNL A   1      32.549  29.020  22.477  1.00  0.00    -0.270 OA
ATOM      6  H   UNL A   1      32.916  30.605  24.131  1.00  0.00     0.163 HD
BRANCH   4   7
ATOM      7  C   UNL A   1      32.829  27.252  24.005  1.00  0.00     0.067 C 
ATOM      8  C   UNL A   1      32.704  23.475  25.867  1.00  0.00    -0.002 A 
ATOM      9  C   UNL A   1      33.639  22.501  25.467  1.00  0.00     0.054 A 
ATOM     10  C   UNL A   1      32.743  24.737  25.247  1.00  0.00     0.131 A 
ATOM     11  C   UNL A   1      34.579  22.770  24.468  1.00  0.00     0.130 A 
ATOM     12  C   UNL A   1      33.662  25.005  24.231  1.00  0.00     0.021 A 
ATOM     13  O   UNL A   1      31.894  25.705  25.725  1.00  0.00    -0.475 OA
ATOM     14  C   UNL A   1      34.576  24.020  23.848  1.00  0.00     0.058 A 
ATOM     15  C   UNL A   1      33.735  26.336  23.642  1.00  0.00     0.025 C 
ATOM     16  C   UNL A   1      31.636  26.839  24.851  1.00  0.00     0.314 C 
BRANCH   8  17
ATOM     17  C   UNL A   1      31.654  23.217  26.930  1.00  0.00     0.036 C 
ATOM     18  C   UNL A   1      30.284  22.748  26.455  1.00  0.00     0.009 C 
ENDBRANCH   8  17
BRANCH  11  19
ATOM     19  O   UNL A   1      35.550  21.926  24.010  1.00  0.00    -0.406 OA
BRANCH  19  20
ATOM     20  C   UNL A   1      36.507  21.444  24.937  1.00  0.00     0.573 C 
ATOM     21  F   UNL A   1      36.857  22.405  25.819  1.00  0.00    -0.132 F 
ATOM     22  F   UNL A   1      36.040  20.368  25.602  1.00  0.00    -0.132 F 
ATOM     23  F   UNL A   1      37.616  21.074  24.259  1.00  0.00    -0.132 F 
ENDBRANCH  19  20
ENDBRANCH  11  19
BRANCH  16  24
ATOM     24  C   UNL A   1      30.371  26.569  24.007  1.00  0.00     0.429 C 
ATOM     25  F   UNL A   1      30.682  26.229  22.730  1.00  0.00    -0.167 F 
ATOM     26  F   UNL A   1      29.656  25.541  24.526  1.00  0.00    -0.167 F 
ATOM     27  F   UNL A   1      29.538  27.629  23.924  1.00  0.00    -0.167 F 
ENDBRANCH  16  24
ENDBRANCH   4   7
ENDBRANCH   2   3
ENDBRANCH   1   2
BRANCH   1  28
ATOM     28  C   UNL A   1      31.643  31.517  26.818  1.00  0.00     0.023 C 
BRANCH  28  29
ATOM     29  C   UNL A   1      32.841  32.439  27.024  1.00  0.00     0.116 C 
BRANCH  29  30
ATOM     30  N   UNL A   1      32.486  33.720  27.612  1.00  0.00    -0.352 N 
ATOM     31  C   UNL A   1      33.143  34.427  28.590  1.00  0.00     0.251 C 
ATOM     32  H   UNL A   1      31.665  34.137  27.262  1.00  0.00     0.163 HD
ATOM     33  O   UNL A   1      32.652  35.449  29.050  1.00  0.00    -0.269 OA
BRANCH  31  34
ATOM     34  C   UNL A   1      34.426  33.916  29.113  1.00  0.00     0.039 A 
ATOM     35  C   UNL A   1      34.401  33.061  30.217  1.00  0.00     0.014 A 
ATOM     36  C   UNL A   1      35.639  34.257  28.509  1.00  0.00     0.014 A 
ATOM     37  C   UNL A   1      35.592  32.500  30.678  1.00  0.00     0.010 A 
ATOM     38  C   UNL A   1      36.815  33.639  28.925  1.00  0.00     0.010 A 
ATOM     39  C   UNL A   1      36.803  32.758  30.015  1.00  0.00    -0.014 A 
BRANCH  39  40
ATOM     40  C   UNL A   1      38.059  32.103  30.452  1.00  0.00     0.031 A 
ATOM     41  C   UNL A   1      38.905  32.722  31.529  1.00  0.00     0.074 A 
ATOM     42  C   UNL A   1      38.458  30.967  29.848  1.00  0.00     0.049 A 
ATOM     43  N   UNL A   1      40.023  32.284  32.053  1.00  0.00    -0.248 NA
ATOM     44  C   UNL A   1      38.452  34.011  32.076  1.00  0.00     0.031 C 
ATOM     45  C   UNL A   1      37.753  30.298  28.752  1.00  0.00     0.029 A 
ATOM     46  N   UNL A   1      39.551  30.171  30.076  1.00  0.00    -0.354 N 
ATOM     47  C   UNL A   1      40.409  33.245  32.978  1.00  0.00     0.074 A 
ATOM     48  C   UNL A   1      39.439  34.317  32.905  1.00  0.00     0.031 C 
ATOM     49  C   UNL A   1      38.410  29.172  28.431  1.00  0.00     0.029 A 
ATOM     50  C   UNL A   1      39.597  29.057  29.273  1.00  0.00     0.049 A 
ATOM     51  H   UNL A   1      40.239  30.377  30.750  1.00  0.00     0.167 HD
ATOM     52  C   UNL A   1      41.462  33.229  33.829  1.00  0.00     0.031 A 
ATOM     53  C   UNL A   1      40.488  28.050  29.227  1.00  0.00     0.031 A 
ATOM     54  C   UNL A   1      42.422  32.161  33.905  1.00  0.00     0.049 A 
ATOM     55  C   UNL A   1      41.646  28.052  30.186  1.00  0.00     0.074 A 
ATOM     56  C   UNL A   1      43.492  32.023  34.772  1.00  0.00     0.029 A 
ATOM     57  N   UNL A   1      42.428  31.046  33.081  1.00  0.00    -0.354 N 
ATOM     58  N   UNL A   1      41.950  28.930  31.111  1.00  0.00    -0.248 NA
ATOM     59  C   UNL A   1      42.571  26.914  30.104  1.00  0.00     0.031 C 
ATOM     60  C   UNL A   1      44.175  30.848  34.440  1.00  0.00     0.029 A 
ATOM     61  C   UNL A   1      43.497  30.226  33.404  1.00  0.00     0.049 A 
ATOM     62  H   UNL A   1      41.771  30.865  32.371  1.00  0.00     0.167 HD
ATOM     63  C   UNL A   1      43.085  28.435  31.741  1.00  0.00     0.074 A 
ATOM     64  C   UNL A   1      43.402  27.174  31.104  1.00  0.00     0.031 C 
ATOM     65  C   UNL A   1      43.799  28.976  32.759  1.00  0.00     0.031 A 
BRANCH  52  66
ATOM     66  C   UNL A   1      41.629  34.410  34.744  1.00  0.00    -0.014 A 
ATOM     67  C   UNL A   1      40.970  34.468  35.984  1.00  0.00     0.009 A 
ATOM     68  C   UNL A   1      42.478  35.466  34.377  1.00  0.00     0.009 A 
ATOM     69  C   UNL A   1      41.129  35.575  36.820  1.00  0.00     0.001 A 
ATOM     70  C   UNL A   1      42.659  36.558  35.229  1.00  0.00     0.001 A 
ATOM     71  C   UNL A   1      41.977  36.616  36.443  1.00  0.00     0.000 A 
ENDBRANCH  52  66
BRANCH  53  72
ATOM     72  C   UNL A   1      40.304  26.935  28.262  1.00  0.00    -0.014 A 
ATOM     73  C   UNL A   1      39.464  25.855  28.574  1.00  0.00     0.009 A 
ATOM     74  C   UNL A   1      40.967  26.943  27.025  1.00  0.00     0.009 A 
ATOM     75  C   UNL A   1      39.316  24.792  27.681  1.00  0.00     0.001 A 
ATOM     76  C   UNL A   1      40.794  25.893  26.122  1.00  0.00     0.001 A 
ATOM     77  C   UNL A   1      39.976  24.814  26.454  1.00  0.00     0.000 A 
ENDBRANCH  53  72
BRANCH  65  78
ATOM     78  C   UNL A   1      44.973  28.186  33.266  1.00  0.00    -0.014 A 
ATOM     79  C   UNL A   1      46.265  28.385  32.754  1.00  0.00     0.009 A 
ATOM     80  C   UNL A   1      44.785  27.250  34.295  1.00  0.00     0.009 A 
ATOM     81  C   UNL A   1      47.337  27.632  33.236  1.00  0.00     0.001 A 
ATOM     82  C   UNL A   1      45.864  26.522  34.796  1.00  0.00     0.001 A 
ATOM     83  C   UNL A   1      47.137  26.706  34.259  1.00  0.00     0.000 A 
ENDBRANCH  65  78
ENDBRANCH  39  40
ENDBRANCH  31  34
ENDBRANCH  29  30
ENDBRANCH  28  29
ENDBRANCH   1  28
TORSDOF 15
ENDMDL
