MODEL 1
REMARK VINA RESULT:     -12.1      0.000      0.000
REMARK SMILES C[C@@H](C(=O)NCCCCNC(=O)c1ccc(-c2c3nc(c(-c4ccccc4)c4ccc([nH]4)c(-c4ccccc4)c4nc(c(-c5ccccc5)c5ccc2[nH]5)C=C4)C=C3)cc1)c1ccc(C[C@H]2CCCC2=O)c(-c2ccccc2)c1
REMARK SMILES IDX 7 1 6 2 5 3 3 4 4 5 2 7 1 8 61 9 62 10 79 11 63 12 72 13
REMARK SMILES IDX 64 14 73 15 74 16 78 17 75 18 77 19 76 20 65 21 66 22 67 23
REMARK SMILES IDX 70 24 68 25 69 26 71 27 8 28 9 29 10 30 11 31 12 33 13 34
REMARK SMILES IDX 14 35 60 36 15 37 59 38 16 39 17 40 18 41 53 42 19 43 58 44
REMARK SMILES IDX 52 45 54 46 20 47 57 48 51 49 50 50 21 52 43 53 28 54 42 55
REMARK SMILES IDX 29 56 32 57 41 58 55 59 30 60 31 61 40 63 56 64 33 65 22 66
REMARK SMILES IDX 23 67 27 68 24 69 26 70 25 71 44 72 45 73 49 74 46 75 48 76
REMARK SMILES IDX 47 77 34 78 35 79 39 80 36 81 38 82 37 83
REMARK H PARENT 5 6 10 32 54 51 32 62
REMARK Flexibility Score: inf
ROOT
ATOM      1  C   UNL A   1      36.535  19.668  25.025  1.00  0.00     0.023 C 
ENDROOT
BRANCH   1   2
ATOM      2  C   UNL A   1      35.169  20.327  24.821  1.00  0.00     0.116 C 
BRANCH   2   3
ATOM      3  N   UNL A   1      34.760  21.041  26.012  1.00  0.00    -0.356 N 
ATOM      4  C   UNL A   1      35.100  22.291  26.444  1.00  0.00     0.227 C 
ATOM      5  O   UNL A   1      34.729  22.605  27.575  1.00  0.00    -0.274 OA
ATOM      6  H   UNL A   1      34.141  20.550  26.600  1.00  0.00     0.163 HD
BRANCH   4   7
ATOM      7  C   UNL A   1      35.870  23.240  25.511  1.00  0.00     0.105 C 
ATOM      8  C   UNL A   1      37.017  23.964  26.230  1.00  0.00     0.023 C 
BRANCH   7   9
ATOM      9  C   UNL A   1      34.941  24.232  24.820  1.00  0.00    -0.035 A 
ATOM     10  C   UNL A   1      34.600  24.059  23.479  1.00  0.00     0.005 A 
ATOM     11  C   UNL A   1      34.396  25.329  25.505  1.00  0.00     0.013 A 
ATOM     12  C   UNL A   1      33.793  24.995  22.832  1.00  0.00     0.004 A 
ATOM     13  C   UNL A   1      33.617  26.317  24.865  1.00  0.00    -0.015 A 
ATOM     14  C   UNL A   1      33.333  26.154  23.491  1.00  0.00    -0.039 A 
BRANCH  13  15
ATOM     15  C   UNL A   1      33.184  27.468  25.680  1.00  0.00    -0.018 A 
ATOM     16  C   UNL A   1      33.738  28.745  25.511  1.00  0.00     0.009 A 
ATOM     17  C   UNL A   1      32.148  27.318  26.621  1.00  0.00     0.009 A 
ATOM     18  C   UNL A   1      33.304  29.825  26.285  1.00  0.00     0.001 A 
ATOM     19  C   UNL A   1      31.701  28.398  27.383  1.00  0.00     0.001 A 
ATOM     20  C   UNL A   1      32.287  29.651  27.221  1.00  0.00     0.000 A 
ENDBRANCH  13  15
BRANCH  14  21
ATOM     21  C   UNL A   1      32.581  27.182  22.666  1.00  0.00     0.047 C 
BRANCH  21  22
ATOM     22  C   UNL A   1      31.122  26.857  22.318  1.00  0.00     0.060 C 
ATOM     23  C   UNL A   1      30.419  25.804  23.179  1.00  0.00     0.012 C 
ATOM     24  C   UNL A   1      30.206  28.050  22.470  1.00  0.00     0.136 C 
ATOM     25  C   UNL A   1      29.613  26.573  24.218  1.00  0.00     0.009 C 
ATOM     26  C   UNL A   1      29.136  27.832  23.508  1.00  0.00     0.076 C 
ATOM     27  O   UNL A   1      30.307  29.077  21.810  1.00  0.00    -0.299 OA
ENDBRANCH  21  22
ENDBRANCH  14  21
ENDBRANCH   7   9
ENDBRANCH   4   7
ENDBRANCH   2   3
ENDBRANCH   1   2
BRANCH   1  28
ATOM     28  C   UNL A   1      37.729  20.553  24.656  1.00  0.00     0.023 C 
BRANCH  28  29
ATOM     29  C   UNL A   1      38.783  20.699  25.746  1.00  0.00     0.116 C 
BRANCH  29  30
ATOM     30  N   UNL A   1      39.780  19.641  25.716  1.00  0.00    -0.352 N 
ATOM     31  C   UNL A   1      41.112  19.708  26.042  1.00  0.00     0.251 C 
ATOM     32  H   UNL A   1      39.456  18.759  25.424  1.00  0.00     0.163 HD
ATOM     33  O   UNL A   1      41.850  18.749  25.839  1.00  0.00    -0.269 OA
BRANCH  31  34
ATOM     34  C   UNL A   1      41.658  20.959  26.605  1.00  0.00     0.039 A 
ATOM     35  C   UNL A   1      42.165  21.925  25.733  1.00  0.00     0.014 A 
ATOM     36  C   UNL A   1      41.637  21.189  27.983  1.00  0.00     0.014 A 
ATOM     37  C   UNL A   1      42.587  23.155  26.239  1.00  0.00     0.010 A 
ATOM     38  C   UNL A   1      41.993  22.440  28.477  1.00  0.00     0.010 A 
ATOM     39  C   UNL A   1      42.467  23.436  27.610  1.00  0.00    -0.014 A 
BRANCH  39  40
ATOM     40  C   UNL A   1      42.821  24.769  28.158  1.00  0.00     0.031 A 
ATOM     41  C   UNL A   1      41.756  25.809  28.360  1.00  0.00     0.074 A 
ATOM     42  C   UNL A   1      44.112  25.065  28.404  1.00  0.00     0.049 A 
ATOM     43  N   UNL A   1      41.881  27.051  28.755  1.00  0.00    -0.248 NA
ATOM     44  C   UNL A   1      40.373  25.411  28.054  1.00  0.00     0.031 C 
ATOM     45  C   UNL A   1      45.244  24.156  28.214  1.00  0.00     0.029 A 
ATOM     46  N   UNL A   1      44.690  26.223  28.860  1.00  0.00    -0.354 N 
ATOM     47  C   UNL A   1      40.599  27.585  28.729  1.00  0.00     0.074 A 
ATOM     48  C   UNL A   1      39.719  26.549  28.234  1.00  0.00     0.031 C 
ATOM     49  C   UNL A   1      46.375  24.782  28.573  1.00  0.00     0.029 A 
ATOM     50  C   UNL A   1      46.056  26.147  28.977  1.00  0.00     0.049 A 
ATOM     51  H   UNL A   1      44.174  27.033  29.081  1.00  0.00     0.167 HD
ATOM     52  C   UNL A   1      40.188  28.821  29.100  1.00  0.00     0.031 A 
ATOM     53  C   UNL A   1      46.954  27.076  29.357  1.00  0.00     0.031 A 
ATOM     54  C   UNL A   1      41.061  29.848  29.600  1.00  0.00     0.049 A 
ATOM     55  C   UNL A   1      46.474  28.447  29.743  1.00  0.00     0.074 A 
ATOM     56  C   UNL A   1      40.731  31.113  30.056  1.00  0.00     0.029 A 
ATOM     57  N   UNL A   1      42.438  29.729  29.707  1.00  0.00    -0.354 N 
ATOM     58  N   UNL A   1      45.251  28.915  29.776  1.00  0.00    -0.248 NA
ATOM     59  C   UNL A   1      47.502  29.416  30.151  1.00  0.00     0.031 C 
ATOM     60  C   UNL A   1      41.915  31.778  30.390  1.00  0.00     0.029 A 
ATOM     61  C   UNL A   1      42.976  30.908  30.197  1.00  0.00     0.049 A 
ATOM     62  H   UNL A   1      42.957  28.927  29.470  1.00  0.00     0.167 HD
ATOM     63  C   UNL A   1      45.357  30.222  30.235  1.00  0.00     0.074 A 
ATOM     64  C   UNL A   1      46.764  30.468  30.479  1.00  0.00     0.031 C 
ATOM     65  C   UNL A   1      44.378  31.137  30.435  1.00  0.00     0.031 A 
BRANCH  52  66
ATOM     66  C   UNL A   1      38.722  29.128  28.970  1.00  0.00    -0.014 A 
ATOM     67  C   UNL A   1      37.856  29.016  30.069  1.00  0.00     0.009 A 
ATOM     68  C   UNL A   1      38.207  29.569  27.741  1.00  0.00     0.009 A 
ATOM     69  C   UNL A   1      36.495  29.302  29.929  1.00  0.00     0.001 A 
ATOM     70  C   UNL A   1      36.854  29.882  27.611  1.00  0.00     0.001 A 
ATOM     71  C   UNL A   1      35.997  29.739  28.702  1.00  0.00     0.000 A 
ENDBRANCH  52  66
BRANCH  53  72
ATOM     72  C   UNL A   1      48.401  26.739  29.404  1.00  0.00    -0.014 A 
ATOM     73  C   UNL A   1      49.223  26.980  28.292  1.00  0.00     0.009 A 
ATOM     74  C   UNL A   1      48.966  26.170  30.556  1.00  0.00     0.009 A 
ATOM     75  C   UNL A   1      50.575  26.632  28.324  1.00  0.00     0.001 A 
ATOM     76  C   UNL A   1      50.325  25.851  30.594  1.00  0.00     0.001 A 
ATOM     77  C   UNL A   1      51.126  26.074  29.476  1.00  0.00     0.000 A 
ENDBRANCH  53  72
BRANCH  65  78
ATOM     78  C   UNL A   1      44.787  32.476  30.976  1.00  0.00    -0.014 A 
ATOM     79  C   UNL A   1      44.836  32.720  32.357  1.00  0.00     0.009 A 
ATOM     80  C   UNL A   1      45.173  33.495  30.090  1.00  0.00     0.009 A 
ATOM     81  C   UNL A   1      45.236  33.969  32.839  1.00  0.00     0.001 A 
ATOM     82  C   UNL A   1      45.599  34.732  30.575  1.00  0.00     0.001 A 
ATOM     83  C   UNL A   1      45.623  34.970  31.948  1.00  0.00     0.000 A 
ENDBRANCH  65  78
ENDBRANCH  39  40
ENDBRANCH  31  34
ENDBRANCH  29  30
ENDBRANCH  28  29
ENDBRANCH   1  28
TORSDOF 15
ENDMDL
MODEL 2
REMARK VINA RESULT:     -11.8      3.451      8.726
REMARK SMILES C[C@@H](C(=O)NCCCCNC(=O)c1ccc(-c2c3nc(c(-c4ccccc4)c4ccc([nH]4)c(-c4ccccc4)c4nc(c(-c5ccccc5)c5ccc2[nH]5)C=C4)C=C3)cc1)c1ccc(C[C@H]2CCCC2=O)c(-c2ccccc2)c1
REMARK SMILES IDX 7 1 6 2 5 3 3 4 4 5 2 7 1 8 61 9 62 10 79 11 63 12 72 13
REMARK SMILES IDX 64 14 73 15 74 16 78 17 75 18 77 19 76 20 65 21 66 22 67 23
REMARK SMILES IDX 70 24 68 25 69 26 71 27 8 28 9 29 10 30 11 31 12 33 13 34
REMARK SMILES IDX 14 35 60 36 15 37 59 38 16 39 17 40 18 41 53 42 19 43 58 44
REMARK SMILES IDX 52 45 54 46 20 47 57 48 51 49 50 50 21 52 43 53 28 54 42 55
REMARK SMILES IDX 29 56 32 57 41 58 55 59 30 60 31 61 40 63 56 64 33 65 22 66
REMARK SMILES IDX 23 67 27 68 24 69 26 70 25 71 44 72 45 73 49 74 46 75 48 76
REMARK SMILES IDX 47 77 34 78 35 79 39 80 36 81 38 82 37 83
REMARK H PARENT 5 6 10 32 54 51 32 62
REMARK Flexibility Score: inf
ROOT
ATOM      1  C   UNL A   1      30.645  31.268  25.018  1.00  0.00     0.023 C 
ENDROOT
BRANCH   1   2
ATOM      2  C   UNL A   1      30.729  29.803  24.585  1.00  0.00     0.116 C 
BRANCH   2   3
ATOM      3  N   UNL A   1      31.992  29.531  23.933  1.00  0.00    -0.356 N 
ATOM      4  C   UNL A   1      33.159  29.046  24.453  1.00  0.00     0.227 C 
ATOM      5  O   UNL A   1      34.139  29.049  23.708  1.00  0.00    -0.274 OA
ATOM      6  H   UNL A   1      32.013  29.723  22.968  1.00  0.00     0.163 HD
BRANCH   4   7
ATOM      7  C   UNL A   1      33.187  28.495  25.888  1.00  0.00     0.105 C 
ATOM      8  C   UNL A   1      34.458  28.901  26.647  1.00  0.00     0.023 C 
BRANCH   7   9
ATOM      9  C   UNL A   1      32.990  26.983  25.916  1.00  0.00    -0.035 A 
ATOM     10  C   UNL A   1      31.803  26.438  26.406  1.00  0.00     0.005 A 
ATOM     11  C   UNL A   1      33.976  26.103  25.446  1.00  0.00     0.013 A 
ATOM     12  C   UNL A   1      31.643  25.054  26.483  1.00  0.00     0.004 A 
ATOM     13  C   UNL A   1      33.863  24.701  25.555  1.00  0.00    -0.015 A 
ATOM     14  C   UNL A   1      32.677  24.170  26.110  1.00  0.00    -0.039 A 
BRANCH  13  15
ATOM     15  C   UNL A   1      35.013  23.893  25.107  1.00  0.00    -0.018 A 
ATOM     16  C   UNL A   1      35.271  23.661  23.748  1.00  0.00     0.009 A 
ATOM     17  C   UNL A   1      35.924  23.376  26.048  1.00  0.00     0.009 A 
ATOM     18  C   UNL A   1      36.374  22.903  23.345  1.00  0.00     0.001 A 
ATOM     19  C   UNL A   1      37.035  22.633  25.647  1.00  0.00     0.001 A 
ATOM     20  C   UNL A   1      37.255  22.389  24.294  1.00  0.00     0.000 A 
ENDBRANCH  13  15
BRANCH  14  21
ATOM     21  C   UNL A   1      32.463  22.688  26.360  1.00  0.00     0.047 C 
BRANCH  21  22
ATOM     22  C   UNL A   1      31.574  21.938  25.359  1.00  0.00     0.060 C 
ATOM     23  C   UNL A   1      31.294  22.631  24.022  1.00  0.00     0.012 C 
ATOM     24  C   UNL A   1      32.176  20.626  24.914  1.00  0.00     0.136 C 
ATOM     25  C   UNL A   1      32.281  22.041  23.023  1.00  0.00     0.009 C 
ATOM     26  C   UNL A   1      32.448  20.585  23.433  1.00  0.00     0.076 C 
ATOM     27  O   UNL A   1      32.401  19.687  25.668  1.00  0.00    -0.299 OA
ENDBRANCH  21  22
ENDBRANCH  14  21
ENDBRANCH   7   9
ENDBRANCH   4   7
ENDBRANCH   2   3
ENDBRANCH   1   2
BRANCH   1  28
ATOM     28  C   UNL A   1      31.013  31.519  26.483  1.00  0.00     0.023 C 
BRANCH  28  29
ATOM     29  C   UNL A   1      32.346  32.223  26.700  1.00  0.00     0.116 C 
BRANCH  29  30
ATOM     30  N   UNL A   1      32.204  33.520  27.343  1.00  0.00    -0.352 N 
ATOM     31  C   UNL A   1      33.030  34.116  28.264  1.00  0.00     0.251 C 
ATOM     32  H   UNL A   1      31.410  34.040  27.083  1.00  0.00     0.163 HD
ATOM     33  O   UNL A   1      32.699  35.165  28.809  1.00  0.00    -0.269 OA
BRANCH  31  34
ATOM     34  C   UNL A   1      34.305  33.464  28.623  1.00  0.00     0.039 A 
ATOM     35  C   UNL A   1      35.456  33.797  27.905  1.00  0.00     0.014 A 
ATOM     36  C   UNL A   1      34.369  32.557  29.683  1.00  0.00     0.014 A 
ATOM     37  C   UNL A   1      36.688  33.271  28.297  1.00  0.00     0.010 A 
ATOM     38  C   UNL A   1      35.605  32.089  30.116  1.00  0.00     0.010 A 
ATOM     39  C   UNL A   1      36.777  32.445  29.430  1.00  0.00    -0.014 A 
BRANCH  39  40
ATOM     40  C   UNL A   1      38.086  31.950  29.922  1.00  0.00     0.031 A 
ATOM     41  C   UNL A   1      38.635  30.644  29.422  1.00  0.00     0.074 A 
ATOM     42  C   UNL A   1      38.744  32.642  30.872  1.00  0.00     0.049 A 
ATOM     43  N   UNL A   1      39.722  30.012  29.789  1.00  0.00    -0.248 NA
ATOM     44  C   UNL A   1      37.849  29.943  28.395  1.00  0.00     0.031 C 
ATOM     45  C   UNL A   1      38.300  33.904  31.466  1.00  0.00     0.029 A 
ATOM     46  N   UNL A   1      39.928  32.373  31.513  1.00  0.00    -0.354 N 
ATOM     47  C   UNL A   1      39.739  28.835  29.052  1.00  0.00     0.074 A 
ATOM     48  C   UNL A   1      38.533  28.817  28.253  1.00  0.00     0.031 C 
ATOM     49  C   UNL A   1      39.209  34.311  32.366  1.00  0.00     0.029 A 
ATOM     50  C   UNL A   1      40.278  33.320  32.443  1.00  0.00     0.049 A 
ATOM     51  H   UNL A   1      40.474  31.575  31.324  1.00  0.00     0.167 HD
ATOM     52  C   UNL A   1      40.683  27.864  29.027  1.00  0.00     0.031 A 
ATOM     53  C   UNL A   1      41.336  33.380  33.274  1.00  0.00     0.031 A 
ATOM     54  C   UNL A   1      41.887  27.885  29.815  1.00  0.00     0.049 A 
ATOM     55  C   UNL A   1      42.358  32.279  33.244  1.00  0.00     0.074 A 
ATOM     56  C   UNL A   1      42.931  26.976  29.817  1.00  0.00     0.029 A 
ATOM     57  N   UNL A   1      42.205  28.866  30.741  1.00  0.00    -0.354 N 
ATOM     58  N   UNL A   1      42.394  31.206  32.492  1.00  0.00    -0.248 NA
ATOM     59  C   UNL A   1      43.490  32.403  34.172  1.00  0.00     0.031 C 
ATOM     60  C   UNL A   1      43.857  27.380  30.785  1.00  0.00     0.029 A 
ATOM     61  C   UNL A   1      43.418  28.569  31.342  1.00  0.00     0.049 A 
ATOM     62  H   UNL A   1      41.652  29.654  30.944  1.00  0.00     0.167 HD
ATOM     63  C   UNL A   1      43.564  30.541  32.837  1.00  0.00     0.074 A 
ATOM     64  C   UNL A   1      44.216  31.339  33.855  1.00  0.00     0.031 C 
ATOM     65  C   UNL A   1      44.054  29.374  32.354  1.00  0.00     0.031 A 
BRANCH  52  66
ATOM     66  C   UNL A   1      40.443  26.690  28.120  1.00  0.00    -0.014 A 
ATOM     67  C   UNL A   1      41.001  26.640  26.833  1.00  0.00     0.009 A 
ATOM     68  C   UNL A   1      39.675  25.605  28.571  1.00  0.00     0.009 A 
ATOM     69  C   UNL A   1      40.763  25.543  26.001  1.00  0.00     0.001 A 
ATOM     70  C   UNL A   1      39.464  24.497  27.749  1.00  0.00     0.001 A 
ATOM     71  C   UNL A   1      40.000  24.471  26.461  1.00  0.00     0.000 A 
ENDBRANCH  52  66
BRANCH  53  72
ATOM     72  C   UNL A   1      41.491  34.532  34.200  1.00  0.00    -0.014 A 
ATOM     73  C   UNL A   1      40.933  34.489  35.488  1.00  0.00     0.009 A 
ATOM     74  C   UNL A   1      42.190  35.682  33.802  1.00  0.00     0.009 A 
ATOM     75  C   UNL A   1      41.050  35.584  36.347  1.00  0.00     0.001 A 
ATOM     76  C   UNL A   1      42.331  36.763  34.675  1.00  0.00     0.001 A 
ATOM     77  C   UNL A   1      41.753  36.717  35.941  1.00  0.00     0.000 A 
ENDBRANCH  53  72
BRANCH  65  78
ATOM     78  C   UNL A   1      45.375  28.907  32.893  1.00  0.00    -0.014 A 
ATOM     79  C   UNL A   1      45.448  28.042  33.995  1.00  0.00     0.009 A 
ATOM     80  C   UNL A   1      46.563  29.303  32.257  1.00  0.00     0.009 A 
ATOM     81  C   UNL A   1      46.688  27.606  34.469  1.00  0.00     0.001 A 
ATOM     82  C   UNL A   1      47.798  28.843  32.715  1.00  0.00     0.001 A 
ATOM     83  C   UNL A   1      47.860  28.002  33.825  1.00  0.00     0.000 A 
ENDBRANCH  65  78
ENDBRANCH  39  40
ENDBRANCH  31  34
ENDBRANCH  29  30
ENDBRANCH  28  29
ENDBRANCH   1  28
TORSDOF 15
ENDMDL
MODEL 3
REMARK VINA RESULT:     -11.8      0.460      5.789
REMARK SMILES C[C@@H](C(=O)NCCCCNC(=O)c1ccc(-c2c3nc(c(-c4ccccc4)c4ccc([nH]4)c(-c4ccccc4)c4nc(c(-c5ccccc5)c5ccc2[nH]5)C=C4)C=C3)cc1)c1ccc(C[C@H]2CCCC2=O)c(-c2ccccc2)c1
REMARK SMILES IDX 7 1 6 2 5 3 3 4 4 5 2 7 1 8 61 9 62 10 79 11 63 12 72 13
REMARK SMILES IDX 64 14 73 15 74 16 78 17 75 18 77 19 76 20 65 21 66 22 67 23
REMARK SMILES IDX 70 24 68 25 69 26 71 27 8 28 9 29 10 30 11 31 12 33 13 34
REMARK SMILES IDX 14 35 60 36 15 37 59 38 16 39 17 40 18 41 53 42 19 43 58 44
REMARK SMILES IDX 52 45 54 46 20 47 57 48 51 49 50 50 21 52 43 53 28 54 42 55
REMARK SMILES IDX 29 56 32 57 41 58 55 59 30 60 31 61 40 63 56 64 33 65 22 66
REMARK SMILES IDX 23 67 27 68 24 69 26 70 25 71 44 72 45 73 49 74 46 75 48 76
REMARK SMILES IDX 47 77 34 78 35 79 39 80 36 81 38 82 37 83
REMARK H PARENT 5 6 10 32 54 51 32 62
REMARK Flexibility Score: inf
ROOT
ATOM      1  C   UNL A   1      36.974  20.767  24.743  1.00  0.00     0.023 C 
ENDROOT
BRANCH   1   2
ATOM      2  C   UNL A   1      35.531  20.312  24.976  1.00  0.00     0.116 C 
BRANCH   2   3
ATOM      3  N   UNL A   1      34.932  21.041  26.072  1.00  0.00    -0.356 N 
ATOM      4  C   UNL A   1      35.101  22.342  26.455  1.00  0.00     0.227 C 
ATOM      5  O   UNL A   1      34.585  22.676  27.522  1.00  0.00    -0.274 OA
ATOM      6  H   UNL A   1      34.306  20.521  26.627  1.00  0.00     0.163 HD
BRANCH   4   7
ATOM      7  C   UNL A   1      35.867  23.314  25.544  1.00  0.00     0.105 C 
ATOM      8  C   UNL A   1      36.993  24.048  26.285  1.00  0.00     0.023 C 
BRANCH   7   9
ATOM      9  C   UNL A   1      34.930  24.300  24.854  1.00  0.00    -0.035 A 
ATOM     10  C   UNL A   1      34.596  24.129  23.511  1.00  0.00     0.005 A 
ATOM     11  C   UNL A   1      34.371  25.389  25.541  1.00  0.00     0.013 A 
ATOM     12  C   UNL A   1      33.781  25.060  22.864  1.00  0.00     0.004 A 
ATOM     13  C   UNL A   1      33.585  26.371  24.902  1.00  0.00    -0.015 A 
ATOM     14  C   UNL A   1      33.307  26.211  23.527  1.00  0.00    -0.039 A 
BRANCH  13  15
ATOM     15  C   UNL A   1      33.138  27.515  25.721  1.00  0.00    -0.018 A 
ATOM     16  C   UNL A   1      32.016  27.431  26.559  1.00  0.00     0.009 A 
ATOM     17  C   UNL A   1      33.872  28.715  25.719  1.00  0.00     0.009 A 
ATOM     18  C   UNL A   1      31.617  28.523  27.336  1.00  0.00     0.001 A 
ATOM     19  C   UNL A   1      33.485  29.801  26.506  1.00  0.00     0.001 A 
ATOM     20  C   UNL A   1      32.351  29.707  27.308  1.00  0.00     0.000 A 
ENDBRANCH  13  15
BRANCH  14  21
ATOM     21  C   UNL A   1      32.547  27.235  22.704  1.00  0.00     0.047 C 
BRANCH  21  22
ATOM     22  C   UNL A   1      31.103  26.883  22.323  1.00  0.00     0.060 C 
ATOM     23  C   UNL A   1      30.406  25.805  23.157  1.00  0.00     0.012 C 
ATOM     24  C   UNL A   1      30.159  28.054  22.470  1.00  0.00     0.136 C 
ATOM     25  C   UNL A   1      29.563  26.544  24.188  1.00  0.00     0.009 C 
ATOM     26  C   UNL A   1      29.073  27.800  23.483  1.00  0.00     0.076 C 
ATOM     27  O   UNL A   1      30.250  29.091  21.824  1.00  0.00    -0.299 OA
ENDBRANCH  21  22
ENDBRANCH  14  21
ENDBRANCH   7   9
ENDBRANCH   4   7
ENDBRANCH   2   3
ENDBRANCH   1   2
BRANCH   1  28
ATOM     28  C   UNL A   1      38.030  19.695  25.025  1.00  0.00     0.023 C 
BRANCH  28  29
ATOM     29  C   UNL A   1      39.261  20.186  25.777  1.00  0.00     0.116 C 
BRANCH  29  30
ATOM     30  N   UNL A   1      40.310  19.183  25.863  1.00  0.00    -0.352 N 
ATOM     31  C   UNL A   1      41.634  19.352  26.187  1.00  0.00     0.251 C 
ATOM     32  H   UNL A   1      40.035  18.260  25.660  1.00  0.00     0.163 HD
ATOM     33  O   UNL A   1      42.422  18.417  26.089  1.00  0.00    -0.269 OA
BRANCH  31  34
ATOM     34  C   UNL A   1      42.109  20.680  26.622  1.00  0.00     0.039 A 
ATOM     35  C   UNL A   1      42.562  21.582  25.656  1.00  0.00     0.014 A 
ATOM     36  C   UNL A   1      42.075  21.044  27.970  1.00  0.00     0.014 A 
ATOM     37  C   UNL A   1      42.915  22.878  26.036  1.00  0.00     0.010 A 
ATOM     38  C   UNL A   1      42.360  22.355  28.337  1.00  0.00     0.010 A 
ATOM     39  C   UNL A   1      42.778  23.286  27.374  1.00  0.00    -0.014 A 
BRANCH  39  40
ATOM     40  C   UNL A   1      43.058  24.683  27.786  1.00  0.00     0.031 A 
ATOM     41  C   UNL A   1      44.470  25.126  28.043  1.00  0.00     0.074 A 
ATOM     42  C   UNL A   1      42.033  25.532  27.998  1.00  0.00     0.049 A 
ATOM     43  N   UNL A   1      44.906  26.281  28.481  1.00  0.00    -0.248 NA
ATOM     44  C   UNL A   1      45.531  24.136  27.801  1.00  0.00     0.031 C 
ATOM     45  C   UNL A   1      40.615  25.213  27.820  1.00  0.00     0.029 A 
ATOM     46  N   UNL A   1      42.029  26.837  28.421  1.00  0.00    -0.354 N 
ATOM     47  C   UNL A   1      46.284  26.149  28.582  1.00  0.00     0.074 A 
ATOM     48  C   UNL A   1      46.609  24.790  28.208  1.00  0.00     0.031 C 
ATOM     49  C   UNL A   1      39.881  26.299  28.108  1.00  0.00     0.029 A 
ATOM     50  C   UNL A   1      40.771  27.377  28.531  1.00  0.00     0.049 A 
ATOM     51  H   UNL A   1      42.851  27.340  28.627  1.00  0.00     0.167 HD
ATOM     52  C   UNL A   1      47.201  27.080  28.939  1.00  0.00     0.031 A 
ATOM     53  C   UNL A   1      40.375  28.598  28.937  1.00  0.00     0.031 A 
ATOM     54  C   UNL A   1      46.880  28.434  29.304  1.00  0.00     0.049 A 
ATOM     55  C   UNL A   1      41.411  29.606  29.349  1.00  0.00     0.074 A 
ATOM     56  C   UNL A   1      47.743  29.467  29.625  1.00  0.00     0.029 A 
ATOM     57  N   UNL A   1      45.593  28.941  29.398  1.00  0.00    -0.354 N 
ATOM     58  N   UNL A   1      42.716  29.487  29.375  1.00  0.00    -0.248 NA
ATOM     59  C   UNL A   1      40.917  30.922  29.780  1.00  0.00     0.031 C 
ATOM     60  C   UNL A   1      46.975  30.586  29.965  1.00  0.00     0.029 A 
ATOM     61  C   UNL A   1      45.638  30.265  29.799  1.00  0.00     0.049 A 
ATOM     62  H   UNL A   1      44.770  28.434  29.210  1.00  0.00     0.167 HD
ATOM     63  C   UNL A   1      43.200  30.718  29.798  1.00  0.00     0.074 A 
ATOM     64  C   UNL A   1      42.050  31.574  30.003  1.00  0.00     0.031 C 
ATOM     65  C   UNL A   1      44.483  31.104  29.999  1.00  0.00     0.031 A 
BRANCH  52  66
ATOM     66  C   UNL A   1      48.644  26.657  28.957  1.00  0.00    -0.014 A 
ATOM     67  C   UNL A   1      49.495  26.934  27.876  1.00  0.00     0.009 A 
ATOM     68  C   UNL A   1      49.166  26.004  30.084  1.00  0.00     0.009 A 
ATOM     69  C   UNL A   1      50.833  26.530  27.908  1.00  0.00     0.001 A 
ATOM     70  C   UNL A   1      50.509  25.627  30.125  1.00  0.00     0.001 A 
ATOM     71  C   UNL A   1      51.339  25.882  29.034  1.00  0.00     0.000 A 
ENDBRANCH  52  66
BRANCH  53  72
ATOM     72  C   UNL A   1      38.930  28.942  28.964  1.00  0.00    -0.014 A 
ATOM     73  C   UNL A   1      38.288  29.404  27.804  1.00  0.00     0.009 A 
ATOM     74  C   UNL A   1      38.187  28.817  30.148  1.00  0.00     0.009 A 
ATOM     75  C   UNL A   1      36.937  29.759  27.838  1.00  0.00     0.001 A 
ATOM     76  C   UNL A   1      36.829  29.145  30.169  1.00  0.00     0.001 A 
ATOM     77  C   UNL A   1      36.209  29.624  29.018  1.00  0.00     0.000 A 
ENDBRANCH  53  72
BRANCH  65  78
ATOM     78  C   UNL A   1      44.715  32.524  30.430  1.00  0.00    -0.014 A 
ATOM     79  C   UNL A   1      44.872  32.859  31.783  1.00  0.00     0.009 A 
ATOM     80  C   UNL A   1      44.824  33.534  29.460  1.00  0.00     0.009 A 
ATOM     81  C   UNL A   1      45.104  34.184  32.159  1.00  0.00     0.001 A 
ATOM     82  C   UNL A   1      45.083  34.852  29.837  1.00  0.00     0.001 A 
ATOM     83  C   UNL A   1      45.215  35.177  31.186  1.00  0.00     0.000 A 
ENDBRANCH  65  78
ENDBRANCH  39  40
ENDBRANCH  31  34
ENDBRANCH  29  30
ENDBRANCH  28  29
ENDBRANCH   1  28
TORSDOF 15
ENDMDL
