MODEL 1
REMARK VINA RESULT:      -9.3      0.000      0.000
REMARK SMILES C=CCS(=O)(=O)N1CCc2ccccc2[C@@H]1C(=O)NCCCCNC(=O)c1ccc(-c2c3nc(c(-c4ccccc4)c4ccc([nH]4)c(-c4ccccc4)c4nc(c(-c5ccccc5)c5ccc2[nH]5)C=C4)C=C3)cc1
REMARK SMILES IDX 21 1 20 2 19 3 17 4 18 5 16 7 7 8 8 9 9 10 15 11 10 12 14 13
REMARK SMILES IDX 11 14 13 15 12 16 4 17 5 18 6 19 3 20 2 21 1 22 22 23 23 24
REMARK SMILES IDX 24 25 25 26 26 28 27 29 28 30 74 31 29 32 73 33 30 34 31 35
REMARK SMILES IDX 32 36 67 37 33 38 72 39 66 40 68 41 34 42 71 43 65 44 64 45
REMARK SMILES IDX 35 47 57 48 42 49 56 50 43 51 46 52 55 53 69 54 44 55 45 56
REMARK SMILES IDX 54 58 70 59 47 60 36 61 37 62 41 63 38 64 40 65 39 66 58 67
REMARK SMILES IDX 59 68 63 69 60 70 62 71 61 72 48 73 49 74 53 75 50 76 52 77
REMARK SMILES IDX 51 78
REMARK H PARENT 19 6 24 27 68 46 46 57
REMARK Flexibility Score: inf
ROOT
ATOM      1  C   UNL A   1      34.512  32.707  30.450  1.00  0.00     0.023 C 
ENDROOT
BRANCH   1   2
ATOM      2  C   UNL A   1      35.439  31.971  31.411  1.00  0.00     0.116 C 
BRANCH   2   3
ATOM      3  N   UNL A   1      36.701  32.647  31.623  1.00  0.00    -0.354 N 
ATOM      4  C   UNL A   1      37.665  32.422  32.561  1.00  0.00     0.243 C 
ATOM      5  O   UNL A   1      38.750  32.986  32.377  1.00  0.00    -0.273 OA
ATOM      6  H   UNL A   1      36.892  33.380  30.995  1.00  0.00     0.163 HD
BRANCH   4   7
ATOM      7  C   UNL A   1      37.414  31.490  33.774  1.00  0.00     0.192 C 
ATOM      8  N   UNL A   1      37.659  32.229  35.049  1.00  0.00    -0.184 NA
ATOM      9  C   UNL A   1      38.697  31.712  35.951  1.00  0.00     0.108 C 
ATOM     10  C   UNL A   1      39.941  31.302  35.164  1.00  0.00     0.052 C 
ATOM     11  C   UNL A   1      38.296  30.248  33.601  1.00  0.00    -0.017 A 
ATOM     12  C   UNL A   1      39.574  30.220  34.187  1.00  0.00    -0.041 A 
ATOM     13  C   UNL A   1      37.911  29.180  32.777  1.00  0.00     0.006 A 
ATOM     14  C   UNL A   1      40.486  29.216  33.850  1.00  0.00     0.004 A 
ATOM     15  C   UNL A   1      38.815  28.162  32.468  1.00  0.00     0.000 A 
ATOM     16  C   UNL A   1      40.109  28.196  32.981  1.00  0.00     0.000 A 
BRANCH   8  17
ATOM     17  S   UNL A   1      36.886  33.673  35.363  1.00  0.00     0.218 S 
ATOM     18  O   UNL A   1      37.733  34.728  34.844  1.00  0.00    -0.212 OA
ATOM     19  O   UNL A   1      36.530  33.664  36.772  1.00  0.00    -0.212 OA
BRANCH  17  20
ATOM     20  C   UNL A   1      35.344  33.688  34.404  1.00  0.00     0.181 C 
BRANCH  20  21
ATOM     21  C   UNL A   1      34.886  35.082  34.073  1.00  0.00    -0.017 C 
ATOM     22  C   UNL A   1      34.849  35.585  32.831  1.00  0.00     0.005 C 
ENDBRANCH  20  21
ENDBRANCH  17  20
ENDBRANCH   8  17
ENDBRANCH   4   7
ENDBRANCH   2   3
ENDBRANCH   1   2
BRANCH   1  23
ATOM     23  C   UNL A   1      35.197  33.645  29.457  1.00  0.00     0.023 C 
BRANCH  23  24
ATOM     24  C   UNL A   1      35.298  33.135  28.025  1.00  0.00     0.116 C 
BRANCH  24  25
ATOM     25  N   UNL A   1      34.339  32.085  27.725  1.00  0.00    -0.352 N 
ATOM     26  C   UNL A   1      34.532  30.729  27.623  1.00  0.00     0.251 C 
ATOM     27  H   UNL A   1      33.415  32.391  27.574  1.00  0.00     0.163 HD
ATOM     28  O   UNL A   1      33.621  30.010  27.223  1.00  0.00    -0.269 OA
BRANCH  26  29
ATOM     29  C   UNL A   1      35.843  30.134  27.962  1.00  0.00     0.039 A 
ATOM     30  C   UNL A   1      36.879  30.211  27.025  1.00  0.00     0.014 A 
ATOM     31  C   UNL A   1      36.057  29.502  29.189  1.00  0.00     0.014 A 
ATOM     32  C   UNL A   1      38.144  29.713  27.347  1.00  0.00     0.010 A 
ATOM     33  C   UNL A   1      37.339  29.083  29.540  1.00  0.00     0.010 A 
ATOM     34  C   UNL A   1      38.396  29.178  28.622  1.00  0.00    -0.014 A 
BRANCH  34  35
ATOM     35  C   UNL A   1      39.753  28.710  29.006  1.00  0.00     0.031 A 
ATOM     36  C   UNL A   1      40.680  29.614  29.774  1.00  0.00     0.074 A 
ATOM     37  C   UNL A   1      40.174  27.488  28.623  1.00  0.00     0.049 A 
ATOM     38  N   UNL A   1      41.913  29.399  30.160  1.00  0.00    -0.248 NA
ATOM     39  C   UNL A   1      40.160  30.944  30.136  1.00  0.00     0.031 C 
ATOM     40  C   UNL A   1      39.389  26.524  27.848  1.00  0.00     0.029 A 
ATOM     41  N   UNL A   1      41.370  26.847  28.834  1.00  0.00    -0.354 N 
ATOM     42  C   UNL A   1      42.316  30.564  30.801  1.00  0.00     0.074 A 
ATOM     43  C   UNL A   1      41.221  31.504  30.697  1.00  0.00     0.031 C 
ATOM     44  C   UNL A   1      40.112  25.404  27.678  1.00  0.00     0.029 A 
ATOM     45  C   UNL A   1      41.425  25.586  28.289  1.00  0.00     0.049 A 
ATOM     46  H   UNL A   1      42.118  27.253  29.329  1.00  0.00     0.167 HD
ATOM     47  C   UNL A   1      43.482  30.824  31.440  1.00  0.00     0.031 A 
ATOM     48  C   UNL A   1      42.421  24.681  28.276  1.00  0.00     0.031 A 
ATOM     49  C   UNL A   1      44.574  29.892  31.542  1.00  0.00     0.049 A 
ATOM     50  C   UNL A   1      43.722  25.011  28.957  1.00  0.00     0.074 A 
ATOM     51  C   UNL A   1      45.782  30.049  32.199  1.00  0.00     0.029 A 
ATOM     52  N   UNL A   1      44.591  28.630  30.969  1.00  0.00    -0.354 N 
ATOM     53  N   UNL A   1      44.064  26.093  29.613  1.00  0.00    -0.248 NA
ATOM     54  C   UNL A   1      44.772  23.983  28.906  1.00  0.00     0.031 C 
ATOM     55  C   UNL A   1      46.554  28.904  31.975  1.00  0.00     0.029 A 
ATOM     56  C   UNL A   1      45.798  28.007  31.238  1.00  0.00     0.049 A 
ATOM     57  H   UNL A   1      43.854  28.236  30.449  1.00  0.00     0.167 HD
ATOM     58  C   UNL A   1      45.350  25.862  30.083  1.00  0.00     0.074 A 
ATOM     59  C   UNL A   1      45.720  24.530  29.652  1.00  0.00     0.031 C 
ATOM     60  C   UNL A   1      46.152  26.679  30.809  1.00  0.00     0.031 A 
BRANCH  47  61
ATOM     61  C   UNL A   1      43.636  32.180  32.075  1.00  0.00    -0.014 A 
ATOM     62  C   UNL A   1      44.182  33.260  31.362  1.00  0.00     0.009 A 
ATOM     63  C   UNL A   1      43.199  32.391  33.392  1.00  0.00     0.009 A 
ATOM     64  C   UNL A   1      44.325  34.511  31.967  1.00  0.00     0.001 A 
ATOM     65  C   UNL A   1      43.312  33.650  33.984  1.00  0.00     0.001 A 
ATOM     66  C   UNL A   1      43.884  34.705  33.274  1.00  0.00     0.000 A 
ENDBRANCH  47  61
BRANCH  48  67
ATOM     67  C   UNL A   1      42.235  23.367  27.605  1.00  0.00    -0.014 A 
ATOM     68  C   UNL A   1      42.689  23.164  26.292  1.00  0.00     0.009 A 
ATOM     69  C   UNL A   1      41.576  22.315  28.261  1.00  0.00     0.009 A 
ATOM     70  C   UNL A   1      42.452  21.952  25.638  1.00  0.00     0.001 A 
ATOM     71  C   UNL A   1      41.370  21.093  27.617  1.00  0.00     0.001 A 
ATOM     72  C   UNL A   1      41.796  20.917  26.302  1.00  0.00     0.000 A 
ENDBRANCH  48  67
BRANCH  60  73
ATOM     73  C   UNL A   1      47.490  26.134  31.230  1.00  0.00    -0.014 A 
ATOM     74  C   UNL A   1      48.596  26.149  30.366  1.00  0.00     0.009 A 
ATOM     75  C   UNL A   1      47.650  25.625  32.529  1.00  0.00     0.009 A 
ATOM     76  C   UNL A   1      49.824  25.628  30.781  1.00  0.00     0.001 A 
ATOM     77  C   UNL A   1      48.887  25.138  32.953  1.00  0.00     0.001 A 
ATOM     78  C   UNL A   1      49.969  25.129  32.075  1.00  0.00     0.000 A 
ENDBRANCH  60  73
ENDBRANCH  34  35
ENDBRANCH  26  29
ENDBRANCH  24  25
ENDBRANCH  23  24
ENDBRANCH   1  23
TORSDOF 14
ENDMDL
MODEL 2
REMARK VINA RESULT:      -9.2      4.793     10.283
REMARK SMILES C=CCS(=O)(=O)N1CCc2ccccc2[C@@H]1C(=O)NCCCCNC(=O)c1ccc(-c2c3nc(c(-c4ccccc4)c4ccc([nH]4)c(-c4ccccc4)c4nc(c(-c5ccccc5)c5ccc2[nH]5)C=C4)C=C3)cc1
REMARK SMILES IDX 21 1 20 2 19 3 17 4 18 5 16 7 7 8 8 9 9 10 15 11 10 12 14 13
REMARK SMILES IDX 11 14 13 15 12 16 4 17 5 18 6 19 3 20 2 21 1 22 22 23 23 24
REMARK SMILES IDX 24 25 25 26 26 28 27 29 28 30 74 31 29 32 73 33 30 34 31 35
REMARK SMILES IDX 32 36 67 37 33 38 72 39 66 40 68 41 34 42 71 43 65 44 64 45
REMARK SMILES IDX 35 47 57 48 42 49 56 50 43 51 46 52 55 53 69 54 44 55 45 56
REMARK SMILES IDX 54 58 70 59 47 60 36 61 37 62 41 63 38 64 40 65 39 66 58 67
REMARK SMILES IDX 59 68 63 69 60 70 62 71 61 72 48 73 49 74 53 75 50 76 52 77
REMARK SMILES IDX 51 78
REMARK H PARENT 19 6 24 27 68 46 46 57
REMARK Flexibility Score: inf
ROOT
ATOM      1  C   UNL A   1      38.647  22.456  26.052  1.00  0.00     0.023 C 
ENDROOT
BRANCH   1   2
ATOM      2  C   UNL A   1      37.325  23.126  25.692  1.00  0.00     0.116 C 
BRANCH   2   3
ATOM      3  N   UNL A   1      36.251  22.803  26.607  1.00  0.00    -0.354 N 
ATOM      4  C   UNL A   1      35.051  22.200  26.366  1.00  0.00     0.243 C 
ATOM      5  O   UNL A   1      34.415  21.831  27.360  1.00  0.00    -0.273 OA
ATOM      6  H   UNL A   1      36.410  23.056  27.545  1.00  0.00     0.163 HD
BRANCH   4   7
ATOM      7  C   UNL A   1      34.533  21.973  24.923  1.00  0.00     0.192 C 
ATOM      8  N   UNL A   1      33.398  22.900  24.634  1.00  0.00    -0.184 NA
ATOM      9  C   UNL A   1      32.101  22.305  24.281  1.00  0.00     0.108 C 
ATOM     10  C   UNL A   1      31.785  21.121  25.193  1.00  0.00     0.052 C 
ATOM     11  C   UNL A   1      34.171  20.490  24.783  1.00  0.00    -0.017 A 
ATOM     12  C   UNL A   1      32.852  20.074  25.032  1.00  0.00    -0.041 A 
ATOM     13  C   UNL A   1      35.145  19.516  24.522  1.00  0.00     0.006 A 
ATOM     14  C   UNL A   1      32.548  18.714  25.149  1.00  0.00     0.004 A 
ATOM     15  C   UNL A   1      34.831  18.159  24.607  1.00  0.00     0.000 A 
ATOM     16  C   UNL A   1      33.541  17.760  24.948  1.00  0.00     0.000 A 
BRANCH   8  17
ATOM     17  S   UNL A   1      33.559  24.545  24.851  1.00  0.00     0.218 S 
ATOM     18  O   UNL A   1      34.916  24.891  24.475  1.00  0.00    -0.212 OA
ATOM     19  O   UNL A   1      33.087  24.844  26.192  1.00  0.00    -0.212 OA
BRANCH  17  20
ATOM     20  C   UNL A   1      32.441  25.365  23.678  1.00  0.00     0.181 C 
BRANCH  20  21
ATOM     21  C   UNL A   1      33.141  25.785  22.414  1.00  0.00    -0.017 C 
ATOM     22  C   UNL A   1      32.593  25.714  21.193  1.00  0.00     0.005 C 
ENDBRANCH  20  21
ENDBRANCH  17  20
ENDBRANCH   8  17
ENDBRANCH   4   7
ENDBRANCH   2   3
ENDBRANCH   1   2
BRANCH   1  23
ATOM     23  C   UNL A   1      38.909  21.106  25.385  1.00  0.00     0.023 C 
BRANCH  23  24
ATOM     24  C   UNL A   1      39.267  19.961  26.324  1.00  0.00     0.116 C 
BRANCH  24  25
ATOM     25  N   UNL A   1      40.459  19.238  25.913  1.00  0.00    -0.352 N 
ATOM     26  C   UNL A   1      41.769  19.650  25.901  1.00  0.00     0.251 C 
ATOM     27  H   UNL A   1      40.304  18.318  25.597  1.00  0.00     0.163 HD
ATOM     28  O   UNL A   1      42.629  18.941  25.385  1.00  0.00    -0.269 OA
BRANCH  26  29
ATOM     29  C   UNL A   1      42.145  20.959  26.478  1.00  0.00     0.039 A 
ATOM     30  C   UNL A   1      42.541  21.985  25.614  1.00  0.00     0.014 A 
ATOM     31  C   UNL A   1      42.114  21.180  27.856  1.00  0.00     0.014 A 
ATOM     32  C   UNL A   1      42.840  23.249  26.130  1.00  0.00     0.010 A 
ATOM     33  C   UNL A   1      42.330  22.462  28.359  1.00  0.00     0.010 A 
ATOM     34  C   UNL A   1      42.701  23.509  27.504  1.00  0.00    -0.014 A 
BRANCH  34  35
ATOM     35  C   UNL A   1      42.945  24.867  28.059  1.00  0.00     0.031 A 
ATOM     36  C   UNL A   1      44.327  25.268  28.501  1.00  0.00     0.074 A 
ATOM     37  C   UNL A   1      41.917  25.724  28.210  1.00  0.00     0.049 A 
ATOM     38  N   UNL A   1      44.726  26.390  29.048  1.00  0.00    -0.248 NA
ATOM     39  C   UNL A   1      45.396  24.271  28.328  1.00  0.00     0.031 C 
ATOM     40  C   UNL A   1      40.523  25.451  27.852  1.00  0.00     0.029 A 
ATOM     41  N   UNL A   1      41.885  27.003  28.709  1.00  0.00    -0.354 N 
ATOM     42  C   UNL A   1      46.085  26.228  29.289  1.00  0.00     0.074 A 
ATOM     43  C   UNL A   1      46.429  24.882  28.888  1.00  0.00     0.031 C 
ATOM     44  C   UNL A   1      39.780  26.539  28.112  1.00  0.00     0.029 A 
ATOM     45  C   UNL A   1      40.632  27.570  28.697  1.00  0.00     0.049 A 
ATOM     46  H   UNL A   1      42.684  27.471  29.043  1.00  0.00     0.167 HD
ATOM     47  C   UNL A   1      46.975  27.126  29.778  1.00  0.00     0.031 A 
ATOM     48  C   UNL A   1      40.215  28.779  29.114  1.00  0.00     0.031 A 
ATOM     49  C   UNL A   1      46.635  28.465  30.181  1.00  0.00     0.049 A 
ATOM     50  C   UNL A   1      41.216  29.743  29.693  1.00  0.00     0.074 A 
ATOM     51  C   UNL A   1      47.471  29.461  30.655  1.00  0.00     0.029 A 
ATOM     52  N   UNL A   1      45.355  28.995  30.159  1.00  0.00    -0.354 N 
ATOM     53  N   UNL A   1      42.509  29.597  29.855  1.00  0.00    -0.248 NA
ATOM     54  C   UNL A   1      40.698  31.046  30.134  1.00  0.00     0.031 C 
ATOM     55  C   UNL A   1      46.689  30.575  30.975  1.00  0.00     0.029 A 
ATOM     56  C   UNL A   1      45.375  30.296  30.633  1.00  0.00     0.049 A 
ATOM     57  H   UNL A   1      44.550  28.518  29.853  1.00  0.00     0.167 HD
ATOM     58  C   UNL A   1      42.963  30.800  30.380  1.00  0.00     0.074 A 
ATOM     59  C   UNL A   1      41.810  31.670  30.493  1.00  0.00     0.031 C 
ATOM     60  C   UNL A   1      44.222  31.154  30.736  1.00  0.00     0.031 A 
BRANCH  47  61
ATOM     61  C   UNL A   1      48.406  26.681  29.909  1.00  0.00    -0.014 A 
ATOM     62  C   UNL A   1      49.333  26.898  28.876  1.00  0.00     0.009 A 
ATOM     63  C   UNL A   1      48.844  26.066  31.093  1.00  0.00     0.009 A 
ATOM     64  C   UNL A   1      50.657  26.472  29.009  1.00  0.00     0.001 A 
ATOM     65  C   UNL A   1      50.176  25.673  31.237  1.00  0.00     0.001 A 
ATOM     66  C   UNL A   1      51.077  25.867  30.191  1.00  0.00     0.000 A 
ENDBRANCH  47  61
BRANCH  48  67
ATOM     67  C   UNL A   1      38.782  29.163  28.997  1.00  0.00    -0.014 A 
ATOM     68  C   UNL A   1      37.911  29.015  30.088  1.00  0.00     0.009 A 
ATOM     69  C   UNL A   1      38.269  29.652  27.785  1.00  0.00     0.009 A 
ATOM     70  C   UNL A   1      36.552  29.310  29.957  1.00  0.00     0.001 A 
ATOM     71  C   UNL A   1      36.916  29.979  27.667  1.00  0.00     0.001 A 
ATOM     72  C   UNL A   1      36.057  29.795  28.747  1.00  0.00     0.000 A 
ENDBRANCH  48  67
BRANCH  60  73
ATOM     73  C   UNL A   1      44.430  32.560  31.229  1.00  0.00    -0.014 A 
ATOM     74  C   UNL A   1      44.713  33.615  30.347  1.00  0.00     0.009 A 
ATOM     75  C   UNL A   1      44.308  32.835  32.600  1.00  0.00     0.009 A 
ATOM     76  C   UNL A   1      44.910  34.909  30.834  1.00  0.00     0.001 A 
ATOM     77  C   UNL A   1      44.470  34.135  33.080  1.00  0.00     0.001 A 
ATOM     78  C   UNL A   1      44.783  35.169  32.199  1.00  0.00     0.000 A 
ENDBRANCH  60  73
ENDBRANCH  34  35
ENDBRANCH  26  29
ENDBRANCH  24  25
ENDBRANCH  23  24
ENDBRANCH   1  23
TORSDOF 14
ENDMDL
MODEL 3
REMARK VINA RESULT:      -9.1      3.904      7.094
REMARK SMILES C=CCS(=O)(=O)N1CCc2ccccc2[C@@H]1C(=O)NCCCCNC(=O)c1ccc(-c2c3nc(c(-c4ccccc4)c4ccc([nH]4)c(-c4ccccc4)c4nc(c(-c5ccccc5)c5ccc2[nH]5)C=C4)C=C3)cc1
REMARK SMILES IDX 21 1 20 2 19 3 17 4 18 5 16 7 7 8 8 9 9 10 15 11 10 12 14 13
REMARK SMILES IDX 11 14 13 15 12 16 4 17 5 18 6 19 3 20 2 21 1 22 22 23 23 24
REMARK SMILES IDX 24 25 25 26 26 28 27 29 28 30 74 31 29 32 73 33 30 34 31 35
REMARK SMILES IDX 32 36 67 37 33 38 72 39 66 40 68 41 34 42 71 43 65 44 64 45
REMARK SMILES IDX 35 47 57 48 42 49 56 50 43 51 46 52 55 53 69 54 44 55 45 56
REMARK SMILES IDX 54 58 70 59 47 60 36 61 37 62 41 63 38 64 40 65 39 66 58 67
REMARK SMILES IDX 59 68 63 69 60 70 62 71 61 72 48 73 49 74 53 75 50 76 52 77
REMARK SMILES IDX 51 78
REMARK H PARENT 19 6 24 27 68 46 46 57
REMARK Flexibility Score: inf
ROOT
ATOM      1  C   UNL A   1      34.251  30.373  27.507  1.00  0.00     0.023 C 
ENDROOT
BRANCH   1   2
ATOM      2  C   UNL A   1      34.088  28.894  27.176  1.00  0.00     0.116 C 
BRANCH   2   3
ATOM      3  N   UNL A   1      32.749  28.398  27.409  1.00  0.00    -0.354 N 
ATOM      4  C   UNL A   1      32.073  27.387  26.791  1.00  0.00     0.243 C 
ATOM      5  O   UNL A   1      31.028  27.013  27.337  1.00  0.00    -0.273 OA
ATOM      6  H   UNL A   1      32.250  28.860  28.121  1.00  0.00     0.163 HD
BRANCH   4   7
ATOM      7  C   UNL A   1      32.604  26.732  25.490  1.00  0.00     0.192 C 
ATOM      8  N   UNL A   1      31.894  27.298  24.304  1.00  0.00    -0.184 NA
ATOM      9  C   UNL A   1      31.139  26.368  23.452  1.00  0.00     0.108 C 
ATOM     10  C   UNL A   1      30.343  25.381  24.303  1.00  0.00     0.052 C 
ATOM     11  C   UNL A   1      32.454  25.214  25.635  1.00  0.00    -0.017 A 
ATOM     12  C   UNL A   1      31.292  24.585  25.155  1.00  0.00    -0.041 A 
ATOM     13  C   UNL A   1      33.395  24.444  26.335  1.00  0.00     0.006 A 
ATOM     14  C   UNL A   1      31.019  23.253  25.485  1.00  0.00     0.004 A 
ATOM     15  C   UNL A   1      33.134  23.106  26.634  1.00  0.00     0.000 A 
ATOM     16  C   UNL A   1      31.935  22.521  26.234  1.00  0.00     0.000 A 
BRANCH   8  17
ATOM     17  S   UNL A   1      31.836  28.944  24.045  1.00  0.00     0.218 S 
ATOM     18  O   UNL A   1      33.199  29.386  23.827  1.00  0.00    -0.212 OA
ATOM     19  O   UNL A   1      31.060  29.517  25.131  1.00  0.00    -0.212 OA
BRANCH  17  20
ATOM     20  C   UNL A   1      30.919  29.223  22.503  1.00  0.00     0.181 C 
BRANCH  20  21
ATOM     21  C   UNL A   1      29.558  29.818  22.743  1.00  0.00    -0.017 C 
ATOM     22  C   UNL A   1      28.407  29.154  22.571  1.00  0.00     0.005 C 
ENDBRANCH  20  21
ENDBRANCH  17  20
ENDBRANCH   8  17
ENDBRANCH   4   7
ENDBRANCH   2   3
ENDBRANCH   1   2
BRANCH   1  23
ATOM     23  C   UNL A   1      32.953  31.162  27.676  1.00  0.00     0.023 C 
BRANCH  23  24
ATOM     24  C   UNL A   1      32.784  32.365  26.757  1.00  0.00     0.116 C 
BRANCH  24  25
ATOM     25  N   UNL A   1      32.451  33.586  27.472  1.00  0.00    -0.352 N 
ATOM     26  C   UNL A   1      33.128  34.214  28.489  1.00  0.00     0.251 C 
ATOM     27  H   UNL A   1      31.619  34.027  27.185  1.00  0.00     0.163 HD
ATOM     28  O   UNL A   1      32.616  35.170  29.066  1.00  0.00    -0.269 OA
BRANCH  26  29
ATOM     29  C   UNL A   1      34.457  33.725  28.915  1.00  0.00     0.039 A 
ATOM     30  C   UNL A   1      34.573  33.079  30.150  1.00  0.00     0.014 A 
ATOM     31  C   UNL A   1      35.586  33.901  28.111  1.00  0.00     0.014 A 
ATOM     32  C   UNL A   1      35.805  32.553  30.545  1.00  0.00     0.010 A 
ATOM     33  C   UNL A   1      36.793  33.302  28.468  1.00  0.00     0.010 A 
ATOM     34  C   UNL A   1      36.918  32.626  29.690  1.00  0.00    -0.014 A 
BRANCH  34  35
ATOM     35  C   UNL A   1      38.217  32.008  30.064  1.00  0.00     0.031 A 
ATOM     36  C   UNL A   1      39.167  32.733  30.979  1.00  0.00     0.074 A 
ATOM     37  C   UNL A   1      38.567  30.815  29.544  1.00  0.00     0.049 A 
ATOM     38  N   UNL A   1      40.361  32.376  31.384  1.00  0.00    -0.248 NA
ATOM     39  C   UNL A   1      38.728  34.043  31.490  1.00  0.00     0.031 C 
ATOM     40  C   UNL A   1      37.754  30.021  28.619  1.00  0.00     0.029 A 
ATOM     41  N   UNL A   1      39.702  30.062  29.718  1.00  0.00    -0.354 N 
ATOM     42  C   UNL A   1      40.814  33.416  32.186  1.00  0.00     0.074 A 
ATOM     43  C   UNL A   1      39.798  34.443  32.161  1.00  0.00     0.031 C 
ATOM     44  C   UNL A   1      38.402  28.879  28.334  1.00  0.00     0.029 A 
ATOM     45  C   UNL A   1      39.693  28.879  29.016  1.00  0.00     0.049 A 
ATOM     46  H   UNL A   1      40.451  30.342  30.291  1.00  0.00     0.167 HD
ATOM     47  C   UNL A   1      41.964  33.501  32.899  1.00  0.00     0.031 A 
ATOM     48  C   UNL A   1      40.620  27.908  28.926  1.00  0.00     0.031 A 
ATOM     49  C   UNL A   1      42.979  32.481  32.923  1.00  0.00     0.049 A 
ATOM     50  C   UNL A   1      41.906  28.047  29.695  1.00  0.00     0.074 A 
ATOM     51  C   UNL A   1      44.161  32.459  33.642  1.00  0.00     0.029 A 
ATOM     52  N   UNL A   1      42.933  31.304  32.193  1.00  0.00    -0.354 N 
ATOM     53  N   UNL A   1      42.292  29.008  30.499  1.00  0.00    -0.248 NA
ATOM     54  C   UNL A   1      42.880  26.954  29.553  1.00  0.00     0.031 C 
ATOM     55  C   UNL A   1      44.858  31.295  33.304  1.00  0.00     0.029 A 
ATOM     56  C   UNL A   1      44.077  30.559  32.427  1.00  0.00     0.049 A 
ATOM     57  H   UNL A   1      42.197  31.037  31.596  1.00  0.00     0.167 HD
ATOM     58  C   UNL A   1      43.533  28.619  30.986  1.00  0.00     0.074 A 
ATOM     59  C   UNL A   1      43.827  27.327  30.401  1.00  0.00     0.031 C 
ATOM     60  C   UNL A   1      44.355  29.273  31.843  1.00  0.00     0.031 A 
BRANCH  47  61
ATOM     61  C   UNL A   1      42.184  34.749  33.710  1.00  0.00    -0.014 A 
ATOM     62  C   UNL A   1      42.860  35.856  33.173  1.00  0.00     0.009 A 
ATOM     63  C   UNL A   1      41.678  34.834  35.018  1.00  0.00     0.009 A 
ATOM     64  C   UNL A   1      43.063  37.006  33.941  1.00  0.00     0.001 A 
ATOM     65  C   UNL A   1      41.852  35.997  35.771  1.00  0.00     0.001 A 
ATOM     66  C   UNL A   1      42.553  37.076  35.236  1.00  0.00     0.000 A 
ENDBRANCH  47  61
BRANCH  48  67
ATOM     67  C   UNL A   1      40.373  26.707  28.083  1.00  0.00    -0.014 A 
ATOM     68  C   UNL A   1      39.615  25.632  28.574  1.00  0.00     0.009 A 
ATOM     69  C   UNL A   1      40.918  26.615  26.792  1.00  0.00     0.009 A 
ATOM     70  C   UNL A   1      39.442  24.477  27.808  1.00  0.00     0.001 A 
ATOM     71  C   UNL A   1      40.715  25.473  26.015  1.00  0.00     0.001 A 
ATOM     72  C   UNL A   1      39.989  24.400  26.528  1.00  0.00     0.000 A 
ENDBRANCH  48  67
BRANCH  60  73
ATOM     73  C   UNL A   1      45.628  28.576  32.244  1.00  0.00    -0.014 A 
ATOM     74  C   UNL A   1      46.816  28.739  31.515  1.00  0.00     0.009 A 
ATOM     75  C   UNL A   1      45.640  27.767  33.391  1.00  0.00     0.009 A 
ATOM     76  C   UNL A   1      47.980  28.073  31.905  1.00  0.00     0.001 A 
ATOM     77  C   UNL A   1      46.813  27.131  33.798  1.00  0.00     0.001 A 
ATOM     78  C   UNL A   1      47.979  27.275  33.049  1.00  0.00     0.000 A 
ENDBRANCH  60  73
ENDBRANCH  34  35
ENDBRANCH  26  29
ENDBRANCH  24  25
ENDBRANCH  23  24
ENDBRANCH   1  23
TORSDOF 14
ENDMDL
