MODEL 1
REMARK VINA RESULT:      -9.9      0.000      0.000
REMARK SMILES O=C(NCCCCNC(=O)[C@H](NC(=O)[C@H]1CC[C@@H](CNC(=O)[C@@H]2Cc3ccccc3C[NH2+]2)CC1)c1ccccc1)c1ccc(-c2c3nc(c(-c4ccccc4)c4ccc([nH]4)c(-c4ccccc4)c4nc(c(-c5ccccc5)c5ccc2[nH]5)C=C4)C=C3)cc1
REMARK SMILES IDX 7 1 6 2 5 3 4 4 3 5 1 6 2 7 41 9 42 10 88 11 43 12 87 13
REMARK SMILES IDX 44 14 45 15 46 16 81 17 47 18 86 19 80 20 82 21 48 22 85 23
REMARK SMILES IDX 79 24 78 25 49 27 71 28 56 29 70 30 57 31 60 32 69 33 83 34
REMARK SMILES IDX 58 35 59 36 68 38 84 39 61 40 50 41 51 42 55 43 52 44 54 45
REMARK SMILES IDX 53 46 72 47 73 48 77 49 74 50 76 51 75 52 62 53 63 54 67 55
REMARK SMILES IDX 64 56 66 57 65 58 8 59 9 60 10 62 11 63 35 64 36 65 40 66
REMARK SMILES IDX 37 67 39 68 38 69 12 70 13 71 14 73 15 74 34 75 16 76 33 77
REMARK SMILES IDX 17 78 18 79 19 80 20 81 21 82 22 84 23 85 24 86 32 87 25 88
REMARK SMILES IDX 31 89 26 92 30 93 27 94 29 95 28 96
REMARK H PARENT 3 8 82 26 60 37 8 61 12 72 20 83 32 90 32 91
REMARK Flexibility Score: inf
ROOT
ATOM      1  C   UNL A   1      34.775  32.647  31.461  1.00  0.00     0.116 C 
ENDROOT
BRANCH   1   2
ATOM      2  C   UNL A   1      34.685  33.628  30.293  1.00  0.00     0.023 C 
BRANCH   2   3
ATOM      3  C   UNL A   1      35.738  33.385  29.213  1.00  0.00     0.023 C 
BRANCH   3   4
ATOM      4  C   UNL A   1      35.154  33.156  27.829  1.00  0.00     0.116 C 
BRANCH   4   5
ATOM      5  N   UNL A   1      34.261  32.007  27.798  1.00  0.00    -0.352 N 
ATOM      6  O   UNL A   1      33.764  29.804  27.636  1.00  0.00    -0.269 OA
ATOM      7  C   UNL A   1      34.594  30.677  27.875  1.00  0.00     0.251 C 
ATOM      8  H   UNL A   1      33.300  32.208  27.714  1.00  0.00     0.163 HD
BRANCH   7   9
ATOM      9  C   UNL A   1      35.981  30.316  28.230  1.00  0.00     0.039 A 
ATOM     10  C   UNL A   1      36.990  30.444  27.274  1.00  0.00     0.014 A 
ATOM     11  C   UNL A   1      36.261  29.797  29.495  1.00  0.00     0.014 A 
ATOM     12  C   UNL A   1      38.244  29.907  27.530  1.00  0.00     0.010 A 
ATOM     13  C   UNL A   1      37.555  29.359  29.787  1.00  0.00     0.010 A 
ATOM     14  C   UNL A   1      38.551  29.387  28.797  1.00  0.00    -0.014 A 
BRANCH  14  15
ATOM     15  C   UNL A   1      39.946  28.960  29.073  1.00  0.00     0.031 A 
ATOM     16  C   UNL A   1      40.918  29.851  29.794  1.00  0.00     0.074 A 
ATOM     17  C   UNL A   1      40.313  27.719  28.696  1.00  0.00     0.049 A 
ATOM     18  N   UNL A   1      42.157  29.602  30.137  1.00  0.00    -0.248 NA
ATOM     19  C   UNL A   1      40.450  31.194  30.173  1.00  0.00     0.031 C 
ATOM     20  C   UNL A   1      39.457  26.766  27.983  1.00  0.00     0.029 A 
ATOM     21  N   UNL A   1      41.485  27.034  28.882  1.00  0.00    -0.354 N 
ATOM     22  C   UNL A   1      42.618  30.753  30.765  1.00  0.00     0.074 A 
ATOM     23  C   UNL A   1      41.538  31.716  30.723  1.00  0.00     0.031 C 
ATOM     24  C   UNL A   1      40.109  25.604  27.846  1.00  0.00     0.029 A 
ATOM     25  C   UNL A   1      41.453  25.754  28.385  1.00  0.00     0.049 A 
ATOM     26  H   UNL A   1      42.273  27.422  29.327  1.00  0.00     0.167 HD
ATOM     27  C   UNL A   1      43.828  30.980  31.332  1.00  0.00     0.031 A 
ATOM     28  C   UNL A   1      42.408  24.808  28.342  1.00  0.00     0.031 A 
ATOM     29  C   UNL A   1      44.906  30.024  31.356  1.00  0.00     0.049 A 
ATOM     30  C   UNL A   1      43.753  25.111  28.930  1.00  0.00     0.074 A 
ATOM     31  C   UNL A   1      46.169  30.160  31.909  1.00  0.00     0.029 A 
ATOM     32  N   UNL A   1      44.850  28.754  30.801  1.00  0.00    -0.354 N 
ATOM     33  N   UNL A   1      44.162  26.196  29.541  1.00  0.00    -0.248 NA
ATOM     34  C   UNL A   1      44.768  24.056  28.823  1.00  0.00     0.031 C 
ATOM     35  C   UNL A   1      46.894  28.993  31.640  1.00  0.00     0.029 A 
ATOM     36  C   UNL A   1      46.062  28.104  30.980  1.00  0.00     0.049 A 
ATOM     37  H   UNL A   1      44.066  28.370  30.347  1.00  0.00     0.167 HD
ATOM     38  C   UNL A   1      45.475  25.946  29.911  1.00  0.00     0.074 A 
ATOM     39  C   UNL A   1      45.781  24.597  29.482  1.00  0.00     0.031 C 
ATOM     40  C   UNL A   1      46.352  26.763  30.544  1.00  0.00     0.031 A 
BRANCH  27  41
ATOM     41  C   UNL A   1      44.062  32.327  31.962  1.00  0.00    -0.014 A 
ATOM     42  C   UNL A   1      43.905  32.522  33.344  1.00  0.00     0.009 A 
ATOM     43  C   UNL A   1      44.504  33.403  31.174  1.00  0.00     0.009 A 
ATOM     44  C   UNL A   1      44.156  33.771  33.918  1.00  0.00     0.001 A 
ATOM     45  C   UNL A   1      44.783  34.643  31.755  1.00  0.00     0.001 A 
ATOM     46  C   UNL A   1      44.600  34.828  33.124  1.00  0.00     0.000 A 
ENDBRANCH  27  41
BRANCH  28  47
ATOM     47  C   UNL A   1      42.132  23.502  27.686  1.00  0.00    -0.014 A 
ATOM     48  C   UNL A   1      42.487  23.279  26.347  1.00  0.00     0.009 A 
ATOM     49  C   UNL A   1      41.496  22.473  28.399  1.00  0.00     0.009 A 
ATOM     50  C   UNL A   1      42.178  22.066  25.728  1.00  0.00     0.001 A 
ATOM     51  C   UNL A   1      41.225  21.248  27.791  1.00  0.00     0.001 A 
ATOM     52  C   UNL A   1      41.553  21.050  26.451  1.00  0.00     0.000 A 
ENDBRANCH  28  47
BRANCH  40  53
ATOM     53  C   UNL A   1      47.712  26.196  30.841  1.00  0.00    -0.014 A 
ATOM     54  C   UNL A   1      48.720  26.159  29.864  1.00  0.00     0.009 A 
ATOM     55  C   UNL A   1      47.989  25.695  32.122  1.00  0.00     0.009 A 
ATOM     56  C   UNL A   1      49.962  25.591  30.152  1.00  0.00     0.001 A 
ATOM     57  C   UNL A   1      49.243  25.159  32.417  1.00  0.00     0.001 A 
ATOM     58  C   UNL A   1      50.223  25.095  31.428  1.00  0.00     0.000 A 
ENDBRANCH  40  53
ENDBRANCH  14  15
ENDBRANCH   7   9
ENDBRANCH   4   5
ENDBRANCH   3   4
ENDBRANCH   2   3
ENDBRANCH   1   2
BRANCH   1  59
ATOM     59  N   UNL A   1      35.076  33.372  32.680  1.00  0.00    -0.354 N 
ATOM     60  C   UNL A   1      35.956  33.020  33.671  1.00  0.00     0.247 C 
ATOM     61  H   UNL A   1      34.591  34.219  32.812  1.00  0.00     0.163 HD
ATOM     62  O   UNL A   1      35.802  33.504  34.793  1.00  0.00    -0.272 OA
BRANCH  60  63
ATOM     63  C   UNL A   1      37.200  32.160  33.285  1.00  0.00     0.202 C 
BRANCH  63  64
ATOM     64  C   UNL A   1      38.379  32.787  33.980  1.00  0.00    -0.016 A 
ATOM     65  C   UNL A   1      39.342  33.454  33.223  1.00  0.00     0.006 A 
ATOM     66  C   UNL A   1      38.517  32.727  35.380  1.00  0.00     0.006 A 
ATOM     67  C   UNL A   1      40.469  33.964  33.844  1.00  0.00     0.000 A 
ATOM     68  C   UNL A   1      39.675  33.205  35.990  1.00  0.00     0.000 A 
ATOM     69  C   UNL A   1      40.665  33.797  35.214  1.00  0.00     0.000 A 
ENDBRANCH  63  64
BRANCH  63  70
ATOM     70  N   UNL A   1      37.006  30.747  33.613  1.00  0.00    -0.340 N 
ATOM     71  C   UNL A   1      37.718  29.621  33.351  1.00  0.00     0.224 C 
ATOM     72  H   UNL A   1      36.187  30.577  34.132  1.00  0.00     0.164 HD
ATOM     73  O   UNL A   1      37.038  28.595  33.201  1.00  0.00    -0.275 OA
BRANCH  71  74
ATOM     74  C   UNL A   1      39.257  29.491  33.270  1.00  0.00     0.078 C 
ATOM     75  C   UNL A   1      40.036  29.871  34.520  1.00  0.00     0.014 C 
ATOM     76  C   UNL A   1      39.763  28.218  32.596  1.00  0.00     0.014 C 
ATOM     77  C   UNL A   1      41.536  29.933  34.199  1.00  0.00     0.006 C 
ATOM     78  C   UNL A   1      41.262  27.890  32.688  1.00  0.00     0.006 C 
ATOM     79  C   UNL A   1      42.129  28.582  33.748  1.00  0.00     0.008 C 
BRANCH  79  80
ATOM     80  C   UNL A   1      42.612  27.824  35.012  1.00  0.00     0.119 C 
BRANCH  80  81
ATOM     81  N   UNL A   1      41.674  27.212  35.930  1.00  0.00    -0.351 N 
ATOM     82  C   UNL A   1      41.937  26.226  36.863  1.00  0.00     0.278 C 
ATOM     83  H   UNL A   1      40.745  27.535  35.885  1.00  0.00     0.163 HD
ATOM     84  O   UNL A   1      41.245  26.234  37.888  1.00  0.00    -0.268 OA
BRANCH  82  85
ATOM     85  C   UNL A   1      43.037  25.132  36.682  1.00  0.00     0.277 C 
ATOM     86  C   UNL A   1      44.378  25.645  36.081  1.00  0.00     0.111 C 
ATOM     87  N   UNL A   1      42.486  23.891  36.092  1.00  0.00    -0.332 N 
ATOM     88  C   UNL A   1      45.207  24.501  35.512  1.00  0.00    -0.033 A 
ATOM     89  C   UNL A   1      43.017  23.600  34.768  1.00  0.00     0.298 C 
ATOM     90  H   UNL A   1      41.473  23.988  36.020  1.00  0.00     0.347 HD
ATOM     91  H   UNL A   1      42.754  23.120  36.704  1.00  0.00     0.347 HD
ATOM     92  C   UNL A   1      46.596  24.406  35.622  1.00  0.00     0.004 A 
ATOM     93  C   UNL A   1      44.509  23.487  34.831  1.00  0.00     0.010 A 
ATOM     94  C   UNL A   1      47.267  23.309  35.064  1.00  0.00     0.000 A 
ATOM     95  C   UNL A   1      45.184  22.418  34.240  1.00  0.00     0.010 A 
ATOM     96  C   UNL A   1      46.565  22.324  34.367  1.00  0.00     0.001 A 
ENDBRANCH  82  85
ENDBRANCH  80  81
ENDBRANCH  79  80
ENDBRANCH  71  74
ENDBRANCH  63  70
ENDBRANCH  60  63
ENDBRANCH   1  59
TORSDOF 17
ENDMDL
MODEL 2
REMARK VINA RESULT:      -9.4      3.290     10.320
REMARK SMILES O=C(NCCCCNC(=O)[C@H](NC(=O)[C@H]1CC[C@@H](CNC(=O)[C@@H]2Cc3ccccc3C[NH2+]2)CC1)c1ccccc1)c1ccc(-c2c3nc(c(-c4ccccc4)c4ccc([nH]4)c(-c4ccccc4)c4nc(c(-c5ccccc5)c5ccc2[nH]5)C=C4)C=C3)cc1
REMARK SMILES IDX 7 1 6 2 5 3 4 4 3 5 1 6 2 7 41 9 42 10 88 11 43 12 87 13
REMARK SMILES IDX 44 14 45 15 46 16 81 17 47 18 86 19 80 20 82 21 48 22 85 23
REMARK SMILES IDX 79 24 78 25 49 27 71 28 56 29 70 30 57 31 60 32 69 33 83 34
REMARK SMILES IDX 58 35 59 36 68 38 84 39 61 40 50 41 51 42 55 43 52 44 54 45
REMARK SMILES IDX 53 46 72 47 73 48 77 49 74 50 76 51 75 52 62 53 63 54 67 55
REMARK SMILES IDX 64 56 66 57 65 58 8 59 9 60 10 62 11 63 35 64 36 65 40 66
REMARK SMILES IDX 37 67 39 68 38 69 12 70 13 71 14 73 15 74 34 75 16 76 33 77
REMARK SMILES IDX 17 78 18 79 19 80 20 81 21 82 22 84 23 85 24 86 32 87 25 88
REMARK SMILES IDX 31 89 26 92 30 93 27 94 29 95 28 96
REMARK H PARENT 3 8 82 26 60 37 8 61 12 72 20 83 32 90 32 91
REMARK Flexibility Score: inf
ROOT
ATOM      1  C   UNL A   1      44.897  24.754  27.719  1.00  0.00     0.116 C 
ENDROOT
BRANCH   1   2
ATOM      2  C   UNL A   1      46.397  24.725  28.006  1.00  0.00     0.023 C 
BRANCH   2   3
ATOM      3  C   UNL A   1      47.250  24.488  26.760  1.00  0.00     0.023 C 
BRANCH   3   4
ATOM      4  C   UNL A   1      46.525  24.784  25.457  1.00  0.00     0.116 C 
BRANCH   4   5
ATOM      5  N   UNL A   1      47.257  25.732  24.629  1.00  0.00    -0.352 N 
ATOM      6  O   UNL A   1      47.727  27.783  23.794  1.00  0.00    -0.269 OA
ATOM      7  C   UNL A   1      47.215  27.104  24.680  1.00  0.00     0.251 C 
ATOM      8  H   UNL A   1      47.857  25.341  23.952  1.00  0.00     0.163 HD
BRANCH   7   9
ATOM      9  C   UNL A   1      46.519  27.748  25.811  1.00  0.00     0.039 A 
ATOM     10  C   UNL A   1      47.262  28.238  26.886  1.00  0.00     0.014 A 
ATOM     11  C   UNL A   1      45.124  27.811  25.822  1.00  0.00     0.014 A 
ATOM     12  C   UNL A   1      46.607  28.646  28.039  1.00  0.00     0.010 A 
ATOM     13  C   UNL A   1      44.469  28.326  26.944  1.00  0.00     0.010 A 
ATOM     14  C   UNL A   1      45.205  28.723  28.072  1.00  0.00    -0.014 A 
BRANCH  14  15
ATOM     15  C   UNL A   1      44.553  29.305  29.272  1.00  0.00     0.031 A 
ATOM     16  C   UNL A   1      44.052  30.722  29.292  1.00  0.00     0.074 A 
ATOM     17  C   UNL A   1      44.376  28.507  30.344  1.00  0.00     0.049 A 
ATOM     18  N   UNL A   1      43.429  31.356  30.255  1.00  0.00    -0.248 NA
ATOM     19  C   UNL A   1      44.281  31.536  28.088  1.00  0.00     0.031 C 
ATOM     20  C   UNL A   1      44.826  27.115  30.443  1.00  0.00     0.029 A 
ATOM     21  N   UNL A   1      43.750  28.736  31.541  1.00  0.00    -0.354 N 
ATOM     22  C   UNL A   1      43.199  32.641  29.778  1.00  0.00     0.074 A 
ATOM     23  C   UNL A   1      43.780  32.708  28.454  1.00  0.00     0.031 C 
ATOM     24  C   UNL A   1      44.411  26.598  31.606  1.00  0.00     0.029 A 
ATOM     25  C   UNL A   1      43.738  27.641  32.369  1.00  0.00     0.049 A 
ATOM     26  H   UNL A   1      43.347  29.601  31.783  1.00  0.00     0.167 HD
ATOM     27  C   UNL A   1      42.552  33.666  30.386  1.00  0.00     0.031 A 
ATOM     28  C   UNL A   1      43.263  27.492  33.618  1.00  0.00     0.031 A 
ATOM     29  C   UNL A   1      41.990  33.598  31.711  1.00  0.00     0.049 A 
ATOM     30  C   UNL A   1      42.602  28.662  34.283  1.00  0.00     0.074 A 
ATOM     31  C   UNL A   1      41.315  34.582  32.414  1.00  0.00     0.029 A 
ATOM     32  N   UNL A   1      42.040  32.484  32.537  1.00  0.00    -0.354 N 
ATOM     33  N   UNL A   1      42.371  29.861  33.807  1.00  0.00    -0.248 NA
ATOM     34  C   UNL A   1      42.134  28.456  35.659  1.00  0.00     0.031 C 
ATOM     35  C   UNL A   1      41.005  34.082  33.683  1.00  0.00     0.029 A 
ATOM     36  C   UNL A   1      41.426  32.764  33.748  1.00  0.00     0.049 A 
ATOM     37  H   UNL A   1      42.451  31.622  32.298  1.00  0.00     0.167 HD
ATOM     38  C   UNL A   1      41.712  30.545  34.817  1.00  0.00     0.074 A 
ATOM     39  C   UNL A   1      41.553  29.617  35.918  1.00  0.00     0.031 C 
ATOM     40  C   UNL A   1      41.281  31.830  34.835  1.00  0.00     0.031 A 
BRANCH  27  41
ATOM     41  C   UNL A   1      42.432  34.962  29.630  1.00  0.00    -0.014 A 
ATOM     42  C   UNL A   1      43.415  35.959  29.735  1.00  0.00     0.009 A 
ATOM     43  C   UNL A   1      41.353  35.167  28.755  1.00  0.00     0.009 A 
ATOM     44  C   UNL A   1      43.305  37.144  29.003  1.00  0.00     0.001 A 
ATOM     45  C   UNL A   1      41.260  36.340  28.002  1.00  0.00     0.001 A 
ATOM     46  C   UNL A   1      42.231  37.331  28.133  1.00  0.00     0.000 A 
ENDBRANCH  27  41
BRANCH  28  47
ATOM     47  C   UNL A   1      43.430  26.197  34.329  1.00  0.00    -0.014 A 
ATOM     48  C   UNL A   1      42.383  25.265  34.386  1.00  0.00     0.009 A 
ATOM     49  C   UNL A   1      44.644  25.894  34.968  1.00  0.00     0.009 A 
ATOM     50  C   UNL A   1      42.538  24.074  35.098  1.00  0.00     0.001 A 
ATOM     51  C   UNL A   1      44.808  24.686  35.645  1.00  0.00     0.001 A 
ATOM     52  C   UNL A   1      43.750  23.783  35.722  1.00  0.00     0.000 A 
ENDBRANCH  28  47
BRANCH  40  53
ATOM     53  C   UNL A   1      40.562  32.287  36.074  1.00  0.00    -0.014 A 
ATOM     54  C   UNL A   1      39.171  32.150  36.206  1.00  0.00     0.009 A 
ATOM     55  C   UNL A   1      41.292  32.858  37.127  1.00  0.00     0.009 A 
ATOM     56  C   UNL A   1      38.521  32.618  37.350  1.00  0.00     0.001 A 
ATOM     57  C   UNL A   1      40.644  33.294  38.283  1.00  0.00     0.001 A 
ATOM     58  C   UNL A   1      39.258  33.186  38.388  1.00  0.00     0.000 A 
ENDBRANCH  40  53
ENDBRANCH  14  15
ENDBRANCH   7   9
ENDBRANCH   4   5
ENDBRANCH   3   4
ENDBRANCH   2   3
ENDBRANCH   1   2
BRANCH   1  59
ATOM     59  N   UNL A   1      44.268  23.590  28.313  1.00  0.00    -0.354 N 
ATOM     60  C   UNL A   1      43.144  22.933  27.884  1.00  0.00     0.247 C 
ATOM     61  H   UNL A   1      44.701  23.228  29.120  1.00  0.00     0.163 HD
ATOM     62  O   UNL A   1      42.519  22.246  28.694  1.00  0.00    -0.272 OA
BRANCH  60  63
ATOM     63  C   UNL A   1      42.809  22.954  26.359  1.00  0.00     0.202 C 
BRANCH  63  64
ATOM     64  C   UNL A   1      43.307  21.649  25.799  1.00  0.00    -0.016 A 
ATOM     65  C   UNL A   1      42.554  20.491  25.992  1.00  0.00     0.006 A 
ATOM     66  C   UNL A   1      44.510  21.580  25.070  1.00  0.00     0.006 A 
ATOM     67  C   UNL A   1      43.043  19.273  25.551  1.00  0.00     0.000 A 
ATOM     68  C   UNL A   1      45.014  20.345  24.667  1.00  0.00     0.000 A 
ATOM     69  C   UNL A   1      44.292  19.188  24.937  1.00  0.00     0.000 A 
ENDBRANCH  63  64
BRANCH  63  70
ATOM     70  N   UNL A   1      41.385  23.194  26.120  1.00  0.00    -0.340 N 
ATOM     71  C   UNL A   1      40.404  23.788  26.846  1.00  0.00     0.224 C 
ATOM     72  H   UNL A   1      41.074  22.854  25.250  1.00  0.00     0.164 HD
ATOM     73  O   UNL A   1      39.272  23.306  26.688  1.00  0.00    -0.275 OA
BRANCH  71  74
ATOM     74  C   UNL A   1      40.550  25.005  27.789  1.00  0.00     0.078 C 
ATOM     75  C   UNL A   1      41.229  26.236  27.208  1.00  0.00     0.014 C 
ATOM     76  C   UNL A   1      39.315  25.325  28.628  1.00  0.00     0.014 C 
ATOM     77  C   UNL A   1      41.523  27.245  28.327  1.00  0.00     0.006 C 
ATOM     78  C   UNL A   1      39.284  26.650  29.406  1.00  0.00     0.006 C 
ATOM     79  C   UNL A   1      40.257  27.775  29.031  1.00  0.00     0.008 C 
BRANCH  79  80
ATOM     80  C   UNL A   1      39.775  29.035  28.266  1.00  0.00     0.119 C 
BRANCH  80  81
ATOM     81  N   UNL A   1      38.370  29.265  28.002  1.00  0.00    -0.351 N 
ATOM     82  C   UNL A   1      37.586  30.299  28.480  1.00  0.00     0.278 C 
ATOM     83  H   UNL A   1      37.923  28.613  27.414  1.00  0.00     0.163 HD
ATOM     84  O   UNL A   1      36.655  30.670  27.755  1.00  0.00    -0.268 OA
BRANCH  82  85
ATOM     85  C   UNL A   1      37.818  30.997  29.858  1.00  0.00     0.277 C 
ATOM     86  C   UNL A   1      36.539  31.176  30.725  1.00  0.00     0.111 C 
ATOM     87  N   UNL A   1      38.697  32.181  29.732  1.00  0.00    -0.332 N 
ATOM     88  C   UNL A   1      36.738  32.238  31.799  1.00  0.00    -0.033 A 
ATOM     89  C   UNL A   1      38.021  33.433  30.043  1.00  0.00     0.298 C 
ATOM     90  H   UNL A   1      39.043  32.229  28.774  1.00  0.00     0.347 HD
ATOM     91  H   UNL A   1      39.454  32.070  30.408  1.00  0.00     0.347 HD
ATOM     92  C   UNL A   1      36.240  32.143  33.100  1.00  0.00     0.004 A 
ATOM     93  C   UNL A   1      37.468  33.383  31.433  1.00  0.00     0.010 A 
ATOM     94  C   UNL A   1      36.480  33.176  34.016  1.00  0.00     0.000 A 
ATOM     95  C   UNL A   1      37.669  34.430  32.335  1.00  0.00     0.010 A 
ATOM     96  C   UNL A   1      37.183  34.320  33.632  1.00  0.00     0.001 A 
ENDBRANCH  82  85
ENDBRANCH  80  81
ENDBRANCH  79  80
ENDBRANCH  71  74
ENDBRANCH  63  70
ENDBRANCH  60  63
ENDBRANCH   1  59
TORSDOF 17
ENDMDL
MODEL 3
REMARK VINA RESULT:      -9.4      3.258     10.398
REMARK SMILES O=C(NCCCCNC(=O)[C@H](NC(=O)[C@H]1CC[C@@H](CNC(=O)[C@@H]2Cc3ccccc3C[NH2+]2)CC1)c1ccccc1)c1ccc(-c2c3nc(c(-c4ccccc4)c4ccc([nH]4)c(-c4ccccc4)c4nc(c(-c5ccccc5)c5ccc2[nH]5)C=C4)C=C3)cc1
REMARK SMILES IDX 7 1 6 2 5 3 4 4 3 5 1 6 2 7 41 9 42 10 88 11 43 12 87 13
REMARK SMILES IDX 44 14 45 15 46 16 81 17 47 18 86 19 80 20 82 21 48 22 85 23
REMARK SMILES IDX 79 24 78 25 49 27 71 28 56 29 70 30 57 31 60 32 69 33 83 34
REMARK SMILES IDX 58 35 59 36 68 38 84 39 61 40 50 41 51 42 55 43 52 44 54 45
REMARK SMILES IDX 53 46 72 47 73 48 77 49 74 50 76 51 75 52 62 53 63 54 67 55
REMARK SMILES IDX 64 56 66 57 65 58 8 59 9 60 10 62 11 63 35 64 36 65 40 66
REMARK SMILES IDX 37 67 39 68 38 69 12 70 13 71 14 73 15 74 34 75 16 76 33 77
REMARK SMILES IDX 17 78 18 79 19 80 20 81 21 82 22 84 23 85 24 86 32 87 25 88
REMARK SMILES IDX 31 89 26 92 30 93 27 94 29 95 28 96
REMARK H PARENT 3 8 82 26 60 37 8 61 12 72 20 83 32 90 32 91
REMARK Flexibility Score: inf
ROOT
ATOM      1  C   UNL A   1      44.811  24.505  27.895  1.00  0.00     0.116 C 
ENDROOT
BRANCH   1   2
ATOM      2  C   UNL A   1      46.313  24.478  28.175  1.00  0.00     0.023 C 
BRANCH   2   3
ATOM      3  C   UNL A   1      47.164  24.377  26.909  1.00  0.00     0.023 C 
BRANCH   3   4
ATOM      4  C   UNL A   1      46.364  24.493  25.622  1.00  0.00     0.116 C 
BRANCH   4   5
ATOM      5  N   UNL A   1      46.989  25.402  24.672  1.00  0.00    -0.352 N 
ATOM      6  O   UNL A   1      47.314  27.403  23.664  1.00  0.00    -0.269 OA
ATOM      7  C   UNL A   1      46.903  26.773  24.634  1.00  0.00     0.251 C 
ATOM      8  H   UNL A   1      47.542  24.984  23.973  1.00  0.00     0.163 HD
BRANCH   7   9
ATOM      9  C   UNL A   1      46.284  27.473  25.777  1.00  0.00     0.039 A 
ATOM     10  C   UNL A   1      47.094  27.969  26.800  1.00  0.00     0.014 A 
ATOM     11  C   UNL A   1      44.895  27.585  25.852  1.00  0.00     0.014 A 
ATOM     12  C   UNL A   1      46.510  28.432  27.970  1.00  0.00     0.010 A 
ATOM     13  C   UNL A   1      44.312  28.155  26.987  1.00  0.00     0.010 A 
ATOM     14  C   UNL A   1      45.114  28.559  28.066  1.00  0.00    -0.014 A 
BRANCH  14  15
ATOM     15  C   UNL A   1      44.540  29.197  29.277  1.00  0.00     0.031 A 
ATOM     16  C   UNL A   1      44.117  30.640  29.287  1.00  0.00     0.074 A 
ATOM     17  C   UNL A   1      44.362  28.431  30.372  1.00  0.00     0.049 A 
ATOM     18  N   UNL A   1      43.566  31.325  30.258  1.00  0.00    -0.248 NA
ATOM     19  C   UNL A   1      44.343  31.418  28.058  1.00  0.00     0.031 C 
ATOM     20  C   UNL A   1      44.740  27.018  30.483  1.00  0.00     0.029 A 
ATOM     21  N   UNL A   1      43.795  28.716  31.586  1.00  0.00    -0.354 N 
ATOM     22  C   UNL A   1      43.387  32.611  29.763  1.00  0.00     0.074 A 
ATOM     23  C   UNL A   1      43.920  32.622  28.417  1.00  0.00     0.031 C 
ATOM     24  C   UNL A   1      44.343  26.547  31.671  1.00  0.00     0.029 A 
ATOM     25  C   UNL A   1      43.756  27.638  32.436  1.00  0.00     0.049 A 
ATOM     26  H   UNL A   1      43.449  29.606  31.825  1.00  0.00     0.167 HD
ATOM     27  C   UNL A   1      42.820  33.681  30.374  1.00  0.00     0.031 A 
ATOM     28  C   UNL A   1      43.321  27.540  33.705  1.00  0.00     0.031 A 
ATOM     29  C   UNL A   1      42.306  33.669  31.720  1.00  0.00     0.049 A 
ATOM     30  C   UNL A   1      42.750  28.756  34.370  1.00  0.00     0.074 A 
ATOM     31  C   UNL A   1      41.711  34.701  32.427  1.00  0.00     0.029 A 
ATOM     32  N   UNL A   1      42.327  32.570  32.566  1.00  0.00    -0.354 N 
ATOM     33  N   UNL A   1      42.566  29.957  33.877  1.00  0.00    -0.248 NA
ATOM     34  C   UNL A   1      42.324  28.601  35.766  1.00  0.00     0.031 C 
ATOM     35  C   UNL A   1      41.423  34.242  33.716  1.00  0.00     0.029 A 
ATOM     36  C   UNL A   1      41.776  32.905  33.793  1.00  0.00     0.049 A 
ATOM     37  H   UNL A   1      42.682  31.682  32.330  1.00  0.00     0.167 HD
ATOM     38  C   UNL A   1      41.983  30.695  34.897  1.00  0.00     0.074 A 
ATOM     39  C   UNL A   1      41.817  29.797  36.022  1.00  0.00     0.031 C 
ATOM     40  C   UNL A   1      41.622  32.001  34.904  1.00  0.00     0.031 A 
BRANCH  27  41
ATOM     41  C   UNL A   1      42.740  34.967  29.596  1.00  0.00    -0.014 A 
ATOM     42  C   UNL A   1      41.630  35.261  28.788  1.00  0.00     0.009 A 
ATOM     43  C   UNL A   1      43.759  35.926  29.719  1.00  0.00     0.009 A 
ATOM     44  C   UNL A   1      41.557  36.473  28.097  1.00  0.00     0.001 A 
ATOM     45  C   UNL A   1      43.670  37.149  29.050  1.00  0.00     0.001 A 
ATOM     46  C   UNL A   1      42.574  37.419  28.233  1.00  0.00     0.000 A 
ENDBRANCH  27  41
BRANCH  28  47
ATOM     47  C   UNL A   1      43.446  26.251  34.436  1.00  0.00    -0.014 A 
ATOM     48  C   UNL A   1      44.685  25.824  34.936  1.00  0.00     0.009 A 
ATOM     49  C   UNL A   1      42.320  25.434  34.625  1.00  0.00     0.009 A 
ATOM     50  C   UNL A   1      44.798  24.589  35.578  1.00  0.00     0.001 A 
ATOM     51  C   UNL A   1      42.428  24.220  35.302  1.00  0.00     0.001 A 
ATOM     52  C   UNL A   1      43.670  23.790  35.765  1.00  0.00     0.000 A 
ENDBRANCH  28  47
BRANCH  40  53
ATOM     53  C   UNL A   1      40.977  32.519  36.159  1.00  0.00    -0.014 A 
ATOM     54  C   UNL A   1      41.739  33.084  37.194  1.00  0.00     0.009 A 
ATOM     55  C   UNL A   1      39.583  32.445  36.304  1.00  0.00     0.009 A 
ATOM     56  C   UNL A   1      41.122  33.521  38.367  1.00  0.00     0.001 A 
ATOM     57  C   UNL A   1      38.966  32.914  37.463  1.00  0.00     0.001 A 
ATOM     58  C   UNL A   1      39.736  33.439  38.499  1.00  0.00     0.000 A 
ENDBRANCH  40  53
ENDBRANCH  14  15
ENDBRANCH   7   9
ENDBRANCH   4   5
ENDBRANCH   3   4
ENDBRANCH   2   3
ENDBRANCH   1   2
BRANCH   1  59
ATOM     59  N   UNL A   1      44.204  23.289  28.400  1.00  0.00    -0.354 N 
ATOM     60  C   UNL A   1      43.134  22.607  27.881  1.00  0.00     0.247 C 
ATOM     61  H   UNL A   1      44.609  22.907  29.212  1.00  0.00     0.163 HD
ATOM     62  O   UNL A   1      42.498  21.857  28.623  1.00  0.00    -0.272 OA
BRANCH  60  63
ATOM     63  C   UNL A   1      42.880  22.687  26.342  1.00  0.00     0.202 C 
BRANCH  63  64
ATOM     64  C   UNL A   1      43.367  21.385  25.765  1.00  0.00    -0.016 A 
ATOM     65  C   UNL A   1      42.589  20.238  25.915  1.00  0.00     0.006 A 
ATOM     66  C   UNL A   1      44.585  21.310  25.062  1.00  0.00     0.006 A 
ATOM     67  C   UNL A   1      43.066  19.021  25.458  1.00  0.00     0.000 A 
ATOM     68  C   UNL A   1      45.077  20.075  24.644  1.00  0.00     0.000 A 
ATOM     69  C   UNL A   1      44.327  18.926  24.872  1.00  0.00     0.000 A 
ENDBRANCH  63  64
BRANCH  63  70
ATOM     70  N   UNL A   1      41.478  22.979  26.039  1.00  0.00    -0.340 N 
ATOM     71  C   UNL A   1      40.462  23.526  26.754  1.00  0.00     0.224 C 
ATOM     72  H   UNL A   1      41.217  22.726  25.124  1.00  0.00     0.164 HD
ATOM     73  O   UNL A   1      39.335  23.086  26.483  1.00  0.00    -0.275 OA
BRANCH  71  74
ATOM     74  C   UNL A   1      40.568  24.648  27.813  1.00  0.00     0.078 C 
ATOM     75  C   UNL A   1      41.647  25.696  27.585  1.00  0.00     0.014 C 
ATOM     76  C   UNL A   1      39.234  25.232  28.272  1.00  0.00     0.014 C 
ATOM     77  C   UNL A   1      41.789  26.577  28.835  1.00  0.00     0.006 C 
ATOM     78  C   UNL A   1      39.251  26.505  29.132  1.00  0.00     0.006 C 
ATOM     79  C   UNL A   1      40.514  27.376  29.177  1.00  0.00     0.008 C 
BRANCH  79  80
ATOM     80  C   UNL A   1      40.584  28.733  28.431  1.00  0.00     0.119 C 
BRANCH  80  81
ATOM     81  N   UNL A   1      40.681  29.986  29.150  1.00  0.00    -0.351 N 
ATOM     82  C   UNL A   1      39.713  30.574  29.943  1.00  0.00     0.278 C 
ATOM     83  H   UNL A   1      41.532  30.473  29.066  1.00  0.00     0.163 HD
ATOM     84  O   UNL A   1      40.114  31.267  30.886  1.00  0.00    -0.268 OA
BRANCH  82  85
ATOM     85  C   UNL A   1      38.178  30.408  29.705  1.00  0.00     0.277 C 
ATOM     86  C   UNL A   1      37.788  29.883  28.293  1.00  0.00     0.111 C 
ATOM     87  N   UNL A   1      37.416  31.573  30.207  1.00  0.00    -0.332 N 
ATOM     88  C   UNL A   1      36.328  30.179  27.973  1.00  0.00    -0.033 A 
ATOM     89  C   UNL A   1      36.753  32.324  29.149  1.00  0.00     0.298 C 
ATOM     90  H   UNL A   1      38.059  32.197  30.693  1.00  0.00     0.347 HD
ATOM     91  H   UNL A   1      36.688  31.215  30.826  1.00  0.00     0.347 HD
ATOM     92  C   UNL A   1      35.478  29.303  27.296  1.00  0.00     0.004 A 
ATOM     93  C   UNL A   1      35.826  31.426  28.391  1.00  0.00     0.010 A 
ATOM     94  C   UNL A   1      34.148  29.670  27.051  1.00  0.00     0.000 A 
ATOM     95  C   UNL A   1      34.513  31.806  28.108  1.00  0.00     0.010 A 
ATOM     96  C   UNL A   1      33.670  30.921  27.447  1.00  0.00     0.001 A 
ENDBRANCH  82  85
ENDBRANCH  80  81
ENDBRANCH  79  80
ENDBRANCH  71  74
ENDBRANCH  63  70
ENDBRANCH  60  63
ENDBRANCH   1  59
TORSDOF 17
ENDMDL
