MODEL 1
REMARK VINA RESULT:     -12.0      0.000      0.000
REMARK SMILES C[C@H]1CCCC[C@H]1[N@H+]1[C@@H](C(=O)NCCCCNC(=O)c2ccc(-c3c4nc(c(-c5ccccc5)c5ccc([nH]5)c(-c5ccccc5)c5nc(c(-c6ccccc6)c6ccc3[nH]6)C=C5)C=C4)cc2)CC[C@@H]2CCCC[C@@H]21
REMARK SMILES IDX 15 1 14 2 13 3 12 4 10 5 11 6 9 8 8 9 75 10 68 12 70 13
REMARK SMILES IDX 74 14 69 15 71 16 73 17 72 18 7 19 1 20 2 21 3 22 4 23 6 24
REMARK SMILES IDX 5 25 16 26 17 27 18 28 19 30 20 31 21 32 67 33 22 34 66 35
REMARK SMILES IDX 23 36 24 37 25 38 60 39 26 40 65 41 59 42 61 43 27 44 64 45
REMARK SMILES IDX 58 46 57 47 28 49 50 50 35 51 49 52 36 53 39 54 48 55 62 56
REMARK SMILES IDX 37 57 38 58 47 60 63 61 40 62 29 63 30 64 34 65 31 66 33 67
REMARK SMILES IDX 32 68 51 69 52 70 56 71 53 72 55 73 54 74 41 75 42 76 46 77
REMARK SMILES IDX 43 78 45 79 44 80
REMARK H PARENT 12 7 8 11 17 29 61 48 39 59
REMARK Flexibility Score: inf
ROOT
ATOM      1  C   UNL A   1      32.928  28.810  25.810  1.00  0.00     0.023 C 
ENDROOT
BRANCH   1   2
ATOM      2  C   UNL A   1      33.771  28.133  24.733  1.00  0.00     0.023 C 
BRANCH   2   3
ATOM      3  C   UNL A   1      33.342  28.428  23.299  1.00  0.00     0.116 C 
BRANCH   3   4
ATOM      4  N   UNL A   1      33.746  27.415  22.330  1.00  0.00    -0.351 N 
ATOM      5  C   UNL A   1      33.196  26.179  22.063  1.00  0.00     0.278 C 
ATOM      6  O   UNL A   1      33.507  25.627  21.005  1.00  0.00    -0.268 OA
ATOM      7  H   UNL A   1      34.530  27.649  21.784  1.00  0.00     0.163 HD
BRANCH   5   8
ATOM      8  C   UNL A   1      32.159  25.590  23.007  1.00  0.00     0.274 C 
ATOM      9  N   UNL A   1      32.331  24.233  23.612  1.00  0.00    -0.319 N 
ATOM     10  C   UNL A   1      31.080  23.831  24.342  1.00  0.00     0.188 C 
ATOM     11  H   UNL A   1      33.114  24.421  24.239  1.00  0.00     0.349 HD
ATOM     12  C   UNL A   1      30.721  25.893  22.581  1.00  0.00     0.076 C 
ATOM     13  C   UNL A   1      30.330  25.048  24.957  1.00  0.00     0.048 C 
ATOM     14  C   UNL A   1      31.216  22.771  25.467  1.00  0.00     0.065 C 
ATOM     15  C   UNL A   1      29.863  26.015  23.849  1.00  0.00     0.016 C 
ATOM     16  C   UNL A   1      31.158  25.718  26.089  1.00  0.00     0.010 C 
ATOM     17  C   UNL A   1      31.423  23.347  26.871  1.00  0.00     0.006 C 
ATOM     18  C   UNL A   1      32.064  24.722  26.826  1.00  0.00     0.001 C 
BRANCH   9  19
ATOM     19  C   UNL A   1      33.077  23.121  22.959  1.00  0.00     0.187 C 
ATOM     20  C   UNL A   1      35.590  23.582  23.625  1.00  0.00     0.014 C 
ATOM     21  C   UNL A   1      34.446  22.586  23.468  1.00  0.00     0.044 C 
ATOM     22  C   UNL A   1      34.263  21.738  24.718  1.00  0.00     0.009 C 
ATOM     23  C   UNL A   1      33.464  20.478  24.411  1.00  0.00     0.001 C 
ATOM     24  C   UNL A   1      32.254  21.872  22.541  1.00  0.00     0.065 C 
ATOM     25  C   UNL A   1      32.297  20.627  23.435  1.00  0.00     0.006 C 
ENDBRANCH   9  19
ENDBRANCH   5   8
ENDBRANCH   3   4
ENDBRANCH   2   3
ENDBRANCH   1   2
BRANCH   1  26
ATOM     26  C   UNL A   1      33.584  28.896  27.185  1.00  0.00     0.116 C 
BRANCH  26  27
ATOM     27  N   UNL A   1      33.621  30.251  27.718  1.00  0.00    -0.352 N 
ATOM     28  C   UNL A   1      34.627  30.905  28.386  1.00  0.00     0.251 C 
ATOM     29  H   UNL A   1      32.803  30.778  27.575  1.00  0.00     0.163 HD
ATOM     30  O   UNL A   1      34.417  32.015  28.873  1.00  0.00    -0.269 OA
BRANCH  28  31
ATOM     31  C   UNL A   1      35.950  30.269  28.555  1.00  0.00     0.039 A 
ATOM     32  C   UNL A   1      36.850  30.294  27.486  1.00  0.00     0.014 A 
ATOM     33  C   UNL A   1      36.307  29.648  29.756  1.00  0.00     0.014 A 
ATOM     34  C   UNL A   1      38.133  29.765  27.647  1.00  0.00     0.010 A 
ATOM     35  C   UNL A   1      37.611  29.195  29.940  1.00  0.00     0.010 A 
ATOM     36  C   UNL A   1      38.539  29.250  28.889  1.00  0.00    -0.014 A 
BRANCH  36  37
ATOM     37  C   UNL A   1      39.931  28.779  29.110  1.00  0.00     0.031 A 
ATOM     38  C   UNL A   1      40.959  29.700  29.709  1.00  0.00     0.074 A 
ATOM     39  C   UNL A   1      40.285  27.538  28.720  1.00  0.00     0.049 A 
ATOM     40  N   UNL A   1      42.234  29.488  29.919  1.00  0.00    -0.248 NA
ATOM     41  C   UNL A   1      40.502  31.042  30.106  1.00  0.00     0.031 C 
ATOM     42  C   UNL A   1      39.394  26.555  28.098  1.00  0.00     0.029 A 
ATOM     43  N   UNL A   1      41.496  26.892  28.784  1.00  0.00    -0.354 N 
ATOM     44  C   UNL A   1      42.730  30.667  30.461  1.00  0.00     0.074 A 
ATOM     45  C   UNL A   1      41.633  31.609  30.500  1.00  0.00     0.031 C 
ATOM     46  C   UNL A   1      40.080  25.425  27.863  1.00  0.00     0.029 A 
ATOM     47  C   UNL A   1      41.468  25.616  28.271  1.00  0.00     0.049 A 
ATOM     48  H   UNL A   1      42.307  27.303  29.161  1.00  0.00     0.167 HD
ATOM     49  C   UNL A   1      43.979  30.936  30.909  1.00  0.00     0.031 A 
ATOM     50  C   UNL A   1      42.452  24.707  28.133  1.00  0.00     0.031 A 
ATOM     51  C   UNL A   1      45.072  30.000  30.875  1.00  0.00     0.049 A 
ATOM     52  C   UNL A   1      43.841  25.050  28.599  1.00  0.00     0.074 A 
ATOM     53  C   UNL A   1      46.364  30.170  31.340  1.00  0.00     0.029 A 
ATOM     54  N   UNL A   1      45.002  28.722  30.344  1.00  0.00    -0.354 N 
ATOM     55  N   UNL A   1      44.275  26.148  29.168  1.00  0.00    -0.248 NA
ATOM     56  C   UNL A   1      44.874  24.021  28.413  1.00  0.00     0.031 C 
ATOM     57  C   UNL A   1      47.092  29.015  31.041  1.00  0.00     0.029 A 
ATOM     58  C   UNL A   1      46.235  28.101  30.450  1.00  0.00     0.049 A 
ATOM     59  H   UNL A   1      44.197  28.317  29.951  1.00  0.00     0.167 HD
ATOM     60  C   UNL A   1      45.619  25.927  29.440  1.00  0.00     0.074 A 
ATOM     61  C   UNL A   1      45.923  24.585  28.991  1.00  0.00     0.031 C 
ATOM     62  C   UNL A   1      46.522  26.761  30.009  1.00  0.00     0.031 A 
BRANCH  49  63
ATOM     63  C   UNL A   1      44.237  32.304  31.479  1.00  0.00    -0.014 A 
ATOM     64  C   UNL A   1      44.646  33.365  30.656  1.00  0.00     0.009 A 
ATOM     65  C   UNL A   1      44.010  32.550  32.841  1.00  0.00     0.009 A 
ATOM     66  C   UNL A   1      44.847  34.640  31.192  1.00  0.00     0.001 A 
ATOM     67  C   UNL A   1      44.182  33.832  33.369  1.00  0.00     0.001 A 
ATOM     68  C   UNL A   1      44.608  34.873  32.546  1.00  0.00     0.000 A 
ENDBRANCH  49  63
BRANCH  50  69
ATOM     69  C   UNL A   1      42.173  23.379  27.522  1.00  0.00    -0.014 A 
ATOM     70  C   UNL A   1      41.614  22.342  28.286  1.00  0.00     0.009 A 
ATOM     71  C   UNL A   1      42.507  23.125  26.182  1.00  0.00     0.009 A 
ATOM     72  C   UNL A   1      41.438  21.070  27.736  1.00  0.00     0.001 A 
ATOM     73  C   UNL A   1      42.296  21.862  25.624  1.00  0.00     0.001 A 
ATOM     74  C   UNL A   1      41.776  20.832  26.406  1.00  0.00     0.000 A 
ENDBRANCH  50  69
BRANCH  62  75
ATOM     75  C   UNL A   1      47.912  26.230  30.228  1.00  0.00    -0.014 A 
ATOM     76  C   UNL A   1      48.874  26.244  29.206  1.00  0.00     0.009 A 
ATOM     77  C   UNL A   1      48.273  25.741  31.494  1.00  0.00     0.009 A 
ATOM     78  C   UNL A   1      50.157  25.745  29.437  1.00  0.00     0.001 A 
ATOM     79  C   UNL A   1      49.567  25.273  31.731  1.00  0.00     0.001 A 
ATOM     80  C   UNL A   1      50.504  25.266  30.699  1.00  0.00     0.000 A 
ENDBRANCH  62  75
ENDBRANCH  36  37
ENDBRANCH  28  31
ENDBRANCH  26  27
ENDBRANCH   1  26
TORSDOF 12
ENDMDL
MODEL 2
REMARK VINA RESULT:     -11.8      0.200      5.901
REMARK SMILES C[C@H]1CCCC[C@H]1[N@H+]1[C@@H](C(=O)NCCCCNC(=O)c2ccc(-c3c4nc(c(-c5ccccc5)c5ccc([nH]5)c(-c5ccccc5)c5nc(c(-c6ccccc6)c6ccc3[nH]6)C=C5)C=C4)cc2)CC[C@@H]2CCCC[C@@H]21
REMARK SMILES IDX 15 1 14 2 13 3 12 4 10 5 11 6 9 8 8 9 75 10 68 12 70 13
REMARK SMILES IDX 74 14 69 15 71 16 73 17 72 18 7 19 1 20 2 21 3 22 4 23 6 24
REMARK SMILES IDX 5 25 16 26 17 27 18 28 19 30 20 31 21 32 67 33 22 34 66 35
REMARK SMILES IDX 23 36 24 37 25 38 60 39 26 40 65 41 59 42 61 43 27 44 64 45
REMARK SMILES IDX 58 46 57 47 28 49 50 50 35 51 49 52 36 53 39 54 48 55 62 56
REMARK SMILES IDX 37 57 38 58 47 60 63 61 40 62 29 63 30 64 34 65 31 66 33 67
REMARK SMILES IDX 32 68 51 69 52 70 56 71 53 72 55 73 54 74 41 75 42 76 46 77
REMARK SMILES IDX 43 78 45 79 44 80
REMARK H PARENT 12 7 8 11 17 29 61 48 39 59
REMARK Flexibility Score: inf
ROOT
ATOM      1  C   UNL A   1      32.960  28.676  25.886  1.00  0.00     0.023 C 
ENDROOT
BRANCH   1   2
ATOM      2  C   UNL A   1      33.877  28.238  24.748  1.00  0.00     0.023 C 
BRANCH   2   3
ATOM      3  C   UNL A   1      33.304  28.431  23.348  1.00  0.00     0.116 C 
BRANCH   3   4
ATOM      4  N   UNL A   1      33.723  27.422  22.382  1.00  0.00    -0.351 N 
ATOM      5  C   UNL A   1      33.181  26.184  22.106  1.00  0.00     0.278 C 
ATOM      6  O   UNL A   1      33.506  25.636  21.050  1.00  0.00    -0.268 OA
ATOM      7  H   UNL A   1      34.514  27.660  21.846  1.00  0.00     0.163 HD
BRANCH   5   8
ATOM      8  C   UNL A   1      32.134  25.590  23.036  1.00  0.00     0.274 C 
ATOM      9  N   UNL A   1      32.298  24.228  23.630  1.00  0.00    -0.319 N 
ATOM     10  C   UNL A   1      31.040  23.823  24.346  1.00  0.00     0.188 C 
ATOM     11  H   UNL A   1      33.076  24.408  24.265  1.00  0.00     0.349 HD
ATOM     12  C   UNL A   1      30.701  25.900  22.600  1.00  0.00     0.076 C 
ATOM     13  C   UNL A   1      30.288  25.036  24.965  1.00  0.00     0.048 C 
ATOM     14  C   UNL A   1      31.163  22.752  25.462  1.00  0.00     0.065 C 
ATOM     15  C   UNL A   1      29.832  26.014  23.862  1.00  0.00     0.016 C 
ATOM     16  C   UNL A   1      31.108  25.693  26.110  1.00  0.00     0.010 C 
ATOM     17  C   UNL A   1      31.360  23.315  26.873  1.00  0.00     0.006 C 
ATOM     18  C   UNL A   1      32.005  24.689  26.845  1.00  0.00     0.001 C 
BRANCH   9  19
ATOM     19  C   UNL A   1      33.046  23.119  22.973  1.00  0.00     0.187 C 
ATOM     20  C   UNL A   1      35.566  23.626  23.579  1.00  0.00     0.014 C 
ATOM     21  C   UNL A   1      34.434  22.611  23.458  1.00  0.00     0.044 C 
ATOM     22  C   UNL A   1      34.292  21.776  24.722  1.00  0.00     0.009 C 
ATOM     23  C   UNL A   1      33.506  20.499  24.446  1.00  0.00     0.001 C 
ATOM     24  C   UNL A   1      32.234  21.853  22.588  1.00  0.00     0.065 C 
ATOM     25  C   UNL A   1      32.315  20.619  23.495  1.00  0.00     0.006 C 
ENDBRANCH   9  19
ENDBRANCH   5   8
ENDBRANCH   3   4
ENDBRANCH   2   3
ENDBRANCH   1   2
BRANCH   1  26
ATOM     26  C   UNL A   1      33.630  28.780  27.254  1.00  0.00     0.116 C 
BRANCH  26  27
ATOM     27  N   UNL A   1      33.631  30.135  27.789  1.00  0.00    -0.352 N 
ATOM     28  C   UNL A   1      34.625  30.822  28.439  1.00  0.00     0.251 C 
ATOM     29  H   UNL A   1      32.792  30.633  27.664  1.00  0.00     0.163 HD
ATOM     30  O   UNL A   1      34.387  31.923  28.932  1.00  0.00    -0.269 OA
BRANCH  28  31
ATOM     31  C   UNL A   1      35.973  30.232  28.580  1.00  0.00     0.039 A 
ATOM     32  C   UNL A   1      36.843  30.271  27.487  1.00  0.00     0.014 A 
ATOM     33  C   UNL A   1      36.383  29.642  29.779  1.00  0.00     0.014 A 
ATOM     34  C   UNL A   1      38.147  29.787  27.620  1.00  0.00     0.010 A 
ATOM     35  C   UNL A   1      37.705  29.234  29.934  1.00  0.00     0.010 A 
ATOM     36  C   UNL A   1      38.603  29.303  28.858  1.00  0.00    -0.014 A 
BRANCH  36  37
ATOM     37  C   UNL A   1      40.015  28.882  29.047  1.00  0.00     0.031 A 
ATOM     38  C   UNL A   1      40.454  27.497  28.655  1.00  0.00     0.074 A 
ATOM     39  C   UNL A   1      40.892  29.727  29.626  1.00  0.00     0.049 A 
ATOM     40  N   UNL A   1      41.626  26.930  28.802  1.00  0.00    -0.248 NA
ATOM     41  C   UNL A   1      39.442  26.627  28.033  1.00  0.00     0.031 C 
ATOM     42  C   UNL A   1      40.589  31.086  30.082  1.00  0.00     0.029 A 
ATOM     43  N   UNL A   1      42.220  29.564  29.936  1.00  0.00    -0.354 N 
ATOM     44  C   UNL A   1      41.488  25.641  28.302  1.00  0.00     0.074 A 
ATOM     45  C   UNL A   1      40.108  25.490  27.896  1.00  0.00     0.031 C 
ATOM     46  C   UNL A   1      41.703  31.640  30.586  1.00  0.00     0.029 A 
ATOM     47  C   UNL A   1      42.785  30.663  30.536  1.00  0.00     0.049 A 
ATOM     48  H   UNL A   1      42.720  28.737  29.746  1.00  0.00     0.167 HD
ATOM     49  C   UNL A   1      42.429  24.677  28.170  1.00  0.00     0.031 A 
ATOM     50  C   UNL A   1      44.033  30.860  31.005  1.00  0.00     0.031 A 
ATOM     51  C   UNL A   1      43.803  24.825  28.570  1.00  0.00     0.049 A 
ATOM     52  C   UNL A   1      45.046  29.754  30.885  1.00  0.00     0.074 A 
ATOM     53  C   UNL A   1      44.839  23.916  28.441  1.00  0.00     0.029 A 
ATOM     54  N   UNL A   1      44.333  25.952  29.177  1.00  0.00    -0.354 N 
ATOM     55  N   UNL A   1      44.913  28.565  30.351  1.00  0.00    -0.248 NA
ATOM     56  C   UNL A   1      46.387  30.025  31.424  1.00  0.00     0.031 C 
ATOM     57  C   UNL A   1      45.983  24.471  29.021  1.00  0.00     0.029 A 
ATOM     58  C   UNL A   1      45.676  25.753  29.450  1.00  0.00     0.049 A 
ATOM     59  H   UNL A   1      43.830  26.772  29.383  1.00  0.00     0.167 HD
ATOM     60  C   UNL A   1      46.160  27.961  30.458  1.00  0.00     0.074 A 
ATOM     61  C   UNL A   1      47.039  28.923  31.088  1.00  0.00     0.031 C 
ATOM     62  C   UNL A   1      46.543  26.721  30.068  1.00  0.00     0.031 A 
BRANCH  49  63
ATOM     63  C   UNL A   1      42.006  23.366  27.566  1.00  0.00    -0.014 A 
ATOM     64  C   UNL A   1      42.225  23.092  26.206  1.00  0.00     0.009 A 
ATOM     65  C   UNL A   1      41.440  22.370  28.376  1.00  0.00     0.009 A 
ATOM     66  C   UNL A   1      41.861  21.856  25.665  1.00  0.00     0.001 A 
ATOM     67  C   UNL A   1      41.106  21.124  27.840  1.00  0.00     0.001 A 
ATOM     68  C   UNL A   1      41.309  20.872  26.484  1.00  0.00     0.000 A 
ENDBRANCH  49  63
BRANCH  50  69
ATOM     69  C   UNL A   1      44.406  32.154  31.640  1.00  0.00    -0.014 A 
ATOM     70  C   UNL A   1      44.218  32.355  33.016  1.00  0.00     0.009 A 
ATOM     71  C   UNL A   1      44.909  33.211  30.865  1.00  0.00     0.009 A 
ATOM     72  C   UNL A   1      44.482  33.599  33.594  1.00  0.00     0.001 A 
ATOM     73  C   UNL A   1      45.207  34.443  31.452  1.00  0.00     0.001 A 
ATOM     74  C   UNL A   1      44.979  34.640  32.813  1.00  0.00     0.000 A 
ENDBRANCH  50  69
BRANCH  62  75
ATOM     75  C   UNL A   1      47.987  26.350  30.265  1.00  0.00    -0.014 A 
ATOM     76  C   UNL A   1      48.442  25.779  31.464  1.00  0.00     0.009 A 
ATOM     77  C   UNL A   1      48.899  26.543  29.215  1.00  0.00     0.009 A 
ATOM     78  C   UNL A   1      49.788  25.444  31.619  1.00  0.00     0.001 A 
ATOM     79  C   UNL A   1      50.238  26.176  29.361  1.00  0.00     0.001 A 
ATOM     80  C   UNL A   1      50.683  25.636  30.567  1.00  0.00     0.000 A 
ENDBRANCH  62  75
ENDBRANCH  36  37
ENDBRANCH  28  31
ENDBRANCH  26  27
ENDBRANCH   1  26
TORSDOF 12
ENDMDL
MODEL 3
REMARK VINA RESULT:     -11.8      2.623      7.763
REMARK SMILES C[C@H]1CCCC[C@H]1[N@H+]1[C@@H](C(=O)NCCCCNC(=O)c2ccc(-c3c4nc(c(-c5ccccc5)c5ccc([nH]5)c(-c5ccccc5)c5nc(c(-c6ccccc6)c6ccc3[nH]6)C=C5)C=C4)cc2)CC[C@@H]2CCCC[C@@H]21
REMARK SMILES IDX 15 1 14 2 13 3 12 4 10 5 11 6 9 8 8 9 75 10 68 12 70 13
REMARK SMILES IDX 74 14 69 15 71 16 73 17 72 18 7 19 1 20 2 21 3 22 4 23 6 24
REMARK SMILES IDX 5 25 16 26 17 27 18 28 19 30 20 31 21 32 67 33 22 34 66 35
REMARK SMILES IDX 23 36 24 37 25 38 60 39 26 40 65 41 59 42 61 43 27 44 64 45
REMARK SMILES IDX 58 46 57 47 28 49 50 50 35 51 49 52 36 53 39 54 48 55 62 56
REMARK SMILES IDX 37 57 38 58 47 60 63 61 40 62 29 63 30 64 34 65 31 66 33 67
REMARK SMILES IDX 32 68 51 69 52 70 56 71 53 72 55 73 54 74 41 75 42 76 46 77
REMARK SMILES IDX 43 78 45 79 44 80
REMARK H PARENT 12 7 8 11 17 29 61 48 39 59
REMARK Flexibility Score: inf
ROOT
ATOM      1  C   UNL A   1      35.840  22.686  25.473  1.00  0.00     0.023 C 
ENDROOT
BRANCH   1   2
ATOM      2  C   UNL A   1      34.895  23.291  26.507  1.00  0.00     0.023 C 
BRANCH   2   3
ATOM      3  C   UNL A   1      33.788  22.360  26.991  1.00  0.00     0.116 C 
BRANCH   3   4
ATOM      4  N   UNL A   1      32.574  23.043  27.424  1.00  0.00    -0.351 N 
ATOM      5  C   UNL A   1      31.548  23.580  26.675  1.00  0.00     0.278 C 
ATOM      6  O   UNL A   1      30.486  23.831  27.251  1.00  0.00    -0.268 OA
ATOM      7  H   UNL A   1      32.472  23.135  28.399  1.00  0.00     0.163 HD
BRANCH   5   8
ATOM      8  C   UNL A   1      31.709  23.741  25.172  1.00  0.00     0.274 C 
ATOM      9  N   UNL A   1      31.442  25.045  24.491  1.00  0.00    -0.319 N 
ATOM     10  C   UNL A   1      31.495  24.868  22.999  1.00  0.00     0.188 C 
ATOM     11  H   UNL A   1      32.223  25.593  24.854  1.00  0.00     0.349 HD
ATOM     12  C   UNL A   1      31.218  22.525  24.383  1.00  0.00     0.076 C 
ATOM     13  C   UNL A   1      32.504  23.767  22.563  1.00  0.00     0.048 C 
ATOM     14  C   UNL A   1      31.797  26.123  22.138  1.00  0.00     0.065 C 
ATOM     15  C   UNL A   1      32.085  22.392  23.122  1.00  0.00     0.016 C 
ATOM     16  C   UNL A   1      33.969  24.174  22.886  1.00  0.00     0.010 C 
ATOM     17  C   UNL A   1      33.278  26.333  21.807  1.00  0.00     0.006 C 
ATOM     18  C   UNL A   1      34.182  25.694  22.845  1.00  0.00     0.001 C 
BRANCH   9  19
ATOM     19  C   UNL A   1      30.461  26.053  24.982  1.00  0.00     0.187 C 
ATOM     20  C   UNL A   1      31.783  27.334  26.876  1.00  0.00     0.014 C 
ATOM     21  C   UNL A   1      30.870  27.394  25.656  1.00  0.00     0.044 C 
ATOM     22  C   UNL A   1      31.380  28.385  24.620  1.00  0.00     0.009 C 
ATOM     23  C   UNL A   1      30.273  28.780  23.650  1.00  0.00     0.001 C 
ATOM     24  C   UNL A   1      29.267  26.386  24.048  1.00  0.00     0.065 C 
ATOM     25  C   UNL A   1      29.318  27.670  23.211  1.00  0.00     0.006 C 
ENDBRANCH   9  19
ENDBRANCH   5   8
ENDBRANCH   3   4
ENDBRANCH   2   3
ENDBRANCH   1   2
BRANCH   1  26
ATOM     26  C   UNL A   1      37.146  23.448  25.266  1.00  0.00     0.116 C 
BRANCH  26  27
ATOM     27  N   UNL A   1      38.329  22.633  25.508  1.00  0.00    -0.352 N 
ATOM     28  C   UNL A   1      39.505  22.958  26.136  1.00  0.00     0.251 C 
ATOM     29  H   UNL A   1      38.275  21.711  25.171  1.00  0.00     0.163 HD
ATOM     30  O   UNL A   1      40.443  22.163  26.127  1.00  0.00    -0.269 OA
BRANCH  28  31
ATOM     31  C   UNL A   1      39.664  24.271  26.794  1.00  0.00     0.039 A 
ATOM     32  C   UNL A   1      39.130  24.452  28.074  1.00  0.00     0.014 A 
ATOM     33  C   UNL A   1      40.332  25.323  26.161  1.00  0.00     0.014 A 
ATOM     34  C   UNL A   1      39.333  25.660  28.745  1.00  0.00     0.010 A 
ATOM     35  C   UNL A   1      40.602  26.495  26.862  1.00  0.00     0.010 A 
ATOM     36  C   UNL A   1      40.107  26.677  28.163  1.00  0.00    -0.014 A 
BRANCH  36  37
ATOM     37  C   UNL A   1      40.422  27.926  28.903  1.00  0.00     0.031 A 
ATOM     38  C   UNL A   1      41.726  28.066  29.640  1.00  0.00     0.074 A 
ATOM     39  C   UNL A   1      39.508  28.917  28.959  1.00  0.00     0.049 A 
ATOM     40  N   UNL A   1      42.148  29.053  30.391  1.00  0.00    -0.248 NA
ATOM     41  C   UNL A   1      42.672  26.943  29.539  1.00  0.00     0.031 C 
ATOM     42  C   UNL A   1      38.192  28.897  28.315  1.00  0.00     0.029 A 
ATOM     43  N   UNL A   1      39.546  30.134  29.594  1.00  0.00    -0.354 N 
ATOM     44  C   UNL A   1      43.399  28.667  30.856  1.00  0.00     0.074 A 
ATOM     45  C   UNL A   1      43.646  27.335  30.348  1.00  0.00     0.031 C 
ATOM     46  C   UNL A   1      37.562  30.055  28.565  1.00  0.00     0.029 A 
ATOM     47  C   UNL A   1      38.404  30.880  29.425  1.00  0.00     0.049 A 
ATOM     48  H   UNL A   1      40.318  30.442  30.121  1.00  0.00     0.167 HD
ATOM     49  C   UNL A   1      44.274  29.365  31.617  1.00  0.00     0.031 A 
ATOM     50  C   UNL A   1      38.066  32.088  29.916  1.00  0.00     0.031 A 
ATOM     51  C   UNL A   1      44.032  30.691  32.121  1.00  0.00     0.049 A 
ATOM     52  C   UNL A   1      39.041  32.821  30.797  1.00  0.00     0.074 A 
ATOM     53  C   UNL A   1      44.876  31.494  32.869  1.00  0.00     0.029 A 
ATOM     54  N   UNL A   1      42.862  31.408  31.930  1.00  0.00    -0.354 N 
ATOM     55  N   UNL A   1      40.246  32.466  31.173  1.00  0.00    -0.248 NA
ATOM     56  C   UNL A   1      38.612  34.130  31.311  1.00  0.00     0.031 C 
ATOM     57  C   UNL A   1      44.195  32.675  33.179  1.00  0.00     0.029 A 
ATOM     58  C   UNL A   1      42.953  32.635  32.566  1.00  0.00     0.049 A 
ATOM     59  H   UNL A   1      42.084  31.093  31.418  1.00  0.00     0.167 HD
ATOM     60  C   UNL A   1      40.730  33.522  31.936  1.00  0.00     0.074 A 
ATOM     61  C   UNL A   1      39.698  34.536  31.952  1.00  0.00     0.031 C 
ATOM     62  C   UNL A   1      41.923  33.640  32.567  1.00  0.00     0.031 A 
BRANCH  49  63
ATOM     63  C   UNL A   1      45.584  28.708  31.956  1.00  0.00    -0.014 A 
ATOM     64  C   UNL A   1      45.719  27.912  33.104  1.00  0.00     0.009 A 
ATOM     65  C   UNL A   1      46.678  28.835  31.086  1.00  0.00     0.009 A 
ATOM     66  C   UNL A   1      46.931  27.278  33.388  1.00  0.00     0.001 A 
ATOM     67  C   UNL A   1      47.879  28.175  31.356  1.00  0.00     0.001 A 
ATOM     68  C   UNL A   1      48.006  27.404  32.510  1.00  0.00     0.000 A 
ENDBRANCH  49  63
BRANCH  50  69
ATOM     69  C   UNL A   1      36.742  32.689  29.600  1.00  0.00    -0.014 A 
ATOM     70  C   UNL A   1      35.669  32.570  30.496  1.00  0.00     0.009 A 
ATOM     71  C   UNL A   1      36.530  33.347  28.377  1.00  0.00     0.009 A 
ATOM     72  C   UNL A   1      34.403  33.055  30.158  1.00  0.00     0.001 A 
ATOM     73  C   UNL A   1      35.272  33.863  28.057  1.00  0.00     0.001 A 
ATOM     74  C   UNL A   1      34.207  33.703  28.941  1.00  0.00     0.000 A 
ENDBRANCH  50  69
BRANCH  62  75
ATOM     75  C   UNL A   1      42.199  34.932  33.285  1.00  0.00    -0.014 A 
ATOM     76  C   UNL A   1      43.000  35.933  32.714  1.00  0.00     0.009 A 
ATOM     77  C   UNL A   1      41.616  35.163  34.541  1.00  0.00     0.009 A 
ATOM     78  C   UNL A   1      43.241  37.123  33.403  1.00  0.00     0.001 A 
ATOM     79  C   UNL A   1      41.831  36.367  35.213  1.00  0.00     0.001 A 
ATOM     80  C   UNL A   1      42.652  37.342  34.648  1.00  0.00     0.000 A 
ENDBRANCH  62  75
ENDBRANCH  36  37
ENDBRANCH  28  31
ENDBRANCH  26  27
ENDBRANCH   1  26
TORSDOF 12
ENDMDL
