MODEL 1
REMARK VINA RESULT:     -12.2      0.000      0.000
REMARK SMILES Cc1c(/C=C/C(=O)NCCCCNC(=O)c2ccc(-c3c4nc(c(-c5ccccc5)c5ccc([nH]5)c(-c5ccccc5)c5nc(c(-c6ccccc6)c6ccc3[nH]6)C=C5)C=C4)cc2)cccc1C(=O)N1C[C@@H](C)[C@@H](C)C1
REMARK SMILES IDX 10 1 9 2 8 3 6 4 7 5 5 7 4 8 3 9 1 10 2 11 67 12 64 13 66 14
REMARK SMILES IDX 65 15 68 16 69 17 70 18 71 19 76 20 72 21 74 22 73 23 75 24
REMARK SMILES IDX 11 25 12 26 13 27 14 28 15 30 16 31 17 32 63 33 18 34 62 35
REMARK SMILES IDX 19 36 20 37 21 38 56 39 22 40 61 41 55 42 57 43 23 44 60 45
REMARK SMILES IDX 54 46 53 47 24 49 46 50 31 51 45 52 32 53 35 54 44 55 58 56
REMARK SMILES IDX 33 57 34 58 43 60 59 61 36 62 25 63 26 64 30 65 27 66 29 67
REMARK SMILES IDX 28 68 47 69 48 70 52 71 49 72 51 73 50 74 37 75 38 76 42 77
REMARK SMILES IDX 39 78 41 79 40 80
REMARK H PARENT 8 6 13 29 57 48 35 59
REMARK Flexibility Score: inf
ROOT
ATOM      1  C   UNL A   1      32.358  30.706  26.521  1.00  0.00     0.023 C 
ENDROOT
BRANCH   1   2
ATOM      2  C   UNL A   1      31.931  29.842  25.324  1.00  0.00     0.116 C 
BRANCH   2   3
ATOM      3  N   UNL A   1      32.977  29.713  24.320  1.00  0.00    -0.353 N 
ATOM      4  C   UNL A   1      33.501  28.593  23.742  1.00  0.00     0.243 C 
ATOM      5  O   UNL A   1      34.272  28.688  22.791  1.00  0.00    -0.270 OA
ATOM      6  H   UNL A   1      33.365  30.563  24.010  1.00  0.00     0.163 HD
BRANCH   4   7
ATOM      7  C   UNL A   1      33.068  27.262  24.215  1.00  0.00     0.072 C 
ATOM      8  C   UNL A   1      33.666  26.675  25.262  1.00  0.00     0.014 C 
BRANCH   8   9
ATOM      9  C   UNL A   1      33.266  25.380  25.839  1.00  0.00    -0.022 A 
ATOM     10  C   UNL A   1      35.474  24.370  25.119  1.00  0.00     0.046 C 
ATOM     11  C   UNL A   1      34.112  24.235  25.755  1.00  0.00    -0.031 A 
ATOM     12  C   UNL A   1      33.639  23.001  26.270  1.00  0.00     0.043 A 
ATOM     13  C   UNL A   1      31.979  25.266  26.386  1.00  0.00     0.008 A 
ATOM     14  C   UNL A   1      32.349  22.929  26.827  1.00  0.00     0.014 A 
ATOM     15  C   UNL A   1      31.524  24.050  26.884  1.00  0.00     0.001 A 
BRANCH  12  16
ATOM     16  C   UNL A   1      34.273  21.678  25.989  1.00  0.00     0.254 C 
ATOM     17  O   UNL A   1      35.309  21.413  26.601  1.00  0.00    -0.269 OA
BRANCH  16  18
ATOM     18  N   UNL A   1      33.674  20.750  25.161  1.00  0.00    -0.338 N 
ATOM     19  C   UNL A   1      33.246  21.152  23.835  1.00  0.00     0.123 C 
ATOM     20  C   UNL A   1      33.125  19.458  25.538  1.00  0.00     0.123 C 
ATOM     21  C   UNL A   1      32.151  20.172  23.439  1.00  0.00     0.010 C 
ATOM     22  C   UNL A   1      32.480  18.909  24.253  1.00  0.00     0.010 C 
ATOM     23  C   UNL A   1      32.065  20.003  21.927  1.00  0.00     0.010 C 
ATOM     24  C   UNL A   1      33.410  17.930  23.555  1.00  0.00     0.010 C 
ENDBRANCH  16  18
ENDBRANCH  12  16
ENDBRANCH   8   9
ENDBRANCH   4   7
ENDBRANCH   2   3
ENDBRANCH   1   2
BRANCH   1  25
ATOM     25  C   UNL A   1      33.652  30.268  27.212  1.00  0.00     0.023 C 
BRANCH  25  26
ATOM     26  C   UNL A   1      34.486  31.427  27.738  1.00  0.00     0.116 C 
BRANCH  26  27
ATOM     27  N   UNL A   1      33.727  32.583  28.199  1.00  0.00    -0.352 N 
ATOM     28  C   UNL A   1      34.014  33.467  29.231  1.00  0.00     0.251 C 
ATOM     29  H   UNL A   1      32.892  32.762  27.710  1.00  0.00     0.163 HD
ATOM     30  O   UNL A   1      33.221  34.344  29.524  1.00  0.00    -0.269 OA
BRANCH  28  31
ATOM     31  C   UNL A   1      35.355  33.427  29.878  1.00  0.00     0.039 A 
ATOM     32  C   UNL A   1      36.404  34.103  29.245  1.00  0.00     0.014 A 
ATOM     33  C   UNL A   1      35.625  32.568  30.938  1.00  0.00     0.014 A 
ATOM     34  C   UNL A   1      37.716  33.696  29.476  1.00  0.00     0.010 A 
ATOM     35  C   UNL A   1      36.910  32.086  31.092  1.00  0.00     0.010 A 
ATOM     36  C   UNL A   1      37.943  32.599  30.306  1.00  0.00    -0.014 A 
BRANCH  36  37
ATOM     37  C   UNL A   1      39.204  31.868  30.341  1.00  0.00     0.031 A 
ATOM     38  C   UNL A   1      39.339  30.586  29.635  1.00  0.00     0.074 A 
ATOM     39  C   UNL A   1      40.268  32.394  30.984  1.00  0.00     0.049 A 
ATOM     40  N   UNL A   1      40.216  29.689  29.930  1.00  0.00    -0.248 NA
ATOM     41  C   UNL A   1      38.446  30.194  28.554  1.00  0.00     0.031 C 
ATOM     42  C   UNL A   1      41.658  31.944  30.956  1.00  0.00     0.029 A 
ATOM     43  N   UNL A   1      40.231  33.324  32.022  1.00  0.00    -0.354 N 
ATOM     44  C   UNL A   1      40.196  28.750  28.930  1.00  0.00     0.074 A 
ATOM     45  C   UNL A   1      39.030  29.068  28.137  1.00  0.00     0.031 C 
ATOM     46  C   UNL A   1      42.265  32.352  32.083  1.00  0.00     0.029 A 
ATOM     47  C   UNL A   1      41.243  32.944  32.929  1.00  0.00     0.049 A 
ATOM     48  H   UNL A   1      39.621  34.091  32.106  1.00  0.00     0.167 HD
ATOM     49  C   UNL A   1      41.235  27.879  28.810  1.00  0.00     0.031 A 
ATOM     50  C   UNL A   1      40.914  32.537  34.193  1.00  0.00     0.031 A 
ATOM     51  C   UNL A   1      42.202  28.016  29.898  1.00  0.00     0.049 A 
ATOM     52  C   UNL A   1      41.330  31.116  34.515  1.00  0.00     0.074 A 
ATOM     53  C   UNL A   1      43.451  28.603  30.022  1.00  0.00     0.029 A 
ATOM     54  N   UNL A   1      41.780  27.739  31.189  1.00  0.00    -0.354 N 
ATOM     55  N   UNL A   1      41.843  30.286  33.648  1.00  0.00    -0.248 NA
ATOM     56  C   UNL A   1      41.098  30.482  35.816  1.00  0.00     0.031 C 
ATOM     57  C   UNL A   1      43.764  28.690  31.411  1.00  0.00     0.029 A 
ATOM     58  C   UNL A   1      42.715  28.140  32.123  1.00  0.00     0.049 A 
ATOM     59  H   UNL A   1      40.922  27.313  31.413  1.00  0.00     0.167 HD
ATOM     60  C   UNL A   1      41.969  29.050  34.219  1.00  0.00     0.074 A 
ATOM     61  C   UNL A   1      41.489  29.218  35.578  1.00  0.00     0.031 C 
ATOM     62  C   UNL A   1      42.414  27.962  33.531  1.00  0.00     0.031 A 
BRANCH  49  63
ATOM     63  C   UNL A   1      41.481  27.048  27.576  1.00  0.00    -0.014 A 
ATOM     64  C   UNL A   1      40.820  25.816  27.425  1.00  0.00     0.009 A 
ATOM     65  C   UNL A   1      42.374  27.397  26.550  1.00  0.00     0.009 A 
ATOM     66  C   UNL A   1      41.106  24.947  26.365  1.00  0.00     0.001 A 
ATOM     67  C   UNL A   1      42.699  26.516  25.510  1.00  0.00     0.001 A 
ATOM     68  C   UNL A   1      42.068  25.284  25.423  1.00  0.00     0.000 A 
ENDBRANCH  49  63
BRANCH  50  69
ATOM     69  C   UNL A   1      39.683  33.207  34.715  1.00  0.00    -0.014 A 
ATOM     70  C   UNL A   1      38.437  32.632  34.381  1.00  0.00     0.009 A 
ATOM     71  C   UNL A   1      39.731  34.103  35.790  1.00  0.00     0.009 A 
ATOM     72  C   UNL A   1      37.336  32.789  35.224  1.00  0.00     0.001 A 
ATOM     73  C   UNL A   1      38.592  34.327  36.575  1.00  0.00     0.001 A 
ATOM     74  C   UNL A   1      37.411  33.634  36.320  1.00  0.00     0.000 A 
ENDBRANCH  50  69
BRANCH  62  75
ATOM     75  C   UNL A   1      42.574  26.611  34.158  1.00  0.00    -0.014 A 
ATOM     76  C   UNL A   1      41.648  26.105  35.080  1.00  0.00     0.009 A 
ATOM     77  C   UNL A   1      43.738  25.854  33.924  1.00  0.00     0.009 A 
ATOM     78  C   UNL A   1      41.850  24.868  35.700  1.00  0.00     0.001 A 
ATOM     79  C   UNL A   1      43.954  24.629  34.559  1.00  0.00     0.001 A 
ATOM     80  C   UNL A   1      43.003  24.131  35.439  1.00  0.00     0.000 A 
ENDBRANCH  62  75
ENDBRANCH  36  37
ENDBRANCH  28  31
ENDBRANCH  26  27
ENDBRANCH  25  26
ENDBRANCH   1  25
TORSDOF 14
ENDMDL
MODEL 2
REMARK VINA RESULT:     -11.9      2.258      3.672
REMARK SMILES Cc1c(/C=C/C(=O)NCCCCNC(=O)c2ccc(-c3c4nc(c(-c5ccccc5)c5ccc([nH]5)c(-c5ccccc5)c5nc(c(-c6ccccc6)c6ccc3[nH]6)C=C5)C=C4)cc2)cccc1C(=O)N1C[C@@H](C)[C@@H](C)C1
REMARK SMILES IDX 10 1 9 2 8 3 6 4 7 5 5 7 4 8 3 9 1 10 2 11 67 12 64 13 66 14
REMARK SMILES IDX 65 15 68 16 69 17 70 18 71 19 76 20 72 21 74 22 73 23 75 24
REMARK SMILES IDX 11 25 12 26 13 27 14 28 15 30 16 31 17 32 63 33 18 34 62 35
REMARK SMILES IDX 19 36 20 37 21 38 56 39 22 40 61 41 55 42 57 43 23 44 60 45
REMARK SMILES IDX 54 46 53 47 24 49 46 50 31 51 45 52 32 53 35 54 44 55 58 56
REMARK SMILES IDX 33 57 34 58 43 60 59 61 36 62 25 63 26 64 30 65 27 66 29 67
REMARK SMILES IDX 28 68 47 69 48 70 52 71 49 72 51 73 50 74 37 75 38 76 42 77
REMARK SMILES IDX 39 78 41 79 40 80
REMARK H PARENT 8 6 13 29 57 48 35 59
REMARK Flexibility Score: inf
ROOT
ATOM      1  C   UNL A   1      31.742  30.915  25.875  1.00  0.00     0.023 C 
ENDROOT
BRANCH   1   2
ATOM      2  C   UNL A   1      31.401  29.575  25.204  1.00  0.00     0.116 C 
BRANCH   2   3
ATOM      3  N   UNL A   1      30.668  29.738  23.957  1.00  0.00    -0.353 N 
ATOM      4  C   UNL A   1      30.365  28.819  22.994  1.00  0.00     0.243 C 
ATOM      5  O   UNL A   1      29.598  29.108  22.081  1.00  0.00    -0.270 OA
ATOM      6  H   UNL A   1      30.342  30.650  23.782  1.00  0.00     0.163 HD
BRANCH   4   7
ATOM      7  C   UNL A   1      30.904  27.448  23.105  1.00  0.00     0.072 C 
ATOM      8  C   UNL A   1      30.486  26.620  24.073  1.00  0.00     0.014 C 
BRANCH   8   9
ATOM      9  C   UNL A   1      30.922  25.221  24.227  1.00  0.00    -0.022 A 
ATOM     10  C   UNL A   1      32.376  25.883  26.191  1.00  0.00     0.046 C 
ATOM     11  C   UNL A   1      31.865  24.842  25.228  1.00  0.00    -0.031 A 
ATOM     12  C   UNL A   1      32.295  23.492  25.279  1.00  0.00     0.043 A 
ATOM     13  C   UNL A   1      30.468  24.277  23.294  1.00  0.00     0.008 A 
ATOM     14  C   UNL A   1      31.804  22.569  24.336  1.00  0.00     0.014 A 
ATOM     15  C   UNL A   1      30.900  22.957  23.350  1.00  0.00     0.001 A 
BRANCH  12  16
ATOM     16  C   UNL A   1      33.478  23.018  26.058  1.00  0.00     0.254 C 
ATOM     17  O   UNL A   1      33.261  22.561  27.182  1.00  0.00    -0.269 OA
BRANCH  16  18
ATOM     18  N   UNL A   1      34.745  22.995  25.509  1.00  0.00    -0.338 N 
ATOM     19  C   UNL A   1      35.757  22.135  26.093  1.00  0.00     0.123 C 
ATOM     20  C   UNL A   1      35.319  23.952  24.578  1.00  0.00     0.123 C 
ATOM     21  C   UNL A   1      37.094  22.748  25.704  1.00  0.00     0.010 C 
ATOM     22  C   UNL A   1      36.782  23.506  24.402  1.00  0.00     0.010 C 
ATOM     23  C   UNL A   1      38.196  21.697  25.629  1.00  0.00     0.010 C 
ATOM     24  C   UNL A   1      36.950  22.686  23.134  1.00  0.00     0.010 C 
ENDBRANCH  16  18
ENDBRANCH  12  16
ENDBRANCH   8   9
ENDBRANCH   4   7
ENDBRANCH   2   3
ENDBRANCH   1   2
BRANCH   1  25
ATOM     25  C   UNL A   1      32.405  30.805  27.250  1.00  0.00     0.023 C 
BRANCH  25  26
ATOM     26  C   UNL A   1      33.924  30.892  27.203  1.00  0.00     0.116 C 
BRANCH  26  27
ATOM     27  N   UNL A   1      34.532  31.743  28.218  1.00  0.00    -0.352 N 
ATOM     28  C   UNL A   1      35.633  31.496  29.026  1.00  0.00     0.251 C 
ATOM     29  H   UNL A   1      34.100  32.618  28.349  1.00  0.00     0.163 HD
ATOM     30  O   UNL A   1      35.961  32.302  29.878  1.00  0.00    -0.269 OA
BRANCH  28  31
ATOM     31  C   UNL A   1      36.494  30.312  28.751  1.00  0.00     0.039 A 
ATOM     32  C   UNL A   1      36.756  29.436  29.810  1.00  0.00     0.014 A 
ATOM     33  C   UNL A   1      37.207  30.192  27.563  1.00  0.00     0.014 A 
ATOM     34  C   UNL A   1      37.909  28.655  29.782  1.00  0.00     0.010 A 
ATOM     35  C   UNL A   1      38.405  29.505  27.572  1.00  0.00     0.010 A 
ATOM     36  C   UNL A   1      38.790  28.798  28.712  1.00  0.00    -0.014 A 
BRANCH  36  37
ATOM     37  C   UNL A   1      40.168  28.322  28.738  1.00  0.00     0.031 A 
ATOM     38  C   UNL A   1      40.491  26.957  28.298  1.00  0.00     0.074 A 
ATOM     39  C   UNL A   1      41.160  29.154  29.122  1.00  0.00     0.049 A 
ATOM     40  N   UNL A   1      41.548  26.314  28.658  1.00  0.00    -0.248 NA
ATOM     41  C   UNL A   1      39.603  26.185  27.440  1.00  0.00     0.031 C 
ATOM     42  C   UNL A   1      42.603  28.955  29.013  1.00  0.00     0.029 A 
ATOM     43  N   UNL A   1      41.030  30.272  29.944  1.00  0.00    -0.354 N 
ATOM     44  C   UNL A   1      41.627  25.185  27.882  1.00  0.00     0.074 A 
ATOM     45  C   UNL A   1      40.359  25.111  27.193  1.00  0.00     0.031 C 
ATOM     46  C   UNL A   1      43.212  29.704  29.948  1.00  0.00     0.029 A 
ATOM     47  C   UNL A   1      42.169  30.286  30.776  1.00  0.00     0.049 A 
ATOM     48  H   UNL A   1      40.291  30.922  29.945  1.00  0.00     0.167 HD
ATOM     49  C   UNL A   1      42.802  24.502  27.814  1.00  0.00     0.031 A 
ATOM     50  C   UNL A   1      42.034  30.122  32.127  1.00  0.00     0.031 A 
ATOM     51  C   UNL A   1      43.812  25.044  28.722  1.00  0.00     0.049 A 
ATOM     52  C   UNL A   1      42.746  28.903  32.679  1.00  0.00     0.074 A 
ATOM     53  C   UNL A   1      44.929  25.850  28.565  1.00  0.00     0.029 A 
ATOM     54  N   UNL A   1      43.564  24.996  30.084  1.00  0.00    -0.354 N 
ATOM     55  N   UNL A   1      43.336  28.000  31.942  1.00  0.00    -0.248 NA
ATOM     56  C   UNL A   1      42.753  28.546  34.100  1.00  0.00     0.031 C 
ATOM     57  C   UNL A   1      45.336  26.299  29.856  1.00  0.00     0.029 A 
ATOM     58  C   UNL A   1      44.478  25.750  30.792  1.00  0.00     0.049 A 
ATOM     59  H   UNL A   1      42.828  24.489  30.496  1.00  0.00     0.167 HD
ATOM     60  C   UNL A   1      43.748  26.965  32.733  1.00  0.00     0.074 A 
ATOM     61  C   UNL A   1      43.362  27.348  34.078  1.00  0.00     0.031 C 
ATOM     62  C   UNL A   1      44.338  25.844  32.233  1.00  0.00     0.031 A 
BRANCH  49  63
ATOM     63  C   UNL A   1      43.100  23.471  26.755  1.00  0.00    -0.014 A 
ATOM     64  C   UNL A   1      42.687  22.140  26.946  1.00  0.00     0.009 A 
ATOM     65  C   UNL A   1      43.814  23.731  25.573  1.00  0.00     0.009 A 
ATOM     66  C   UNL A   1      43.047  21.118  26.058  1.00  0.00     0.001 A 
ATOM     67  C   UNL A   1      44.215  22.709  24.703  1.00  0.00     0.001 A 
ATOM     68  C   UNL A   1      43.838  21.398  24.952  1.00  0.00     0.000 A 
ENDBRANCH  49  63
BRANCH  50  69
ATOM     69  C   UNL A   1      40.745  30.669  32.651  1.00  0.00    -0.014 A 
ATOM     70  C   UNL A   1      39.758  29.741  33.051  1.00  0.00     0.009 A 
ATOM     71  C   UNL A   1      40.635  31.989  33.105  1.00  0.00     0.009 A 
ATOM     72  C   UNL A   1      38.826  30.078  34.034  1.00  0.00     0.001 A 
ATOM     73  C   UNL A   1      39.635  32.340  34.022  1.00  0.00     0.001 A 
ATOM     74  C   UNL A   1      38.763  31.375  34.520  1.00  0.00     0.000 A 
ENDBRANCH  50  69
BRANCH  62  75
ATOM     75  C   UNL A   1      44.811  24.716  33.098  1.00  0.00    -0.014 A 
ATOM     76  C   UNL A   1      43.978  23.644  33.443  1.00  0.00     0.009 A 
ATOM     77  C   UNL A   1      46.086  24.766  33.693  1.00  0.00     0.009 A 
ATOM     78  C   UNL A   1      44.422  22.634  34.303  1.00  0.00     0.001 A 
ATOM     79  C   UNL A   1      46.524  23.771  34.570  1.00  0.00     0.001 A 
ATOM     80  C   UNL A   1      45.694  22.698  34.865  1.00  0.00     0.000 A 
ENDBRANCH  62  75
ENDBRANCH  36  37
ENDBRANCH  28  31
ENDBRANCH  26  27
ENDBRANCH  25  26
ENDBRANCH   1  25
TORSDOF 14
ENDMDL
MODEL 3
REMARK VINA RESULT:     -11.8      1.742      2.589
REMARK SMILES Cc1c(/C=C/C(=O)NCCCCNC(=O)c2ccc(-c3c4nc(c(-c5ccccc5)c5ccc([nH]5)c(-c5ccccc5)c5nc(c(-c6ccccc6)c6ccc3[nH]6)C=C5)C=C4)cc2)cccc1C(=O)N1C[C@@H](C)[C@@H](C)C1
REMARK SMILES IDX 10 1 9 2 8 3 6 4 7 5 5 7 4 8 3 9 1 10 2 11 67 12 64 13 66 14
REMARK SMILES IDX 65 15 68 16 69 17 70 18 71 19 76 20 72 21 74 22 73 23 75 24
REMARK SMILES IDX 11 25 12 26 13 27 14 28 15 30 16 31 17 32 63 33 18 34 62 35
REMARK SMILES IDX 19 36 20 37 21 38 56 39 22 40 61 41 55 42 57 43 23 44 60 45
REMARK SMILES IDX 54 46 53 47 24 49 46 50 31 51 45 52 32 53 35 54 44 55 58 56
REMARK SMILES IDX 33 57 34 58 43 60 59 61 36 62 25 63 26 64 30 65 27 66 29 67
REMARK SMILES IDX 28 68 47 69 48 70 52 71 49 72 51 73 50 74 37 75 38 76 42 77
REMARK SMILES IDX 39 78 41 79 40 80
REMARK H PARENT 8 6 13 29 57 48 35 59
REMARK Flexibility Score: inf
ROOT
ATOM      1  C   UNL A   1      32.525  30.818  27.003  1.00  0.00     0.023 C 
ENDROOT
BRANCH   1   2
ATOM      2  C   UNL A   1      31.773  29.694  26.274  1.00  0.00     0.116 C 
BRANCH   2   3
ATOM      3  N   UNL A   1      31.260  30.106  24.976  1.00  0.00    -0.353 N 
ATOM      4  C   UNL A   1      30.641  29.372  24.006  1.00  0.00     0.243 C 
ATOM      5  O   UNL A   1      30.132  29.927  23.037  1.00  0.00    -0.270 OA
ATOM      6  H   UNL A   1      31.377  31.061  24.766  1.00  0.00     0.163 HD
BRANCH   4   7
ATOM      7  C   UNL A   1      30.516  27.909  24.173  1.00  0.00     0.072 C 
ATOM      8  C   UNL A   1      31.537  27.091  23.877  1.00  0.00     0.014 C 
BRANCH   8   9
ATOM      9  C   UNL A   1      31.523  25.630  24.066  1.00  0.00    -0.022 A 
ATOM     10  C   UNL A   1      33.169  25.856  25.977  1.00  0.00     0.046 C 
ATOM     11  C   UNL A   1      32.331  25.002  25.058  1.00  0.00    -0.031 A 
ATOM     12  C   UNL A   1      32.324  23.586  25.143  1.00  0.00     0.043 A 
ATOM     13  C   UNL A   1      30.771  24.852  23.173  1.00  0.00     0.008 A 
ATOM     14  C   UNL A   1      31.544  22.839  24.241  1.00  0.00     0.014 A 
ATOM     15  C   UNL A   1      30.775  23.465  23.262  1.00  0.00     0.001 A 
BRANCH  12  16
ATOM     16  C   UNL A   1      33.325  22.788  25.912  1.00  0.00     0.254 C 
ATOM     17  O   UNL A   1      32.902  22.123  26.860  1.00  0.00    -0.269 OA
BRANCH  16  18
ATOM     18  N   UNL A   1      34.647  22.712  25.519  1.00  0.00    -0.338 N 
ATOM     19  C   UNL A   1      35.662  23.379  26.312  1.00  0.00     0.123 C 
ATOM     20  C   UNL A   1      35.158  22.292  24.226  1.00  0.00     0.123 C 
ATOM     21  C   UNL A   1      36.828  23.627  25.366  1.00  0.00     0.010 C 
ATOM     22  C   UNL A   1      36.679  22.521  24.306  1.00  0.00     0.010 C 
ATOM     23  C   UNL A   1      38.157  23.679  26.110  1.00  0.00     0.010 C 
ATOM     24  C   UNL A   1      37.405  21.227  24.634  1.00  0.00     0.010 C 
ENDBRANCH  16  18
ENDBRANCH  12  16
ENDBRANCH   8   9
ENDBRANCH   4   7
ENDBRANCH   2   3
ENDBRANCH   1   2
BRANCH   1  25
ATOM     25  C   UNL A   1      31.717  32.098  27.235  1.00  0.00     0.023 C 
BRANCH  25  26
ATOM     26  C   UNL A   1      32.518  33.373  27.018  1.00  0.00     0.116 C 
BRANCH  26  27
ATOM     27  N   UNL A   1      32.830  34.128  28.225  1.00  0.00    -0.352 N 
ATOM     28  C   UNL A   1      33.826  33.905  29.166  1.00  0.00     0.251 C 
ATOM     29  H   UNL A   1      32.252  34.905  28.397  1.00  0.00     0.163 HD
ATOM     30  O   UNL A   1      33.895  34.605  30.161  1.00  0.00    -0.269 OA
BRANCH  28  31
ATOM     31  C   UNL A   1      34.893  32.905  28.883  1.00  0.00     0.039 A 
ATOM     32  C   UNL A   1      34.957  31.772  29.701  1.00  0.00     0.014 A 
ATOM     33  C   UNL A   1      35.932  33.181  28.002  1.00  0.00     0.014 A 
ATOM     34  C   UNL A   1      36.168  31.100  29.843  1.00  0.00     0.010 A 
ATOM     35  C   UNL A   1      37.162  32.590  28.217  1.00  0.00     0.010 A 
ATOM     36  C   UNL A   1      37.295  31.600  29.192  1.00  0.00    -0.014 A 
BRANCH  36  37
ATOM     37  C   UNL A   1      38.658  31.215  29.537  1.00  0.00     0.031 A 
ATOM     38  C   UNL A   1      39.239  29.979  28.995  1.00  0.00     0.074 A 
ATOM     39  C   UNL A   1      39.408  32.022  30.317  1.00  0.00     0.049 A 
ATOM     40  N   UNL A   1      40.225  29.347  29.535  1.00  0.00    -0.248 NA
ATOM     41  C   UNL A   1      38.710  29.324  27.806  1.00  0.00     0.031 C 
ATOM     42  C   UNL A   1      40.840  31.938  30.597  1.00  0.00     0.029 A 
ATOM     43  N   UNL A   1      38.935  32.958  31.235  1.00  0.00    -0.354 N 
ATOM     44  C   UNL A   1      40.638  28.389  28.644  1.00  0.00     0.074 A 
ATOM     45  C   UNL A   1      39.621  28.365  27.617  1.00  0.00     0.031 C 
ATOM     46  C   UNL A   1      41.084  32.537  31.774  1.00  0.00     0.029 A 
ATOM     47  C   UNL A   1      39.797  32.889  32.350  1.00  0.00     0.049 A 
ATOM     48  H   UNL A   1      38.156  33.549  31.128  1.00  0.00     0.167 HD
ATOM     49  C   UNL A   1      41.856  27.805  28.808  1.00  0.00     0.031 A 
ATOM     50  C   UNL A   1      39.320  32.469  33.561  1.00  0.00     0.031 A 
ATOM     51  C   UNL A   1      42.514  28.232  30.042  1.00  0.00     0.049 A 
ATOM     52  C   UNL A   1      39.987  31.216  34.091  1.00  0.00     0.074 A 
ATOM     53  C   UNL A   1      43.533  29.121  30.343  1.00  0.00     0.029 A 
ATOM     54  N   UNL A   1      41.912  27.917  31.249  1.00  0.00    -0.354 N 
ATOM     55  N   UNL A   1      40.853  30.505  33.420  1.00  0.00    -0.248 NA
ATOM     56  C   UNL A   1      39.649  30.603  35.378  1.00  0.00     0.031 C 
ATOM     57  C   UNL A   1      43.521  29.348  31.752  1.00  0.00     0.029 A 
ATOM     58  C   UNL A   1      42.509  28.583  32.301  1.00  0.00     0.049 A 
ATOM     59  H   UNL A   1      41.154  27.297  31.346  1.00  0.00     0.167 HD
ATOM     60  C   UNL A   1      41.148  29.368  34.120  1.00  0.00     0.074 A 
ATOM     61  C   UNL A   1      40.371  29.471  35.340  1.00  0.00     0.031 C 
ATOM     62  C   UNL A   1      41.974  28.399  33.637  1.00  0.00     0.031 A 
BRANCH  49  63
ATOM     63  C   UNL A   1      42.544  27.009  27.728  1.00  0.00    -0.014 A 
ATOM     64  C   UNL A   1      42.718  25.624  27.891  1.00  0.00     0.009 A 
ATOM     65  C   UNL A   1      43.078  27.563  26.552  1.00  0.00     0.009 A 
ATOM     66  C   UNL A   1      43.461  24.858  26.983  1.00  0.00     0.001 A 
ATOM     67  C   UNL A   1      43.858  26.814  25.661  1.00  0.00     0.001 A 
ATOM     68  C   UNL A   1      44.057  25.459  25.883  1.00  0.00     0.000 A 
ENDBRANCH  49  63
BRANCH  50  69
ATOM     69  C   UNL A   1      37.883  32.828  33.773  1.00  0.00    -0.014 A 
ATOM     70  C   UNL A   1      37.570  34.196  33.927  1.00  0.00     0.009 A 
ATOM     71  C   UNL A   1      36.847  31.943  33.449  1.00  0.00     0.009 A 
ATOM     72  C   UNL A   1      36.313  34.680  33.561  1.00  0.00     0.001 A 
ATOM     73  C   UNL A   1      35.562  32.431  33.176  1.00  0.00     0.001 A 
ATOM     74  C   UNL A   1      35.309  33.801  33.185  1.00  0.00     0.000 A 
ENDBRANCH  50  69
BRANCH  62  75
ATOM     75  C   UNL A   1      42.318  27.162  34.409  1.00  0.00    -0.014 A 
ATOM     76  C   UNL A   1      43.617  26.635  34.428  1.00  0.00     0.009 A 
ATOM     77  C   UNL A   1      41.306  26.421  35.048  1.00  0.00     0.009 A 
ATOM     78  C   UNL A   1      43.901  25.444  35.105  1.00  0.00     0.001 A 
ATOM     79  C   UNL A   1      41.582  25.220  35.706  1.00  0.00     0.001 A 
ATOM     80  C   UNL A   1      42.884  24.738  35.744  1.00  0.00     0.000 A 
ENDBRANCH  62  75
ENDBRANCH  36  37
ENDBRANCH  28  31
ENDBRANCH  26  27
ENDBRANCH  25  26
ENDBRANCH   1  25
TORSDOF 14
ENDMDL
