MODEL 1
REMARK VINA RESULT:     -11.0      0.000      0.000
REMARK SMILES C[C@@H](C(=O)NCCCCNC(=O)c1ccc(-c2c3nc(c(-c4ccccc4)c4ccc([nH]4)c(-c4ccccc4)c4nc(c(-c5ccccc5)c5ccc2[nH]5)C=C4)C=C3)cc1)c1ccc(C[C@H]2CCC[C@@H]2O)cc1
REMARK SMILES IDX 6 1 5 2 3 3 4 4 2 6 1 7 61 8 62 9 73 10 63 11 72 12 64 13
REMARK SMILES IDX 65 14 66 15 67 16 70 17 68 18 69 19 71 20 7 22 8 23 9 24
REMARK SMILES IDX 10 25 11 26 12 28 13 29 14 30 60 31 15 32 59 33 16 34 17 35
REMARK SMILES IDX 18 36 53 37 19 38 58 39 52 40 54 41 20 42 57 43 51 44 50 45
REMARK SMILES IDX 21 47 43 48 28 49 42 50 29 51 32 52 41 53 55 54 30 55 31 56
REMARK SMILES IDX 40 58 56 59 33 60 22 61 23 62 27 63 24 64 26 65 25 66 44 67
REMARK SMILES IDX 45 68 49 69 46 70 48 71 47 72 34 73 35 74 39 75 36 76 38 77
REMARK SMILES IDX 37 78
REMARK H PARENT 5 5 71 21 10 27 54 46 32 57
REMARK Flexibility Score: inf
ROOT
ATOM      1  C   UNL A   1      37.902  23.457  25.903  1.00  0.00     0.116 C 
ENDROOT
BRANCH   1   2
ATOM      2  N   UNL A   1      37.643  23.259  24.494  1.00  0.00    -0.356 N 
ATOM      3  C   UNL A   1      36.464  23.197  23.807  1.00  0.00     0.227 C 
ATOM      4  O   UNL A   1      36.572  23.008  22.594  1.00  0.00    -0.274 OA
ATOM      5  H   UNL A   1      38.448  23.152  23.939  1.00  0.00     0.163 HD
BRANCH   3   6
ATOM      6  C   UNL A   1      35.123  23.407  24.539  1.00  0.00     0.105 C 
ATOM      7  C   UNL A   1      34.159  22.230  24.394  1.00  0.00     0.023 C 
BRANCH   6   8
ATOM      8  C   UNL A   1      34.363  24.667  24.132  1.00  0.00    -0.036 A 
ATOM      9  C   UNL A   1      33.830  24.835  22.846  1.00  0.00     0.005 A 
ATOM     10  C   UNL A   1      34.100  25.653  25.095  1.00  0.00     0.005 A 
ATOM     11  C   UNL A   1      33.134  25.994  22.506  1.00  0.00     0.004 A 
ATOM     12  C   UNL A   1      33.391  26.807  24.757  1.00  0.00     0.004 A 
ATOM     13  C   UNL A   1      32.941  27.009  23.446  1.00  0.00    -0.048 A 
BRANCH  13  14
ATOM     14  C   UNL A   1      32.301  28.314  23.045  1.00  0.00     0.041 C 
BRANCH  14  15
ATOM     15  C   UNL A   1      30.842  28.212  22.564  1.00  0.00     0.022 C 
ATOM     16  C   UNL A   1      29.903  27.348  23.424  1.00  0.00     0.007 C 
ATOM     17  C   UNL A   1      30.104  29.545  22.405  1.00  0.00     0.117 C 
ATOM     18  C   UNL A   1      28.545  28.053  23.416  1.00  0.00     0.003 C 
ATOM     19  C   UNL A   1      28.645  29.120  22.339  1.00  0.00     0.032 C 
BRANCH  17  20
ATOM     20  O   UNL A   1      30.507  30.202  21.218  1.00  0.00    -0.393 OA
ATOM     21  H   UNL A   1      29.993  31.018  21.109  1.00  0.00     0.210 HD
ENDBRANCH  17  20
ENDBRANCH  14  15
ENDBRANCH  13  14
ENDBRANCH   6   8
ENDBRANCH   3   6
ENDBRANCH   1   2
BRANCH   1  22
ATOM     22  C   UNL A   1      38.990  22.509  26.412  1.00  0.00     0.023 C 
BRANCH  22  23
ATOM     23  C   UNL A   1      39.144  21.213  25.614  1.00  0.00     0.023 C 
BRANCH  23  24
ATOM     24  C   UNL A   1      39.552  19.993  26.428  1.00  0.00     0.116 C 
BRANCH  24  25
ATOM     25  N   UNL A   1      40.739  19.338  25.905  1.00  0.00    -0.352 N 
ATOM     26  C   UNL A   1      42.021  19.818  25.813  1.00  0.00     0.251 C 
ATOM     27  H   UNL A   1      40.606  18.421  25.573  1.00  0.00     0.163 HD
ATOM     28  O   UNL A   1      42.882  19.174  25.219  1.00  0.00    -0.269 OA
BRANCH  26  29
ATOM     29  C   UNL A   1      42.354  21.130  26.404  1.00  0.00     0.039 A 
ATOM     30  C   UNL A   1      42.696  22.185  25.554  1.00  0.00     0.014 A 
ATOM     31  C   UNL A   1      42.317  21.324  27.787  1.00  0.00     0.014 A 
ATOM     32  C   UNL A   1      42.942  23.450  26.089  1.00  0.00     0.010 A 
ATOM     33  C   UNL A   1      42.486  22.600  28.311  1.00  0.00     0.010 A 
ATOM     34  C   UNL A   1      42.808  23.675  27.468  1.00  0.00    -0.014 A 
BRANCH  34  35
ATOM     35  C   UNL A   1      43.016  25.022  28.053  1.00  0.00     0.031 A 
ATOM     36  C   UNL A   1      44.381  25.437  28.524  1.00  0.00     0.074 A 
ATOM     37  C   UNL A   1      41.965  25.848  28.217  1.00  0.00     0.049 A 
ATOM     38  N   UNL A   1      44.752  26.550  29.107  1.00  0.00    -0.248 NA
ATOM     39  C   UNL A   1      45.469  24.462  28.342  1.00  0.00     0.031 C 
ATOM     40  C   UNL A   1      40.583  25.552  27.837  1.00  0.00     0.029 A 
ATOM     41  N   UNL A   1      41.900  27.110  28.754  1.00  0.00    -0.354 N 
ATOM     42  C   UNL A   1      46.106  26.399  29.377  1.00  0.00     0.074 A 
ATOM     43  C   UNL A   1      46.479  25.069  28.947  1.00  0.00     0.031 C 
ATOM     44  C   UNL A   1      39.812  26.614  28.121  1.00  0.00     0.029 A 
ATOM     45  C   UNL A   1      40.636  27.648  28.740  1.00  0.00     0.049 A 
ATOM     46  H   UNL A   1      42.683  27.584  29.114  1.00  0.00     0.167 HD
ATOM     47  C   UNL A   1      46.969  27.292  29.918  1.00  0.00     0.031 A 
ATOM     48  C   UNL A   1      40.189  28.839  29.179  1.00  0.00     0.031 A 
ATOM     49  C   UNL A   1      46.600  28.616  30.340  1.00  0.00     0.049 A 
ATOM     50  C   UNL A   1      41.161  29.809  29.791  1.00  0.00     0.074 A 
ATOM     51  C   UNL A   1      47.411  29.617  30.847  1.00  0.00     0.029 A 
ATOM     52  N   UNL A   1      45.310  29.122  30.309  1.00  0.00    -0.354 N 
ATOM     53  N   UNL A   1      42.452  29.679  29.977  1.00  0.00    -0.248 NA
ATOM     54  C   UNL A   1      40.613  31.096  30.242  1.00  0.00     0.031 C 
ATOM     55  C   UNL A   1      46.602  30.711  31.172  1.00  0.00     0.029 A 
ATOM     56  C   UNL A   1      45.297  30.413  30.812  1.00  0.00     0.049 A 
ATOM     57  H   UNL A   1      44.519  28.636  29.980  1.00  0.00     0.167 HD
ATOM     58  C   UNL A   1      42.876  30.877  30.537  1.00  0.00     0.074 A 
ATOM     59  C   UNL A   1      41.707  31.724  30.649  1.00  0.00     0.031 C 
ATOM     60  C   UNL A   1      44.125  31.243  30.921  1.00  0.00     0.031 A 
BRANCH  47  61
ATOM     61  C   UNL A   1      48.396  26.849  30.092  1.00  0.00    -0.014 A 
ATOM     62  C   UNL A   1      49.363  27.091  29.103  1.00  0.00     0.009 A 
ATOM     63  C   UNL A   1      48.781  26.186  31.267  1.00  0.00     0.009 A 
ATOM     64  C   UNL A   1      50.673  26.635  29.266  1.00  0.00     0.001 A 
ATOM     65  C   UNL A   1      50.100  25.760  31.442  1.00  0.00     0.001 A 
ATOM     66  C   UNL A   1      51.041  25.973  30.436  1.00  0.00     0.000 A 
ENDBRANCH  47  61
BRANCH  48  67
ATOM     67  C   UNL A   1      38.754  29.194  29.029  1.00  0.00    -0.014 A 
ATOM     68  C   UNL A   1      37.878  29.082  30.120  1.00  0.00     0.009 A 
ATOM     69  C   UNL A   1      38.253  29.652  27.800  1.00  0.00     0.009 A 
ATOM     70  C   UNL A   1      36.526  29.402  29.979  1.00  0.00     0.001 A 
ATOM     71  C   UNL A   1      36.906  29.998  27.670  1.00  0.00     0.001 A 
ATOM     72  C   UNL A   1      36.043  29.864  28.756  1.00  0.00     0.000 A 
ENDBRANCH  48  67
BRANCH  60  73
ATOM     73  C   UNL A   1      44.297  32.635  31.461  1.00  0.00    -0.014 A 
ATOM     74  C   UNL A   1      44.193  32.906  32.833  1.00  0.00     0.009 A 
ATOM     75  C   UNL A   1      44.608  33.684  30.581  1.00  0.00     0.009 A 
ATOM     76  C   UNL A   1      44.364  34.208  33.310  1.00  0.00     0.001 A 
ATOM     77  C   UNL A   1      44.810  34.978  31.064  1.00  0.00     0.001 A 
ATOM     78  C   UNL A   1      44.678  35.240  32.427  1.00  0.00     0.000 A 
ENDBRANCH  60  73
ENDBRANCH  34  35
ENDBRANCH  26  29
ENDBRANCH  24  25
ENDBRANCH  23  24
ENDBRANCH  22  23
ENDBRANCH   1  22
TORSDOF 15
ENDMDL
MODEL 2
REMARK VINA RESULT:     -10.9      5.053     11.715
REMARK SMILES C[C@@H](C(=O)NCCCCNC(=O)c1ccc(-c2c3nc(c(-c4ccccc4)c4ccc([nH]4)c(-c4ccccc4)c4nc(c(-c5ccccc5)c5ccc2[nH]5)C=C4)C=C3)cc1)c1ccc(C[C@H]2CCC[C@@H]2O)cc1
REMARK SMILES IDX 6 1 5 2 3 3 4 4 2 6 1 7 61 8 62 9 73 10 63 11 72 12 64 13
REMARK SMILES IDX 65 14 66 15 67 16 70 17 68 18 69 19 71 20 7 22 8 23 9 24
REMARK SMILES IDX 10 25 11 26 12 28 13 29 14 30 60 31 15 32 59 33 16 34 17 35
REMARK SMILES IDX 18 36 53 37 19 38 58 39 52 40 54 41 20 42 57 43 51 44 50 45
REMARK SMILES IDX 21 47 43 48 28 49 42 50 29 51 32 52 41 53 55 54 30 55 31 56
REMARK SMILES IDX 40 58 56 59 33 60 22 61 23 62 27 63 24 64 26 65 25 66 44 67
REMARK SMILES IDX 45 68 49 69 46 70 48 71 47 72 34 73 35 74 39 75 36 76 38 77
REMARK SMILES IDX 37 78
REMARK H PARENT 5 5 71 21 10 27 54 46 32 57
REMARK Flexibility Score: inf
ROOT
ATOM      1  C   UNL A   1      35.501  34.151  33.644  1.00  0.00     0.116 C 
ENDROOT
BRANCH   1   2
ATOM      2  N   UNL A   1      36.743  34.792  34.017  1.00  0.00    -0.356 N 
ATOM      3  C   UNL A   1      37.721  34.398  34.885  1.00  0.00     0.227 C 
ATOM      4  O   UNL A   1      38.671  35.176  34.995  1.00  0.00    -0.274 OA
ATOM      5  H   UNL A   1      36.912  35.653  33.571  1.00  0.00     0.163 HD
BRANCH   3   6
ATOM      6  C   UNL A   1      37.619  33.041  35.611  1.00  0.00     0.105 C 
ATOM      7  C   UNL A   1      37.382  33.172  37.115  1.00  0.00     0.023 C 
BRANCH   6   8
ATOM      8  C   UNL A   1      38.823  32.122  35.420  1.00  0.00    -0.036 A 
ATOM      9  C   UNL A   1      38.892  31.187  34.377  1.00  0.00     0.005 A 
ATOM     10  C   UNL A   1      39.943  32.274  36.251  1.00  0.00     0.005 A 
ATOM     11  C   UNL A   1      40.008  30.367  34.224  1.00  0.00     0.004 A 
ATOM     12  C   UNL A   1      41.066  31.462  36.089  1.00  0.00     0.004 A 
ATOM     13  C   UNL A   1      41.090  30.469  35.102  1.00  0.00    -0.048 A 
BRANCH  13  14
ATOM     14  C   UNL A   1      42.241  29.497  35.016  1.00  0.00     0.041 C 
BRANCH  14  15
ATOM     15  C   UNL A   1      41.844  28.012  34.931  1.00  0.00     0.022 C 
ATOM     16  C   UNL A   1      42.641  27.152  33.935  1.00  0.00     0.007 C 
ATOM     17  C   UNL A   1      41.907  27.236  36.250  1.00  0.00     0.117 C 
ATOM     18  C   UNL A   1      42.811  25.780  34.594  1.00  0.00     0.003 C 
ATOM     19  C   UNL A   1      41.877  25.785  35.793  1.00  0.00     0.032 C 
BRANCH  17  20
ATOM     20  O   UNL A   1      40.792  27.545  37.067  1.00  0.00    -0.393 OA
ATOM     21  H   UNL A   1      39.982  27.210  36.650  1.00  0.00     0.210 HD
ENDBRANCH  17  20
ENDBRANCH  14  15
ENDBRANCH  13  14
ENDBRANCH   6   8
ENDBRANCH   3   6
ENDBRANCH   1   2
BRANCH   1  22
ATOM     22  C   UNL A   1      34.337  35.144  33.642  1.00  0.00     0.023 C 
BRANCH  22  23
ATOM     23  C   UNL A   1      33.325  34.951  32.511  1.00  0.00     0.023 C 
BRANCH  23  24
ATOM     24  C   UNL A   1      33.547  35.825  31.284  1.00  0.00     0.116 C 
BRANCH  24  25
ATOM     25  N   UNL A   1      32.851  35.332  30.107  1.00  0.00    -0.352 N 
ATOM     26  C   UNL A   1      33.276  34.426  29.168  1.00  0.00     0.251 C 
ATOM     27  H   UNL A   1      31.948  35.698  29.965  1.00  0.00     0.163 HD
ATOM     28  O   UNL A   1      32.607  34.222  28.159  1.00  0.00    -0.269 OA
BRANCH  26  29
ATOM     29  C   UNL A   1      34.559  33.721  29.362  1.00  0.00     0.039 A 
ATOM     30  C   UNL A   1      35.689  34.179  28.681  1.00  0.00     0.014 A 
ATOM     31  C   UNL A   1      34.650  32.622  30.220  1.00  0.00     0.014 A 
ATOM     32  C   UNL A   1      36.925  33.571  28.907  1.00  0.00     0.010 A 
ATOM     33  C   UNL A   1      35.894  32.068  30.503  1.00  0.00     0.010 A 
ATOM     34  C   UNL A   1      37.042  32.532  29.843  1.00  0.00    -0.014 A 
BRANCH  34  35
ATOM     35  C   UNL A   1      38.354  31.904  30.137  1.00  0.00     0.031 A 
ATOM     36  C   UNL A   1      39.357  32.621  30.996  1.00  0.00     0.074 A 
ATOM     37  C   UNL A   1      38.667  30.718  29.581  1.00  0.00     0.049 A 
ATOM     38  N   UNL A   1      40.573  32.261  31.323  1.00  0.00    -0.248 NA
ATOM     39  C   UNL A   1      38.951  33.929  31.535  1.00  0.00     0.031 C 
ATOM     40  C   UNL A   1      37.797  29.937  28.699  1.00  0.00     0.029 A 
ATOM     41  N   UNL A   1      39.810  29.964  29.674  1.00  0.00    -0.354 N 
ATOM     42  C   UNL A   1      41.081  33.304  32.088  1.00  0.00     0.074 A 
ATOM     43  C   UNL A   1      40.065  34.333  32.129  1.00  0.00     0.031 C 
ATOM     44  C   UNL A   1      38.424  28.799  28.359  1.00  0.00     0.029 A 
ATOM     45  C   UNL A   1      39.753  28.790  28.964  1.00  0.00     0.049 A 
ATOM     46  H   UNL A   1      40.596  30.239  30.199  1.00  0.00     0.167 HD
ATOM     47  C   UNL A   1      42.277  33.392  32.716  1.00  0.00     0.031 A 
ATOM     48  C   UNL A   1      40.669  27.815  28.814  1.00  0.00     0.031 A 
ATOM     49  C   UNL A   1      43.285  32.367  32.680  1.00  0.00     0.049 A 
ATOM     50  C   UNL A   1      41.997  27.941  29.507  1.00  0.00     0.074 A 
ATOM     51  C   UNL A   1      44.507  32.335  33.329  1.00  0.00     0.029 A 
ATOM     52  N   UNL A   1      43.188  31.192  31.950  1.00  0.00    -0.354 N 
ATOM     53  N   UNL A   1      42.437  28.901  30.283  1.00  0.00    -0.248 NA
ATOM     54  C   UNL A   1      42.950  26.839  29.311  1.00  0.00     0.031 C 
ATOM     55  C   UNL A   1      45.172  31.164  32.950  1.00  0.00     0.029 A 
ATOM     56  C   UNL A   1      44.340  30.440  32.111  1.00  0.00     0.049 A 
ATOM     57  H   UNL A   1      42.416  30.932  31.397  1.00  0.00     0.167 HD
ATOM     58  C   UNL A   1      43.704  28.507  30.693  1.00  0.00     0.074 A 
ATOM     59  C   UNL A   1      43.955  27.215  30.090  1.00  0.00     0.031 C 
ATOM     60  C   UNL A   1      44.578  29.157  31.501  1.00  0.00     0.031 A 
BRANCH  47  61
ATOM     61  C   UNL A   1      42.559  34.655  33.483  1.00  0.00    -0.014 A 
ATOM     62  C   UNL A   1      42.229  34.773  34.843  1.00  0.00     0.009 A 
ATOM     63  C   UNL A   1      43.169  35.742  32.838  1.00  0.00     0.009 A 
ATOM     64  C   UNL A   1      42.460  35.968  35.527  1.00  0.00     0.001 A 
ATOM     65  C   UNL A   1      43.429  36.924  33.533  1.00  0.00     0.001 A 
ATOM     66  C   UNL A   1      43.062  37.041  34.873  1.00  0.00     0.000 A 
ENDBRANCH  47  61
BRANCH  48  67
ATOM     67  C   UNL A   1      40.349  26.617  27.995  1.00  0.00    -0.014 A 
ATOM     68  C   UNL A   1      40.817  26.516  26.676  1.00  0.00     0.009 A 
ATOM     69  C   UNL A   1      39.585  25.568  28.526  1.00  0.00     0.009 A 
ATOM     70  C   UNL A   1      40.507  25.398  25.898  1.00  0.00     0.001 A 
ATOM     71  C   UNL A   1      39.301  24.438  27.756  1.00  0.00     0.001 A 
ATOM     72  C   UNL A   1      39.754  24.358  26.440  1.00  0.00     0.000 A 
ENDBRANCH  48  67
BRANCH  60  73
ATOM     73  C   UNL A   1      45.874  28.461  31.812  1.00  0.00    -0.014 A 
ATOM     74  C   UNL A   1      47.016  28.654  31.022  1.00  0.00     0.009 A 
ATOM     75  C   UNL A   1      45.958  27.628  32.939  1.00  0.00     0.009 A 
ATOM     76  C   UNL A   1      48.210  28.000  31.336  1.00  0.00     0.001 A 
ATOM     77  C   UNL A   1      47.161  27.001  33.269  1.00  0.00     0.001 A 
ATOM     78  C   UNL A   1      48.283  27.180  32.461  1.00  0.00     0.000 A 
ENDBRANCH  60  73
ENDBRANCH  34  35
ENDBRANCH  26  29
ENDBRANCH  24  25
ENDBRANCH  23  24
ENDBRANCH  22  23
ENDBRANCH   1  22
TORSDOF 15
ENDMDL
MODEL 3
REMARK VINA RESULT:     -10.8      3.811      9.080
REMARK SMILES C[C@@H](C(=O)NCCCCNC(=O)c1ccc(-c2c3nc(c(-c4ccccc4)c4ccc([nH]4)c(-c4ccccc4)c4nc(c(-c5ccccc5)c5ccc2[nH]5)C=C4)C=C3)cc1)c1ccc(C[C@H]2CCC[C@@H]2O)cc1
REMARK SMILES IDX 6 1 5 2 3 3 4 4 2 6 1 7 61 8 62 9 73 10 63 11 72 12 64 13
REMARK SMILES IDX 65 14 66 15 67 16 70 17 68 18 69 19 71 20 7 22 8 23 9 24
REMARK SMILES IDX 10 25 11 26 12 28 13 29 14 30 60 31 15 32 59 33 16 34 17 35
REMARK SMILES IDX 18 36 53 37 19 38 58 39 52 40 54 41 20 42 57 43 51 44 50 45
REMARK SMILES IDX 21 47 43 48 28 49 42 50 29 51 32 52 41 53 55 54 30 55 31 56
REMARK SMILES IDX 40 58 56 59 33 60 22 61 23 62 27 63 24 64 26 65 25 66 44 67
REMARK SMILES IDX 45 68 49 69 46 70 48 71 47 72 34 73 35 74 39 75 36 76 38 77
REMARK SMILES IDX 37 78
REMARK H PARENT 5 5 71 21 10 27 54 46 32 57
REMARK Flexibility Score: inf
ROOT
ATOM      1  C   UNL A   1      34.235  29.561  27.194  1.00  0.00     0.116 C 
ENDROOT
BRANCH   1   2
ATOM      2  N   UNL A   1      33.017  29.042  27.776  1.00  0.00    -0.356 N 
ATOM      3  C   UNL A   1      32.110  28.144  27.290  1.00  0.00     0.227 C 
ATOM      4  O   UNL A   1      31.155  27.906  28.032  1.00  0.00    -0.274 OA
ATOM      5  H   UNL A   1      32.806  29.395  28.670  1.00  0.00     0.163 HD
BRANCH   3   6
ATOM      6  C   UNL A   1      32.342  27.464  25.925  1.00  0.00     0.105 C 
ATOM      7  C   UNL A   1      31.127  27.529  24.999  1.00  0.00     0.023 C 
BRANCH   6   8
ATOM      8  C   UNL A   1      32.773  26.002  26.004  1.00  0.00    -0.036 A 
ATOM      9  C   UNL A   1      34.064  25.583  25.651  1.00  0.00     0.005 A 
ATOM     10  C   UNL A   1      31.888  25.052  26.536  1.00  0.00     0.005 A 
ATOM     11  C   UNL A   1      34.430  24.242  25.742  1.00  0.00     0.004 A 
ATOM     12  C   UNL A   1      32.261  23.710  26.639  1.00  0.00     0.004 A 
ATOM     13  C   UNL A   1      33.521  23.285  26.199  1.00  0.00    -0.048 A 
BRANCH  13  14
ATOM     14  C   UNL A   1      33.873  21.819  26.176  1.00  0.00     0.041 C 
BRANCH  14  15
ATOM     15  C   UNL A   1      32.876  20.913  25.432  1.00  0.00     0.022 C 
ATOM     16  C   UNL A   1      32.593  21.279  23.964  1.00  0.00     0.007 C 
ATOM     17  C   UNL A   1      33.234  19.425  25.398  1.00  0.00     0.117 C 
ATOM     18  C   UNL A   1      32.437  19.953  23.215  1.00  0.00     0.003 C 
ATOM     19  C   UNL A   1      32.340  18.885  24.292  1.00  0.00     0.032 C 
BRANCH  17  20
ATOM     20  O   UNL A   1      32.946  18.812  26.642  1.00  0.00    -0.393 OA
ATOM     21  H   UNL A   1      32.206  18.194  26.535  1.00  0.00     0.210 HD
ENDBRANCH  17  20
ENDBRANCH  14  15
ENDBRANCH  13  14
ENDBRANCH   6   8
ENDBRANCH   3   6
ENDBRANCH   1   2
BRANCH   1  22
ATOM     22  C   UNL A   1      34.584  30.940  27.756  1.00  0.00     0.023 C 
BRANCH  22  23
ATOM     23  C   UNL A   1      33.418  31.929  27.813  1.00  0.00     0.023 C 
BRANCH  23  24
ATOM     24  C   UNL A   1      33.803  33.395  27.676  1.00  0.00     0.116 C 
BRANCH  24  25
ATOM     25  N   UNL A   1      33.278  34.219  28.753  1.00  0.00    -0.352 N 
ATOM     26  C   UNL A   1      33.715  34.328  30.049  1.00  0.00     0.251 C 
ATOM     27  H   UNL A   1      32.502  34.778  28.519  1.00  0.00     0.163 HD
ATOM     28  O   UNL A   1      33.070  34.977  30.867  1.00  0.00    -0.269 OA
BRANCH  26  29
ATOM     29  C   UNL A   1      34.951  33.634  30.464  1.00  0.00     0.039 A 
ATOM     30  C   UNL A   1      34.851  32.533  31.319  1.00  0.00     0.014 A 
ATOM     31  C   UNL A   1      36.200  34.056  30.002  1.00  0.00     0.014 A 
ATOM     32  C   UNL A   1      36.001  31.821  31.664  1.00  0.00     0.010 A 
ATOM     33  C   UNL A   1      37.333  33.300  30.283  1.00  0.00     0.010 A 
ATOM     34  C   UNL A   1      37.246  32.180  31.123  1.00  0.00    -0.014 A 
BRANCH  34  35
ATOM     35  C   UNL A   1      38.473  31.406  31.435  1.00  0.00     0.031 A 
ATOM     36  C   UNL A   1      39.316  31.778  32.621  1.00  0.00     0.074 A 
ATOM     37  C   UNL A   1      38.861  30.410  30.616  1.00  0.00     0.049 A 
ATOM     38  N   UNL A   1      40.447  31.256  33.028  1.00  0.00    -0.248 NA
ATOM     39  C   UNL A   1      38.842  32.902  33.445  1.00  0.00     0.031 C 
ATOM     40  C   UNL A   1      38.152  29.975  29.411  1.00  0.00     0.029 A 
ATOM     41  N   UNL A   1      39.956  29.585  30.674  1.00  0.00    -0.354 N 
ATOM     42  C   UNL A   1      40.826  32.000  34.138  1.00  0.00     0.074 A 
ATOM     43  C   UNL A   1      39.837  33.041  34.308  1.00  0.00     0.031 C 
ATOM     44  C   UNL A   1      38.811  28.942  28.862  1.00  0.00     0.029 A 
ATOM     45  C   UNL A   1      40.009  28.669  29.651  1.00  0.00     0.049 A 
ATOM     46  H   UNL A   1      40.638  29.643  31.380  1.00  0.00     0.167 HD
ATOM     47  C   UNL A   1      41.891  31.823  34.955  1.00  0.00     0.031 A 
ATOM     48  C   UNL A   1      40.920  27.717  29.378  1.00  0.00     0.031 A 
ATOM     49  C   UNL A   1      42.872  30.784  34.790  1.00  0.00     0.049 A 
ATOM     50  C   UNL A   1      42.104  27.549  30.290  1.00  0.00     0.074 A 
ATOM     51  C   UNL A   1      43.956  30.484  35.596  1.00  0.00     0.029 A 
ATOM     52  N   UNL A   1      42.889  29.876  33.742  1.00  0.00    -0.354 N 
ATOM     53  N   UNL A   1      42.413  28.215  31.375  1.00  0.00    -0.248 NA
ATOM     54  C   UNL A   1      43.057  26.486  29.942  1.00  0.00     0.031 C 
ATOM     55  C   UNL A   1      44.660  29.428  35.007  1.00  0.00     0.029 A 
ATOM     56  C   UNL A   1      43.980  29.033  33.866  1.00  0.00     0.049 A 
ATOM     57  H   UNL A   1      42.225  29.838  33.016  1.00  0.00     0.167 HD
ATOM     58  C   UNL A   1      43.578  27.634  31.858  1.00  0.00     0.074 A 
ATOM     59  C   UNL A   1      43.912  26.554  30.953  1.00  0.00     0.031 C 
ATOM     60  C   UNL A   1      44.303  27.964  32.955  1.00  0.00     0.031 A 
BRANCH  47  61
ATOM     61  C   UNL A   1      42.050  32.791  36.095  1.00  0.00    -0.014 A 
ATOM     62  C   UNL A   1      42.793  33.975  35.951  1.00  0.00     0.009 A 
ATOM     63  C   UNL A   1      41.443  32.520  37.331  1.00  0.00     0.009 A 
ATOM     64  C   UNL A   1      42.964  34.841  37.033  1.00  0.00     0.001 A 
ATOM     65  C   UNL A   1      41.588  33.405  38.402  1.00  0.00     0.001 A 
ATOM     66  C   UNL A   1      42.359  34.556  38.256  1.00  0.00     0.000 A 
ENDBRANCH  47  61
BRANCH  48  67
ATOM     67  C   UNL A   1      40.734  26.828  28.202  1.00  0.00    -0.014 A 
ATOM     68  C   UNL A   1      41.363  27.124  26.983  1.00  0.00     0.009 A 
ATOM     69  C   UNL A   1      39.935  25.678  28.291  1.00  0.00     0.009 A 
ATOM     70  C   UNL A   1      41.179  26.299  25.871  1.00  0.00     0.001 A 
ATOM     71  C   UNL A   1      39.776  24.839  27.186  1.00  0.00     0.001 A 
ATOM     72  C   UNL A   1      40.391  25.154  25.976  1.00  0.00     0.000 A 
ENDBRANCH  48  67
BRANCH  60  73
ATOM     73  C   UNL A   1      45.509  27.121  33.261  1.00  0.00    -0.014 A 
ATOM     74  C   UNL A   1      45.411  25.955  34.034  1.00  0.00     0.009 A 
ATOM     75  C   UNL A   1      46.758  27.484  32.731  1.00  0.00     0.009 A 
ATOM     76  C   UNL A   1      46.547  25.186  34.297  1.00  0.00     0.001 A 
ATOM     77  C   UNL A   1      47.885  26.696  32.970  1.00  0.00     0.001 A 
ATOM     78  C   UNL A   1      47.780  25.553  33.762  1.00  0.00     0.000 A 
ENDBRANCH  60  73
ENDBRANCH  34  35
ENDBRANCH  26  29
ENDBRANCH  24  25
ENDBRANCH  23  24
ENDBRANCH  22  23
ENDBRANCH   1  22
TORSDOF 15
ENDMDL
