MODEL 1
REMARK VINA RESULT:     -11.3      0.000      0.000
REMARK SMILES CN(C(=O)c1cccn1CC(=O)NCCCCNC(=O)c1ccc(-c2c3nc(c(-c4ccccc4)c4ccc([nH]4)c(-c4ccccc4)c4nc(c(-c5ccccc5)c5ccc2[nH]5)C=C4)C=C3)cc1)C1CCC(C)(C)CC1
REMARK SMILES IDX 14 1 13 2 11 3 12 4 10 6 9 7 5 8 6 9 7 10 8 11 3 12 4 13
REMARK SMILES IDX 2 14 1 15 69 16 70 17 76 18 71 19 75 20 72 21 73 22 74 23
REMARK SMILES IDX 15 24 16 25 17 26 18 27 19 28 20 30 21 31 22 32 68 33 23 34
REMARK SMILES IDX 67 35 24 36 25 37 26 38 61 39 27 40 66 41 60 42 62 43 28 44
REMARK SMILES IDX 65 45 59 46 58 47 29 49 51 50 36 51 50 52 37 53 40 54 49 55
REMARK SMILES IDX 63 56 38 57 39 58 48 60 64 61 41 62 30 63 31 64 35 65 32 66
REMARK SMILES IDX 34 67 33 68 52 69 53 70 57 71 54 72 56 73 55 74 42 75 43 76
REMARK SMILES IDX 47 77 44 78 46 79 45 80
REMARK H PARENT 13 5 18 29 62 48 40 59
REMARK Flexibility Score: inf
ROOT
ATOM      1  C   UNL A   1      37.377  21.400  24.775  1.00  0.00     0.116 C 
ENDROOT
BRANCH   1   2
ATOM      2  N   UNL A   1      36.724  22.229  23.794  1.00  0.00    -0.355 N 
ATOM      3  C   UNL A   1      35.655  23.064  24.012  1.00  0.00     0.239 C 
ATOM      4  O   UNL A   1      35.353  23.859  23.119  1.00  0.00    -0.273 OA
ATOM      5  H   UNL A   1      37.079  22.195  22.877  1.00  0.00     0.163 HD
BRANCH   3   6
ATOM      6  C   UNL A   1      34.908  23.043  25.342  1.00  0.00     0.222 C 
BRANCH   6   7
ATOM      7  N   UNL A   1      33.689  22.236  25.328  1.00  0.00    -0.334 N 
ATOM      8  C   UNL A   1      32.372  22.699  25.376  1.00  0.00     0.107 A 
ATOM      9  C   UNL A   1      31.582  21.571  25.180  1.00  0.00     0.033 A 
ATOM     10  C   UNL A   1      32.406  20.423  25.195  1.00  0.00     0.020 A 
ATOM     11  C   UNL A   1      33.702  20.862  25.276  1.00  0.00     0.087 A 
BRANCH   8  12
ATOM     12  C   UNL A   1      31.995  24.114  25.504  1.00  0.00     0.270 C 
ATOM     13  O   UNL A   1      31.777  24.559  26.622  1.00  0.00    -0.267 OA
BRANCH  12  14
ATOM     14  N   UNL A   1      31.799  24.895  24.341  1.00  0.00    -0.337 N 
ATOM     15  C   UNL A   1      30.744  24.611  23.364  1.00  0.00     0.147 C 
BRANCH  14  16
ATOM     16  C   UNL A   1      32.643  26.093  23.990  1.00  0.00     0.085 C 
ATOM     17  C   UNL A   1      31.782  27.355  23.797  1.00  0.00     0.026 C 
ATOM     18  C   UNL A   1      33.834  26.512  24.878  1.00  0.00     0.026 C 
ATOM     19  C   UNL A   1      31.208  27.768  25.137  1.00  0.00     0.008 C 
ATOM     20  C   UNL A   1      33.524  27.331  26.150  1.00  0.00     0.008 C 
ATOM     21  C   UNL A   1      32.257  28.231  26.154  1.00  0.00    -0.035 C 
ATOM     22  C   UNL A   1      31.631  28.196  27.568  1.00  0.00     0.011 C 
ATOM     23  C   UNL A   1      32.605  29.699  25.853  1.00  0.00     0.011 C 
ENDBRANCH  14  16
ENDBRANCH  12  14
ENDBRANCH   8  12
ENDBRANCH   6   7
ENDBRANCH   3   6
ENDBRANCH   1   2
BRANCH   1  24
ATOM     24  C   UNL A   1      37.073  19.911  24.688  1.00  0.00     0.023 C 
BRANCH  24  25
ATOM     25  C   UNL A   1      38.162  19.000  25.261  1.00  0.00     0.023 C 
BRANCH  25  26
ATOM     26  C   UNL A   1      39.444  19.718  25.698  1.00  0.00     0.116 C 
BRANCH  26  27
ATOM     27  N   UNL A   1      40.560  18.804  25.883  1.00  0.00    -0.352 N 
ATOM     28  C   UNL A   1      41.894  19.092  26.051  1.00  0.00     0.251 C 
ATOM     29  H   UNL A   1      40.329  17.847  25.888  1.00  0.00     0.163 HD
ATOM     30  O   UNL A   1      42.728  18.216  25.844  1.00  0.00    -0.269 OA
BRANCH  28  31
ATOM     31  C   UNL A   1      42.349  20.438  26.468  1.00  0.00     0.039 A 
ATOM     32  C   UNL A   1      42.969  21.256  25.515  1.00  0.00     0.014 A 
ATOM     33  C   UNL A   1      42.260  20.862  27.799  1.00  0.00     0.014 A 
ATOM     34  C   UNL A   1      43.440  22.516  25.881  1.00  0.00     0.010 A 
ATOM     35  C   UNL A   1      42.718  22.126  28.168  1.00  0.00     0.010 A 
ATOM     36  C   UNL A   1      43.288  22.962  27.203  1.00  0.00    -0.014 A 
BRANCH  36  37
ATOM     37  C   UNL A   1      43.541  24.395  27.499  1.00  0.00     0.031 A 
ATOM     38  C   UNL A   1      42.214  25.187  27.607  1.00  0.00     0.074 A 
ATOM     39  C   UNL A   1      44.848  24.796  27.588  1.00  0.00     0.049 A 
ATOM     40  N   UNL A   1      41.975  26.454  27.450  1.00  0.00    -0.248 NA
ATOM     41  C   UNL A   1      40.951  24.448  27.903  1.00  0.00     0.031 C 
ATOM     42  C   UNL A   1      46.019  23.887  27.569  1.00  0.00     0.029 A 
ATOM     43  N   UNL A   1      45.469  26.024  27.711  1.00  0.00    -0.354 N 
ATOM     44  C   UNL A   1      40.611  26.685  27.754  1.00  0.00     0.074 A 
ATOM     45  C   UNL A   1      40.018  25.401  27.965  1.00  0.00     0.031 C 
ATOM     46  C   UNL A   1      47.179  24.582  27.595  1.00  0.00     0.029 A 
ATOM     47  C   UNL A   1      46.890  26.002  27.622  1.00  0.00     0.049 A 
ATOM     48  H   UNL A   1      44.964  26.858  27.850  1.00  0.00     0.167 HD
ATOM     49  C   UNL A   1      40.072  27.931  27.910  1.00  0.00     0.031 A 
ATOM     50  C   UNL A   1      47.767  27.052  27.521  1.00  0.00     0.031 A 
ATOM     51  C   UNL A   1      41.025  28.925  27.564  1.00  0.00     0.049 A 
ATOM     52  C   UNL A   1      46.944  28.257  27.661  1.00  0.00     0.074 A 
ATOM     53  C   UNL A   1      41.518  29.360  26.362  1.00  0.00     0.029 A 
ATOM     54  N   UNL A   1      41.839  29.368  28.572  1.00  0.00    -0.354 N 
ATOM     55  N   UNL A   1      46.476  28.703  28.782  1.00  0.00    -0.248 NA
ATOM     56  C   UNL A   1      46.563  29.000  26.453  1.00  0.00     0.031 C 
ATOM     57  C   UNL A   1      42.877  29.613  26.646  1.00  0.00     0.029 A 
ATOM     58  C   UNL A   1      43.088  29.521  28.025  1.00  0.00     0.049 A 
ATOM     59  H   UNL A   1      41.579  29.543  29.506  1.00  0.00     0.167 HD
ATOM     60  C   UNL A   1      45.450  29.510  28.364  1.00  0.00     0.074 A 
ATOM     61  C   UNL A   1      45.768  29.910  27.010  1.00  0.00     0.031 C 
ATOM     62  C   UNL A   1      44.216  29.358  28.903  1.00  0.00     0.031 A 
BRANCH  49  63
ATOM     63  C   UNL A   1      38.797  28.410  28.554  1.00  0.00    -0.014 A 
ATOM     64  C   UNL A   1      38.072  29.430  27.887  1.00  0.00     0.009 A 
ATOM     65  C   UNL A   1      38.476  28.172  29.893  1.00  0.00     0.009 A 
ATOM     66  C   UNL A   1      37.168  30.258  28.556  1.00  0.00     0.001 A 
ATOM     67  C   UNL A   1      37.538  28.981  30.557  1.00  0.00     0.001 A 
ATOM     68  C   UNL A   1      36.917  30.045  29.902  1.00  0.00     0.000 A 
ENDBRANCH  49  63
BRANCH  50  69
ATOM     69  C   UNL A   1      49.232  27.317  27.259  1.00  0.00    -0.014 A 
ATOM     70  C   UNL A   1      50.130  27.960  28.112  1.00  0.00     0.009 A 
ATOM     71  C   UNL A   1      49.794  26.853  26.031  1.00  0.00     0.009 A 
ATOM     72  C   UNL A   1      51.507  28.050  27.788  1.00  0.00     0.001 A 
ATOM     73  C   UNL A   1      51.154  26.903  25.722  1.00  0.00     0.001 A 
ATOM     74  C   UNL A   1      52.021  27.495  26.614  1.00  0.00     0.000 A 
ENDBRANCH  50  69
BRANCH  62  75
ATOM     75  C   UNL A   1      44.190  28.623  30.238  1.00  0.00    -0.014 A 
ATOM     76  C   UNL A   1      44.635  29.268  31.401  1.00  0.00     0.009 A 
ATOM     77  C   UNL A   1      43.859  27.259  30.349  1.00  0.00     0.009 A 
ATOM     78  C   UNL A   1      44.767  28.578  32.614  1.00  0.00     0.001 A 
ATOM     79  C   UNL A   1      43.985  26.564  31.563  1.00  0.00     0.001 A 
ATOM     80  C   UNL A   1      44.444  27.226  32.696  1.00  0.00     0.000 A 
ENDBRANCH  62  75
ENDBRANCH  36  37
ENDBRANCH  28  31
ENDBRANCH  26  27
ENDBRANCH  25  26
ENDBRANCH  24  25
ENDBRANCH   1  24
TORSDOF 15
ENDMDL
MODEL 2
REMARK VINA RESULT:     -11.3      2.677      7.406
REMARK SMILES CN(C(=O)c1cccn1CC(=O)NCCCCNC(=O)c1ccc(-c2c3nc(c(-c4ccccc4)c4ccc([nH]4)c(-c4ccccc4)c4nc(c(-c5ccccc5)c5ccc2[nH]5)C=C4)C=C3)cc1)C1CCC(C)(C)CC1
REMARK SMILES IDX 14 1 13 2 11 3 12 4 10 6 9 7 5 8 6 9 7 10 8 11 3 12 4 13
REMARK SMILES IDX 2 14 1 15 69 16 70 17 76 18 71 19 75 20 72 21 73 22 74 23
REMARK SMILES IDX 15 24 16 25 17 26 18 27 19 28 20 30 21 31 22 32 68 33 23 34
REMARK SMILES IDX 67 35 24 36 25 37 26 38 61 39 27 40 66 41 60 42 62 43 28 44
REMARK SMILES IDX 65 45 59 46 58 47 29 49 51 50 36 51 50 52 37 53 40 54 49 55
REMARK SMILES IDX 63 56 38 57 39 58 48 60 64 61 41 62 30 63 31 64 35 65 32 66
REMARK SMILES IDX 34 67 33 68 52 69 53 70 57 71 54 72 56 73 55 74 42 75 43 76
REMARK SMILES IDX 47 77 44 78 46 79 45 80
REMARK H PARENT 13 5 18 29 62 48 40 59
REMARK Flexibility Score: inf
ROOT
ATOM      1  C   UNL A   1      32.367  29.365  24.767  1.00  0.00     0.116 C 
ENDROOT
BRANCH   1   2
ATOM      2  N   UNL A   1      31.442  29.613  23.690  1.00  0.00    -0.355 N 
ATOM      3  C   UNL A   1      30.909  28.676  22.839  1.00  0.00     0.239 C 
ATOM      4  O   UNL A   1      29.976  29.023  22.112  1.00  0.00    -0.273 OA
ATOM      5  H   UNL A   1      31.165  30.547  23.550  1.00  0.00     0.163 HD
BRANCH   3   6
ATOM      6  C   UNL A   1      31.422  27.239  22.843  1.00  0.00     0.222 C 
BRANCH   6   7
ATOM      7  N   UNL A   1      31.074  26.486  24.047  1.00  0.00    -0.334 N 
ATOM      8  C   UNL A   1      31.903  25.626  24.770  1.00  0.00     0.107 A 
ATOM      9  C   UNL A   1      31.172  25.282  25.903  1.00  0.00     0.033 A 
ATOM     10  C   UNL A   1      29.858  25.784  25.773  1.00  0.00     0.020 A 
ATOM     11  C   UNL A   1      29.827  26.533  24.625  1.00  0.00     0.087 A 
BRANCH   8  12
ATOM     12  C   UNL A   1      33.284  25.292  24.392  1.00  0.00     0.270 C 
ATOM     13  O   UNL A   1      34.196  25.939  24.886  1.00  0.00    -0.267 OA
BRANCH  12  14
ATOM     14  N   UNL A   1      33.521  24.305  23.406  1.00  0.00    -0.337 N 
ATOM     15  C   UNL A   1      33.403  24.577  21.970  1.00  0.00     0.147 C 
BRANCH  14  16
ATOM     16  C   UNL A   1      33.921  22.888  23.724  1.00  0.00     0.085 C 
ATOM     17  C   UNL A   1      35.296  22.539  23.125  1.00  0.00     0.026 C 
ATOM     18  C   UNL A   1      33.940  22.377  25.180  1.00  0.00     0.026 C 
ATOM     19  C   UNL A   1      36.364  23.329  23.854  1.00  0.00     0.008 C 
ATOM     20  C   UNL A   1      35.172  22.726  26.043  1.00  0.00     0.008 C 
ATOM     21  C   UNL A   1      36.533  22.943  25.327  1.00  0.00    -0.035 C 
ATOM     22  C   UNL A   1      37.298  24.075  26.055  1.00  0.00     0.011 C 
ATOM     23  C   UNL A   1      37.417  21.686  25.398  1.00  0.00     0.011 C 
ENDBRANCH  14  16
ENDBRANCH  12  14
ENDBRANCH   8  12
ENDBRANCH   6   7
ENDBRANCH   3   6
ENDBRANCH   1   2
BRANCH   1  24
ATOM     24  C   UNL A   1      31.778  29.428  26.170  1.00  0.00     0.023 C 
BRANCH  24  25
ATOM     25  C   UNL A   1      32.624  28.751  27.251  1.00  0.00     0.023 C 
BRANCH  25  26
ATOM     26  C   UNL A   1      34.103  29.158  27.266  1.00  0.00     0.116 C 
BRANCH  26  27
ATOM     27  N   UNL A   1      34.323  30.436  27.924  1.00  0.00    -0.352 N 
ATOM     28  C   UNL A   1      35.353  30.814  28.753  1.00  0.00     0.251 C 
ATOM     29  H   UNL A   1      33.641  31.125  27.753  1.00  0.00     0.163 HD
ATOM     30  O   UNL A   1      35.206  31.787  29.488  1.00  0.00    -0.269 OA
BRANCH  28  31
ATOM     31  C   UNL A   1      36.633  30.071  28.787  1.00  0.00     0.039 A 
ATOM     32  C   UNL A   1      37.417  30.044  27.626  1.00  0.00     0.014 A 
ATOM     33  C   UNL A   1      37.021  29.328  29.907  1.00  0.00     0.014 A 
ATOM     34  C   UNL A   1      38.613  29.327  27.611  1.00  0.00     0.010 A 
ATOM     35  C   UNL A   1      38.221  28.619  29.902  1.00  0.00     0.010 A 
ATOM     36  C   UNL A   1      39.028  28.637  28.760  1.00  0.00    -0.014 A 
BRANCH  36  37
ATOM     37  C   UNL A   1      40.419  28.120  28.810  1.00  0.00     0.031 A 
ATOM     38  C   UNL A   1      41.433  29.263  29.065  1.00  0.00     0.074 A 
ATOM     39  C   UNL A   1      40.598  26.779  28.593  1.00  0.00     0.049 A 
ATOM     40  N   UNL A   1      42.700  29.340  28.791  1.00  0.00    -0.248 NA
ATOM     41  C   UNL A   1      40.954  30.530  29.694  1.00  0.00     0.031 C 
ATOM     42  C   UNL A   1      39.504  25.785  28.469  1.00  0.00     0.029 A 
ATOM     43  N   UNL A   1      41.708  25.972  28.431  1.00  0.00    -0.354 N 
ATOM     44  C   UNL A   1      43.190  30.560  29.319  1.00  0.00     0.074 A 
ATOM     45  C   UNL A   1      42.053  31.278  29.807  1.00  0.00     0.031 C 
ATOM     46  C   UNL A   1      39.990  24.556  28.180  1.00  0.00     0.029 A 
ATOM     47  C   UNL A   1      41.435  24.621  28.074  1.00  0.00     0.049 A 
ATOM     48  H   UNL A   1      42.625  26.308  28.553  1.00  0.00     0.167 HD
ATOM     49  C   UNL A   1      44.519  30.865  29.409  1.00  0.00     0.031 A 
ATOM     50  C   UNL A   1      42.303  23.641  27.669  1.00  0.00     0.031 A 
ATOM     51  C   UNL A   1      45.295  29.871  28.758  1.00  0.00     0.049 A 
ATOM     52  C   UNL A   1      43.639  24.229  27.804  1.00  0.00     0.074 A 
ATOM     53  C   UNL A   1      45.519  29.584  27.437  1.00  0.00     0.029 A 
ATOM     54  N   UNL A   1      45.692  28.807  29.524  1.00  0.00    -0.354 N 
ATOM     55  N   UNL A   1      44.268  24.379  28.925  1.00  0.00    -0.248 NA
ATOM     56  C   UNL A   1      44.313  24.743  26.604  1.00  0.00     0.031 C 
ATOM     57  C   UNL A   1      45.562  28.175  27.419  1.00  0.00     0.029 A 
ATOM     58  C   UNL A   1      45.574  27.693  28.732  1.00  0.00     0.049 A 
ATOM     59  H   UNL A   1      46.000  28.835  30.459  1.00  0.00     0.167 HD
ATOM     60  C   UNL A   1      45.193  25.340  28.608  1.00  0.00     0.074 A 
ATOM     61  C   UNL A   1      45.396  25.260  27.178  1.00  0.00     0.031 C 
ATOM     62  C   UNL A   1      45.309  26.442  29.391  1.00  0.00     0.031 A 
BRANCH  49  63
ATOM     63  C   UNL A   1      45.270  31.891  30.217  1.00  0.00    -0.014 A 
ATOM     64  C   UNL A   1      45.170  31.810  31.630  1.00  0.00     0.009 A 
ATOM     65  C   UNL A   1      45.757  33.086  29.681  1.00  0.00     0.009 A 
ATOM     66  C   UNL A   1      45.416  32.909  32.457  1.00  0.00     0.001 A 
ATOM     67  C   UNL A   1      46.041  34.180  30.516  1.00  0.00     0.001 A 
ATOM     68  C   UNL A   1      45.833  34.105  31.893  1.00  0.00     0.000 A 
ENDBRANCH  49  63
BRANCH  50  69
ATOM     69  C   UNL A   1      42.287  22.241  27.097  1.00  0.00    -0.014 A 
ATOM     70  C   UNL A   1      43.142  21.726  26.122  1.00  0.00     0.009 A 
ATOM     71  C   UNL A   1      41.323  21.316  27.603  1.00  0.00     0.009 A 
ATOM     72  C   UNL A   1      43.086  20.360  25.750  1.00  0.00     0.001 A 
ATOM     73  C   UNL A   1      41.287  19.960  27.271  1.00  0.00     0.001 A 
ATOM     74  C   UNL A   1      42.185  19.475  26.345  1.00  0.00     0.000 A 
ENDBRANCH  50  69
BRANCH  62  75
ATOM     75  C   UNL A   1      44.725  26.293  30.791  1.00  0.00    -0.014 A 
ATOM     76  C   UNL A   1      43.639  27.089  31.184  1.00  0.00     0.009 A 
ATOM     77  C   UNL A   1      45.312  25.478  31.777  1.00  0.00     0.009 A 
ATOM     78  C   UNL A   1      43.175  27.088  32.506  1.00  0.00     0.001 A 
ATOM     79  C   UNL A   1      44.848  25.470  33.102  1.00  0.00     0.001 A 
ATOM     80  C   UNL A   1      43.778  26.281  33.467  1.00  0.00     0.000 A 
ENDBRANCH  62  75
ENDBRANCH  36  37
ENDBRANCH  28  31
ENDBRANCH  26  27
ENDBRANCH  25  26
ENDBRANCH  24  25
ENDBRANCH   1  24
TORSDOF 15
ENDMDL
MODEL 3
REMARK VINA RESULT:     -11.3      2.373      8.186
REMARK SMILES CN(C(=O)c1cccn1CC(=O)NCCCCNC(=O)c1ccc(-c2c3nc(c(-c4ccccc4)c4ccc([nH]4)c(-c4ccccc4)c4nc(c(-c5ccccc5)c5ccc2[nH]5)C=C4)C=C3)cc1)C1CCC(C)(C)CC1
REMARK SMILES IDX 14 1 13 2 11 3 12 4 10 6 9 7 5 8 6 9 7 10 8 11 3 12 4 13
REMARK SMILES IDX 2 14 1 15 69 16 70 17 76 18 71 19 75 20 72 21 73 22 74 23
REMARK SMILES IDX 15 24 16 25 17 26 18 27 19 28 20 30 21 31 22 32 68 33 23 34
REMARK SMILES IDX 67 35 24 36 25 37 26 38 61 39 27 40 66 41 60 42 62 43 28 44
REMARK SMILES IDX 65 45 59 46 58 47 29 49 51 50 36 51 50 52 37 53 40 54 49 55
REMARK SMILES IDX 63 56 38 57 39 58 48 60 64 61 41 62 30 63 31 64 35 65 32 66
REMARK SMILES IDX 34 67 33 68 52 69 53 70 57 71 54 72 56 73 55 74 42 75 43 76
REMARK SMILES IDX 47 77 44 78 46 79 45 80
REMARK H PARENT 13 5 18 29 62 48 40 59
REMARK Flexibility Score: inf
ROOT
ATOM      1  C   UNL A   1      33.090  29.358  24.957  1.00  0.00     0.116 C 
ENDROOT
BRANCH   1   2
ATOM      2  N   UNL A   1      31.935  29.671  24.155  1.00  0.00    -0.355 N 
ATOM      3  C   UNL A   1      30.890  28.828  23.863  1.00  0.00     0.239 C 
ATOM      4  O   UNL A   1      29.884  29.315  23.343  1.00  0.00    -0.273 OA
ATOM      5  H   UNL A   1      31.889  30.579  23.779  1.00  0.00     0.163 HD
BRANCH   3   6
ATOM      6  C   UNL A   1      30.957  27.348  24.229  1.00  0.00     0.222 C 
BRANCH   6   7
ATOM      7  N   UNL A   1      31.780  26.548  23.323  1.00  0.00    -0.334 N 
ATOM      8  C   UNL A   1      32.838  25.705  23.669  1.00  0.00     0.107 A 
ATOM      9  C   UNL A   1      33.190  25.058  22.490  1.00  0.00     0.033 A 
ATOM     10  C   UNL A   1      32.474  25.634  21.417  1.00  0.00     0.020 A 
ATOM     11  C   UNL A   1      31.602  26.543  21.959  1.00  0.00     0.087 A 
BRANCH   8  12
ATOM     12  C   UNL A   1      33.341  25.526  25.039  1.00  0.00     0.270 C 
ATOM     13  O   UNL A   1      34.303  26.190  25.398  1.00  0.00    -0.267 OA
BRANCH  12  14
ATOM     14  N   UNL A   1      32.771  24.532  25.870  1.00  0.00    -0.337 N 
ATOM     15  C   UNL A   1      31.467  24.696  26.519  1.00  0.00     0.147 C 
BRANCH  14  16
ATOM     16  C   UNL A   1      33.435  23.213  26.167  1.00  0.00     0.085 C 
ATOM     17  C   UNL A   1      32.404  22.078  26.306  1.00  0.00     0.026 C 
ATOM     18  C   UNL A   1      34.560  22.669  25.261  1.00  0.00     0.026 C 
ATOM     19  C   UNL A   1      31.784  21.809  24.949  1.00  0.00     0.008 C 
ATOM     20  C   UNL A   1      34.143  21.958  23.955  1.00  0.00     0.008 C 
ATOM     21  C   UNL A   1      32.762  21.247  23.913  1.00  0.00    -0.035 C 
ATOM     22  C   UNL A   1      32.155  21.432  22.502  1.00  0.00     0.011 C 
ATOM     23  C   UNL A   1      32.898  19.733  24.149  1.00  0.00     0.011 C 
ENDBRANCH  14  16
ENDBRANCH  12  14
ENDBRANCH   8  12
ENDBRANCH   6   7
ENDBRANCH   3   6
ENDBRANCH   1   2
BRANCH   1  24
ATOM     24  C   UNL A   1      32.867  29.356  26.463  1.00  0.00     0.023 C 
BRANCH  24  25
ATOM     25  C   UNL A   1      33.566  30.491  27.216  1.00  0.00     0.023 C 
BRANCH  25  26
ATOM     26  C   UNL A   1      34.964  30.151  27.749  1.00  0.00     0.116 C 
BRANCH  26  27
ATOM     27  N   UNL A   1      35.331  30.957  28.902  1.00  0.00    -0.352 N 
ATOM     28  C   UNL A   1      36.419  30.829  29.734  1.00  0.00     0.251 C 
ATOM     29  H   UNL A   1      34.717  31.696  29.118  1.00  0.00     0.163 HD
ATOM     30  O   UNL A   1      36.393  31.357  30.842  1.00  0.00    -0.269 OA
BRANCH  28  31
ATOM     31  C   UNL A   1      37.618  30.062  29.328  1.00  0.00     0.039 A 
ATOM     32  C   UNL A   1      38.373  29.430  30.325  1.00  0.00     0.014 A 
ATOM     33  C   UNL A   1      38.058  30.038  28.000  1.00  0.00     0.014 A 
ATOM     34  C   UNL A   1      39.527  28.727  29.982  1.00  0.00     0.010 A 
ATOM     35  C   UNL A   1      39.205  29.326  27.650  1.00  0.00     0.010 A 
ATOM     36  C   UNL A   1      39.928  28.652  28.639  1.00  0.00    -0.014 A 
BRANCH  36  37
ATOM     37  C   UNL A   1      40.987  27.679  28.270  1.00  0.00     0.031 A 
ATOM     38  C   UNL A   1      42.372  28.367  28.178  1.00  0.00     0.074 A 
ATOM     39  C   UNL A   1      40.597  26.387  28.036  1.00  0.00     0.049 A 
ATOM     40  N   UNL A   1      43.441  28.021  27.527  1.00  0.00    -0.248 NA
ATOM     41  C   UNL A   1      42.590  29.658  28.897  1.00  0.00     0.031 C 
ATOM     42  C   UNL A   1      39.234  25.854  28.275  1.00  0.00     0.029 A 
ATOM     43  N   UNL A   1      41.241  25.261  27.559  1.00  0.00    -0.354 N 
ATOM     44  C   UNL A   1      44.470  28.938  27.853  1.00  0.00     0.074 A 
ATOM     45  C   UNL A   1      43.866  29.960  28.652  1.00  0.00     0.031 C 
ATOM     46  C   UNL A   1      39.136  24.565  27.876  1.00  0.00     0.029 A 
ATOM     47  C   UNL A   1      40.407  24.130  27.331  1.00  0.00     0.049 A 
ATOM     48  H   UNL A   1      42.210  25.243  27.386  1.00  0.00     0.167 HD
ATOM     49  C   UNL A   1      45.783  28.750  27.525  1.00  0.00     0.031 A 
ATOM     50  C   UNL A   1      40.703  22.950  26.699  1.00  0.00     0.031 A 
ATOM     51  C   UNL A   1      45.920  27.611  26.688  1.00  0.00     0.049 A 
ATOM     52  C   UNL A   1      42.137  23.018  26.405  1.00  0.00     0.074 A 
ATOM     53  C   UNL A   1      45.627  27.388  25.369  1.00  0.00     0.029 A 
ATOM     54  N   UNL A   1      46.112  26.410  27.317  1.00  0.00    -0.354 N 
ATOM     55  N   UNL A   1      43.077  22.835  27.276  1.00  0.00    -0.248 NA
ATOM     56  C   UNL A   1      42.567  23.373  25.047  1.00  0.00     0.031 C 
ATOM     57  C   UNL A   1      45.151  26.060  25.367  1.00  0.00     0.029 A 
ATOM     58  C   UNL A   1      45.372  25.486  26.623  1.00  0.00     0.049 A 
ATOM     59  H   UNL A   1      46.669  26.242  28.111  1.00  0.00     0.167 HD
ATOM     60  C   UNL A   1      44.149  23.437  26.671  1.00  0.00     0.074 A 
ATOM     61  C   UNL A   1      43.881  23.423  25.250  1.00  0.00     0.031 C 
ATOM     62  C   UNL A   1      44.879  24.351  27.357  1.00  0.00     0.031 A 
BRANCH  49  63
ATOM     63  C   UNL A   1      47.055  29.369  28.042  1.00  0.00    -0.014 A 
ATOM     64  C   UNL A   1      48.147  29.465  27.142  1.00  0.00     0.009 A 
ATOM     65  C   UNL A   1      47.335  29.529  29.402  1.00  0.00     0.009 A 
ATOM     66  C   UNL A   1      49.467  29.581  27.584  1.00  0.00     0.001 A 
ATOM     67  C   UNL A   1      48.660  29.685  29.845  1.00  0.00     0.001 A 
ATOM     68  C   UNL A   1      49.725  29.670  28.943  1.00  0.00     0.000 A 
ENDBRANCH  49  63
BRANCH  50  69
ATOM     69  C   UNL A   1      40.015  21.703  26.189  1.00  0.00    -0.014 A 
ATOM     70  C   UNL A   1      40.543  20.412  26.156  1.00  0.00     0.009 A 
ATOM     71  C   UNL A   1      38.676  21.819  25.707  1.00  0.00     0.009 A 
ATOM     72  C   UNL A   1      39.751  19.310  25.749  1.00  0.00     0.001 A 
ATOM     73  C   UNL A   1      37.876  20.735  25.343  1.00  0.00     0.001 A 
ATOM     74  C   UNL A   1      38.414  19.467  25.376  1.00  0.00     0.000 A 
ENDBRANCH  50  69
BRANCH  62  75
ATOM     75  C   UNL A   1      44.720  24.288  28.871  1.00  0.00    -0.014 A 
ATOM     76  C   UNL A   1      44.456  23.060  29.496  1.00  0.00     0.009 A 
ATOM     77  C   UNL A   1      44.693  25.438  29.683  1.00  0.00     0.009 A 
ATOM     78  C   UNL A   1      44.155  22.987  30.863  1.00  0.00     0.001 A 
ATOM     79  C   UNL A   1      44.396  25.369  31.053  1.00  0.00     0.001 A 
ATOM     80  C   UNL A   1      44.124  24.140  31.642  1.00  0.00     0.000 A 
ENDBRANCH  62  75
ENDBRANCH  36  37
ENDBRANCH  28  31
ENDBRANCH  26  27
ENDBRANCH  25  26
ENDBRANCH  24  25
ENDBRANCH   1  24
TORSDOF 15
ENDMDL
