MODEL 1
REMARK VINA RESULT:     -11.2      0.000      0.000
REMARK SMILES O=C(NCCCCNC(=O)c1cccc(S(=O)(=O)NC[C@@H]2CCOC2)c1)c1ccc(-c2c3nc(c(-c4ccccc4)c4ccc([nH]4)c(-c4ccccc4)c4nc(c(-c5ccccc5)c5ccc2[nH]5)C=C4)C=C3)cc1
REMARK SMILES IDX 6 1 5 2 4 3 3 4 1 5 2 6 27 8 28 9 74 10 29 11 73 12 30 13
REMARK SMILES IDX 31 14 32 15 67 16 33 17 72 18 66 19 68 20 34 21 71 22 65 23
REMARK SMILES IDX 64 24 35 26 57 27 42 28 56 29 43 30 46 31 55 32 69 33 44 34
REMARK SMILES IDX 45 35 54 37 70 38 47 39 36 40 37 41 41 42 38 43 40 44 39 45
REMARK SMILES IDX 58 46 59 47 63 48 60 49 62 50 61 51 48 52 49 53 53 54 50 55
REMARK SMILES IDX 52 56 51 57 7 58 8 59 9 60 10 62 11 63 12 64 26 65 13 66
REMARK SMILES IDX 15 67 14 68 16 69 17 70 18 71 19 72 20 74 21 75 22 76 25 77
REMARK SMILES IDX 23 78 24 79
REMARK H PARENT 3 7 68 25 46 36 8 61 19 73
REMARK Flexibility Score: inf
ROOT
ATOM      1  C   UNL A   1      37.110  21.036  24.646  1.00  0.00     0.023 C 
ENDROOT
BRANCH   1   2
ATOM      2  C   UNL A   1      38.039  19.873  24.954  1.00  0.00     0.023 C 
BRANCH   2   3
ATOM      3  C   UNL A   1      39.163  20.199  25.924  1.00  0.00     0.116 C 
BRANCH   3   4
ATOM      4  N   UNL A   1      40.270  19.253  25.867  1.00  0.00    -0.352 N 
ATOM      5  O   UNL A   1      42.437  18.601  25.877  1.00  0.00    -0.269 OA
ATOM      6  C   UNL A   1      41.610  19.481  26.081  1.00  0.00     0.251 C 
ATOM      7  H   UNL A   1      40.026  18.325  25.645  1.00  0.00     0.163 HD
BRANCH   6   8
ATOM      8  C   UNL A   1      42.041  20.819  26.534  1.00  0.00     0.039 A 
ATOM      9  C   UNL A   1      42.012  21.128  27.894  1.00  0.00     0.014 A 
ATOM     10  C   UNL A   1      42.406  21.786  25.595  1.00  0.00     0.014 A 
ATOM     11  C   UNL A   1      42.152  22.446  28.294  1.00  0.00     0.010 A 
ATOM     12  C   UNL A   1      42.679  23.090  26.019  1.00  0.00     0.010 A 
ATOM     13  C   UNL A   1      42.521  23.438  27.369  1.00  0.00    -0.014 A 
BRANCH  13  14
ATOM     14  C   UNL A   1      42.823  24.798  27.884  1.00  0.00     0.031 A 
ATOM     15  C   UNL A   1      41.745  25.816  28.129  1.00  0.00     0.074 A 
ATOM     16  C   UNL A   1      44.105  25.077  28.196  1.00  0.00     0.049 A 
ATOM     17  N   UNL A   1      41.857  27.017  28.640  1.00  0.00    -0.248 NA
ATOM     18  C   UNL A   1      40.370  25.453  27.752  1.00  0.00     0.031 C 
ATOM     19  C   UNL A   1      45.239  24.166  27.992  1.00  0.00     0.029 A 
ATOM     20  N   UNL A   1      44.670  26.177  28.783  1.00  0.00    -0.354 N 
ATOM     21  C   UNL A   1      40.577  27.557  28.637  1.00  0.00     0.074 A 
ATOM     22  C   UNL A   1      39.706  26.564  28.046  1.00  0.00     0.031 C 
ATOM     23  C   UNL A   1      46.343  24.713  28.515  1.00  0.00     0.029 A 
ATOM     24  C   UNL A   1      46.019  26.044  29.007  1.00  0.00     0.049 A 
ATOM     25  H   UNL A   1      44.159  26.984  29.023  1.00  0.00     0.167 HD
ATOM     26  C   UNL A   1      40.169  28.767  29.090  1.00  0.00     0.031 A 
ATOM     27  C   UNL A   1      46.909  26.905  29.530  1.00  0.00     0.031 A 
ATOM     28  C   UNL A   1      41.046  29.756  29.668  1.00  0.00     0.049 A 
ATOM     29  C   UNL A   1      46.429  28.251  29.980  1.00  0.00     0.074 A 
ATOM     30  C   UNL A   1      40.723  31.008  30.165  1.00  0.00     0.029 A 
ATOM     31  N   UNL A   1      42.414  29.606  29.826  1.00  0.00    -0.354 N 
ATOM     32  N   UNL A   1      45.210  28.732  29.992  1.00  0.00    -0.248 NA
ATOM     33  C   UNL A   1      47.452  29.173  30.490  1.00  0.00     0.031 C 
ATOM     34  C   UNL A   1      41.905  31.636  30.572  1.00  0.00     0.029 A 
ATOM     35  C   UNL A   1      42.954  30.752  30.390  1.00  0.00     0.049 A 
ATOM     36  H   UNL A   1      42.928  28.804  29.574  1.00  0.00     0.167 HD
ATOM     37  C   UNL A   1      45.316  30.009  30.520  1.00  0.00     0.074 A 
ATOM     38  C   UNL A   1      46.712  30.210  30.853  1.00  0.00     0.031 C 
ATOM     39  C   UNL A   1      44.347  30.939  30.705  1.00  0.00     0.031 A 
BRANCH  26  40
ATOM     40  C   UNL A   1      38.710  29.112  28.964  1.00  0.00    -0.014 A 
ATOM     41  C   UNL A   1      37.826  28.943  30.043  1.00  0.00     0.009 A 
ATOM     42  C   UNL A   1      38.226  29.689  27.778  1.00  0.00     0.009 A 
ATOM     43  C   UNL A   1      36.487  29.327  29.929  1.00  0.00     0.001 A 
ATOM     44  C   UNL A   1      36.895  30.095  27.676  1.00  0.00     0.001 A 
ATOM     45  C   UNL A   1      36.024  29.909  28.749  1.00  0.00     0.000 A 
ENDBRANCH  26  40
BRANCH  27  46
ATOM     46  C   UNL A   1      48.347  26.535  29.608  1.00  0.00    -0.014 A 
ATOM     47  C   UNL A   1      49.226  26.831  28.557  1.00  0.00     0.009 A 
ATOM     48  C   UNL A   1      48.841  25.861  30.737  1.00  0.00     0.009 A 
ATOM     49  C   UNL A   1      50.562  26.428  28.621  1.00  0.00     0.001 A 
ATOM     50  C   UNL A   1      50.184  25.496  30.815  1.00  0.00     0.001 A 
ATOM     51  C   UNL A   1      51.040  25.766  29.751  1.00  0.00     0.000 A 
ENDBRANCH  27  46
BRANCH  39  52
ATOM     52  C   UNL A   1      44.774  32.242  31.318  1.00  0.00    -0.014 A 
ATOM     53  C   UNL A   1      45.182  33.325  30.520  1.00  0.00     0.009 A 
ATOM     54  C   UNL A   1      44.775  32.388  32.713  1.00  0.00     0.009 A 
ATOM     55  C   UNL A   1      45.631  34.506  31.111  1.00  0.00     0.001 A 
ATOM     56  C   UNL A   1      45.190  33.583  33.299  1.00  0.00     0.001 A 
ATOM     57  C   UNL A   1      45.632  34.636  32.499  1.00  0.00     0.000 A 
ENDBRANCH  39  52
ENDBRANCH  13  14
ENDBRANCH   6   8
ENDBRANCH   3   4
ENDBRANCH   2   3
ENDBRANCH   1   2
BRANCH   1  58
ATOM     58  C   UNL A   1      35.777  20.990  25.373  1.00  0.00     0.116 C 
BRANCH  58  59
ATOM     59  N   UNL A   1      35.016  19.781  25.091  1.00  0.00    -0.352 N 
ATOM     60  C   UNL A   1      33.683  19.643  24.796  1.00  0.00     0.251 C 
ATOM     61  H   UNL A   1      35.532  18.943  25.117  1.00  0.00     0.163 HD
ATOM     62  O   UNL A   1      33.174  18.529  24.741  1.00  0.00    -0.269 OA
BRANCH  60  63
ATOM     63  C   UNL A   1      32.862  20.842  24.529  1.00  0.00     0.041 A 
ATOM     64  C   UNL A   1      32.719  21.297  23.216  1.00  0.00     0.014 A 
ATOM     65  C   UNL A   1      32.253  21.525  25.584  1.00  0.00     0.035 A 
ATOM     66  C   UNL A   1      31.919  22.411  22.956  1.00  0.00     0.002 A 
ATOM     67  C   UNL A   1      31.455  22.629  25.323  1.00  0.00     0.083 A 
ATOM     68  C   UNL A   1      31.283  23.076  24.008  1.00  0.00     0.022 A 
BRANCH  67  69
ATOM     69  S   UNL A   1      30.623  23.478  26.632  1.00  0.00     0.240 S 
ATOM     70  O   UNL A   1      29.538  22.635  27.074  1.00  0.00    -0.207 OA
ATOM     71  O   UNL A   1      31.658  23.901  27.549  1.00  0.00    -0.207 OA
BRANCH  69  72
ATOM     72  N   UNL A   1      29.983  24.909  26.043  1.00  0.00    -0.211 NA
ATOM     73  H   UNL A   1      29.131  25.045  26.589  1.00  0.00     0.141 HD
BRANCH  72  74
ATOM     74  C   UNL A   1      30.576  26.245  25.971  1.00  0.00     0.105 C 
BRANCH  74  75
ATOM     75  C   UNL A   1      31.055  26.806  24.642  1.00  0.00     0.032 C 
ATOM     76  C   UNL A   1      31.241  28.304  24.574  1.00  0.00     0.036 C 
ATOM     77  C   UNL A   1      30.217  26.460  23.428  1.00  0.00     0.165 C 
ATOM     78  C   UNL A   1      30.119  28.770  23.682  1.00  0.00     0.160 C 
ATOM     79  O   UNL A   1      29.802  27.680  22.813  1.00  0.00    -0.381 OA
ENDBRANCH  74  75
ENDBRANCH  72  74
ENDBRANCH  69  72
ENDBRANCH  67  69
ENDBRANCH  60  63
ENDBRANCH  58  59
ENDBRANCH   1  58
TORSDOF 15
ENDMDL
MODEL 2
REMARK VINA RESULT:     -11.1      4.154      9.371
REMARK SMILES O=C(NCCCCNC(=O)c1cccc(S(=O)(=O)NC[C@@H]2CCOC2)c1)c1ccc(-c2c3nc(c(-c4ccccc4)c4ccc([nH]4)c(-c4ccccc4)c4nc(c(-c5ccccc5)c5ccc2[nH]5)C=C4)C=C3)cc1
REMARK SMILES IDX 6 1 5 2 4 3 3 4 1 5 2 6 27 8 28 9 74 10 29 11 73 12 30 13
REMARK SMILES IDX 31 14 32 15 67 16 33 17 72 18 66 19 68 20 34 21 71 22 65 23
REMARK SMILES IDX 64 24 35 26 57 27 42 28 56 29 43 30 46 31 55 32 69 33 44 34
REMARK SMILES IDX 45 35 54 37 70 38 47 39 36 40 37 41 41 42 38 43 40 44 39 45
REMARK SMILES IDX 58 46 59 47 63 48 60 49 62 50 61 51 48 52 49 53 53 54 50 55
REMARK SMILES IDX 52 56 51 57 7 58 8 59 9 60 10 62 11 63 12 64 26 65 13 66
REMARK SMILES IDX 15 67 14 68 16 69 17 70 18 71 19 72 20 74 21 75 22 76 25 77
REMARK SMILES IDX 23 78 24 79
REMARK H PARENT 3 7 68 25 46 36 8 61 19 73
REMARK Flexibility Score: inf
ROOT
ATOM      1  C   UNL A   1      31.611  30.440  26.507  1.00  0.00     0.023 C 
ENDROOT
BRANCH   1   2
ATOM      2  C   UNL A   1      31.490  31.954  26.562  1.00  0.00     0.023 C 
BRANCH   2   3
ATOM      3  C   UNL A   1      32.638  32.656  27.268  1.00  0.00     0.116 C 
BRANCH   3   4
ATOM      4  N   UNL A   1      32.340  34.037  27.625  1.00  0.00    -0.352 N 
ATOM      5  O   UNL A   1      32.524  35.953  28.816  1.00  0.00    -0.269 OA
ATOM      6  C   UNL A   1      32.971  34.847  28.542  1.00  0.00     0.251 C 
ATOM      7  H   UNL A   1      31.585  34.448  27.143  1.00  0.00     0.163 HD
BRANCH   6   8
ATOM      8  C   UNL A   1      34.185  34.344  29.217  1.00  0.00     0.039 A 
ATOM      9  C   UNL A   1      35.436  34.574  28.644  1.00  0.00     0.014 A 
ATOM     10  C   UNL A   1      34.068  33.584  30.383  1.00  0.00     0.014 A 
ATOM     11  C   UNL A   1      36.538  33.883  29.120  1.00  0.00     0.010 A 
ATOM     12  C   UNL A   1      35.208  32.996  30.940  1.00  0.00     0.010 A 
ATOM     13  C   UNL A   1      36.447  33.112  30.293  1.00  0.00    -0.014 A 
BRANCH  13  14
ATOM     14  C   UNL A   1      37.696  32.535  30.850  1.00  0.00     0.031 A 
ATOM     15  C   UNL A   1      38.319  33.052  32.116  1.00  0.00     0.074 A 
ATOM     16  C   UNL A   1      38.230  31.472  30.215  1.00  0.00     0.049 A 
ATOM     17  N   UNL A   1      39.370  32.599  32.754  1.00  0.00    -0.248 NA
ATOM     18  C   UNL A   1      37.695  34.225  32.750  1.00  0.00     0.031 C 
ATOM     19  C   UNL A   1      37.715  30.888  28.970  1.00  0.00     0.029 A 
ATOM     20  N   UNL A   1      39.289  30.667  30.541  1.00  0.00    -0.354 N 
ATOM     21  C   UNL A   1      39.541  33.432  33.853  1.00  0.00     0.074 A 
ATOM     22  C   UNL A   1      38.503  34.438  33.781  1.00  0.00     0.031 C 
ATOM     23  C   UNL A   1      38.409  29.780  28.682  1.00  0.00     0.029 A 
ATOM     24  C   UNL A   1      39.472  29.625  29.665  1.00  0.00     0.049 A 
ATOM     25  H   UNL A   1      39.863  30.821  31.326  1.00  0.00     0.167 HD
ATOM     26  C   UNL A   1      40.477  33.360  34.830  1.00  0.00     0.031 A 
ATOM     27  C   UNL A   1      40.405  28.657  29.637  1.00  0.00     0.031 A 
ATOM     28  C   UNL A   1      41.515  32.360  34.889  1.00  0.00     0.049 A 
ATOM     29  C   UNL A   1      41.449  28.634  30.711  1.00  0.00     0.074 A 
ATOM     30  C   UNL A   1      42.502  32.199  35.847  1.00  0.00     0.029 A 
ATOM     31  N   UNL A   1      41.700  31.354  33.953  1.00  0.00    -0.354 N 
ATOM     32  N   UNL A   1      41.578  29.416  31.755  1.00  0.00    -0.248 NA
ATOM     33  C   UNL A   1      42.478  27.592  30.601  1.00  0.00     0.031 C 
ATOM     34  C   UNL A   1      43.318  31.131  35.460  1.00  0.00     0.029 A 
ATOM     35  C   UNL A   1      42.800  30.584  34.298  1.00  0.00     0.049 A 
ATOM     36  H   UNL A   1      41.134  31.209  33.161  1.00  0.00     0.167 HD
ATOM     37  C   UNL A   1      42.696  28.954  32.433  1.00  0.00     0.074 A 
ATOM     38  C   UNL A   1      43.182  27.801  31.704  1.00  0.00     0.031 C 
ATOM     39  C   UNL A   1      43.277  29.447  33.554  1.00  0.00     0.031 A 
BRANCH  26  40
ATOM     40  C   UNL A   1      40.443  34.401  35.916  1.00  0.00    -0.014 A 
ATOM     41  C   UNL A   1      41.136  35.615  35.783  1.00  0.00     0.009 A 
ATOM     42  C   UNL A   1      39.643  34.201  37.053  1.00  0.00     0.009 A 
ATOM     43  C   UNL A   1      41.043  36.597  36.773  1.00  0.00     0.001 A 
ATOM     44  C   UNL A   1      39.532  35.193  38.028  1.00  0.00     0.001 A 
ATOM     45  C   UNL A   1      40.236  36.389  37.891  1.00  0.00     0.000 A 
ENDBRANCH  26  40
BRANCH  27  46
ATOM     46  C   UNL A   1      40.418  27.666  28.528  1.00  0.00    -0.014 A 
ATOM     47  C   UNL A   1      41.102  27.930  27.333  1.00  0.00     0.009 A 
ATOM     48  C   UNL A   1      39.724  26.452  28.660  1.00  0.00     0.009 A 
ATOM     49  C   UNL A   1      41.060  27.014  26.280  1.00  0.00     0.001 A 
ATOM     50  C   UNL A   1      39.718  25.522  27.622  1.00  0.00     0.001 A 
ATOM     51  C   UNL A   1      40.372  25.810  26.427  1.00  0.00     0.000 A 
ENDBRANCH  27  46
BRANCH  39  52
ATOM     52  C   UNL A   1      44.485  28.713  34.063  1.00  0.00    -0.014 A 
ATOM     53  C   UNL A   1      45.781  29.072  33.656  1.00  0.00     0.009 A 
ATOM     54  C   UNL A   1      44.325  27.644  34.957  1.00  0.00     0.009 A 
ATOM     55  C   UNL A   1      46.885  28.341  34.094  1.00  0.00     0.001 A 
ATOM     56  C   UNL A   1      45.435  26.938  35.421  1.00  0.00     0.001 A 
ATOM     57  C   UNL A   1      46.712  27.277  34.978  1.00  0.00     0.000 A 
ENDBRANCH  39  52
ENDBRANCH  13  14
ENDBRANCH   6   8
ENDBRANCH   3   4
ENDBRANCH   2   3
ENDBRANCH   1   2
BRANCH   1  58
ATOM     58  C   UNL A   1      31.716  29.865  25.104  1.00  0.00     0.116 C 
BRANCH  58  59
ATOM     59  N   UNL A   1      30.566  30.185  24.271  1.00  0.00    -0.352 N 
ATOM     60  C   UNL A   1      29.901  29.395  23.366  1.00  0.00     0.251 C 
ATOM     61  H   UNL A   1      30.215  31.100  24.370  1.00  0.00     0.163 HD
ATOM     62  O   UNL A   1      29.047  29.879  22.633  1.00  0.00    -0.269 OA
BRANCH  60  63
ATOM     63  C   UNL A   1      30.208  27.951  23.288  1.00  0.00     0.041 A 
ATOM     64  C   UNL A   1      29.480  27.052  24.071  1.00  0.00     0.014 A 
ATOM     65  C   UNL A   1      31.231  27.496  22.455  1.00  0.00     0.035 A 
ATOM     66  C   UNL A   1      29.746  25.684  23.976  1.00  0.00     0.002 A 
ATOM     67  C   UNL A   1      31.491  26.137  22.358  1.00  0.00     0.083 A 
ATOM     68  C   UNL A   1      30.748  25.225  23.118  1.00  0.00     0.022 A 
BRANCH  67  69
ATOM     69  S   UNL A   1      32.740  25.526  21.267  1.00  0.00     0.240 S 
ATOM     70  O   UNL A   1      32.208  25.580  19.926  1.00  0.00    -0.207 OA
ATOM     71  O   UNL A   1      33.952  26.233  21.616  1.00  0.00    -0.207 OA
BRANCH  69  72
ATOM     72  N   UNL A   1      33.071  23.928  21.646  1.00  0.00    -0.211 NA
ATOM     73  H   UNL A   1      33.349  23.513  20.756  1.00  0.00     0.141 HD
BRANCH  72  74
ATOM     74  C   UNL A   1      34.017  23.367  22.612  1.00  0.00     0.105 C 
BRANCH  74  75
ATOM     75  C   UNL A   1      33.834  23.607  24.101  1.00  0.00     0.032 C 
ATOM     76  C   UNL A   1      34.760  24.617  24.737  1.00  0.00     0.036 C 
ATOM     77  C   UNL A   1      33.918  22.383  24.991  1.00  0.00     0.165 C 
ATOM     78  C   UNL A   1      35.677  23.781  25.594  1.00  0.00     0.160 C 
ATOM     79  O   UNL A   1      34.947  22.607  25.956  1.00  0.00    -0.381 OA
ENDBRANCH  74  75
ENDBRANCH  72  74
ENDBRANCH  69  72
ENDBRANCH  67  69
ENDBRANCH  60  63
ENDBRANCH  58  59
ENDBRANCH   1  58
TORSDOF 15
ENDMDL
MODEL 3
REMARK VINA RESULT:     -11.1      1.138      5.993
REMARK SMILES O=C(NCCCCNC(=O)c1cccc(S(=O)(=O)NC[C@@H]2CCOC2)c1)c1ccc(-c2c3nc(c(-c4ccccc4)c4ccc([nH]4)c(-c4ccccc4)c4nc(c(-c5ccccc5)c5ccc2[nH]5)C=C4)C=C3)cc1
REMARK SMILES IDX 6 1 5 2 4 3 3 4 1 5 2 6 27 8 28 9 74 10 29 11 73 12 30 13
REMARK SMILES IDX 31 14 32 15 67 16 33 17 72 18 66 19 68 20 34 21 71 22 65 23
REMARK SMILES IDX 64 24 35 26 57 27 42 28 56 29 43 30 46 31 55 32 69 33 44 34
REMARK SMILES IDX 45 35 54 37 70 38 47 39 36 40 37 41 41 42 38 43 40 44 39 45
REMARK SMILES IDX 58 46 59 47 63 48 60 49 62 50 61 51 48 52 49 53 53 54 50 55
REMARK SMILES IDX 52 56 51 57 7 58 8 59 9 60 10 62 11 63 12 64 26 65 13 66
REMARK SMILES IDX 15 67 14 68 16 69 17 70 18 71 19 72 20 74 21 75 22 76 25 77
REMARK SMILES IDX 23 78 24 79
REMARK H PARENT 3 7 68 25 46 36 8 61 19 73
REMARK Flexibility Score: inf
ROOT
ATOM      1  C   UNL A   1      36.807  21.076  24.448  1.00  0.00     0.023 C 
ENDROOT
BRANCH   1   2
ATOM      2  C   UNL A   1      37.764  19.912  24.654  1.00  0.00     0.023 C 
BRANCH   2   3
ATOM      3  C   UNL A   1      38.704  20.067  25.838  1.00  0.00     0.116 C 
BRANCH   3   4
ATOM      4  N   UNL A   1      39.852  19.171  25.787  1.00  0.00    -0.352 N 
ATOM      5  O   UNL A   1      42.045  18.612  25.833  1.00  0.00    -0.269 OA
ATOM      6  C   UNL A   1      41.176  19.451  26.036  1.00  0.00     0.251 C 
ATOM      7  H   UNL A   1      39.653  18.238  25.541  1.00  0.00     0.163 HD
BRANCH   6   8
ATOM      8  C   UNL A   1      41.538  20.797  26.526  1.00  0.00     0.039 A 
ATOM      9  C   UNL A   1      41.641  21.854  25.621  1.00  0.00     0.014 A 
ATOM     10  C   UNL A   1      41.841  20.987  27.876  1.00  0.00     0.014 A 
ATOM     11  C   UNL A   1      42.235  23.037  26.025  1.00  0.00     0.010 A 
ATOM     12  C   UNL A   1      42.316  22.230  28.307  1.00  0.00     0.010 A 
ATOM     13  C   UNL A   1      42.550  23.255  27.378  1.00  0.00    -0.014 A 
BRANCH  13  14
ATOM     14  C   UNL A   1      43.025  24.603  27.779  1.00  0.00     0.031 A 
ATOM     15  C   UNL A   1      44.468  25.007  27.663  1.00  0.00     0.074 A 
ATOM     16  C   UNL A   1      42.101  25.493  28.194  1.00  0.00     0.049 A 
ATOM     17  N   UNL A   1      45.012  26.172  27.912  1.00  0.00    -0.248 NA
ATOM     18  C   UNL A   1      45.426  23.982  27.220  1.00  0.00     0.031 C 
ATOM     19  C   UNL A   1      40.669  25.209  28.353  1.00  0.00     0.029 A 
ATOM     20  N   UNL A   1      42.210  26.820  28.515  1.00  0.00    -0.354 N 
ATOM     21  C   UNL A   1      46.372  26.022  27.668  1.00  0.00     0.074 A 
ATOM     22  C   UNL A   1      46.576  24.643  27.279  1.00  0.00     0.031 C 
ATOM     23  C   UNL A   1      40.027  26.340  28.667  1.00  0.00     0.029 A 
ATOM     24  C   UNL A   1      41.006  27.407  28.819  1.00  0.00     0.049 A 
ATOM     25  H   UNL A   1      43.066  27.305  28.527  1.00  0.00     0.167 HD
ATOM     26  C   UNL A   1      47.354  26.950  27.757  1.00  0.00     0.031 A 
ATOM     27  C   UNL A   1      40.716  28.663  29.203  1.00  0.00     0.031 A 
ATOM     28  C   UNL A   1      47.144  28.320  28.156  1.00  0.00     0.049 A 
ATOM     29  C   UNL A   1      41.834  29.651  29.332  1.00  0.00     0.074 A 
ATOM     30  C   UNL A   1      48.076  29.339  28.266  1.00  0.00     0.029 A 
ATOM     31  N   UNL A   1      45.918  28.863  28.510  1.00  0.00    -0.354 N 
ATOM     32  N   UNL A   1      43.109  29.495  29.073  1.00  0.00    -0.248 NA
ATOM     33  C   UNL A   1      41.471  30.991  29.810  1.00  0.00     0.031 C 
ATOM     34  C   UNL A   1      47.424  30.481  28.741  1.00  0.00     0.029 A 
ATOM     35  C   UNL A   1      46.074  30.195  28.863  1.00  0.00     0.049 A 
ATOM     36  H   UNL A   1      45.063  28.374  28.512  1.00  0.00     0.167 HD
ATOM     37  C   UNL A   1      43.700  30.720  29.343  1.00  0.00     0.074 A 
ATOM     38  C   UNL A   1      42.637  31.617  29.748  1.00  0.00     0.031 C 
ATOM     39  C   UNL A   1      45.007  31.070  29.274  1.00  0.00     0.031 A 
BRANCH  26  40
ATOM     40  C   UNL A   1      48.761  26.521  27.438  1.00  0.00    -0.014 A 
ATOM     41  C   UNL A   1      49.615  26.027  28.437  1.00  0.00     0.009 A 
ATOM     42  C   UNL A   1      49.213  26.535  26.109  1.00  0.00     0.009 A 
ATOM     43  C   UNL A   1      50.897  25.573  28.112  1.00  0.00     0.001 A 
ATOM     44  C   UNL A   1      50.483  26.058  25.784  1.00  0.00     0.001 A 
ATOM     45  C   UNL A   1      51.327  25.582  26.786  1.00  0.00     0.000 A 
ENDBRANCH  26  40
BRANCH  27  46
ATOM     46  C   UNL A   1      39.316  29.036  29.537  1.00  0.00    -0.014 A 
ATOM     47  C   UNL A   1      38.450  29.537  28.555  1.00  0.00     0.009 A 
ATOM     48  C   UNL A   1      38.847  28.906  30.855  1.00  0.00     0.009 A 
ATOM     49  C   UNL A   1      37.154  29.935  28.895  1.00  0.00     0.001 A 
ATOM     50  C   UNL A   1      37.540  29.266  31.182  1.00  0.00     0.001 A 
ATOM     51  C   UNL A   1      36.700  29.795  30.205  1.00  0.00     0.000 A 
ENDBRANCH  27  46
BRANCH  39  52
ATOM     52  C   UNL A   1      45.342  32.493  29.622  1.00  0.00    -0.014 A 
ATOM     53  C   UNL A   1      45.314  33.507  28.650  1.00  0.00     0.009 A 
ATOM     54  C   UNL A   1      45.696  32.823  30.938  1.00  0.00     0.009 A 
ATOM     55  C   UNL A   1      45.685  34.811  28.980  1.00  0.00     0.001 A 
ATOM     56  C   UNL A   1      46.032  34.135  31.273  1.00  0.00     0.001 A 
ATOM     57  C   UNL A   1      46.041  35.124  30.290  1.00  0.00     0.000 A 
ENDBRANCH  39  52
ENDBRANCH  13  14
ENDBRANCH   6   8
ENDBRANCH   3   4
ENDBRANCH   2   3
ENDBRANCH   1   2
BRANCH   1  58
ATOM     58  C   UNL A   1      35.656  21.131  25.437  1.00  0.00     0.116 C 
BRANCH  58  59
ATOM     59  N   UNL A   1      34.794  19.960  25.373  1.00  0.00    -0.352 N 
ATOM     60  C   UNL A   1      33.444  19.886  25.139  1.00  0.00     0.251 C 
ATOM     61  H   UNL A   1      35.244  19.096  25.521  1.00  0.00     0.163 HD
ATOM     62  O   UNL A   1      32.849  18.823  25.277  1.00  0.00    -0.269 OA
BRANCH  60  63
ATOM     63  C   UNL A   1      32.708  21.092  24.703  1.00  0.00     0.041 A 
ATOM     64  C   UNL A   1      32.602  21.375  23.339  1.00  0.00     0.014 A 
ATOM     65  C   UNL A   1      32.143  21.949  25.648  1.00  0.00     0.035 A 
ATOM     66  C   UNL A   1      31.881  22.495  22.921  1.00  0.00     0.002 A 
ATOM     67  C   UNL A   1      31.423  23.060  25.232  1.00  0.00     0.083 A 
ATOM     68  C   UNL A   1      31.288  23.336  23.866  1.00  0.00     0.022 A 
BRANCH  67  69
ATOM     69  S   UNL A   1      30.647  24.131  26.404  1.00  0.00     0.240 S 
ATOM     70  O   UNL A   1      29.810  23.312  27.250  1.00  0.00    -0.207 OA
ATOM     71  O   UNL A   1      31.706  24.940  26.964  1.00  0.00    -0.207 OA
BRANCH  69  72
ATOM     72  N   UNL A   1      29.675  25.227  25.592  1.00  0.00    -0.211 NA
ATOM     73  H   UNL A   1      28.932  25.442  26.257  1.00  0.00     0.141 HD
BRANCH  72  74
ATOM     74  C   UNL A   1      30.010  26.523  25.001  1.00  0.00     0.105 C 
BRANCH  74  75
ATOM     75  C   UNL A   1      29.827  26.763  23.511  1.00  0.00     0.032 C 
ATOM     76  C   UNL A   1      31.073  27.105  22.728  1.00  0.00     0.036 C 
ATOM     77  C   UNL A   1      28.817  27.825  23.124  1.00  0.00     0.165 C 
ATOM     78  C   UNL A   1      30.894  28.559  22.375  1.00  0.00     0.160 C 
ATOM     79  O   UNL A   1      29.486  28.801  22.324  1.00  0.00    -0.381 OA
ENDBRANCH  74  75
ENDBRANCH  72  74
ENDBRANCH  69  72
ENDBRANCH  67  69
ENDBRANCH  60  63
ENDBRANCH  58  59
ENDBRANCH   1  58
TORSDOF 15
ENDMDL
