MODEL 1
REMARK VINA RESULT:      -8.6      0.000      0.000
REMARK SMILES CCCCCCNC(=O)Oc1cccc(-c2ccc([C@@H](C)C(=O)NCCCCNC(=O)c3ccc(-c4c5nc(c(-c6ccccc6)c6ccc([nH]6)c(-c6ccccc6)c6nc(c(-c7ccccc7)c7ccc4[nH]7)C=C6)C=C5)cc3)cc2O)c1
REMARK SMILES IDX 20 1 21 2 19 3 16 4 17 5 81 6 18 7 80 8 15 9 11 10 12 11
REMARK SMILES IDX 83 12 13 13 14 14 10 15 8 16 7 17 9 19 6 20 5 21 4 22 3 23
REMARK SMILES IDX 2 24 1 25 82 26 22 28 23 29 24 30 25 32 26 33 27 34 28 35
REMARK SMILES IDX 29 36 30 37 31 39 32 40 33 41 79 42 34 43 78 44 35 45 36 46
REMARK SMILES IDX 37 47 72 48 38 49 77 50 71 51 73 52 39 53 76 54 70 55 69 56
REMARK SMILES IDX 40 58 62 59 47 60 61 61 48 62 51 63 60 64 74 65 49 66 50 67
REMARK SMILES IDX 59 69 75 70 52 71 41 72 42 73 46 74 43 75 45 76 44 77 63 78
REMARK SMILES IDX 64 79 68 80 65 81 67 82 66 83 53 84 54 85 58 86 55 87 57 88
REMARK SMILES IDX 56 89
REMARK H PARENT 7 18 82 27 24 31 29 38 73 57 51 68
REMARK Flexibility Score: inf
ROOT
ATOM      1  C   UNL A   1      37.395  32.886  29.983  1.00  0.00     0.105 C 
ATOM      2  C   UNL A   1      38.168  34.184  29.745  1.00  0.00     0.023 C 
ENDROOT
BRANCH   1   3
ATOM      3  C   UNL A   1      37.982  31.639  29.341  1.00  0.00    -0.032 A 
ATOM      4  C   UNL A   1      39.069  29.172  28.360  1.00  0.00     0.024 A 
ATOM      5  C   UNL A   1      37.808  29.644  27.956  1.00  0.00     0.013 A 
ATOM      6  C   UNL A   1      39.804  30.024  29.204  1.00  0.00     0.123 A 
ATOM      7  C   UNL A   1      37.298  30.872  28.396  1.00  0.00     0.005 A 
ATOM      8  C   UNL A   1      39.258  31.203  29.722  1.00  0.00     0.051 A 
BRANCH   4   9
ATOM      9  C   UNL A   1      39.538  27.835  27.915  1.00  0.00    -0.011 A 
ATOM     10  C   UNL A   1      40.810  26.414  26.399  1.00  0.00     0.133 A 
ATOM     11  C   UNL A   1      40.413  25.270  27.084  1.00  0.00     0.047 A 
ATOM     12  C   UNL A   1      40.399  27.685  26.811  1.00  0.00     0.056 A 
ATOM     13  C   UNL A   1      39.594  25.398  28.198  1.00  0.00     0.004 A 
ATOM     14  C   UNL A   1      39.151  26.663  28.596  1.00  0.00     0.009 A 
BRANCH  10  15
ATOM     15  O   UNL A   1      41.497  26.209  25.190  1.00  0.00    -0.410 OA
BRANCH  15  16
ATOM     16  C   UNL A   1      42.627  26.953  24.885  1.00  0.00     0.412 C 
ATOM     17  N   UNL A   1      43.784  26.232  25.011  1.00  0.00    -0.321 N 
ATOM     18  H   UNL A   1      44.625  26.711  24.833  1.00  0.00     0.167 HD
ATOM     19  O   UNL A   1      42.643  28.130  24.549  1.00  0.00    -0.224 OA
BRANCH  17  20
ATOM     20  C   UNL A   1      43.895  24.833  25.377  1.00  0.00     0.119 C 
BRANCH  20  21
ATOM     21  C   UNL A   1      44.725  24.636  26.647  1.00  0.00     0.021 C 
BRANCH  21  22
ATOM     22  C   UNL A   1      44.592  25.759  27.683  1.00  0.00     0.002 C 
BRANCH  22  23
ATOM     23  C   UNL A   1      43.548  25.524  28.781  1.00  0.00    -0.000 C 
BRANCH  23  24
ATOM     24  C   UNL A   1      43.707  24.224  29.572  1.00  0.00    -0.003 C 
ATOM     25  C   UNL A   1      42.679  23.166  29.204  1.00  0.00     0.004 C 
ENDBRANCH  23  24
ENDBRANCH  22  23
ENDBRANCH  21  22
ENDBRANCH  20  21
ENDBRANCH  17  20
ENDBRANCH  15  16
ENDBRANCH  10  15
ENDBRANCH   4   9
BRANCH   6  26
ATOM     26  O   UNL A   1      41.108  29.783  29.553  1.00  0.00    -0.507 OA
ATOM     27  H   UNL A   1      41.332  28.997  30.013  1.00  0.00     0.293 HD
ENDBRANCH   6  26
ENDBRANCH   1   3
BRANCH   1  28
ATOM     28  C   UNL A   1      35.875  33.024  29.796  1.00  0.00     0.227 C 
ATOM     29  O   UNL A   1      35.421  33.458  28.730  1.00  0.00    -0.274 OA
ATOM     30  N   UNL A   1      34.957  32.670  30.737  1.00  0.00    -0.356 N 
ATOM     31  H   UNL A   1      34.022  32.753  30.441  1.00  0.00     0.163 HD
BRANCH  30  32
ATOM     32  C   UNL A   1      35.110  32.192  32.094  1.00  0.00     0.116 C 
BRANCH  32  33
ATOM     33  C   UNL A   1      34.512  33.160  33.117  1.00  0.00     0.023 C 
BRANCH  33  34
ATOM     34  C   UNL A   1      35.268  34.475  33.280  1.00  0.00     0.023 C 
BRANCH  34  35
ATOM     35  C   UNL A   1      36.630  34.359  33.952  1.00  0.00     0.116 C 
BRANCH  35  36
ATOM     36  N   UNL A   1      36.609  33.674  35.236  1.00  0.00    -0.352 N 
ATOM     37  C   UNL A   1      37.484  32.720  35.701  1.00  0.00     0.251 C 
ATOM     38  H   UNL A   1      35.878  33.924  35.848  1.00  0.00     0.163 HD
ATOM     39  O   UNL A   1      37.303  32.172  36.783  1.00  0.00    -0.269 OA
BRANCH  37  40
ATOM     40  C   UNL A   1      38.625  32.326  34.849  1.00  0.00     0.039 A 
ATOM     41  C   UNL A   1      39.913  32.714  35.221  1.00  0.00     0.014 A 
ATOM     42  C   UNL A   1      38.423  31.507  33.735  1.00  0.00     0.014 A 
ATOM     43  C   UNL A   1      41.010  32.212  34.519  1.00  0.00     0.010 A 
ATOM     44  C   UNL A   1      39.517  30.944  33.091  1.00  0.00     0.010 A 
ATOM     45  C   UNL A   1      40.821  31.290  33.477  1.00  0.00    -0.014 A 
BRANCH  45  46
ATOM     46  C   UNL A   1      41.971  30.676  32.769  1.00  0.00     0.031 A 
ATOM     47  C   UNL A   1      42.636  31.411  31.640  1.00  0.00     0.074 A 
ATOM     48  C   UNL A   1      42.372  29.432  33.096  1.00  0.00     0.049 A 
ATOM     49  N   UNL A   1      43.615  31.021  30.863  1.00  0.00    -0.248 NA
ATOM     50  C   UNL A   1      42.111  32.749  31.322  1.00  0.00     0.031 C 
ATOM     51  C   UNL A   1      41.784  28.595  34.144  1.00  0.00     0.029 A 
ATOM     52  N   UNL A   1      43.374  28.655  32.573  1.00  0.00    -0.354 N 
ATOM     53  C   UNL A   1      43.808  32.056  29.957  1.00  0.00     0.074 A 
ATOM     54  C   UNL A   1      42.808  33.062  30.240  1.00  0.00     0.031 C 
ATOM     55  C   UNL A   1      42.464  27.439  34.216  1.00  0.00     0.029 A 
ATOM     56  C   UNL A   1      43.506  27.437  33.195  1.00  0.00     0.049 A 
ATOM     57  H   UNL A   1      43.946  28.942  31.825  1.00  0.00     0.167 HD
ATOM     58  C   UNL A   1      44.749  32.175  28.991  1.00  0.00     0.031 A 
ATOM     59  C   UNL A   1      44.373  26.432  32.969  1.00  0.00     0.031 A 
ATOM     60  C   UNL A   1      45.751  31.182  28.713  1.00  0.00     0.049 A 
ATOM     61  C   UNL A   1      45.398  26.577  31.880  1.00  0.00     0.074 A 
ATOM     62  C   UNL A   1      46.780  31.227  27.790  1.00  0.00     0.029 A 
ATOM     63  N   UNL A   1      45.847  29.961  29.363  1.00  0.00    -0.354 N 
ATOM     64  N   UNL A   1      45.608  27.588  31.072  1.00  0.00    -0.248 NA
ATOM     65  C   UNL A   1      46.312  25.444  31.680  1.00  0.00     0.031 C 
ATOM     66  C   UNL A   1      47.474  30.014  27.853  1.00  0.00     0.029 A 
ATOM     67  C   UNL A   1      46.908  29.235  28.850  1.00  0.00     0.049 A 
ATOM     68  H   UNL A   1      45.250  29.655  30.084  1.00  0.00     0.167 HD
ATOM     69  C   UNL A   1      46.696  27.227  30.289  1.00  0.00     0.074 A 
ATOM     70  C   UNL A   1      47.108  25.908  30.727  1.00  0.00     0.031 C 
ATOM     71  C   UNL A   1      47.302  27.925  29.298  1.00  0.00     0.031 A 
BRANCH  58  72
ATOM     72  C   UNL A   1      44.725  33.431  28.165  1.00  0.00    -0.014 A 
ATOM     73  C   UNL A   1      45.404  34.587  28.582  1.00  0.00     0.009 A 
ATOM     74  C   UNL A   1      44.010  33.463  26.958  1.00  0.00     0.009 A 
ATOM     75  C   UNL A   1      45.329  35.763  27.833  1.00  0.00     0.001 A 
ATOM     76  C   UNL A   1      43.962  34.632  26.195  1.00  0.00     0.001 A 
ATOM     77  C   UNL A   1      44.609  35.783  26.639  1.00  0.00     0.000 A 
ENDBRANCH  58  72
BRANCH  59  78
ATOM     78  C   UNL A   1      44.341  25.214  33.821  1.00  0.00    -0.014 A 
ATOM     79  C   UNL A   1      44.813  25.267  35.141  1.00  0.00     0.009 A 
ATOM     80  C   UNL A   1      43.843  24.000  33.325  1.00  0.00     0.009 A 
ATOM     81  C   UNL A   1      44.809  24.122  35.941  1.00  0.00     0.001 A 
ATOM     82  C   UNL A   1      43.817  22.863  34.136  1.00  0.00     0.001 A 
ATOM     83  C   UNL A   1      44.306  22.923  35.439  1.00  0.00     0.000 A 
ENDBRANCH  59  78
BRANCH  71  84
ATOM     84  C   UNL A   1      48.500  27.292  28.648  1.00  0.00    -0.014 A 
ATOM     85  C   UNL A   1      48.369  26.483  27.509  1.00  0.00     0.009 A 
ATOM     86  C   UNL A   1      49.780  27.538  29.167  1.00  0.00     0.009 A 
ATOM     87  C   UNL A   1      49.497  25.908  26.920  1.00  0.00     0.001 A 
ATOM     88  C   UNL A   1      50.909  26.985  28.559  1.00  0.00     0.001 A 
ATOM     89  C   UNL A   1      50.765  26.163  27.443  1.00  0.00     0.000 A 
ENDBRANCH  71  84
ENDBRANCH  45  46
ENDBRANCH  37  40
ENDBRANCH  35  36
ENDBRANCH  34  35
ENDBRANCH  33  34
ENDBRANCH  32  33
ENDBRANCH  30  32
ENDBRANCH   1  28
TORSDOF 21
ENDMDL
MODEL 2
REMARK VINA RESULT:      -8.3      1.361      5.894
REMARK SMILES CCCCCCNC(=O)Oc1cccc(-c2ccc([C@@H](C)C(=O)NCCCCNC(=O)c3ccc(-c4c5nc(c(-c6ccccc6)c6ccc([nH]6)c(-c6ccccc6)c6nc(c(-c7ccccc7)c7ccc4[nH]7)C=C6)C=C5)cc3)cc2O)c1
REMARK SMILES IDX 20 1 21 2 19 3 16 4 17 5 81 6 18 7 80 8 15 9 11 10 12 11
REMARK SMILES IDX 83 12 13 13 14 14 10 15 8 16 7 17 9 19 6 20 5 21 4 22 3 23
REMARK SMILES IDX 2 24 1 25 82 26 22 28 23 29 24 30 25 32 26 33 27 34 28 35
REMARK SMILES IDX 29 36 30 37 31 39 32 40 33 41 79 42 34 43 78 44 35 45 36 46
REMARK SMILES IDX 37 47 72 48 38 49 77 50 71 51 73 52 39 53 76 54 70 55 69 56
REMARK SMILES IDX 40 58 62 59 47 60 61 61 48 62 51 63 60 64 74 65 49 66 50 67
REMARK SMILES IDX 59 69 75 70 52 71 41 72 42 73 46 74 43 75 45 76 44 77 63 78
REMARK SMILES IDX 64 79 68 80 65 81 67 82 66 83 53 84 54 85 58 86 55 87 57 88
REMARK SMILES IDX 56 89
REMARK H PARENT 7 18 82 27 24 31 29 38 73 57 51 68
REMARK Flexibility Score: inf
ROOT
ATOM      1  C   UNL A   1      35.191  34.180  29.116  1.00  0.00     0.105 C 
ATOM      2  C   UNL A   1      34.911  34.687  27.701  1.00  0.00     0.023 C 
ENDROOT
BRANCH   1   3
ATOM      3  C   UNL A   1      36.027  32.914  29.212  1.00  0.00    -0.032 A 
ATOM      4  C   UNL A   1      37.596  30.513  29.137  1.00  0.00     0.024 A 
ATOM      5  C   UNL A   1      38.139  31.746  29.538  1.00  0.00     0.013 A 
ATOM      6  C   UNL A   1      36.217  30.508  28.860  1.00  0.00     0.123 A 
ATOM      7  C   UNL A   1      37.361  32.908  29.623  1.00  0.00     0.005 A 
ATOM      8  C   UNL A   1      35.460  31.685  28.849  1.00  0.00     0.051 A 
BRANCH   4   9
ATOM      9  C   UNL A   1      38.475  29.324  29.003  1.00  0.00    -0.011 A 
ATOM     10  C   UNL A   1      40.231  28.085  27.856  1.00  0.00     0.133 A 
ATOM     11  C   UNL A   1      40.138  27.040  28.770  1.00  0.00     0.047 A 
ATOM     12  C   UNL A   1      39.428  29.223  27.972  1.00  0.00     0.056 A 
ATOM     13  C   UNL A   1      39.231  27.135  29.817  1.00  0.00     0.004 A 
ATOM     14  C   UNL A   1      38.400  28.256  29.920  1.00  0.00     0.009 A 
BRANCH  10  15
ATOM     15  O   UNL A   1      41.043  27.857  26.731  1.00  0.00    -0.410 OA
BRANCH  15  16
ATOM     16  C   UNL A   1      42.241  28.539  26.576  1.00  0.00     0.412 C 
ATOM     17  N   UNL A   1      43.315  27.830  27.043  1.00  0.00    -0.321 N 
ATOM     18  H   UNL A   1      44.193  28.270  26.985  1.00  0.00     0.167 HD
ATOM     19  O   UNL A   1      42.374  29.656  26.094  1.00  0.00    -0.224 OA
BRANCH  17  20
ATOM     20  C   UNL A   1      43.290  26.496  27.611  1.00  0.00     0.119 C 
BRANCH  20  21
ATOM     21  C   UNL A   1      43.590  25.421  26.566  1.00  0.00     0.021 C 
BRANCH  21  22
ATOM     22  C   UNL A   1      44.840  24.579  26.850  1.00  0.00     0.002 C 
BRANCH  22  23
ATOM     23  C   UNL A   1      44.578  23.118  27.234  1.00  0.00    -0.000 C 
BRANCH  23  24
ATOM     24  C   UNL A   1      43.248  22.852  27.943  1.00  0.00    -0.003 C 
ATOM     25  C   UNL A   1      43.316  23.053  29.448  1.00  0.00     0.004 C 
ENDBRANCH  23  24
ENDBRANCH  22  23
ENDBRANCH  21  22
ENDBRANCH  20  21
ENDBRANCH  17  20
ENDBRANCH  15  16
ENDBRANCH  10  15
ENDBRANCH   4   9
BRANCH   6  26
ATOM     26  O   UNL A   1      35.511  29.359  28.615  1.00  0.00    -0.507 OA
ATOM     27  H   UNL A   1      35.887  28.525  28.820  1.00  0.00     0.293 HD
ENDBRANCH   6  26
ENDBRANCH   1   3
BRANCH   1  28
ATOM     28  C   UNL A   1      33.956  34.180  30.032  1.00  0.00     0.227 C 
ATOM     29  O   UNL A   1      32.880  34.630  29.618  1.00  0.00    -0.274 OA
ATOM     30  N   UNL A   1      33.949  33.682  31.299  1.00  0.00    -0.356 N 
ATOM     31  H   UNL A   1      33.065  33.691  31.733  1.00  0.00     0.163 HD
BRANCH  30  32
ATOM     32  C   UNL A   1      35.008  33.142  32.124  1.00  0.00     0.116 C 
BRANCH  32  33
ATOM     33  C   UNL A   1      34.870  33.562  33.588  1.00  0.00     0.023 C 
BRANCH  33  34
ATOM     34  C   UNL A   1      35.902  34.578  34.069  1.00  0.00     0.023 C 
BRANCH  34  35
ATOM     35  C   UNL A   1      37.254  33.993  34.457  1.00  0.00     0.116 C 
BRANCH  35  36
ATOM     36  N   UNL A   1      37.191  32.985  35.508  1.00  0.00    -0.352 N 
ATOM     37  C   UNL A   1      37.940  31.838  35.625  1.00  0.00     0.251 C 
ATOM     38  H   UNL A   1      36.531  33.146  36.221  1.00  0.00     0.163 HD
ATOM     39  O   UNL A   1      37.730  31.038  36.530  1.00  0.00    -0.269 OA
BRANCH  37  40
ATOM     40  C   UNL A   1      38.973  31.556  34.608  1.00  0.00     0.039 A 
ATOM     41  C   UNL A   1      40.291  31.946  34.856  1.00  0.00     0.014 A 
ATOM     42  C   UNL A   1      38.650  30.836  33.455  1.00  0.00     0.014 A 
ATOM     43  C   UNL A   1      41.302  31.542  33.982  1.00  0.00     0.010 A 
ATOM     44  C   UNL A   1      39.667  30.365  32.634  1.00  0.00     0.010 A 
ATOM     45  C   UNL A   1      41.002  30.713  32.889  1.00  0.00    -0.014 A 
BRANCH  45  46
ATOM     46  C   UNL A   1      42.067  30.200  31.993  1.00  0.00     0.031 A 
ATOM     47  C   UNL A   1      42.723  28.880  32.286  1.00  0.00     0.074 A 
ATOM     48  C   UNL A   1      42.491  30.951  30.958  1.00  0.00     0.049 A 
ATOM     49  N   UNL A   1      43.708  28.289  31.659  1.00  0.00    -0.248 NA
ATOM     50  C   UNL A   1      42.226  28.142  33.459  1.00  0.00     0.031 C 
ATOM     51  C   UNL A   1      41.967  32.268  30.590  1.00  0.00     0.029 A 
ATOM     52  N   UNL A   1      43.467  30.708  30.024  1.00  0.00    -0.354 N 
ATOM     53  C   UNL A   1      43.957  27.122  32.370  1.00  0.00     0.074 A 
ATOM     54  C   UNL A   1      43.066  27.119  33.508  1.00  0.00     0.031 C 
ATOM     55  C   UNL A   1      42.596  32.697  29.484  1.00  0.00     0.029 A 
ATOM     56  C   UNL A   1      43.594  31.708  29.090  1.00  0.00     0.049 A 
ATOM     57  H   UNL A   1      44.022  29.896  30.023  1.00  0.00     0.167 HD
ATOM     58  C   UNL A   1      44.832  26.128  32.090  1.00  0.00     0.031 A 
ATOM     59  C   UNL A   1      44.420  31.812  28.032  1.00  0.00     0.031 A 
ATOM     60  C   UNL A   1      45.713  26.123  30.954  1.00  0.00     0.049 A 
ATOM     61  C   UNL A   1      45.395  30.705  27.750  1.00  0.00     0.074 A 
ATOM     62  C   UNL A   1      46.601  25.142  30.553  1.00  0.00     0.029 A 
ATOM     63  N   UNL A   1      45.814  27.156  30.034  1.00  0.00    -0.354 N 
ATOM     64  N   UNL A   1      45.577  29.579  28.397  1.00  0.00    -0.248 NA
ATOM     65  C   UNL A   1      46.272  30.880  26.584  1.00  0.00     0.031 C 
ATOM     66  C   UNL A   1      47.270  25.600  29.412  1.00  0.00     0.029 A 
ATOM     67  C   UNL A   1      46.762  26.844  29.075  1.00  0.00     0.049 A 
ATOM     68  H   UNL A   1      45.288  27.989  30.059  1.00  0.00     0.167 HD
ATOM     69  C   UNL A   1      46.567  28.898  27.700  1.00  0.00     0.074 A 
ATOM     70  C   UNL A   1      46.937  29.734  26.574  1.00  0.00     0.031 C 
ATOM     71  C   UNL A   1      47.117  27.688  27.964  1.00  0.00     0.031 A 
BRANCH  58  72
ATOM     72  C   UNL A   1      44.871  24.965  33.043  1.00  0.00    -0.014 A 
ATOM     73  C   UNL A   1      45.732  24.966  34.153  1.00  0.00     0.009 A 
ATOM     74  C   UNL A   1      44.043  23.854  32.827  1.00  0.00     0.009 A 
ATOM     75  C   UNL A   1      45.797  23.858  35.000  1.00  0.00     0.001 A 
ATOM     76  C   UNL A   1      44.089  22.759  33.694  1.00  0.00     0.001 A 
ATOM     77  C   UNL A   1      44.974  22.756  34.770  1.00  0.00     0.000 A 
ENDBRANCH  58  72
BRANCH  59  78
ATOM     78  C   UNL A   1      44.331  32.991  27.132  1.00  0.00    -0.014 A 
ATOM     79  C   UNL A   1      43.765  32.859  25.854  1.00  0.00     0.009 A 
ATOM     80  C   UNL A   1      44.810  34.246  27.537  1.00  0.00     0.009 A 
ATOM     81  C   UNL A   1      43.700  33.956  24.992  1.00  0.00     0.001 A 
ATOM     82  C   UNL A   1      44.719  35.347  26.682  1.00  0.00     0.001 A 
ATOM     83  C   UNL A   1      44.172  35.199  25.409  1.00  0.00     0.000 A 
ENDBRANCH  59  78
BRANCH  71  84
ATOM     84  C   UNL A   1      48.150  27.180  26.999  1.00  0.00    -0.014 A 
ATOM     85  C   UNL A   1      47.785  26.451  25.857  1.00  0.00     0.009 A 
ATOM     86  C   UNL A   1      49.506  27.465  27.222  1.00  0.00     0.009 A 
ATOM     87  C   UNL A   1      48.762  25.991  24.972  1.00  0.00     0.001 A 
ATOM     88  C   UNL A   1      50.478  27.028  26.321  1.00  0.00     0.001 A 
ATOM     89  C   UNL A   1      50.107  26.284  25.203  1.00  0.00     0.000 A 
ENDBRANCH  71  84
ENDBRANCH  45  46
ENDBRANCH  37  40
ENDBRANCH  35  36
ENDBRANCH  34  35
ENDBRANCH  33  34
ENDBRANCH  32  33
ENDBRANCH  30  32
ENDBRANCH   1  28
TORSDOF 21
ENDMDL
MODEL 3
REMARK VINA RESULT:      -8.2      2.360      9.229
REMARK SMILES CCCCCCNC(=O)Oc1cccc(-c2ccc([C@@H](C)C(=O)NCCCCNC(=O)c3ccc(-c4c5nc(c(-c6ccccc6)c6ccc([nH]6)c(-c6ccccc6)c6nc(c(-c7ccccc7)c7ccc4[nH]7)C=C6)C=C5)cc3)cc2O)c1
REMARK SMILES IDX 20 1 21 2 19 3 16 4 17 5 81 6 18 7 80 8 15 9 11 10 12 11
REMARK SMILES IDX 83 12 13 13 14 14 10 15 8 16 7 17 9 19 6 20 5 21 4 22 3 23
REMARK SMILES IDX 2 24 1 25 82 26 22 28 23 29 24 30 25 32 26 33 27 34 28 35
REMARK SMILES IDX 29 36 30 37 31 39 32 40 33 41 79 42 34 43 78 44 35 45 36 46
REMARK SMILES IDX 37 47 72 48 38 49 77 50 71 51 73 52 39 53 76 54 70 55 69 56
REMARK SMILES IDX 40 58 62 59 47 60 61 61 48 62 51 63 60 64 74 65 49 66 50 67
REMARK SMILES IDX 59 69 75 70 52 71 41 72 42 73 46 74 43 75 45 76 44 77 63 78
REMARK SMILES IDX 64 79 68 80 65 81 67 82 66 83 53 84 54 85 58 86 55 87 57 88
REMARK SMILES IDX 56 89
REMARK H PARENT 7 18 82 27 24 31 29 38 73 57 51 68
REMARK Flexibility Score: inf
ROOT
ATOM      1  C   UNL A   1      42.870  22.488  27.071  1.00  0.00     0.105 C 
ATOM      2  C   UNL A   1      42.644  21.342  28.057  1.00  0.00     0.023 C 
ENDROOT
BRANCH   1   3
ATOM      3  C   UNL A   1      42.354  23.850  27.509  1.00  0.00    -0.032 A 
ATOM      4  C   UNL A   1      41.142  26.321  28.317  1.00  0.00     0.024 A 
ATOM      5  C   UNL A   1      41.911  25.544  29.201  1.00  0.00     0.013 A 
ATOM      6  C   UNL A   1      41.077  25.861  26.989  1.00  0.00     0.123 A 
ATOM      7  C   UNL A   1      42.544  24.363  28.793  1.00  0.00     0.005 A 
ATOM      8  C   UNL A   1      41.625  24.633  26.604  1.00  0.00     0.051 A 
BRANCH   4   9
ATOM      9  C   UNL A   1      40.441  27.532  28.813  1.00  0.00    -0.011 A 
ATOM     10  C   UNL A   1      38.780  28.605  30.235  1.00  0.00     0.133 A 
ATOM     11  C   UNL A   1      39.114  29.860  29.738  1.00  0.00     0.047 A 
ATOM     12  C   UNL A   1      39.440  27.453  29.799  1.00  0.00     0.056 A 
ATOM     13  C   UNL A   1      40.125  29.967  28.792  1.00  0.00     0.004 A 
ATOM     14  C   UNL A   1      40.767  28.814  28.325  1.00  0.00     0.009 A 
BRANCH  10  15
ATOM     15  O   UNL A   1      37.643  28.545  31.061  1.00  0.00    -0.410 OA
BRANCH  15  16
ATOM     16  C   UNL A   1      37.775  28.422  32.436  1.00  0.00     0.412 C 
ATOM     17  N   UNL A   1      37.323  29.525  33.110  1.00  0.00    -0.321 N 
ATOM     18  H   UNL A   1      37.413  29.512  34.090  1.00  0.00     0.167 HD
ATOM     19  O   UNL A   1      38.247  27.462  33.029  1.00  0.00    -0.224 OA
BRANCH  17  20
ATOM     20  C   UNL A   1      36.725  30.710  32.526  1.00  0.00     0.119 C 
BRANCH  20  21
ATOM     21  C   UNL A   1      36.913  31.944  33.411  1.00  0.00     0.021 C 
BRANCH  21  22
ATOM     22  C   UNL A   1      37.874  32.998  32.847  1.00  0.00     0.002 C 
BRANCH  22  23
ATOM     23  C   UNL A   1      38.701  32.557  31.635  1.00  0.00    -0.000 C 
BRANCH  23  24
ATOM     24  C   UNL A   1      38.466  33.356  30.351  1.00  0.00    -0.003 C 
ATOM     25  C   UNL A   1      38.610  34.857  30.540  1.00  0.00     0.004 C 
ENDBRANCH  23  24
ENDBRANCH  22  23
ENDBRANCH  21  22
ENDBRANCH  20  21
ENDBRANCH  17  20
ENDBRANCH  15  16
ENDBRANCH  10  15
ENDBRANCH   4   9
BRANCH   6  26
ATOM     26  O   UNL A   1      40.505  26.588  25.976  1.00  0.00    -0.507 OA
ATOM     27  H   UNL A   1      40.608  27.519  25.953  1.00  0.00     0.293 HD
ENDBRANCH   6  26
ENDBRANCH   1   3
BRANCH   1  28
ATOM     28  C   UNL A   1      42.527  22.132  25.615  1.00  0.00     0.227 C 
ATOM     29  O   UNL A   1      41.598  21.353  25.372  1.00  0.00    -0.274 OA
ATOM     30  N   UNL A   1      43.175  22.647  24.533  1.00  0.00    -0.356 N 
ATOM     31  H   UNL A   1      42.793  22.376  23.667  1.00  0.00     0.163 HD
BRANCH  30  32
ATOM     32  C   UNL A   1      44.322  23.522  24.429  1.00  0.00     0.116 C 
BRANCH  32  33
ATOM     33  C   UNL A   1      45.616  22.831  24.863  1.00  0.00     0.023 C 
BRANCH  33  34
ATOM     34  C   UNL A   1      46.039  23.099  26.304  1.00  0.00     0.023 C 
BRANCH  34  35
ATOM     35  C   UNL A   1      46.803  24.399  26.523  1.00  0.00     0.116 C 
BRANCH  35  36
ATOM     36  N   UNL A   1      47.095  25.134  25.300  1.00  0.00    -0.352 N 
ATOM     37  C   UNL A   1      46.811  26.450  25.015  1.00  0.00     0.251 C 
ATOM     38  H   UNL A   1      47.554  24.628  24.590  1.00  0.00     0.163 HD
ATOM     39  O   UNL A   1      47.053  26.921  23.909  1.00  0.00    -0.269 OA
BRANCH  37  40
ATOM     40  C   UNL A   1      46.158  27.277  26.050  1.00  0.00     0.039 A 
ATOM     41  C   UNL A   1      44.766  27.254  26.155  1.00  0.00     0.014 A 
ATOM     42  C   UNL A   1      46.928  28.003  26.962  1.00  0.00     0.014 A 
ATOM     43  C   UNL A   1      44.149  27.900  27.228  1.00  0.00     0.010 A 
ATOM     44  C   UNL A   1      46.319  28.572  28.073  1.00  0.00     0.010 A 
ATOM     45  C   UNL A   1      44.924  28.525  28.217  1.00  0.00    -0.014 A 
BRANCH  45  46
ATOM     46  C   UNL A   1      44.300  29.145  29.412  1.00  0.00     0.031 A 
ATOM     47  C   UNL A   1      43.916  30.597  29.391  1.00  0.00     0.074 A 
ATOM     48  C   UNL A   1      44.142  28.420  30.537  1.00  0.00     0.049 A 
ATOM     49  N   UNL A   1      43.414  31.334  30.348  1.00  0.00    -0.248 NA
ATOM     50  C   UNL A   1      44.159  31.326  28.134  1.00  0.00     0.031 C 
ATOM     51  C   UNL A   1      44.512  27.013  30.703  1.00  0.00     0.029 A 
ATOM     52  N   UNL A   1      43.627  28.774  31.758  1.00  0.00    -0.354 N 
ATOM     53  C   UNL A   1      43.298  32.612  29.816  1.00  0.00     0.074 A 
ATOM     54  C   UNL A   1      43.837  32.565  28.476  1.00  0.00     0.031 C 
ATOM     55  C   UNL A   1      44.172  26.612  31.939  1.00  0.00     0.029 A 
ATOM     56  C   UNL A   1      43.600  27.742  32.664  1.00  0.00     0.049 A 
ATOM     57  H   UNL A   1      43.307  29.682  31.966  1.00  0.00     0.167 HD
ATOM     58  C   UNL A   1      42.765  33.722  30.380  1.00  0.00     0.031 A 
ATOM     59  C   UNL A   1      43.158  27.709  33.935  1.00  0.00     0.031 A 
ATOM     60  C   UNL A   1      42.219  33.769  31.709  1.00  0.00     0.049 A 
ATOM     61  C   UNL A   1      42.588  28.957  34.548  1.00  0.00     0.074 A 
ATOM     62  C   UNL A   1      41.612  34.830  32.356  1.00  0.00     0.029 A 
ATOM     63  N   UNL A   1      42.214  32.702  32.595  1.00  0.00    -0.354 N 
ATOM     64  N   UNL A   1      42.428  30.142  34.011  1.00  0.00    -0.248 NA
ATOM     65  C   UNL A   1      42.128  28.857  35.939  1.00  0.00     0.031 C 
ATOM     66  C   UNL A   1      41.276  34.417  33.650  1.00  0.00     0.029 A 
ATOM     67  C   UNL A   1      41.629  33.084  33.790  1.00  0.00     0.049 A 
ATOM     68  H   UNL A   1      42.572  31.806  32.402  1.00  0.00     0.167 HD
ATOM     69  C   UNL A   1      41.822  30.921  34.988  1.00  0.00     0.074 A 
ATOM     70  C   UNL A   1      41.634  30.069  36.145  1.00  0.00     0.031 C 
ATOM     71  C   UNL A   1      41.451  32.223  34.930  1.00  0.00     0.031 A 
BRANCH  58  72
ATOM     72  C   UNL A   1      42.760  34.974  29.548  1.00  0.00    -0.014 A 
ATOM     73  C   UNL A   1      43.824  35.889  29.607  1.00  0.00     0.009 A 
ATOM     74  C   UNL A   1      41.678  35.246  28.698  1.00  0.00     0.009 A 
ATOM     75  C   UNL A   1      43.782  37.074  28.870  1.00  0.00     0.001 A 
ATOM     76  C   UNL A   1      41.652  36.418  27.938  1.00  0.00     0.001 A 
ATOM     77  C   UNL A   1      42.696  37.336  28.035  1.00  0.00     0.000 A 
ENDBRANCH  58  72
BRANCH  59  78
ATOM     78  C   UNL A   1      43.196  26.438  34.704  1.00  0.00    -0.014 A 
ATOM     79  C   UNL A   1      42.035  25.660  34.835  1.00  0.00     0.009 A 
ATOM     80  C   UNL A   1      44.383  25.995  35.309  1.00  0.00     0.009 A 
ATOM     81  C   UNL A   1      42.055  24.476  35.577  1.00  0.00     0.001 A 
ATOM     82  C   UNL A   1      44.405  24.798  36.028  1.00  0.00     0.001 A 
ATOM     83  C   UNL A   1      43.241  24.044  36.167  1.00  0.00     0.000 A 
ENDBRANCH  59  78
BRANCH  71  84
ATOM     84  C   UNL A   1      40.769  32.795  36.141  1.00  0.00    -0.014 A 
ATOM     85  C   UNL A   1      39.376  32.725  36.294  1.00  0.00     0.009 A 
ATOM     86  C   UNL A   1      41.539  33.381  37.157  1.00  0.00     0.009 A 
ATOM     87  C   UNL A   1      38.764  33.260  37.429  1.00  0.00     0.001 A 
ATOM     88  C   UNL A   1      40.927  33.891  38.304  1.00  0.00     0.001 A 
ATOM     89  C   UNL A   1      39.541  33.838  38.434  1.00  0.00     0.000 A 
ENDBRANCH  71  84
ENDBRANCH  45  46
ENDBRANCH  37  40
ENDBRANCH  35  36
ENDBRANCH  34  35
ENDBRANCH  33  34
ENDBRANCH  32  33
ENDBRANCH  30  32
ENDBRANCH   1  28
TORSDOF 21
ENDMDL
