MODEL 1
REMARK VINA RESULT:     -11.6      0.000      0.000
REMARK SMILES O=C(C[N@@H+]1CCC[C@H]1C(=O)NCCCCNC(=O)c1ccc(-c2c3nc(c(-c4ccccc4)c4ccc([nH]4)c(-c4ccccc4)c4nc(c(-c5ccccc5)c5ccc2[nH]5)C=C4)C=C3)cc1)Nc1ccc(F)c(F)c1F
REMARK SMILES IDX 13 1 12 2 11 3 9 4 10 5 8 7 4 8 5 9 6 11 7 12 3 13 2 14 1 15
REMARK SMILES IDX 67 16 68 18 69 19 75 20 70 21 73 22 76 23 71 24 74 25 72 26
REMARK SMILES IDX 14 27 15 28 16 29 17 30 18 32 19 33 20 34 66 35 21 36 65 37
REMARK SMILES IDX 22 38 23 39 24 40 59 41 25 42 64 43 58 44 60 45 26 46 63 47
REMARK SMILES IDX 57 48 56 49 27 51 49 52 34 53 48 54 35 55 38 56 47 57 61 58
REMARK SMILES IDX 36 59 37 60 46 62 62 63 39 64 28 65 29 66 33 67 30 68 32 69
REMARK SMILES IDX 31 70 50 71 51 72 55 73 52 74 54 75 53 76 40 77 41 78 45 79
REMARK SMILES IDX 42 80 44 81 43 82
REMARK H PARENT 11 6 4 10 67 17 16 31 60 50 38 61
REMARK Flexibility Score: inf
ROOT
ATOM      1  C   UNL A   1      37.130  21.784  24.481  1.00  0.00     0.023 C 
ENDROOT
BRANCH   1   2
ATOM      2  C   UNL A   1      37.096  22.930  25.485  1.00  0.00     0.116 C 
BRANCH   2   3
ATOM      3  N   UNL A   1      36.072  22.741  26.495  1.00  0.00    -0.351 N 
ATOM      4  C   UNL A   1      34.767  23.120  26.585  1.00  0.00     0.278 C 
ATOM      5  O   UNL A   1      34.184  22.774  27.623  1.00  0.00    -0.268 OA
ATOM      6  H   UNL A   1      36.385  22.233  27.278  1.00  0.00     0.163 HD
BRANCH   4   7
ATOM      7  C   UNL A   1      33.965  23.861  25.487  1.00  0.00     0.274 C 
ATOM      8  N   UNL A   1      32.521  23.954  25.761  1.00  0.00    -0.317 N 
ATOM      9  C   UNL A   1      32.224  25.334  26.127  1.00  0.00     0.263 C 
ATOM     10  H   UNL A   1      32.257  23.395  26.572  1.00  0.00     0.349 HD
ATOM     11  C   UNL A   1      33.212  26.162  25.340  1.00  0.00     0.068 C 
ATOM     12  C   UNL A   1      34.466  25.310  25.383  1.00  0.00     0.081 C 
BRANCH   8  13
ATOM     13  C   UNL A   1      31.660  23.252  24.796  1.00  0.00     0.364 C 
BRANCH  13  14
ATOM     14  C   UNL A   1      31.766  21.727  24.852  1.00  0.00     0.279 C 
ATOM     15  O   UNL A   1      31.404  21.078  25.827  1.00  0.00    -0.268 OA
ATOM     16  N   UNL A   1      32.431  21.215  23.744  1.00  0.00    -0.319 N 
ATOM     17  H   UNL A   1      32.610  21.815  22.986  1.00  0.00     0.170 HD
BRANCH  16  18
ATOM     18  C   UNL A   1      32.860  19.883  23.656  1.00  0.00     0.080 A 
ATOM     19  C   UNL A   1      32.154  19.042  22.786  1.00  0.00     0.032 A 
ATOM     20  C   UNL A   1      33.937  19.382  24.394  1.00  0.00     0.185 A 
ATOM     21  C   UNL A   1      32.564  17.723  22.610  1.00  0.00     0.045 A 
ATOM     22  C   UNL A   1      34.312  18.051  24.252  1.00  0.00     0.196 A 
ATOM     23  F   UNL A   1      34.545  20.143  25.316  1.00  0.00    -0.201 F 
ATOM     24  C   UNL A   1      33.639  17.235  23.350  1.00  0.00     0.162 A 
ATOM     25  F   UNL A   1      35.302  17.546  25.001  1.00  0.00    -0.200 F 
ATOM     26  F   UNL A   1      34.007  15.957  23.191  1.00  0.00    -0.204 F 
ENDBRANCH  16  18
ENDBRANCH  13  14
ENDBRANCH   8  13
ENDBRANCH   4   7
ENDBRANCH   2   3
ENDBRANCH   1   2
BRANCH   1  27
ATOM     27  C   UNL A   1      37.774  20.504  25.000  1.00  0.00     0.023 C 
BRANCH  27  28
ATOM     28  C   UNL A   1      39.083  20.696  25.756  1.00  0.00     0.116 C 
BRANCH  28  29
ATOM     29  N   UNL A   1      39.939  19.516  25.764  1.00  0.00    -0.352 N 
ATOM     30  C   UNL A   1      41.286  19.432  26.025  1.00  0.00     0.251 C 
ATOM     31  H   UNL A   1      39.491  18.664  25.555  1.00  0.00     0.163 HD
ATOM     32  O   UNL A   1      41.881  18.365  25.917  1.00  0.00    -0.269 OA
BRANCH  30  33
ATOM     33  C   UNL A   1      42.017  20.659  26.394  1.00  0.00     0.039 A 
ATOM     34  C   UNL A   1      42.450  21.517  25.382  1.00  0.00     0.014 A 
ATOM     35  C   UNL A   1      42.196  20.994  27.739  1.00  0.00     0.014 A 
ATOM     36  C   UNL A   1      42.988  22.759  25.721  1.00  0.00     0.010 A 
ATOM     37  C   UNL A   1      42.659  22.261  28.072  1.00  0.00     0.010 A 
ATOM     38  C   UNL A   1      43.052  23.160  27.066  1.00  0.00    -0.014 A 
BRANCH  38  39
ATOM     39  C   UNL A   1      43.508  24.518  27.446  1.00  0.00     0.031 A 
ATOM     40  C   UNL A   1      42.505  25.564  27.846  1.00  0.00     0.074 A 
ATOM     41  C   UNL A   1      44.815  24.835  27.351  1.00  0.00     0.049 A 
ATOM     42  N   UNL A   1      42.701  26.825  28.139  1.00  0.00    -0.248 NA
ATOM     43  C   UNL A   1      41.093  25.149  27.892  1.00  0.00     0.031 C 
ATOM     44  C   UNL A   1      45.882  23.927  26.922  1.00  0.00     0.029 A 
ATOM     45  N   UNL A   1      45.468  26.017  27.598  1.00  0.00    -0.354 N 
ATOM     46  C   UNL A   1      41.440  27.357  28.373  1.00  0.00     0.074 A 
ATOM     47  C   UNL A   1      40.483  26.295  28.151  1.00  0.00     0.031 C 
ATOM     48  C   UNL A   1      47.056  24.578  26.961  1.00  0.00     0.029 A 
ATOM     49  C   UNL A   1      46.823  25.956  27.380  1.00  0.00     0.049 A 
ATOM     50  H   UNL A   1      45.007  26.833  27.903  1.00  0.00     0.167 HD
ATOM     51  C   UNL A   1      41.109  28.612  28.754  1.00  0.00     0.031 A 
ATOM     52  C   UNL A   1      47.770  26.906  27.500  1.00  0.00     0.031 A 
ATOM     53  C   UNL A   1      42.062  29.657  29.013  1.00  0.00     0.049 A 
ATOM     54  C   UNL A   1      47.374  28.285  27.946  1.00  0.00     0.074 A 
ATOM     55  C   UNL A   1      41.829  30.933  29.494  1.00  0.00     0.029 A 
ATOM     56  N   UNL A   1      43.427  29.545  28.811  1.00  0.00    -0.354 N 
ATOM     57  N   UNL A   1      46.186  28.745  28.254  1.00  0.00    -0.248 NA
ATOM     58  C   UNL A   1      48.454  29.275  28.070  1.00  0.00     0.031 C 
ATOM     59  C   UNL A   1      43.052  31.610  29.541  1.00  0.00     0.029 A 
ATOM     60  C   UNL A   1      44.048  30.738  29.135  1.00  0.00     0.049 A 
ATOM     61  H   UNL A   1      43.886  28.737  28.487  1.00  0.00     0.167 HD
ATOM     62  C   UNL A   1      46.380  30.065  28.639  1.00  0.00     0.074 A 
ATOM     63  C   UNL A   1      47.800  30.329  28.538  1.00  0.00     0.031 C 
ATOM     64  C   UNL A   1      45.463  30.980  29.039  1.00  0.00     0.031 A 
BRANCH  51  65
ATOM     65  C   UNL A   1      39.649  28.928  28.916  1.00  0.00    -0.014 A 
ATOM     66  C   UNL A   1      38.880  29.389  27.837  1.00  0.00     0.009 A 
ATOM     67  C   UNL A   1      39.025  28.712  30.155  1.00  0.00     0.009 A 
ATOM     68  C   UNL A   1      37.519  29.654  28.002  1.00  0.00     0.001 A 
ATOM     69  C   UNL A   1      37.659  28.954  30.310  1.00  0.00     0.001 A 
ATOM     70  C   UNL A   1      36.909  29.431  29.236  1.00  0.00     0.000 A 
ENDBRANCH  51  65
BRANCH  52  71
ATOM     71  C   UNL A   1      49.194  26.590  27.211  1.00  0.00    -0.014 A 
ATOM     72  C   UNL A   1      50.053  26.179  28.242  1.00  0.00     0.009 A 
ATOM     73  C   UNL A   1      49.709  26.729  25.913  1.00  0.00     0.009 A 
ATOM     74  C   UNL A   1      51.407  25.951  27.987  1.00  0.00     0.001 A 
ATOM     75  C   UNL A   1      51.058  26.472  25.656  1.00  0.00     0.001 A 
ATOM     76  C   UNL A   1      51.908  26.095  26.694  1.00  0.00     0.000 A 
ENDBRANCH  52  71
BRANCH  64  77
ATOM     77  C   UNL A   1      45.974  32.334  29.438  1.00  0.00    -0.014 A 
ATOM     78  C   UNL A   1      46.377  32.600  30.755  1.00  0.00     0.009 A 
ATOM     79  C   UNL A   1      46.092  33.343  28.470  1.00  0.00     0.009 A 
ATOM     80  C   UNL A   1      46.860  33.864  31.101  1.00  0.00     0.001 A 
ATOM     81  C   UNL A   1      46.601  34.596  28.812  1.00  0.00     0.001 A 
ATOM     82  C   UNL A   1      46.976  34.857  30.129  1.00  0.00     0.000 A 
ENDBRANCH  64  77
ENDBRANCH  38  39
ENDBRANCH  30  33
ENDBRANCH  28  29
ENDBRANCH  27  28
ENDBRANCH   1  27
TORSDOF 14
ENDMDL
MODEL 2
REMARK VINA RESULT:     -11.5      6.418     10.601
REMARK SMILES O=C(C[N@@H+]1CCC[C@H]1C(=O)NCCCCNC(=O)c1ccc(-c2c3nc(c(-c4ccccc4)c4ccc([nH]4)c(-c4ccccc4)c4nc(c(-c5ccccc5)c5ccc2[nH]5)C=C4)C=C3)cc1)Nc1ccc(F)c(F)c1F
REMARK SMILES IDX 13 1 12 2 11 3 9 4 10 5 8 7 4 8 5 9 6 11 7 12 3 13 2 14 1 15
REMARK SMILES IDX 67 16 68 18 69 19 75 20 70 21 73 22 76 23 71 24 74 25 72 26
REMARK SMILES IDX 14 27 15 28 16 29 17 30 18 32 19 33 20 34 66 35 21 36 65 37
REMARK SMILES IDX 22 38 23 39 24 40 59 41 25 42 64 43 58 44 60 45 26 46 63 47
REMARK SMILES IDX 57 48 56 49 27 51 49 52 34 53 48 54 35 55 38 56 47 57 61 58
REMARK SMILES IDX 36 59 37 60 46 62 62 63 39 64 28 65 29 66 33 67 30 68 32 69
REMARK SMILES IDX 31 70 50 71 51 72 55 73 52 74 54 75 53 76 40 77 41 78 45 79
REMARK SMILES IDX 42 80 44 81 43 82
REMARK H PARENT 11 6 4 10 67 17 16 31 60 50 38 61
REMARK Flexibility Score: inf
ROOT
ATOM      1  C   UNL A   1      32.050  30.478  26.901  1.00  0.00     0.023 C 
ENDROOT
BRANCH   1   2
ATOM      2  C   UNL A   1      31.654  29.724  25.637  1.00  0.00     0.116 C 
BRANCH   2   3
ATOM      3  N   UNL A   1      32.801  29.409  24.807  1.00  0.00    -0.351 N 
ATOM      4  C   UNL A   1      33.173  28.301  24.107  1.00  0.00     0.278 C 
ATOM      5  O   UNL A   1      34.247  28.394  23.496  1.00  0.00    -0.268 OA
ATOM      6  H   UNL A   1      33.445  30.150  24.733  1.00  0.00     0.163 HD
BRANCH   4   7
ATOM      7  C   UNL A   1      32.340  27.004  23.964  1.00  0.00     0.274 C 
ATOM      8  N   UNL A   1      31.265  27.091  22.960  1.00  0.00    -0.317 N 
ATOM      9  C   UNL A   1      31.667  26.297  21.805  1.00  0.00     0.263 C 
ATOM     10  H   UNL A   1      31.155  28.043  22.610  1.00  0.00     0.349 HD
ATOM     11  C   UNL A   1      32.496  25.173  22.380  1.00  0.00     0.068 C 
ATOM     12  C   UNL A   1      33.254  25.860  23.500  1.00  0.00     0.081 C 
BRANCH   8  13
ATOM     13  C   UNL A   1      29.902  26.959  23.498  1.00  0.00     0.364 C 
BRANCH  13  14
ATOM     14  C   UNL A   1      29.001  28.166  23.231  1.00  0.00     0.279 C 
ATOM     15  O   UNL A   1      27.777  28.090  23.244  1.00  0.00    -0.268 OA
ATOM     16  N   UNL A   1      29.735  29.284  22.849  1.00  0.00    -0.319 N 
ATOM     17  H   UNL A   1      30.713  29.257  22.947  1.00  0.00     0.170 HD
BRANCH  16  18
ATOM     18  C   UNL A   1      29.148  30.447  22.331  1.00  0.00     0.080 A 
ATOM     19  C   UNL A   1      28.642  30.379  21.027  1.00  0.00     0.032 A 
ATOM     20  C   UNL A   1      29.060  31.640  23.055  1.00  0.00     0.185 A 
ATOM     21  C   UNL A   1      27.997  31.482  20.474  1.00  0.00     0.045 A 
ATOM     22  C   UNL A   1      28.459  32.753  22.481  1.00  0.00     0.196 A 
ATOM     23  F   UNL A   1      29.644  31.752  24.258  1.00  0.00    -0.201 F 
ATOM     24  C   UNL A   1      27.915  32.665  21.205  1.00  0.00     0.162 A 
ATOM     25  F   UNL A   1      28.425  33.918  23.143  1.00  0.00    -0.200 F 
ATOM     26  F   UNL A   1      27.314  33.727  20.652  1.00  0.00    -0.204 F 
ENDBRANCH  16  18
ENDBRANCH  13  14
ENDBRANCH   8  13
ENDBRANCH   4   7
ENDBRANCH   2   3
ENDBRANCH   1   2
BRANCH   1  27
ATOM     27  C   UNL A   1      31.702  31.961  26.891  1.00  0.00     0.023 C 
BRANCH  27  28
ATOM     28  C   UNL A   1      32.858  32.903  27.206  1.00  0.00     0.116 C 
BRANCH  28  29
ATOM     29  N   UNL A   1      32.437  34.225  27.654  1.00  0.00    -0.352 N 
ATOM     30  C   UNL A   1      32.987  35.017  28.633  1.00  0.00     0.251 C 
ATOM     31  H   UNL A   1      31.653  34.601  27.192  1.00  0.00     0.163 HD
ATOM     32  O   UNL A   1      32.466  36.082  28.946  1.00  0.00    -0.269 OA
BRANCH  30  33
ATOM     33  C   UNL A   1      34.194  34.543  29.337  1.00  0.00     0.039 A 
ATOM     34  C   UNL A   1      34.050  33.913  30.574  1.00  0.00     0.014 A 
ATOM     35  C   UNL A   1      35.449  34.650  28.732  1.00  0.00     0.014 A 
ATOM     36  C   UNL A   1      35.159  33.309  31.168  1.00  0.00     0.010 A 
ATOM     37  C   UNL A   1      36.534  33.982  29.287  1.00  0.00     0.010 A 
ATOM     38  C   UNL A   1      36.398  33.297  30.506  1.00  0.00    -0.014 A 
BRANCH  38  39
ATOM     39  C   UNL A   1      37.562  32.563  31.058  1.00  0.00     0.031 A 
ATOM     40  C   UNL A   1      38.235  33.052  32.310  1.00  0.00     0.074 A 
ATOM     41  C   UNL A   1      38.064  31.507  30.388  1.00  0.00     0.049 A 
ATOM     42  N   UNL A   1      39.307  32.591  32.904  1.00  0.00    -0.248 NA
ATOM     43  C   UNL A   1      37.646  34.233  32.964  1.00  0.00     0.031 C 
ATOM     44  C   UNL A   1      37.537  30.966  29.132  1.00  0.00     0.029 A 
ATOM     45  N   UNL A   1      39.142  30.704  30.665  1.00  0.00    -0.354 N 
ATOM     46  C   UNL A   1      39.536  33.441  33.978  1.00  0.00     0.074 A 
ATOM     47  C   UNL A   1      38.518  34.467  33.934  1.00  0.00     0.031 C 
ATOM     48  C   UNL A   1      38.277  29.907  28.764  1.00  0.00     0.029 A 
ATOM     49  C   UNL A   1      39.351  29.717  29.732  1.00  0.00     0.049 A 
ATOM     50  H   UNL A   1      39.714  30.825  31.459  1.00  0.00     0.167 HD
ATOM     51  C   UNL A   1      40.499  33.365  34.925  1.00  0.00     0.031 A 
ATOM     52  C   UNL A   1      40.304  28.768  29.663  1.00  0.00     0.031 A 
ATOM     53  C   UNL A   1      41.488  32.324  34.992  1.00  0.00     0.049 A 
ATOM     54  C   UNL A   1      41.348  28.697  30.743  1.00  0.00     0.074 A 
ATOM     55  C   UNL A   1      42.446  32.109  35.968  1.00  0.00     0.029 A 
ATOM     56  N   UNL A   1      41.645  31.325  34.046  1.00  0.00    -0.354 N 
ATOM     57  N   UNL A   1      41.493  29.453  31.803  1.00  0.00    -0.248 NA
ATOM     58  C   UNL A   1      42.354  27.632  30.619  1.00  0.00     0.031 C 
ATOM     59  C   UNL A   1      43.213  31.004  35.588  1.00  0.00     0.029 A 
ATOM     60  C   UNL A   1      42.701  30.505  34.402  1.00  0.00     0.049 A 
ATOM     61  H   UNL A   1      41.088  31.215  33.242  1.00  0.00     0.167 HD
ATOM     62  C   UNL A   1      42.585  28.936  32.488  1.00  0.00     0.074 A 
ATOM     63  C   UNL A   1      43.056  27.795  31.732  1.00  0.00     0.031 C 
ATOM     64  C   UNL A   1      43.149  29.368  33.642  1.00  0.00     0.031 A 
BRANCH  51  65
ATOM     65  C   UNL A   1      40.531  34.442  35.973  1.00  0.00    -0.014 A 
ATOM     66  C   UNL A   1      41.330  35.585  35.817  1.00  0.00     0.009 A 
ATOM     67  C   UNL A   1      39.710  34.332  37.106  1.00  0.00     0.009 A 
ATOM     68  C   UNL A   1      41.327  36.585  36.791  1.00  0.00     0.001 A 
ATOM     69  C   UNL A   1      39.691  35.346  38.065  1.00  0.00     0.001 A 
ATOM     70  C   UNL A   1      40.504  36.468  37.911  1.00  0.00     0.000 A 
ENDBRANCH  51  65
BRANCH  52  71
ATOM     71  C   UNL A   1      40.315  27.792  28.542  1.00  0.00    -0.014 A 
ATOM     72  C   UNL A   1      39.653  26.561  28.667  1.00  0.00     0.009 A 
ATOM     73  C   UNL A   1      41.014  28.070  27.357  1.00  0.00     0.009 A 
ATOM     74  C   UNL A   1      39.722  25.613  27.643  1.00  0.00     0.001 A 
ATOM     75  C   UNL A   1      41.057  27.131  26.324  1.00  0.00     0.001 A 
ATOM     76  C   UNL A   1      40.421  25.900  26.472  1.00  0.00     0.000 A 
ENDBRANCH  52  71
BRANCH  64  77
ATOM     77  C   UNL A   1      44.309  28.579  34.177  1.00  0.00    -0.014 A 
ATOM     78  C   UNL A   1      44.112  27.475  35.019  1.00  0.00     0.009 A 
ATOM     79  C   UNL A   1      45.615  28.923  33.795  1.00  0.00     0.009 A 
ATOM     80  C   UNL A   1      45.205  26.748  35.494  1.00  0.00     0.001 A 
ATOM     81  C   UNL A   1      46.704  28.178  34.249  1.00  0.00     0.001 A 
ATOM     82  C   UNL A   1      46.498  27.097  35.105  1.00  0.00     0.000 A 
ENDBRANCH  64  77
ENDBRANCH  38  39
ENDBRANCH  30  33
ENDBRANCH  28  29
ENDBRANCH  27  28
ENDBRANCH   1  27
TORSDOF 14
ENDMDL
MODEL 3
REMARK VINA RESULT:     -11.3      6.280     10.834
REMARK SMILES O=C(C[N@@H+]1CCC[C@H]1C(=O)NCCCCNC(=O)c1ccc(-c2c3nc(c(-c4ccccc4)c4ccc([nH]4)c(-c4ccccc4)c4nc(c(-c5ccccc5)c5ccc2[nH]5)C=C4)C=C3)cc1)Nc1ccc(F)c(F)c1F
REMARK SMILES IDX 13 1 12 2 11 3 9 4 10 5 8 7 4 8 5 9 6 11 7 12 3 13 2 14 1 15
REMARK SMILES IDX 67 16 68 18 69 19 75 20 70 21 73 22 76 23 71 24 74 25 72 26
REMARK SMILES IDX 14 27 15 28 16 29 17 30 18 32 19 33 20 34 66 35 21 36 65 37
REMARK SMILES IDX 22 38 23 39 24 40 59 41 25 42 64 43 58 44 60 45 26 46 63 47
REMARK SMILES IDX 57 48 56 49 27 51 49 52 34 53 48 54 35 55 38 56 47 57 61 58
REMARK SMILES IDX 36 59 37 60 46 62 62 63 39 64 28 65 29 66 33 67 30 68 32 69
REMARK SMILES IDX 31 70 50 71 51 72 55 73 52 74 54 75 53 76 40 77 41 78 45 79
REMARK SMILES IDX 42 80 44 81 43 82
REMARK H PARENT 11 6 4 10 67 17 16 31 60 50 38 61
REMARK Flexibility Score: inf
ROOT
ATOM      1  C   UNL A   1      32.261  30.543  27.105  1.00  0.00     0.023 C 
ENDROOT
BRANCH   1   2
ATOM      2  C   UNL A   1      31.832  29.583  26.001  1.00  0.00     0.116 C 
BRANCH   2   3
ATOM      3  N   UNL A   1      32.897  29.340  25.045  1.00  0.00    -0.351 N 
ATOM      4  C   UNL A   1      33.222  28.277  24.259  1.00  0.00     0.278 C 
ATOM      5  O   UNL A   1      34.226  28.429  23.549  1.00  0.00    -0.268 OA
ATOM      6  H   UNL A   1      33.511  30.102  24.943  1.00  0.00     0.163 HD
BRANCH   4   7
ATOM      7  C   UNL A   1      32.410  26.964  24.137  1.00  0.00     0.274 C 
ATOM      8  N   UNL A   1      31.348  27.009  23.118  1.00  0.00    -0.317 N 
ATOM      9  C   UNL A   1      31.778  26.193  21.989  1.00  0.00     0.263 C 
ATOM     10  H   UNL A   1      31.228  27.950  22.743  1.00  0.00     0.349 HD
ATOM     11  C   UNL A   1      32.616  25.097  22.603  1.00  0.00     0.068 C 
ATOM     12  C   UNL A   1      33.349  25.823  23.714  1.00  0.00     0.081 C 
BRANCH   8  13
ATOM     13  C   UNL A   1      29.980  26.870  23.641  1.00  0.00     0.364 C 
BRANCH  13  14
ATOM     14  C   UNL A   1      29.064  28.054  23.329  1.00  0.00     0.279 C 
ATOM     15  O   UNL A   1      27.846  27.937  23.234  1.00  0.00    -0.268 OA
ATOM     16  N   UNL A   1      29.788  29.205  23.041  1.00  0.00    -0.319 N 
ATOM     17  H   UNL A   1      30.755  29.207  23.222  1.00  0.00     0.170 HD
BRANCH  16  18
ATOM     18  C   UNL A   1      29.207  30.363  22.505  1.00  0.00     0.080 A 
ATOM     19  C   UNL A   1      28.701  30.277  21.201  1.00  0.00     0.032 A 
ATOM     20  C   UNL A   1      29.125  31.568  23.210  1.00  0.00     0.185 A 
ATOM     21  C   UNL A   1      28.061  31.375  20.631  1.00  0.00     0.045 A 
ATOM     22  C   UNL A   1      28.530  32.675  22.618  1.00  0.00     0.196 A 
ATOM     23  F   UNL A   1      29.710  31.696  24.411  1.00  0.00    -0.201 F 
ATOM     24  C   UNL A   1      27.985  32.569  21.343  1.00  0.00     0.162 A 
ATOM     25  F   UNL A   1      28.502  33.850  23.262  1.00  0.00    -0.200 F 
ATOM     26  F   UNL A   1      27.390  33.626  20.774  1.00  0.00    -0.204 F 
ENDBRANCH  16  18
ENDBRANCH  13  14
ENDBRANCH   8  13
ENDBRANCH   4   7
ENDBRANCH   2   3
ENDBRANCH   1   2
BRANCH   1  27
ATOM     27  C   UNL A   1      31.598  31.914  27.046  1.00  0.00     0.023 C 
BRANCH  27  28
ATOM     28  C   UNL A   1      32.536  33.078  26.749  1.00  0.00     0.116 C 
BRANCH  28  29
ATOM     29  N   UNL A   1      32.339  34.231  27.619  1.00  0.00    -0.352 N 
ATOM     30  C   UNL A   1      33.086  34.629  28.702  1.00  0.00     0.251 C 
ATOM     31  H   UNL A   1      31.568  34.803  27.400  1.00  0.00     0.163 HD
ATOM     32  O   UNL A   1      32.742  35.590  29.383  1.00  0.00    -0.269 OA
BRANCH  30  33
ATOM     33  C   UNL A   1      34.286  33.850  29.063  1.00  0.00     0.039 A 
ATOM     34  C   UNL A   1      35.542  34.342  28.704  1.00  0.00     0.014 A 
ATOM     35  C   UNL A   1      34.167  32.685  29.824  1.00  0.00     0.014 A 
ATOM     36  C   UNL A   1      36.688  33.709  29.186  1.00  0.00     0.010 A 
ATOM     37  C   UNL A   1      35.306  32.103  30.366  1.00  0.00     0.010 A 
ATOM     38  C   UNL A   1      36.578  32.614  30.059  1.00  0.00    -0.014 A 
BRANCH  38  39
ATOM     39  C   UNL A   1      37.775  31.996  30.679  1.00  0.00     0.031 A 
ATOM     40  C   UNL A   1      38.502  30.887  29.969  1.00  0.00     0.074 A 
ATOM     41  C   UNL A   1      38.158  32.374  31.914  1.00  0.00     0.049 A 
ATOM     42  N   UNL A   1      39.519  30.173  30.380  1.00  0.00    -0.248 NA
ATOM     43  C   UNL A   1      38.000  30.508  28.638  1.00  0.00     0.031 C 
ATOM     44  C   UNL A   1      37.504  33.399  32.732  1.00  0.00     0.029 A 
ATOM     45  N   UNL A   1      39.187  31.928  32.706  1.00  0.00    -0.354 N 
ATOM     46  C   UNL A   1      39.758  29.246  29.374  1.00  0.00     0.074 A 
ATOM     47  C   UNL A   1      38.757  29.460  28.352  1.00  0.00     0.031 C 
ATOM     48  C   UNL A   1      38.164  33.520  33.896  1.00  0.00     0.029 A 
ATOM     49  C   UNL A   1      39.260  32.558  33.925  1.00  0.00     0.049 A 
ATOM     50  H   UNL A   1      39.815  31.221  32.426  1.00  0.00     0.167 HD
ATOM     51  C   UNL A   1      40.732  28.310  29.301  1.00  0.00     0.031 A 
ATOM     52  C   UNL A   1      40.113  32.378  34.951  1.00  0.00     0.031 A 
ATOM     53  C   UNL A   1      41.750  28.122  30.299  1.00  0.00     0.049 A 
ATOM     54  C   UNL A   1      41.198  31.345  34.831  1.00  0.00     0.074 A 
ATOM     55  C   UNL A   1      42.836  27.264  30.269  1.00  0.00     0.029 A 
ATOM     56  N   UNL A   1      41.808  28.803  31.503  1.00  0.00    -0.354 N 
ATOM     57  N   UNL A   1      41.466  30.541  33.832  1.00  0.00    -0.248 NA
ATOM     58  C   UNL A   1      42.105  31.204  35.979  1.00  0.00     0.031 C 
ATOM     59  C   UNL A   1      43.525  27.393  31.478  1.00  0.00     0.029 A 
ATOM     60  C   UNL A   1      42.897  28.366  32.237  1.00  0.00     0.049 A 
ATOM     61  H   UNL A   1      41.170  29.495  31.793  1.00  0.00     0.167 HD
ATOM     62  C   UNL A   1      42.590  29.822  34.218  1.00  0.00     0.074 A 
ATOM     63  C   UNL A   1      42.961  30.294  35.535  1.00  0.00     0.031 C 
ATOM     64  C   UNL A   1      43.256  28.854  33.542  1.00  0.00     0.031 A 
BRANCH  51  65
ATOM     65  C   UNL A   1      40.746  27.412  28.097  1.00  0.00    -0.014 A 
ATOM     66  C   UNL A   1      41.470  27.752  26.943  1.00  0.00     0.009 A 
ATOM     67  C   UNL A   1      40.067  26.185  28.138  1.00  0.00     0.009 A 
ATOM     68  C   UNL A   1      41.489  26.893  25.843  1.00  0.00     0.001 A 
ATOM     69  C   UNL A   1      40.110  25.316  27.046  1.00  0.00     0.001 A 
ATOM     70  C   UNL A   1      40.814  25.674  25.898  1.00  0.00     0.000 A 
ENDBRANCH  51  65
BRANCH  52  71
ATOM     71  C   UNL A   1      39.993  33.202  36.183  1.00  0.00    -0.014 A 
ATOM     72  C   UNL A   1      40.704  34.407  36.302  1.00  0.00     0.009 A 
ATOM     73  C   UNL A   1      39.198  32.774  37.257  1.00  0.00     0.009 A 
ATOM     74  C   UNL A   1      40.649  35.147  37.486  1.00  0.00     0.001 A 
ATOM     75  C   UNL A   1      39.124  33.531  38.428  1.00  0.00     0.001 A 
ATOM     76  C   UNL A   1      39.857  34.710  38.546  1.00  0.00     0.000 A 
ENDBRANCH  52  71
BRANCH  64  77
ATOM     77  C   UNL A   1      44.476  28.275  34.197  1.00  0.00    -0.014 A 
ATOM     78  C   UNL A   1      45.757  28.781  33.926  1.00  0.00     0.009 A 
ATOM     79  C   UNL A   1      44.335  27.237  35.130  1.00  0.00     0.009 A 
ATOM     80  C   UNL A   1      46.877  28.235  34.557  1.00  0.00     0.001 A 
ATOM     81  C   UNL A   1      45.453  26.712  35.779  1.00  0.00     0.001 A 
ATOM     82  C   UNL A   1      46.723  27.206  35.485  1.00  0.00     0.000 A 
ENDBRANCH  64  77
ENDBRANCH  38  39
ENDBRANCH  30  33
ENDBRANCH  28  29
ENDBRANCH  27  28
ENDBRANCH   1  27
TORSDOF 14
ENDMDL
