MODEL 1
REMARK VINA RESULT:     -12.0      0.000      0.000
REMARK SMILES Cc1nc(-c2ccc(S(=O)(=O)N3CC[NH2+][C@H](C(=O)NCCCCNC(=O)c4ccc(-c5c6nc(c(-c7ccccc7)c7ccc([nH]7)c(-c7ccccc7)c7nc(c(-c8ccccc8)c8ccc5[nH]8)C=C7)C=C6)cc4)C3)s2)cs1
REMARK SMILES IDX 21 1 20 2 19 3 17 4 18 5 16 7 12 8 13 9 75 10 14 11 15 12
REMARK SMILES IDX 9 15 10 16 11 17 8 18 5 19 6 20 76 21 7 22 4 23 1 24 2 25
REMARK SMILES IDX 3 26 78 27 77 28 22 29 23 30 24 31 25 32 26 34 27 35 28 36
REMARK SMILES IDX 74 37 29 38 73 39 30 40 31 41 32 42 67 43 33 44 72 45 66 46
REMARK SMILES IDX 68 47 34 48 71 49 65 50 64 51 35 53 57 54 42 55 56 56 43 57
REMARK SMILES IDX 46 58 55 59 69 60 44 61 45 62 54 64 70 65 47 66 36 67 37 68
REMARK SMILES IDX 41 69 38 70 40 71 39 72 58 73 59 74 63 75 60 76 62 77 61 78
REMARK SMILES IDX 48 79 49 80 53 81 50 82 52 83 51 84
REMARK H PARENT 19 6 15 13 15 14 24 33 68 52 46 63
REMARK Flexibility Score: inf
ROOT
ATOM      1  C   UNL A   1      36.646  20.354  25.371  1.00  0.00     0.023 C 
ENDROOT
BRANCH   1   2
ATOM      2  C   UNL A   1      36.919  21.834  25.660  1.00  0.00     0.116 C 
BRANCH   2   3
ATOM      3  N   UNL A   1      37.127  22.532  24.410  1.00  0.00    -0.351 N 
ATOM      4  C   UNL A   1      36.219  23.086  23.561  1.00  0.00     0.279 C 
ATOM      5  O   UNL A   1      36.567  23.146  22.375  1.00  0.00    -0.268 OA
ATOM      6  H   UNL A   1      38.068  22.621  24.132  1.00  0.00     0.163 HD
BRANCH   4   7
ATOM      7  C   UNL A   1      34.893  23.742  24.045  1.00  0.00     0.287 C 
ATOM      8  N   UNL A   1      32.706  24.809  23.684  1.00  0.00    -0.185 NA
ATOM      9  C   UNL A   1      32.982  25.969  24.545  1.00  0.00     0.164 C 
ATOM     10  C   UNL A   1      33.935  24.325  23.011  1.00  0.00     0.178 C 
ATOM     11  C   UNL A   1      34.195  25.733  25.467  1.00  0.00     0.278 C 
ATOM     12  N   UNL A   1      35.238  24.769  25.082  1.00  0.00    -0.334 N 
ATOM     13  H   UNL A   1      35.516  24.268  25.926  1.00  0.00     0.347 HD
ATOM     14  H   UNL A   1      35.966  25.337  24.648  1.00  0.00     0.347 HD
BRANCH   8  15
ATOM     15  S   UNL A   1      31.474  23.711  24.077  1.00  0.00     0.253 S 
ATOM     16  O   UNL A   1      30.348  24.029  23.217  1.00  0.00    -0.206 OA
ATOM     17  O   UNL A   1      31.350  23.707  25.517  1.00  0.00    -0.206 OA
BRANCH  15  18
ATOM     18  C   UNL A   1      31.877  22.011  23.675  1.00  0.00     0.135 A 
ATOM     19  C   UNL A   1      32.605  19.664  24.026  1.00  0.00     0.055 A 
ATOM     20  C   UNL A   1      32.475  19.974  22.695  1.00  0.00     0.023 A 
ATOM     21  S   UNL A   1      32.148  20.964  25.028  1.00  0.00    -0.121 S 
ATOM     22  C   UNL A   1      32.044  21.305  22.501  1.00  0.00     0.034 A 
BRANCH  19  23
ATOM     23  C   UNL A   1      33.134  18.329  24.435  1.00  0.00     0.091 A 
ATOM     24  C   UNL A   1      32.174  15.078  25.766  1.00  0.00     0.079 C 
ATOM     25  C   UNL A   1      32.871  16.283  25.243  1.00  0.00     0.090 A 
ATOM     26  N   UNL A   1      32.273  17.435  25.052  1.00  0.00    -0.241 NA
ATOM     27  S   UNL A   1      34.538  16.253  24.834  1.00  0.00    -0.127 S 
ATOM     28  C   UNL A   1      34.418  17.867  24.248  1.00  0.00     0.096 A 
ENDBRANCH  19  23
ENDBRANCH  15  18
ENDBRANCH   8  15
ENDBRANCH   4   7
ENDBRANCH   2   3
ENDBRANCH   1   2
BRANCH   1  29
ATOM     29  C   UNL A   1      37.910  19.561  25.008  1.00  0.00     0.023 C 
BRANCH  29  30
ATOM     30  C   UNL A   1      39.156  20.000  25.766  1.00  0.00     0.116 C 
BRANCH  30  31
ATOM     31  N   UNL A   1      40.203  18.993  25.751  1.00  0.00    -0.352 N 
ATOM     32  C   UNL A   1      41.546  19.157  25.977  1.00  0.00     0.251 C 
ATOM     33  H   UNL A   1      39.911  18.073  25.553  1.00  0.00     0.163 HD
ATOM     34  O   UNL A   1      42.325  18.226  25.807  1.00  0.00    -0.269 OA
BRANCH  32  35
ATOM     35  C   UNL A   1      42.049  20.484  26.379  1.00  0.00     0.039 A 
ATOM     36  C   UNL A   1      42.381  21.400  25.379  1.00  0.00     0.014 A 
ATOM     37  C   UNL A   1      42.167  20.830  27.728  1.00  0.00     0.014 A 
ATOM     38  C   UNL A   1      42.785  22.685  25.733  1.00  0.00     0.010 A 
ATOM     39  C   UNL A   1      42.506  22.132  28.078  1.00  0.00     0.010 A 
ATOM     40  C   UNL A   1      42.824  23.070  27.084  1.00  0.00    -0.014 A 
BRANCH  40  41
ATOM     41  C   UNL A   1      43.196  24.453  27.463  1.00  0.00     0.031 A 
ATOM     42  C   UNL A   1      44.626  24.902  27.383  1.00  0.00     0.074 A 
ATOM     43  C   UNL A   1      42.244  25.291  27.916  1.00  0.00     0.049 A 
ATOM     44  N   UNL A   1      45.136  26.078  27.650  1.00  0.00    -0.248 NA
ATOM     45  C   UNL A   1      45.618  23.896  26.971  1.00  0.00     0.031 C 
ATOM     46  C   UNL A   1      40.830  24.952  28.095  1.00  0.00     0.029 A 
ATOM     47  N   UNL A   1      42.324  26.603  28.305  1.00  0.00    -0.354 N 
ATOM     48  C   UNL A   1      46.505  25.948  27.454  1.00  0.00     0.074 A 
ATOM     49  C   UNL A   1      46.753  24.569  27.095  1.00  0.00     0.031 C 
ATOM     50  C   UNL A   1      40.170  26.041  28.522  1.00  0.00     0.029 A 
ATOM     51  C   UNL A   1      41.116  27.143  28.669  1.00  0.00     0.049 A 
ATOM     52  H   UNL A   1      43.169  27.110  28.321  1.00  0.00     0.167 HD
ATOM     53  C   UNL A   1      47.467  26.897  27.542  1.00  0.00     0.031 A 
ATOM     54  C   UNL A   1      40.802  28.391  29.061  1.00  0.00     0.031 A 
ATOM     55  C   UNL A   1      47.217  28.271  27.885  1.00  0.00     0.049 A 
ATOM     56  C   UNL A   1      41.882  29.434  29.119  1.00  0.00     0.074 A 
ATOM     57  C   UNL A   1      48.115  29.322  27.949  1.00  0.00     0.029 A 
ATOM     58  N   UNL A   1      45.975  28.785  28.220  1.00  0.00    -0.354 N 
ATOM     59  N   UNL A   1      43.160  29.314  28.856  1.00  0.00    -0.248 NA
ATOM     60  C   UNL A   1      41.469  30.790  29.508  1.00  0.00     0.031 C 
ATOM     61  C   UNL A   1      47.421  30.466  28.358  1.00  0.00     0.029 A 
ATOM     62  C   UNL A   1      46.083  30.135  28.502  1.00  0.00     0.049 A 
ATOM     63  H   UNL A   1      45.138  28.265  28.253  1.00  0.00     0.167 HD
ATOM     64  C   UNL A   1      43.699  30.585  29.015  1.00  0.00     0.074 A 
ATOM     65  C   UNL A   1      42.605  31.459  29.385  1.00  0.00     0.031 C 
ATOM     66  C   UNL A   1      44.983  30.991  28.866  1.00  0.00     0.031 A 
BRANCH  53  67
ATOM     67  C   UNL A   1      48.880  26.471  27.259  1.00  0.00    -0.014 A 
ATOM     68  C   UNL A   1      49.430  26.591  25.972  1.00  0.00     0.009 A 
ATOM     69  C   UNL A   1      49.680  25.964  28.294  1.00  0.00     0.009 A 
ATOM     70  C   UNL A   1      50.738  26.175  25.720  1.00  0.00     0.001 A 
ATOM     71  C   UNL A   1      50.997  25.574  28.044  1.00  0.00     0.001 A 
ATOM     72  C   UNL A   1      51.522  25.671  26.756  1.00  0.00     0.000 A 
ENDBRANCH  53  67
BRANCH  54  73
ATOM     73  C   UNL A   1      39.393  28.738  29.380  1.00  0.00    -0.014 A 
ATOM     74  C   UNL A   1      38.529  29.189  28.372  1.00  0.00     0.009 A 
ATOM     75  C   UNL A   1      38.907  28.620  30.691  1.00  0.00     0.009 A 
ATOM     76  C   UNL A   1      37.212  29.542  28.674  1.00  0.00     0.001 A 
ATOM     77  C   UNL A   1      37.583  28.949  30.986  1.00  0.00     0.001 A 
ATOM     78  C   UNL A   1      36.739  29.419  29.979  1.00  0.00     0.000 A 
ENDBRANCH  54  73
BRANCH  66  79
ATOM     79  C   UNL A   1      45.262  32.452  29.064  1.00  0.00    -0.014 A 
ATOM     80  C   UNL A   1      45.263  33.348  27.984  1.00  0.00     0.009 A 
ATOM     81  C   UNL A   1      45.504  32.941  30.357  1.00  0.00     0.009 A 
ATOM     82  C   UNL A   1      45.538  34.701  28.192  1.00  0.00     0.001 A 
ATOM     83  C   UNL A   1      45.752  34.299  30.565  1.00  0.00     0.001 A 
ATOM     84  C   UNL A   1      45.780  35.175  29.481  1.00  0.00     0.000 A 
ENDBRANCH  66  79
ENDBRANCH  40  41
ENDBRANCH  32  35
ENDBRANCH  30  31
ENDBRANCH  29  30
ENDBRANCH   1  29
TORSDOF 14
ENDMDL
MODEL 2
REMARK VINA RESULT:     -11.9      4.690      9.340
REMARK SMILES Cc1nc(-c2ccc(S(=O)(=O)N3CC[NH2+][C@H](C(=O)NCCCCNC(=O)c4ccc(-c5c6nc(c(-c7ccccc7)c7ccc([nH]7)c(-c7ccccc7)c7nc(c(-c8ccccc8)c8ccc5[nH]8)C=C7)C=C6)cc4)C3)s2)cs1
REMARK SMILES IDX 21 1 20 2 19 3 17 4 18 5 16 7 12 8 13 9 75 10 14 11 15 12
REMARK SMILES IDX 9 15 10 16 11 17 8 18 5 19 6 20 76 21 7 22 4 23 1 24 2 25
REMARK SMILES IDX 3 26 78 27 77 28 22 29 23 30 24 31 25 32 26 34 27 35 28 36
REMARK SMILES IDX 74 37 29 38 73 39 30 40 31 41 32 42 67 43 33 44 72 45 66 46
REMARK SMILES IDX 68 47 34 48 71 49 65 50 64 51 35 53 57 54 42 55 56 56 43 57
REMARK SMILES IDX 46 58 55 59 69 60 44 61 45 62 54 64 70 65 47 66 36 67 37 68
REMARK SMILES IDX 41 69 38 70 40 71 39 72 58 73 59 74 63 75 60 76 62 77 61 78
REMARK SMILES IDX 48 79 49 80 53 81 50 82 52 83 51 84
REMARK H PARENT 19 6 15 13 15 14 24 33 68 52 46 63
REMARK Flexibility Score: inf
ROOT
ATOM      1  C   UNL A   1      31.727  30.155  26.572  1.00  0.00     0.023 C 
ENDROOT
BRANCH   1   2
ATOM      2  C   UNL A   1      33.135  29.751  26.120  1.00  0.00     0.116 C 
BRANCH   2   3
ATOM      3  N   UNL A   1      33.188  29.750  24.674  1.00  0.00    -0.351 N 
ATOM      4  C   UNL A   1      33.159  28.704  23.803  1.00  0.00     0.279 C 
ATOM      5  O   UNL A   1      33.724  28.900  22.720  1.00  0.00    -0.268 OA
ATOM      6  H   UNL A   1      33.254  30.640  24.258  1.00  0.00     0.163 HD
BRANCH   4   7
ATOM      7  C   UNL A   1      32.351  27.401  24.067  1.00  0.00     0.287 C 
ATOM      8  N   UNL A   1      31.716  25.072  23.594  1.00  0.00    -0.185 NA
ATOM      9  C   UNL A   1      30.270  25.337  23.548  1.00  0.00     0.164 C 
ATOM     10  C   UNL A   1      32.498  26.231  23.100  1.00  0.00     0.178 C 
ATOM     11  C   UNL A   1      29.909  26.697  24.177  1.00  0.00     0.278 C 
ATOM     12  N   UNL A   1      30.908  27.776  24.225  1.00  0.00    -0.334 N 
ATOM     13  H   UNL A   1      30.812  28.240  25.129  1.00  0.00     0.347 HD
ATOM     14  H   UNL A   1      30.702  28.355  23.410  1.00  0.00     0.347 HD
BRANCH   8  15
ATOM     15  S   UNL A   1      32.375  24.057  24.782  1.00  0.00     0.253 S 
ATOM     16  O   UNL A   1      31.471  24.107  25.916  1.00  0.00    -0.206 OA
ATOM     17  O   UNL A   1      33.773  24.403  24.910  1.00  0.00    -0.206 OA
BRANCH  15  18
ATOM     18  C   UNL A   1      32.402  22.327  24.309  1.00  0.00     0.135 A 
ATOM     19  C   UNL A   1      32.845  19.891  24.483  1.00  0.00     0.055 A 
ATOM     20  C   UNL A   1      32.410  20.252  23.231  1.00  0.00     0.023 A 
ATOM     21  S   UNL A   1      32.870  21.216  25.553  1.00  0.00    -0.121 S 
ATOM     22  C   UNL A   1      32.143  21.637  23.142  1.00  0.00     0.034 A 
BRANCH  19  23
ATOM     23  C   UNL A   1      33.263  18.483  24.752  1.00  0.00     0.091 A 
ATOM     24  C   UNL A   1      32.088  15.261  25.976  1.00  0.00     0.079 C 
ATOM     25  C   UNL A   1      32.858  16.423  25.457  1.00  0.00     0.090 A 
ATOM     26  N   UNL A   1      32.374  17.640  25.400  1.00  0.00    -0.241 NA
ATOM     27  S   UNL A   1      34.464  16.251  24.875  1.00  0.00    -0.127 S 
ATOM     28  C   UNL A   1      34.464  17.907  24.404  1.00  0.00     0.096 A 
ENDBRANCH  19  23
ENDBRANCH  15  18
ENDBRANCH   8  15
ENDBRANCH   4   7
ENDBRANCH   2   3
ENDBRANCH   1   2
BRANCH   1  29
ATOM     29  C   UNL A   1      31.506  31.675  26.591  1.00  0.00     0.023 C 
BRANCH  29  30
ATOM     30  C   UNL A   1      32.724  32.472  27.040  1.00  0.00     0.116 C 
BRANCH  30  31
ATOM     31  N   UNL A   1      32.377  33.798  27.520  1.00  0.00    -0.352 N 
ATOM     32  C   UNL A   1      33.009  34.550  28.477  1.00  0.00     0.251 C 
ATOM     33  H   UNL A   1      31.585  34.212  27.104  1.00  0.00     0.163 HD
ATOM     34  O   UNL A   1      32.522  35.607  28.862  1.00  0.00    -0.269 OA
BRANCH  32  35
ATOM     35  C   UNL A   1      34.260  34.047  29.076  1.00  0.00     0.039 A 
ATOM     36  C   UNL A   1      34.171  33.148  30.140  1.00  0.00     0.014 A 
ATOM     37  C   UNL A   1      35.505  34.436  28.575  1.00  0.00     0.014 A 
ATOM     38  C   UNL A   1      35.336  32.598  30.672  1.00  0.00     0.010 A 
ATOM     39  C   UNL A   1      36.661  33.838  29.062  1.00  0.00     0.010 A 
ATOM     40  C   UNL A   1      36.588  32.918  30.119  1.00  0.00    -0.014 A 
BRANCH  40  41
ATOM     41  C   UNL A   1      37.824  32.291  30.641  1.00  0.00     0.031 A 
ATOM     42  C   UNL A   1      38.468  32.815  31.893  1.00  0.00     0.074 A 
ATOM     43  C   UNL A   1      38.386  31.273  29.962  1.00  0.00     0.049 A 
ATOM     44  N   UNL A   1      39.538  32.381  32.511  1.00  0.00    -0.248 NA
ATOM     45  C   UNL A   1      37.847  33.991  32.520  1.00  0.00     0.031 C 
ATOM     46  C   UNL A   1      37.886  30.715  28.703  1.00  0.00     0.029 A 
ATOM     47  N   UNL A   1      39.499  30.522  30.241  1.00  0.00    -0.354 N 
ATOM     48  C   UNL A   1      39.724  33.238  33.588  1.00  0.00     0.074 A 
ATOM     49  C   UNL A   1      38.689  34.246  33.510  1.00  0.00     0.031 C 
ATOM     50  C   UNL A   1      38.669  29.686  28.340  1.00  0.00     0.029 A 
ATOM     51  C   UNL A   1      39.735  29.528  29.324  1.00  0.00     0.049 A 
ATOM     52  H   UNL A   1      40.074  30.681  31.025  1.00  0.00     0.167 HD
ATOM     53  C   UNL A   1      40.657  33.179  34.567  1.00  0.00     0.031 A 
ATOM     54  C   UNL A   1      40.693  28.585  29.289  1.00  0.00     0.031 A 
ATOM     55  C   UNL A   1      41.676  32.168  34.651  1.00  0.00     0.049 A 
ATOM     56  C   UNL A   1      41.698  28.520  30.404  1.00  0.00     0.074 A 
ATOM     57  C   UNL A   1      42.636  31.989  35.632  1.00  0.00     0.029 A 
ATOM     58  N   UNL A   1      41.865  31.162  33.717  1.00  0.00    -0.354 N 
ATOM     59  N   UNL A   1      41.814  29.293  31.457  1.00  0.00    -0.248 NA
ATOM     60  C   UNL A   1      42.690  27.438  30.335  1.00  0.00     0.031 C 
ATOM     61  C   UNL A   1      43.429  30.893  35.272  1.00  0.00     0.029 A 
ATOM     62  C   UNL A   1      42.932  30.364  34.091  1.00  0.00     0.049 A 
ATOM     63  H   UNL A   1      41.320  31.034  32.906  1.00  0.00     0.167 HD
ATOM     64  C   UNL A   1      42.871  28.771  32.193  1.00  0.00     0.074 A 
ATOM     65  C   UNL A   1      43.350  27.610  31.471  1.00  0.00     0.031 C 
ATOM     66  C   UNL A   1      43.394  29.212  33.362  1.00  0.00     0.031 A 
BRANCH  53  67
ATOM     67  C   UNL A   1      40.611  34.245  35.626  1.00  0.00    -0.014 A 
ATOM     68  C   UNL A   1      41.335  35.440  35.483  1.00  0.00     0.009 A 
ATOM     69  C   UNL A   1      39.818  34.064  36.769  1.00  0.00     0.009 A 
ATOM     70  C   UNL A   1      41.298  36.413  36.483  1.00  0.00     0.001 A 
ATOM     71  C   UNL A   1      39.761  35.051  37.754  1.00  0.00     0.001 A 
ATOM     72  C   UNL A   1      40.508  36.221  37.615  1.00  0.00     0.000 A 
ENDBRANCH  53  67
BRANCH  54  73
ATOM     73  C   UNL A   1      40.718  27.591  28.185  1.00  0.00    -0.014 A 
ATOM     74  C   UNL A   1      41.426  27.861  27.005  1.00  0.00     0.009 A 
ATOM     75  C   UNL A   1      40.036  26.371  28.306  1.00  0.00     0.009 A 
ATOM     76  C   UNL A   1      41.429  26.940  25.955  1.00  0.00     0.001 A 
ATOM     77  C   UNL A   1      40.061  25.441  27.265  1.00  0.00     0.001 A 
ATOM     78  C   UNL A   1      40.749  25.730  26.087  1.00  0.00     0.000 A 
ENDBRANCH  54  73
BRANCH  66  79
ATOM     79  C   UNL A   1      44.519  28.410  33.950  1.00  0.00    -0.014 A 
ATOM     80  C   UNL A   1      45.857  28.691  33.638  1.00  0.00     0.009 A 
ATOM     81  C   UNL A   1      44.231  27.374  34.852  1.00  0.00     0.009 A 
ATOM     82  C   UNL A   1      46.885  27.923  34.188  1.00  0.00     0.001 A 
ATOM     83  C   UNL A   1      45.262  26.625  35.421  1.00  0.00     0.001 A 
ATOM     84  C   UNL A   1      46.587  26.893  35.080  1.00  0.00     0.000 A 
ENDBRANCH  66  79
ENDBRANCH  40  41
ENDBRANCH  32  35
ENDBRANCH  30  31
ENDBRANCH  29  30
ENDBRANCH   1  29
TORSDOF 14
ENDMDL
MODEL 3
REMARK VINA RESULT:     -11.8      2.937      5.230
REMARK SMILES Cc1nc(-c2ccc(S(=O)(=O)N3CC[NH2+][C@H](C(=O)NCCCCNC(=O)c4ccc(-c5c6nc(c(-c7ccccc7)c7ccc([nH]7)c(-c7ccccc7)c7nc(c(-c8ccccc8)c8ccc5[nH]8)C=C7)C=C6)cc4)C3)s2)cs1
REMARK SMILES IDX 21 1 20 2 19 3 17 4 18 5 16 7 12 8 13 9 75 10 14 11 15 12
REMARK SMILES IDX 9 15 10 16 11 17 8 18 5 19 6 20 76 21 7 22 4 23 1 24 2 25
REMARK SMILES IDX 3 26 78 27 77 28 22 29 23 30 24 31 25 32 26 34 27 35 28 36
REMARK SMILES IDX 74 37 29 38 73 39 30 40 31 41 32 42 67 43 33 44 72 45 66 46
REMARK SMILES IDX 68 47 34 48 71 49 65 50 64 51 35 53 57 54 42 55 56 56 43 57
REMARK SMILES IDX 46 58 55 59 69 60 44 61 45 62 54 64 70 65 47 66 36 67 37 68
REMARK SMILES IDX 41 69 38 70 40 71 39 72 58 73 59 74 63 75 60 76 62 77 61 78
REMARK SMILES IDX 48 79 49 80 53 81 50 82 52 83 51 84
REMARK H PARENT 19 6 15 13 15 14 24 33 68 52 46 63
REMARK Flexibility Score: inf
ROOT
ATOM      1  C   UNL A   1      36.950  21.640  24.121  1.00  0.00     0.023 C 
ENDROOT
BRANCH   1   2
ATOM      2  C   UNL A   1      35.438  21.855  24.251  1.00  0.00     0.116 C 
BRANCH   2   3
ATOM      3  N   UNL A   1      34.997  21.364  25.539  1.00  0.00    -0.351 N 
ATOM      4  C   UNL A   1      34.105  21.902  26.416  1.00  0.00     0.279 C 
ATOM      5  O   UNL A   1      34.284  21.604  27.604  1.00  0.00    -0.268 OA
ATOM      6  H   UNL A   1      35.402  20.513  25.823  1.00  0.00     0.163 HD
BRANCH   4   7
ATOM      7  C   UNL A   1      32.854  22.711  25.966  1.00  0.00     0.287 C 
ATOM      8  N   UNL A   1      31.548  24.780  25.709  1.00  0.00    -0.185 NA
ATOM      9  C   UNL A   1      30.329  24.244  26.332  1.00  0.00     0.164 C 
ATOM     10  C   UNL A   1      32.770  24.194  26.311  1.00  0.00     0.178 C 
ATOM     11  C   UNL A   1      30.352  22.705  26.424  1.00  0.00     0.278 C 
ATOM     12  N   UNL A   1      31.636  21.987  26.455  1.00  0.00    -0.334 N 
ATOM     13  H   UNL A   1      31.530  21.149  25.882  1.00  0.00     0.347 HD
ATOM     14  H   UNL A   1      31.815  21.822  27.446  1.00  0.00     0.347 HD
BRANCH   8  15
ATOM     15  S   UNL A   1      31.555  25.250  24.079  1.00  0.00     0.253 S 
ATOM     16  O   UNL A   1      31.217  24.068  23.307  1.00  0.00    -0.206 OA
ATOM     17  O   UNL A   1      32.782  25.978  23.851  1.00  0.00    -0.206 OA
BRANCH  15  18
ATOM     18  C   UNL A   1      30.270  26.432  23.672  1.00  0.00     0.135 A 
ATOM     19  C   UNL A   1      29.246  28.546  22.867  1.00  0.00     0.055 A 
ATOM     20  C   UNL A   1      28.330  27.721  23.474  1.00  0.00     0.023 A 
ATOM     21  S   UNL A   1      30.789  27.827  22.783  1.00  0.00    -0.121 S 
ATOM     22  C   UNL A   1      28.914  26.513  23.915  1.00  0.00     0.034 A 
BRANCH  19  23
ATOM     23  C   UNL A   1      28.840  29.908  22.411  1.00  0.00     0.091 A 
ATOM     24  C   UNL A   1      29.097  33.456  23.189  1.00  0.00     0.079 C 
ATOM     25  C   UNL A   1      28.798  32.112  22.627  1.00  0.00     0.090 A 
ATOM     26  N   UNL A   1      29.124  30.992  23.227  1.00  0.00    -0.241 NA
ATOM     27  S   UNL A   1      27.998  31.924  21.120  1.00  0.00    -0.127 S 
ATOM     28  C   UNL A   1      28.211  30.219  21.226  1.00  0.00     0.096 A 
ENDBRANCH  19  23
ENDBRANCH  15  18
ENDBRANCH   8  15
ENDBRANCH   4   7
ENDBRANCH   2   3
ENDBRANCH   1   2
BRANCH   1  29
ATOM     29  C   UNL A   1      37.450  20.377  24.837  1.00  0.00     0.023 C 
BRANCH  29  30
ATOM     30  C   UNL A   1      38.582  20.631  25.824  1.00  0.00     0.116 C 
BRANCH  30  31
ATOM     31  N   UNL A   1      39.633  19.632  25.738  1.00  0.00    -0.352 N 
ATOM     32  C   UNL A   1      40.963  19.765  26.048  1.00  0.00     0.251 C 
ATOM     33  H   UNL A   1      39.355  18.744  25.415  1.00  0.00     0.163 HD
ATOM     34  O   UNL A   1      41.753  18.861  25.804  1.00  0.00    -0.269 OA
BRANCH  32  35
ATOM     35  C   UNL A   1      41.440  21.033  26.633  1.00  0.00     0.039 A 
ATOM     36  C   UNL A   1      41.883  22.037  25.770  1.00  0.00     0.014 A 
ATOM     37  C   UNL A   1      41.425  21.237  28.015  1.00  0.00     0.014 A 
ATOM     38  C   UNL A   1      42.266  23.270  26.293  1.00  0.00     0.010 A 
ATOM     39  C   UNL A   1      41.744  22.489  28.530  1.00  0.00     0.010 A 
ATOM     40  C   UNL A   1      42.173  23.515  27.674  1.00  0.00    -0.014 A 
BRANCH  40  41
ATOM     41  C   UNL A   1      42.522  24.843  28.229  1.00  0.00     0.031 A 
ATOM     42  C   UNL A   1      43.945  25.165  28.585  1.00  0.00     0.074 A 
ATOM     43  C   UNL A   1      41.546  25.745  28.445  1.00  0.00     0.049 A 
ATOM     44  N   UNL A   1      44.442  26.280  29.059  1.00  0.00    -0.248 NA
ATOM     45  C   UNL A   1      44.935  24.092  28.409  1.00  0.00     0.031 C 
ATOM     46  C   UNL A   1      40.119  25.528  28.195  1.00  0.00     0.029 A 
ATOM     47  N   UNL A   1      41.608  27.029  28.922  1.00  0.00    -0.354 N 
ATOM     48  C   UNL A   1      45.796  26.036  29.251  1.00  0.00     0.074 A 
ATOM     49  C   UNL A   1      46.033  24.655  28.891  1.00  0.00     0.031 C 
ATOM     50  C   UNL A   1      39.447  26.654  28.484  1.00  0.00     0.029 A 
ATOM     51  C   UNL A   1      40.390  27.660  28.962  1.00  0.00     0.049 A 
ATOM     52  H   UNL A   1      42.448  27.457  29.209  1.00  0.00     0.167 HD
ATOM     53  C   UNL A   1      46.760  26.891  29.667  1.00  0.00     0.031 A 
ATOM     54  C   UNL A   1      40.071  28.915  29.327  1.00  0.00     0.031 A 
ATOM     55  C   UNL A   1      46.526  28.267  30.011  1.00  0.00     0.049 A 
ATOM     56  C   UNL A   1      41.163  29.854  29.753  1.00  0.00     0.074 A 
ATOM     57  C   UNL A   1      47.444  29.230  30.392  1.00  0.00     0.029 A 
ATOM     58  N   UNL A   1      45.281  28.876  30.012  1.00  0.00    -0.354 N 
ATOM     59  N   UNL A   1      42.451  29.630  29.856  1.00  0.00    -0.248 NA
ATOM     60  C   UNL A   1      40.758  31.226  30.093  1.00  0.00     0.031 C 
ATOM     61  C   UNL A   1      46.748  30.415  30.658  1.00  0.00     0.029 A 
ATOM     62  C   UNL A   1      45.404  30.200  30.397  1.00  0.00     0.049 A 
ATOM     63  H   UNL A   1      44.435  28.433  29.773  1.00  0.00     0.167 HD
ATOM     64  C   UNL A   1      43.014  30.841  30.241  1.00  0.00     0.074 A 
ATOM     65  C   UNL A   1      41.929  31.795  30.339  1.00  0.00     0.031 C 
ATOM     66  C   UNL A   1      44.313  31.136  30.487  1.00  0.00     0.031 A 
BRANCH  53  67
ATOM     67  C   UNL A   1      48.159  26.351  29.770  1.00  0.00    -0.014 A 
ATOM     68  C   UNL A   1      48.668  25.884  30.993  1.00  0.00     0.009 A 
ATOM     69  C   UNL A   1      48.972  26.287  28.628  1.00  0.00     0.009 A 
ATOM     70  C   UNL A   1      49.975  25.403  31.078  1.00  0.00     0.001 A 
ATOM     71  C   UNL A   1      50.269  25.779  28.711  1.00  0.00     0.001 A 
ATOM     72  C   UNL A   1      50.773  25.346  29.937  1.00  0.00     0.000 A 
ENDBRANCH  53  67
BRANCH  54  73
ATOM     73  C   UNL A   1      38.660  29.374  29.255  1.00  0.00    -0.014 A 
ATOM     74  C   UNL A   1      38.152  29.920  28.067  1.00  0.00     0.009 A 
ATOM     75  C   UNL A   1      37.816  29.269  30.371  1.00  0.00     0.009 A 
ATOM     76  C   UNL A   1      36.834  30.377  28.004  1.00  0.00     0.001 A 
ATOM     77  C   UNL A   1      36.491  29.704  30.298  1.00  0.00     0.001 A 
ATOM     78  C   UNL A   1      36.004  30.267  29.119  1.00  0.00     0.000 A 
ENDBRANCH  54  73
BRANCH  66  79
ATOM     79  C   UNL A   1      44.633  32.558  30.847  1.00  0.00    -0.014 A 
ATOM     80  C   UNL A   1      44.602  32.998  32.178  1.00  0.00     0.009 A 
ATOM     81  C   UNL A   1      44.996  33.462  29.836  1.00  0.00     0.009 A 
ATOM     82  C   UNL A   1      44.891  34.329  32.486  1.00  0.00     0.001 A 
ATOM     83  C   UNL A   1      45.310  34.785  30.151  1.00  0.00     0.001 A 
ATOM     84  C   UNL A   1      45.246  35.220  31.474  1.00  0.00     0.000 A 
ENDBRANCH  66  79
ENDBRANCH  40  41
ENDBRANCH  32  35
ENDBRANCH  30  31
ENDBRANCH  29  30
ENDBRANCH   1  29
TORSDOF 14
ENDMDL
