MODEL 1
REMARK VINA RESULT:     -12.9      0.000      0.000
REMARK SMILES C[C@H]1CCc2sc3ncn4nc(/C=C\C(=O)NCCCCNC(=O)c5ccc(-c6c7nc(c(-c8ccccc8)c8ccc([nH]8)c(-c8ccccc8)c8nc(c(-c9ccccc9)c9ccc6[nH]9)C=C8)C=C7)cc5)nc4c3c2C1
REMARK SMILES IDX 20 1 19 2 18 3 17 4 15 5 16 6 14 8 13 9 12 10 1 11 2 12 3 13
REMARK SMILES IDX 77 14 4 15 76 16 5 17 75 18 6 19 7 20 74 21 8 22 10 23 73 24
REMARK SMILES IDX 9 25 11 26 21 27 22 28 23 29 24 31 25 32 26 33 72 34 27 35
REMARK SMILES IDX 71 36 28 37 29 38 30 39 65 40 31 41 70 42 64 43 66 44 32 45
REMARK SMILES IDX 69 46 63 47 62 48 33 50 55 51 40 52 54 53 41 54 44 55 53 56
REMARK SMILES IDX 67 57 42 58 43 59 52 61 68 62 45 63 34 64 35 65 39 66 36 67
REMARK SMILES IDX 38 68 37 69 56 70 57 71 61 72 58 73 60 74 59 75 46 76 47 77
REMARK SMILES IDX 51 78 48 79 50 80 49 81
REMARK H PARENT 17 7 22 30 66 49 44 60
REMARK Flexibility Score: inf
ROOT
ATOM      1  C   UNL A   1      32.904  29.739  26.852  1.00  0.00     0.023 C 
ENDROOT
BRANCH   1   2
ATOM      2  C   UNL A   1      33.855  29.076  25.760  1.00  0.00     0.023 C 
BRANCH   2   3
ATOM      3  C   UNL A   1      33.328  28.969  24.314  1.00  0.00     0.116 C 
BRANCH   3   4
ATOM      4  N   UNL A   1      32.038  29.605  24.003  1.00  0.00    -0.353 N 
ATOM      5  C   UNL A   1      30.841  29.058  23.625  1.00  0.00     0.244 C 
ATOM      6  O   UNL A   1      29.790  29.687  23.861  1.00  0.00    -0.270 OA
ATOM      7  H   UNL A   1      32.034  30.586  24.079  1.00  0.00     0.163 HD
BRANCH   5   8
ATOM      8  C   UNL A   1      30.739  27.845  22.779  1.00  0.00     0.075 C 
ATOM      9  C   UNL A   1      30.928  26.564  23.146  1.00  0.00     0.057 C 
BRANCH   9  10
ATOM     10  C   UNL A   1      31.342  26.139  24.428  1.00  0.00     0.175 A 
ATOM     11  C   UNL A   1      37.437  23.658  26.117  1.00  0.00     0.008 C 
ATOM     12  C   UNL A   1      37.014  23.349  24.669  1.00  0.00    -0.009 C 
ATOM     13  C   UNL A   1      37.027  21.824  24.378  1.00  0.00     0.009 C 
ATOM     14  C   UNL A   1      35.615  23.956  24.372  1.00  0.00     0.041 C 
ATOM     15  C   UNL A   1      35.913  21.027  25.054  1.00  0.00     0.047 C 
ATOM     16  C   UNL A   1      34.621  23.261  25.222  1.00  0.00    -0.020 A 
ATOM     17  C   UNL A   1      34.811  21.923  25.498  1.00  0.00     0.011 A 
ATOM     18  C   UNL A   1      33.422  23.739  25.825  1.00  0.00     0.060 A 
ATOM     19  S   UNL A   1      33.651  21.338  26.520  1.00  0.00    -0.120 S 
ATOM     20  C   UNL A   1      32.781  22.795  26.593  1.00  0.00     0.129 A 
ATOM     21  C   UNL A   1      32.572  24.922  25.577  1.00  0.00     0.168 A 
ATOM     22  N   UNL A   1      31.539  22.881  27.174  1.00  0.00    -0.225 NA
ATOM     23  N   UNL A   1      31.294  24.918  26.077  1.00  0.00    -0.201 N 
ATOM     24  N   UNL A   1      32.656  25.781  24.601  1.00  0.00    -0.207 NA
ATOM     25  C   UNL A   1      30.795  23.906  26.877  1.00  0.00     0.227 A 
ATOM     26  N   UNL A   1      30.499  25.760  25.400  1.00  0.00    -0.145 NA
ENDBRANCH   9  10
ENDBRANCH   5   8
ENDBRANCH   3   4
ENDBRANCH   2   3
ENDBRANCH   1   2
BRANCH   1  27
ATOM     27  C   UNL A   1      33.069  31.257  27.252  1.00  0.00     0.116 C 
BRANCH  27  28
ATOM     28  N   UNL A   1      33.965  31.590  28.460  1.00  0.00    -0.352 N 
ATOM     29  C   UNL A   1      35.311  31.966  28.755  1.00  0.00     0.251 C 
ATOM     30  H   UNL A   1      33.445  31.522  29.294  1.00  0.00     0.163 HD
ATOM     31  O   UNL A   1      35.427  32.931  29.523  1.00  0.00    -0.269 OA
BRANCH  29  32
ATOM     32  C   UNL A   1      36.613  31.181  28.551  1.00  0.00     0.039 A 
ATOM     33  C   UNL A   1      37.753  31.482  29.314  1.00  0.00     0.014 A 
ATOM     34  C   UNL A   1      36.821  30.184  27.594  1.00  0.00     0.014 A 
ATOM     35  C   UNL A   1      38.880  30.598  29.360  1.00  0.00     0.010 A 
ATOM     36  C   UNL A   1      37.908  29.245  27.707  1.00  0.00     0.010 A 
ATOM     37  C   UNL A   1      38.912  29.357  28.679  1.00  0.00    -0.014 A 
BRANCH  37  38
ATOM     38  C   UNL A   1      39.935  28.275  29.067  1.00  0.00     0.031 A 
ATOM     39  C   UNL A   1      40.331  28.221  30.537  1.00  0.00     0.074 A 
ATOM     40  C   UNL A   1      40.423  27.179  28.400  1.00  0.00     0.049 A 
ATOM     41  N   UNL A   1      41.464  28.521  31.093  1.00  0.00    -0.248 NA
ATOM     42  C   UNL A   1      39.322  27.775  31.508  1.00  0.00     0.031 C 
ATOM     43  C   UNL A   1      40.061  26.621  27.091  1.00  0.00     0.029 A 
ATOM     44  N   UNL A   1      41.370  26.249  28.830  1.00  0.00    -0.354 N 
ATOM     45  C   UNL A   1      41.357  28.190  32.451  1.00  0.00     0.074 A 
ATOM     46  C   UNL A   1      39.981  27.823  32.666  1.00  0.00     0.031 C 
ATOM     47  C   UNL A   1      40.626  25.400  26.911  1.00  0.00     0.029 A 
ATOM     48  C   UNL A   1      41.522  25.121  28.015  1.00  0.00     0.049 A 
ATOM     49  H   UNL A   1      41.895  26.377  29.653  1.00  0.00     0.167 HD
ATOM     50  C   UNL A   1      42.434  28.092  33.288  1.00  0.00     0.031 A 
ATOM     51  C   UNL A   1      42.352  24.051  28.171  1.00  0.00     0.031 A 
ATOM     52  C   UNL A   1      43.624  28.649  32.710  1.00  0.00     0.049 A 
ATOM     53  C   UNL A   1      43.456  24.467  29.052  1.00  0.00     0.074 A 
ATOM     54  C   UNL A   1      43.983  29.877  32.194  1.00  0.00     0.029 A 
ATOM     55  N   UNL A   1      44.575  27.770  32.256  1.00  0.00    -0.354 N 
ATOM     56  N   UNL A   1      44.372  25.320  28.711  1.00  0.00    -0.248 NA
ATOM     57  C   UNL A   1      43.400  24.128  30.461  1.00  0.00     0.031 C 
ATOM     58  C   UNL A   1      44.766  29.564  31.043  1.00  0.00     0.029 A 
ATOM     59  C   UNL A   1      44.894  28.175  30.986  1.00  0.00     0.049 A 
ATOM     60  H   UNL A   1      44.953  27.002  32.744  1.00  0.00     0.167 HD
ATOM     61  C   UNL A   1      44.691  25.968  29.888  1.00  0.00     0.074 A 
ATOM     62  C   UNL A   1      44.173  25.102  30.945  1.00  0.00     0.031 C 
ATOM     63  C   UNL A   1      45.093  27.271  29.879  1.00  0.00     0.031 A 
BRANCH  50  64
ATOM     64  C   UNL A   1      42.513  27.202  34.511  1.00  0.00    -0.014 A 
ATOM     65  C   UNL A   1      42.851  25.841  34.357  1.00  0.00     0.009 A 
ATOM     66  C   UNL A   1      41.999  27.581  35.765  1.00  0.00     0.009 A 
ATOM     67  C   UNL A   1      42.637  24.907  35.381  1.00  0.00     0.001 A 
ATOM     68  C   UNL A   1      41.821  26.658  36.803  1.00  0.00     0.001 A 
ATOM     69  C   UNL A   1      42.117  25.316  36.604  1.00  0.00     0.000 A 
ENDBRANCH  50  64
BRANCH  51  70
ATOM     70  C   UNL A   1      42.284  22.636  27.716  1.00  0.00    -0.014 A 
ATOM     71  C   UNL A   1      41.157  21.831  27.992  1.00  0.00     0.009 A 
ATOM     72  C   UNL A   1      43.173  22.177  26.730  1.00  0.00     0.009 A 
ATOM     73  C   UNL A   1      40.898  20.658  27.265  1.00  0.00     0.001 A 
ATOM     74  C   UNL A   1      42.914  21.003  26.005  1.00  0.00     0.001 A 
ATOM     75  C   UNL A   1      41.767  20.255  26.257  1.00  0.00     0.000 A 
ENDBRANCH  51  70
BRANCH  63  76
ATOM     76  C   UNL A   1      45.477  27.896  28.559  1.00  0.00    -0.014 A 
ATOM     77  C   UNL A   1      44.545  28.431  27.652  1.00  0.00     0.009 A 
ATOM     78  C   UNL A   1      46.842  28.092  28.298  1.00  0.00     0.009 A 
ATOM     79  C   UNL A   1      44.968  29.118  26.509  1.00  0.00     0.001 A 
ATOM     80  C   UNL A   1      47.264  28.801  27.171  1.00  0.00     0.001 A 
ATOM     81  C   UNL A   1      46.327  29.310  26.275  1.00  0.00     0.000 A 
ENDBRANCH  63  76
ENDBRANCH  37  38
ENDBRANCH  29  32
ENDBRANCH  27  28
ENDBRANCH   1  27
TORSDOF 12
ENDMDL
MODEL 2
REMARK VINA RESULT:     -12.8      2.627      5.683
REMARK SMILES C[C@H]1CCc2sc3ncn4nc(/C=C\C(=O)NCCCCNC(=O)c5ccc(-c6c7nc(c(-c8ccccc8)c8ccc([nH]8)c(-c8ccccc8)c8nc(c(-c9ccccc9)c9ccc6[nH]9)C=C8)C=C7)cc5)nc4c3c2C1
REMARK SMILES IDX 20 1 19 2 18 3 17 4 15 5 16 6 14 8 13 9 12 10 1 11 2 12 3 13
REMARK SMILES IDX 77 14 4 15 76 16 5 17 75 18 6 19 7 20 74 21 8 22 10 23 73 24
REMARK SMILES IDX 9 25 11 26 21 27 22 28 23 29 24 31 25 32 26 33 72 34 27 35
REMARK SMILES IDX 71 36 28 37 29 38 30 39 65 40 31 41 70 42 64 43 66 44 32 45
REMARK SMILES IDX 69 46 63 47 62 48 33 50 55 51 40 52 54 53 41 54 44 55 53 56
REMARK SMILES IDX 67 57 42 58 43 59 52 61 68 62 45 63 34 64 35 65 39 66 36 67
REMARK SMILES IDX 38 68 37 69 56 70 57 71 61 72 58 73 60 74 59 75 46 76 47 77
REMARK SMILES IDX 51 78 48 79 50 80 49 81
REMARK H PARENT 17 7 22 30 66 49 44 60
REMARK Flexibility Score: inf
ROOT
ATOM      1  C   UNL A   1      33.195  30.438  27.556  1.00  0.00     0.023 C 
ENDROOT
BRANCH   1   2
ATOM      2  C   UNL A   1      32.214  29.223  27.241  1.00  0.00     0.023 C 
BRANCH   2   3
ATOM      3  C   UNL A   1      32.796  28.000  26.502  1.00  0.00     0.116 C 
BRANCH   3   4
ATOM      4  N   UNL A   1      33.286  28.194  25.129  1.00  0.00    -0.353 N 
ATOM      5  C   UNL A   1      32.842  29.019  24.131  1.00  0.00     0.244 C 
ATOM      6  O   UNL A   1      33.642  29.373  23.242  1.00  0.00    -0.270 OA
ATOM      7  H   UNL A   1      34.061  27.638  24.887  1.00  0.00     0.163 HD
BRANCH   5   8
ATOM      8  C   UNL A   1      31.412  29.362  23.943  1.00  0.00     0.075 C 
ATOM      9  C   UNL A   1      30.432  28.580  23.455  1.00  0.00     0.057 C 
BRANCH   9  10
ATOM     10  C   UNL A   1      30.612  27.273  22.950  1.00  0.00     0.175 A 
ATOM     11  C   UNL A   1      32.266  21.728  26.509  1.00  0.00     0.008 C 
ATOM     12  C   UNL A   1      32.836  23.036  27.087  1.00  0.00    -0.009 C 
ATOM     13  C   UNL A   1      34.381  22.979  27.227  1.00  0.00     0.009 C 
ATOM     14  C   UNL A   1      32.405  24.248  26.214  1.00  0.00     0.041 C 
ATOM     15  C   UNL A   1      35.152  23.025  25.910  1.00  0.00     0.047 C 
ATOM     16  C   UNL A   1      33.038  24.105  24.883  1.00  0.00    -0.020 A 
ATOM     17  C   UNL A   1      34.294  23.539  24.808  1.00  0.00     0.011 A 
ATOM     18  C   UNL A   1      32.574  24.484  23.591  1.00  0.00     0.060 A 
ATOM     19  S   UNL A   1      34.805  23.389  23.244  1.00  0.00    -0.120 S 
ATOM     20  C   UNL A   1      33.434  24.138  22.576  1.00  0.00     0.129 A 
ATOM     21  C   UNL A   1      31.522  25.414  23.131  1.00  0.00     0.168 A 
ATOM     22  N   UNL A   1      33.363  24.492  21.250  1.00  0.00    -0.225 NA
ATOM     23  N   UNL A   1      31.555  25.837  21.826  1.00  0.00    -0.201 N 
ATOM     24  N   UNL A   1      30.824  26.253  23.844  1.00  0.00    -0.207 NA
ATOM     25  C   UNL A   1      32.466  25.365  20.898  1.00  0.00     0.227 A 
ATOM     26  N   UNL A   1      30.902  26.998  21.669  1.00  0.00    -0.145 NA
ENDBRANCH   9  10
ENDBRANCH   5   8
ENDBRANCH   3   4
ENDBRANCH   2   3
ENDBRANCH   1   2
BRANCH   1  27
ATOM     27  C   UNL A   1      34.760  30.258  27.462  1.00  0.00     0.116 C 
BRANCH  27  28
ATOM     28  N   UNL A   1      35.458  29.434  28.562  1.00  0.00    -0.352 N 
ATOM     29  C   UNL A   1      36.647  29.448  29.352  1.00  0.00     0.251 C 
ATOM     30  H   UNL A   1      34.910  28.649  28.791  1.00  0.00     0.163 HD
ATOM     31  O   UNL A   1      36.469  29.273  30.566  1.00  0.00    -0.269 OA
BRANCH  29  32
ATOM     32  C   UNL A   1      38.112  29.311  28.919  1.00  0.00     0.039 A 
ATOM     33  C   UNL A   1      39.089  28.893  29.836  1.00  0.00     0.014 A 
ATOM     34  C   UNL A   1      38.621  29.632  27.658  1.00  0.00     0.014 A 
ATOM     35  C   UNL A   1      40.393  28.477  29.407  1.00  0.00     0.010 A 
ATOM     36  C   UNL A   1      39.894  29.129  27.208  1.00  0.00     0.010 A 
ATOM     37  C   UNL A   1      40.773  28.425  28.044  1.00  0.00    -0.014 A 
BRANCH  37  38
ATOM     38  C   UNL A   1      42.000  27.609  27.602  1.00  0.00     0.031 A 
ATOM     39  C   UNL A   1      41.798  26.104  27.482  1.00  0.00     0.074 A 
ATOM     40  C   UNL A   1      43.214  27.973  27.072  1.00  0.00     0.049 A 
ATOM     41  N   UNL A   1      42.283  25.150  28.214  1.00  0.00    -0.248 NA
ATOM     42  C   UNL A   1      40.937  25.608  26.400  1.00  0.00     0.031 C 
ATOM     43  C   UNL A   1      43.721  29.290  26.670  1.00  0.00     0.029 A 
ATOM     44  N   UNL A   1      44.284  27.156  26.708  1.00  0.00    -0.354 N 
ATOM     45  C   UNL A   1      41.897  23.939  27.623  1.00  0.00     0.074 A 
ATOM     46  C   UNL A   1      40.988  24.285  26.560  1.00  0.00     0.031 C 
ATOM     47  C   UNL A   1      44.885  29.172  25.983  1.00  0.00     0.029 A 
ATOM     48  C   UNL A   1      45.316  27.790  26.006  1.00  0.00     0.049 A 
ATOM     49  H   UNL A   1      44.312  26.197  26.931  1.00  0.00     0.167 HD
ATOM     50  C   UNL A   1      42.459  22.734  27.942  1.00  0.00     0.031 A 
ATOM     51  C   UNL A   1      46.474  27.264  25.518  1.00  0.00     0.031 A 
ATOM     52  C   UNL A   1      43.254  22.804  29.135  1.00  0.00     0.049 A 
ATOM     53  C   UNL A   1      46.757  26.030  26.269  1.00  0.00     0.074 A 
ATOM     54  C   UNL A   1      43.030  23.182  30.443  1.00  0.00     0.029 A 
ATOM     55  N   UNL A   1      44.618  22.794  28.986  1.00  0.00    -0.354 N 
ATOM     56  N   UNL A   1      47.097  26.007  27.522  1.00  0.00    -0.248 NA
ATOM     57  C   UNL A   1      46.396  24.752  25.689  1.00  0.00     0.031 C 
ATOM     58  C   UNL A   1      44.206  23.902  30.812  1.00  0.00     0.029 A 
ATOM     59  C   UNL A   1      45.090  23.842  29.732  1.00  0.00     0.049 A 
ATOM     60  H   UNL A   1      45.151  22.162  28.451  1.00  0.00     0.167 HD
ATOM     61  C   UNL A   1      46.554  24.831  28.001  1.00  0.00     0.074 A 
ATOM     62  C   UNL A   1      46.263  24.039  26.809  1.00  0.00     0.031 C 
ATOM     63  C   UNL A   1      46.139  24.733  29.296  1.00  0.00     0.031 A 
BRANCH  50  64
ATOM     64  C   UNL A   1      42.570  21.547  27.008  1.00  0.00    -0.014 A 
ATOM     65  C   UNL A   1      41.968  20.323  27.371  1.00  0.00     0.009 A 
ATOM     66  C   UNL A   1      43.471  21.505  25.929  1.00  0.00     0.009 A 
ATOM     67  C   UNL A   1      42.292  19.122  26.725  1.00  0.00     0.001 A 
ATOM     68  C   UNL A   1      43.766  20.313  25.255  1.00  0.00     0.001 A 
ATOM     69  C   UNL A   1      43.196  19.117  25.668  1.00  0.00     0.000 A 
ENDBRANCH  50  64
BRANCH  51  70
ATOM     70  C   UNL A   1      47.370  27.645  24.392  1.00  0.00    -0.014 A 
ATOM     71  C   UNL A   1      48.687  27.144  24.302  1.00  0.00     0.009 A 
ATOM     72  C   UNL A   1      46.827  28.231  23.237  1.00  0.00     0.009 A 
ATOM     73  C   UNL A   1      49.400  27.167  23.092  1.00  0.00     0.001 A 
ATOM     74  C   UNL A   1      47.541  28.256  22.028  1.00  0.00     0.001 A 
ATOM     75  C   UNL A   1      48.818  27.705  21.949  1.00  0.00     0.000 A 
ENDBRANCH  51  70
BRANCH  63  76
ATOM     76  C   UNL A   1      46.557  25.810  30.270  1.00  0.00    -0.014 A 
ATOM     77  C   UNL A   1      47.586  25.646  31.213  1.00  0.00     0.009 A 
ATOM     78  C   UNL A   1      45.996  27.087  30.117  1.00  0.00     0.009 A 
ATOM     79  C   UNL A   1      48.021  26.720  31.996  1.00  0.00     0.001 A 
ATOM     80  C   UNL A   1      46.448  28.166  30.879  1.00  0.00     0.001 A 
ATOM     81  C   UNL A   1      47.458  27.982  31.820  1.00  0.00     0.000 A 
ENDBRANCH  63  76
ENDBRANCH  37  38
ENDBRANCH  29  32
ENDBRANCH  27  28
ENDBRANCH   1  27
TORSDOF 12
ENDMDL
MODEL 3
REMARK VINA RESULT:     -12.4      3.252      8.216
REMARK SMILES C[C@H]1CCc2sc3ncn4nc(/C=C\C(=O)NCCCCNC(=O)c5ccc(-c6c7nc(c(-c8ccccc8)c8ccc([nH]8)c(-c8ccccc8)c8nc(c(-c9ccccc9)c9ccc6[nH]9)C=C8)C=C7)cc5)nc4c3c2C1
REMARK SMILES IDX 20 1 19 2 18 3 17 4 15 5 16 6 14 8 13 9 12 10 1 11 2 12 3 13
REMARK SMILES IDX 77 14 4 15 76 16 5 17 75 18 6 19 7 20 74 21 8 22 10 23 73 24
REMARK SMILES IDX 9 25 11 26 21 27 22 28 23 29 24 31 25 32 26 33 72 34 27 35
REMARK SMILES IDX 71 36 28 37 29 38 30 39 65 40 31 41 70 42 64 43 66 44 32 45
REMARK SMILES IDX 69 46 63 47 62 48 33 50 55 51 40 52 54 53 41 54 44 55 53 56
REMARK SMILES IDX 67 57 42 58 43 59 52 61 68 62 45 63 34 64 35 65 39 66 36 67
REMARK SMILES IDX 38 68 37 69 56 70 57 71 61 72 58 73 60 74 59 75 46 76 47 77
REMARK SMILES IDX 51 78 48 79 50 80 49 81
REMARK H PARENT 17 7 22 30 66 49 44 60
REMARK Flexibility Score: inf
ROOT
ATOM      1  C   UNL A   1      37.453  22.622  25.399  1.00  0.00     0.023 C 
ENDROOT
BRANCH   1   2
ATOM      2  C   UNL A   1      35.861  22.604  25.364  1.00  0.00     0.023 C 
BRANCH   2   3
ATOM      3  C   UNL A   1      35.134  21.534  26.204  1.00  0.00     0.116 C 
BRANCH   3   4
ATOM      4  N   UNL A   1      34.551  20.383  25.497  1.00  0.00    -0.353 N 
ATOM      5  C   UNL A   1      33.365  20.254  24.827  1.00  0.00     0.244 C 
ATOM      6  O   UNL A   1      33.270  19.390  23.932  1.00  0.00    -0.270 OA
ATOM      7  H   UNL A   1      35.106  19.570  25.509  1.00  0.00     0.163 HD
BRANCH   5   8
ATOM      8  C   UNL A   1      32.126  20.956  25.237  1.00  0.00     0.075 C 
ATOM      9  C   UNL A   1      31.780  22.233  24.989  1.00  0.00     0.057 C 
BRANCH   9  10
ATOM     10  C   UNL A   1      32.595  23.183  24.337  1.00  0.00     0.175 A 
ATOM     11  C   UNL A   1      34.533  29.227  26.761  1.00  0.00     0.008 C 
ATOM     12  C   UNL A   1      33.158  28.759  27.270  1.00  0.00    -0.009 C 
ATOM     13  C   UNL A   1      32.045  29.797  26.962  1.00  0.00     0.009 C 
ATOM     14  C   UNL A   1      32.800  27.371  26.670  1.00  0.00     0.041 C 
ATOM     15  C   UNL A   1      31.652  29.906  25.491  1.00  0.00     0.047 C 
ATOM     16  C   UNL A   1      32.636  27.531  25.206  1.00  0.00    -0.020 A 
ATOM     17  C   UNL A   1      32.106  28.712  24.728  1.00  0.00     0.011 A 
ATOM     18  C   UNL A   1      32.920  26.632  24.139  1.00  0.00     0.060 A 
ATOM     19  S   UNL A   1      32.071  28.741  23.076  1.00  0.00    -0.120 S 
ATOM     20  C   UNL A   1      32.676  27.165  22.894  1.00  0.00     0.129 A 
ATOM     21  C   UNL A   1      33.140  25.172  24.083  1.00  0.00     0.168 A 
ATOM     22  N   UNL A   1      32.695  26.520  21.681  1.00  0.00    -0.225 NA
ATOM     23  N   UNL A   1      33.033  24.547  22.866  1.00  0.00    -0.201 N 
ATOM     24  N   UNL A   1      32.982  24.299  25.037  1.00  0.00    -0.207 NA
ATOM     25  C   UNL A   1      32.824  25.225  21.679  1.00  0.00     0.227 A 
ATOM     26  N   UNL A   1      32.762  23.241  23.006  1.00  0.00    -0.145 NA
ENDBRANCH   9  10
ENDBRANCH   5   8
ENDBRANCH   3   4
ENDBRANCH   2   3
ENDBRANCH   1   2
BRANCH   1  27
ATOM     27  C   UNL A   1      38.276  21.276  25.421  1.00  0.00     0.116 C 
BRANCH  27  28
ATOM     28  N   UNL A   1      39.619  21.264  26.177  1.00  0.00    -0.352 N 
ATOM     29  C   UNL A   1      40.274  21.931  27.257  1.00  0.00     0.251 C 
ATOM     30  H   UNL A   1      40.215  20.581  25.792  1.00  0.00     0.163 HD
ATOM     31  O   UNL A   1      40.810  21.181  28.084  1.00  0.00    -0.269 OA
BRANCH  29  32
ATOM     32  C   UNL A   1      40.705  23.398  27.384  1.00  0.00     0.039 A 
ATOM     33  C   UNL A   1      40.032  24.402  26.670  1.00  0.00     0.014 A 
ATOM     34  C   UNL A   1      41.793  23.864  28.126  1.00  0.00     0.014 A 
ATOM     35  C   UNL A   1      40.209  25.790  26.979  1.00  0.00     0.010 A 
ATOM     36  C   UNL A   1      41.907  25.249  28.507  1.00  0.00     0.010 A 
ATOM     37  C   UNL A   1      41.037  26.243  28.036  1.00  0.00    -0.014 A 
BRANCH  37  38
ATOM     38  C   UNL A   1      40.892  27.670  28.591  1.00  0.00     0.031 A 
ATOM     39  C   UNL A   1      41.962  28.667  28.167  1.00  0.00     0.074 A 
ATOM     40  C   UNL A   1      39.863  28.317  29.231  1.00  0.00     0.049 A 
ATOM     41  N   UNL A   1      42.895  29.221  28.878  1.00  0.00    -0.248 NA
ATOM     42  C   UNL A   1      41.990  29.095  26.762  1.00  0.00     0.031 C 
ATOM     43  C   UNL A   1      38.498  27.868  29.534  1.00  0.00     0.029 A 
ATOM     44  N   UNL A   1      39.824  29.624  29.715  1.00  0.00    -0.354 N 
ATOM     45  C   UNL A   1      43.545  30.151  28.054  1.00  0.00     0.074 A 
ATOM     46  C   UNL A   1      43.005  29.960  26.733  1.00  0.00     0.031 C 
ATOM     47  C   UNL A   1      37.736  28.900  29.976  1.00  0.00     0.029 A 
ATOM     48  C   UNL A   1      38.569  30.073  30.142  1.00  0.00     0.049 A 
ATOM     49  H   UNL A   1      40.627  30.193  29.754  1.00  0.00     0.167 HD
ATOM     50  C   UNL A   1      44.379  31.123  28.531  1.00  0.00     0.031 A 
ATOM     51  C   UNL A   1      38.216  31.286  30.653  1.00  0.00     0.031 A 
ATOM     52  C   UNL A   1      44.746  30.901  29.900  1.00  0.00     0.049 A 
ATOM     53  C   UNL A   1      39.435  31.919  31.185  1.00  0.00     0.074 A 
ATOM     54  C   UNL A   1      45.343  29.875  30.603  1.00  0.00     0.029 A 
ATOM     55  N   UNL A   1      44.153  31.697  30.849  1.00  0.00    -0.354 N 
ATOM     56  N   UNL A   1      40.073  31.493  32.233  1.00  0.00    -0.248 NA
ATOM     57  C   UNL A   1      40.129  32.902  30.378  1.00  0.00     0.031 C 
ATOM     58  C   UNL A   1      44.613  29.811  31.828  1.00  0.00     0.029 A 
ATOM     59  C   UNL A   1      43.680  30.850  31.816  1.00  0.00     0.049 A 
ATOM     60  H   UNL A   1      44.082  32.679  30.837  1.00  0.00     0.167 HD
ATOM     61  C   UNL A   1      41.396  31.787  31.969  1.00  0.00     0.074 A 
ATOM     62  C   UNL A   1      41.354  32.773  30.892  1.00  0.00     0.031 C 
ATOM     63  C   UNL A   1      42.395  30.997  32.456  1.00  0.00     0.031 A 
BRANCH  50  64
ATOM     64  C   UNL A   1      44.622  32.466  27.874  1.00  0.00    -0.014 A 
ATOM     65  C   UNL A   1      43.680  33.502  28.047  1.00  0.00     0.009 A 
ATOM     66  C   UNL A   1      45.591  32.662  26.873  1.00  0.00     0.009 A 
ATOM     67  C   UNL A   1      43.677  34.641  27.229  1.00  0.00     0.001 A 
ATOM     68  C   UNL A   1      45.615  33.817  26.080  1.00  0.00     0.001 A 
ATOM     69  C   UNL A   1      44.644  34.796  26.242  1.00  0.00     0.000 A 
ENDBRANCH  50  64
BRANCH  51  70
ATOM     70  C   UNL A   1      36.938  32.048  30.676  1.00  0.00    -0.014 A 
ATOM     71  C   UNL A   1      36.654  32.971  31.707  1.00  0.00     0.009 A 
ATOM     72  C   UNL A   1      36.146  32.117  29.518  1.00  0.00     0.009 A 
ATOM     73  C   UNL A   1      35.670  33.960  31.555  1.00  0.00     0.001 A 
ATOM     74  C   UNL A   1      35.161  33.105  29.368  1.00  0.00     0.001 A 
ATOM     75  C   UNL A   1      34.937  34.040  30.375  1.00  0.00     0.000 A 
ENDBRANCH  51  70
BRANCH  63  76
ATOM     76  C   UNL A   1      42.056  29.989  33.529  1.00  0.00    -0.014 A 
ATOM     77  C   UNL A   1      41.687  28.660  33.257  1.00  0.00     0.009 A 
ATOM     78  C   UNL A   1      42.273  30.355  34.866  1.00  0.00     0.009 A 
ATOM     79  C   UNL A   1      41.518  27.735  34.293  1.00  0.00     0.001 A 
ATOM     80  C   UNL A   1      42.130  29.425  35.898  1.00  0.00     0.001 A 
ATOM     81  C   UNL A   1      41.749  28.117  35.612  1.00  0.00     0.000 A 
ENDBRANCH  63  76
ENDBRANCH  37  38
ENDBRANCH  29  32
ENDBRANCH  27  28
ENDBRANCH   1  27
TORSDOF 12
ENDMDL
