MODEL 1
REMARK VINA RESULT:     -13.0      0.000      0.000
REMARK SMILES Cc1c(CC(=O)NCCCCNC(=O)c2ccc(-c3c4nc(c(-c5ccccc5)c5ccc([nH]5)c(-c5ccccc5)c5nc(c(-c6ccccc6)c6ccc3[nH]6)C=C5)C=C4)cc2)cc(-c2ccc(S(C)(=O)=O)cc2)n1-c1ccccc1
REMARK SMILES IDX 9 1 8 2 7 3 5 4 6 5 4 7 3 8 1 9 2 10 75 11 63 12 64 13 76 14
REMARK SMILES IDX 77 15 81 16 78 17 80 18 79 19 65 20 66 21 74 22 67 23 73 24
REMARK SMILES IDX 68 25 69 26 70 27 71 28 72 29 10 30 11 31 12 32 13 33 14 35
REMARK SMILES IDX 15 36 16 37 62 38 17 39 61 40 18 41 19 42 20 43 55 44 21 45
REMARK SMILES IDX 60 46 54 47 56 48 22 49 59 50 53 51 52 52 23 54 45 55 30 56
REMARK SMILES IDX 44 57 31 58 34 59 43 60 57 61 32 62 33 63 42 65 58 66 35 67
REMARK SMILES IDX 24 68 25 69 29 70 26 71 28 72 27 73 46 74 47 75 51 76 48 77
REMARK SMILES IDX 50 78 49 79 36 80 37 81 41 82 38 83 40 84 39 85
REMARK H PARENT 7 6 12 34 56 53 34 64
REMARK Flexibility Score: inf
ROOT
ATOM      1  C   UNL A   1      35.845  21.172  25.477  1.00  0.00     0.023 C 
ENDROOT
BRANCH   1   2
ATOM      2  C   UNL A   1      34.792  20.397  24.686  1.00  0.00     0.116 C 
BRANCH   2   3
ATOM      3  N   UNL A   1      33.458  20.546  25.242  1.00  0.00    -0.356 N 
ATOM      4  C   UNL A   1      32.428  21.348  24.851  1.00  0.00     0.224 C 
ATOM      5  O   UNL A   1      31.360  21.246  25.460  1.00  0.00    -0.275 OA
ATOM      6  H   UNL A   1      33.269  19.979  26.025  1.00  0.00     0.163 HD
BRANCH   4   7
ATOM      7  C   UNL A   1      32.588  22.299  23.680  1.00  0.00     0.137 C 
BRANCH   7   8
ATOM      8  C   UNL A   1      32.235  23.713  24.027  1.00  0.00    -0.017 A 
ATOM      9  C   UNL A   1      33.787  24.136  26.064  1.00  0.00     0.065 C 
ATOM     10  C   UNL A   1      32.790  24.515  25.015  1.00  0.00     0.024 A 
ATOM     11  N   UNL A   1      32.197  25.772  24.945  1.00  0.00    -0.314 N 
ATOM     12  C   UNL A   1      31.226  24.484  23.395  1.00  0.00     0.033 A 
ATOM     13  C   UNL A   1      31.237  25.757  23.931  1.00  0.00     0.053 A 
BRANCH  11  14
ATOM     14  C   UNL A   1      32.504  26.886  25.772  1.00  0.00     0.046 A 
ATOM     15  C   UNL A   1      33.708  27.574  25.584  1.00  0.00     0.026 A 
ATOM     16  C   UNL A   1      31.633  27.248  26.804  1.00  0.00     0.026 A 
ATOM     17  C   UNL A   1      34.039  28.628  26.433  1.00  0.00     0.002 A 
ATOM     18  C   UNL A   1      31.980  28.294  27.659  1.00  0.00     0.002 A 
ATOM     19  C   UNL A   1      33.180  28.983  27.473  1.00  0.00     0.000 A 
ENDBRANCH  11  14
BRANCH  13  20
ATOM     20  C   UNL A   1      30.471  26.921  23.469  1.00  0.00    -0.001 A 
ATOM     21  C   UNL A   1      29.103  27.045  23.757  1.00  0.00     0.011 A 
ATOM     22  C   UNL A   1      31.110  27.936  22.743  1.00  0.00     0.011 A 
ATOM     23  C   UNL A   1      28.373  28.141  23.292  1.00  0.00     0.021 A 
ATOM     24  C   UNL A   1      30.387  29.035  22.274  1.00  0.00     0.021 A 
ATOM     25  C   UNL A   1      29.019  29.123  22.537  1.00  0.00     0.067 A 
BRANCH  25  26
ATOM     26  S   UNL A   1      28.082  30.518  21.960  1.00  0.00     0.175 S 
ATOM     27  C   UNL A   1      29.149  31.907  22.242  1.00  0.00     0.163 C 
ATOM     28  O   UNL A   1      27.901  30.355  20.545  1.00  0.00    -0.224 OA
ATOM     29  O   UNL A   1      26.933  30.671  22.855  1.00  0.00    -0.224 OA
ENDBRANCH  25  26
ENDBRANCH  13  20
ENDBRANCH   7   8
ENDBRANCH   4   7
ENDBRANCH   2   3
ENDBRANCH   1   2
BRANCH   1  30
ATOM     30  C   UNL A   1      36.380  22.462  24.825  1.00  0.00     0.023 C 
BRANCH  30  31
ATOM     31  C   UNL A   1      37.667  23.098  25.381  1.00  0.00     0.116 C 
BRANCH  31  32
ATOM     32  N   UNL A   1      38.620  22.198  25.982  1.00  0.00    -0.352 N 
ATOM     33  C   UNL A   1      39.661  22.555  26.829  1.00  0.00     0.251 C 
ATOM     34  H   UNL A   1      38.523  21.241  25.771  1.00  0.00     0.163 HD
ATOM     35  O   UNL A   1      40.443  21.683  27.200  1.00  0.00    -0.269 OA
BRANCH  33  36
ATOM     36  C   UNL A   1      39.913  24.004  27.189  1.00  0.00     0.039 A 
ATOM     37  C   UNL A   1      39.259  24.508  28.292  1.00  0.00     0.014 A 
ATOM     38  C   UNL A   1      40.645  24.939  26.429  1.00  0.00     0.014 A 
ATOM     39  C   UNL A   1      39.403  25.880  28.649  1.00  0.00     0.010 A 
ATOM     40  C   UNL A   1      40.701  26.377  26.756  1.00  0.00     0.010 A 
ATOM     41  C   UNL A   1      40.068  26.923  27.888  1.00  0.00    -0.014 A 
BRANCH  41  42
ATOM     42  C   UNL A   1      39.632  28.487  28.246  1.00  0.00     0.031 A 
ATOM     43  C   UNL A   1      40.964  29.114  28.459  1.00  0.00     0.074 A 
ATOM     44  C   UNL A   1      38.606  29.375  28.617  1.00  0.00     0.049 A 
ATOM     45  N   UNL A   1      41.685  28.606  29.412  1.00  0.00    -0.248 NA
ATOM     46  C   UNL A   1      41.710  29.891  27.470  1.00  0.00     0.031 C 
ATOM     47  C   UNL A   1      37.193  29.087  28.926  1.00  0.00     0.029 A 
ATOM     48  N   UNL A   1      38.586  30.807  28.834  1.00  0.00    -0.354 N 
ATOM     49  C   UNL A   1      42.939  29.140  29.305  1.00  0.00     0.074 A 
ATOM     50  C   UNL A   1      42.942  29.775  27.988  1.00  0.00     0.031 C 
ATOM     51  C   UNL A   1      36.455  30.228  29.102  1.00  0.00     0.029 A 
ATOM     52  C   UNL A   1      37.284  31.430  28.995  1.00  0.00     0.049 A 
ATOM     53  H   UNL A   1      39.417  31.333  28.870  1.00  0.00     0.167 HD
ATOM     54  C   UNL A   1      43.464  29.580  30.483  1.00  0.00     0.031 A 
ATOM     55  C   UNL A   1      36.902  32.774  29.124  1.00  0.00     0.031 A 
ATOM     56  C   UNL A   1      43.224  30.992  30.636  1.00  0.00     0.049 A 
ATOM     57  C   UNL A   1      38.036  33.427  29.784  1.00  0.00     0.074 A 
ATOM     58  C   UNL A   1      43.330  32.049  29.751  1.00  0.00     0.029 A 
ATOM     59  N   UNL A   1      42.321  31.373  31.605  1.00  0.00    -0.354 N 
ATOM     60  N   UNL A   1      38.216  33.314  31.065  1.00  0.00    -0.248 NA
ATOM     61  C   UNL A   1      38.930  34.351  29.098  1.00  0.00     0.031 C 
ATOM     62  C   UNL A   1      42.109  32.740  29.895  1.00  0.00     0.029 A 
ATOM     63  C   UNL A   1      41.547  32.407  31.121  1.00  0.00     0.049 A 
ATOM     64  H   UNL A   1      42.240  30.970  32.499  1.00  0.00     0.167 HD
ATOM     65  C   UNL A   1      39.523  33.657  31.205  1.00  0.00     0.074 A 
ATOM     66  C   UNL A   1      39.811  34.536  30.084  1.00  0.00     0.031 C 
ATOM     67  C   UNL A   1      40.320  32.736  31.798  1.00  0.00     0.031 A 
BRANCH  54  68
ATOM     68  C   UNL A   1      43.333  28.569  31.608  1.00  0.00    -0.014 A 
ATOM     69  C   UNL A   1      42.091  28.386  32.222  1.00  0.00     0.009 A 
ATOM     70  C   UNL A   1      44.452  27.921  32.181  1.00  0.00     0.009 A 
ATOM     71  C   UNL A   1      41.989  27.645  33.408  1.00  0.00     0.001 A 
ATOM     72  C   UNL A   1      44.361  27.233  33.390  1.00  0.00     0.001 A 
ATOM     73  C   UNL A   1      43.126  27.101  34.009  1.00  0.00     0.000 A 
ENDBRANCH  54  68
BRANCH  55  74
ATOM     74  C   UNL A   1      35.733  33.825  29.117  1.00  0.00    -0.014 A 
ATOM     75  C   UNL A   1      34.887  33.955  27.955  1.00  0.00     0.009 A 
ATOM     76  C   UNL A   1      35.153  34.332  30.288  1.00  0.00     0.009 A 
ATOM     77  C   UNL A   1      33.551  34.413  27.980  1.00  0.00     0.001 A 
ATOM     78  C   UNL A   1      33.815  34.835  30.309  1.00  0.00     0.001 A 
ATOM     79  C   UNL A   1      33.002  34.839  29.174  1.00  0.00     0.000 A 
ENDBRANCH  55  74
BRANCH  67  80
ATOM     80  C   UNL A   1      39.760  31.981  32.991  1.00  0.00    -0.014 A 
ATOM     81  C   UNL A   1      39.946  32.329  34.347  1.00  0.00     0.009 A 
ATOM     82  C   UNL A   1      39.038  30.809  32.729  1.00  0.00     0.009 A 
ATOM     83  C   UNL A   1      39.479  31.514  35.387  1.00  0.00     0.001 A 
ATOM     84  C   UNL A   1      38.529  30.019  33.764  1.00  0.00     0.001 A 
ATOM     85  C   UNL A   1      38.763  30.361  35.092  1.00  0.00     0.000 A 
ENDBRANCH  67  80
ENDBRANCH  41  42
ENDBRANCH  33  36
ENDBRANCH  31  32
ENDBRANCH  30  31
ENDBRANCH   1  30
TORSDOF 15
ENDMDL
MODEL 2
REMARK VINA RESULT:     -11.5      2.064      3.719
REMARK SMILES Cc1c(CC(=O)NCCCCNC(=O)c2ccc(-c3c4nc(c(-c5ccccc5)c5ccc([nH]5)c(-c5ccccc5)c5nc(c(-c6ccccc6)c6ccc3[nH]6)C=C5)C=C4)cc2)cc(-c2ccc(S(C)(=O)=O)cc2)n1-c1ccccc1
REMARK SMILES IDX 9 1 8 2 7 3 5 4 6 5 4 7 3 8 1 9 2 10 75 11 63 12 64 13 76 14
REMARK SMILES IDX 77 15 81 16 78 17 80 18 79 19 65 20 66 21 74 22 67 23 73 24
REMARK SMILES IDX 68 25 69 26 70 27 71 28 72 29 10 30 11 31 12 32 13 33 14 35
REMARK SMILES IDX 15 36 16 37 62 38 17 39 61 40 18 41 19 42 20 43 55 44 21 45
REMARK SMILES IDX 60 46 54 47 56 48 22 49 59 50 53 51 52 52 23 54 45 55 30 56
REMARK SMILES IDX 44 57 31 58 34 59 43 60 57 61 32 62 33 63 42 65 58 66 35 67
REMARK SMILES IDX 24 68 25 69 29 70 26 71 28 72 27 73 46 74 47 75 51 76 48 77
REMARK SMILES IDX 50 78 49 79 36 80 37 81 41 82 38 83 40 84 39 85
REMARK H PARENT 7 6 12 34 56 53 34 64
REMARK Flexibility Score: inf
ROOT
ATOM      1  C   UNL A   1      35.220  20.444  25.354  1.00  0.00     0.023 C 
ENDROOT
BRANCH   1   2
ATOM      2  C   UNL A   1      34.026  19.580  24.953  1.00  0.00     0.116 C 
BRANCH   2   3
ATOM      3  N   UNL A   1      32.776  20.067  25.511  1.00  0.00    -0.356 N 
ATOM      4  C   UNL A   1      32.013  21.138  25.154  1.00  0.00     0.224 C 
ATOM      5  O   UNL A   1      30.948  21.309  25.754  1.00  0.00    -0.275 OA
ATOM      6  H   UNL A   1      32.425  19.541  26.265  1.00  0.00     0.163 HD
BRANCH   4   7
ATOM      7  C   UNL A   1      32.447  22.060  24.029  1.00  0.00     0.137 C 
BRANCH   7   8
ATOM      8  C   UNL A   1      32.136  23.499  24.303  1.00  0.00    -0.017 A 
ATOM      9  C   UNL A   1      33.758  24.001  26.267  1.00  0.00     0.065 C 
ATOM     10  C   UNL A   1      32.739  24.343  25.227  1.00  0.00     0.024 A 
ATOM     11  N   UNL A   1      32.171  25.607  25.100  1.00  0.00    -0.314 N 
ATOM     12  C   UNL A   1      31.126  24.256  23.657  1.00  0.00     0.033 A 
ATOM     13  C   UNL A   1      31.182  25.558  24.118  1.00  0.00     0.053 A 
BRANCH  11  14
ATOM     14  C   UNL A   1      32.528  26.759  25.852  1.00  0.00     0.046 A 
ATOM     15  C   UNL A   1      33.783  27.348  25.660  1.00  0.00     0.026 A 
ATOM     16  C   UNL A   1      31.650  27.259  26.820  1.00  0.00     0.026 A 
ATOM     17  C   UNL A   1      34.158  28.441  26.438  1.00  0.00     0.002 A 
ATOM     18  C   UNL A   1      32.041  28.342  27.606  1.00  0.00     0.002 A 
ATOM     19  C   UNL A   1      33.291  28.933  27.415  1.00  0.00     0.000 A 
ENDBRANCH  11  14
BRANCH  13  20
ATOM     20  C   UNL A   1      30.428  26.711  23.610  1.00  0.00    -0.001 A 
ATOM     21  C   UNL A   1      31.066  27.726  22.882  1.00  0.00     0.011 A 
ATOM     22  C   UNL A   1      29.048  26.798  23.836  1.00  0.00     0.011 A 
ATOM     23  C   UNL A   1      30.350  28.834  22.425  1.00  0.00     0.021 A 
ATOM     24  C   UNL A   1      28.323  27.903  23.383  1.00  0.00     0.021 A 
ATOM     25  C   UNL A   1      28.982  28.923  22.693  1.00  0.00     0.067 A 
BRANCH  25  26
ATOM     26  S   UNL A   1      28.078  30.331  22.096  1.00  0.00     0.175 S 
ATOM     27  C   UNL A   1      29.183  31.697  22.346  1.00  0.00     0.163 C 
ATOM     28  O   UNL A   1      27.883  30.147  20.685  1.00  0.00    -0.224 OA
ATOM     29  O   UNL A   1      26.940  30.531  22.996  1.00  0.00    -0.224 OA
ENDBRANCH  25  26
ENDBRANCH  13  20
ENDBRANCH   7   8
ENDBRANCH   4   7
ENDBRANCH   2   3
ENDBRANCH   1   2
BRANCH   1  30
ATOM     30  C   UNL A   1      35.897  21.246  24.225  1.00  0.00     0.023 C 
BRANCH  30  31
ATOM     31  C   UNL A   1      37.305  21.821  24.461  1.00  0.00     0.116 C 
BRANCH  31  32
ATOM     32  N   UNL A   1      38.198  21.021  25.262  1.00  0.00    -0.352 N 
ATOM     33  C   UNL A   1      39.070  21.495  26.234  1.00  0.00     0.251 C 
ATOM     34  H   UNL A   1      38.190  20.049  25.103  1.00  0.00     0.163 HD
ATOM     35  O   UNL A   1      39.830  20.698  26.780  1.00  0.00    -0.269 OA
BRANCH  33  36
ATOM     36  C   UNL A   1      39.180  22.975  26.532  1.00  0.00     0.039 A 
ATOM     37  C   UNL A   1      40.383  23.438  27.019  1.00  0.00     0.014 A 
ATOM     38  C   UNL A   1      38.130  23.915  26.495  1.00  0.00     0.014 A 
ATOM     39  C   UNL A   1      40.533  24.809  27.378  1.00  0.00     0.010 A 
ATOM     40  C   UNL A   1      38.275  25.306  26.966  1.00  0.00     0.010 A 
ATOM     41  C   UNL A   1      39.494  25.821  27.444  1.00  0.00    -0.014 A 
BRANCH  41  42
ATOM     42  C   UNL A   1      39.820  27.151  28.387  1.00  0.00     0.031 A 
ATOM     43  C   UNL A   1      40.981  27.737  27.664  1.00  0.00     0.074 A 
ATOM     44  C   UNL A   1      39.622  27.810  29.614  1.00  0.00     0.049 A 
ATOM     45  N   UNL A   1      42.029  26.976  27.560  1.00  0.00    -0.248 NA
ATOM     46  C   UNL A   1      40.922  28.837  26.703  1.00  0.00     0.031 C 
ATOM     47  C   UNL A   1      38.864  27.364  30.797  1.00  0.00     0.029 A 
ATOM     48  N   UNL A   1      40.087  29.084  30.123  1.00  0.00    -0.354 N 
ATOM     49  C   UNL A   1      42.885  27.578  26.681  1.00  0.00     0.074 A 
ATOM     50  C   UNL A   1      42.073  28.616  26.050  1.00  0.00     0.031 C 
ATOM     51  C   UNL A   1      38.768  28.341  31.753  1.00  0.00     0.029 A 
ATOM     52  C   UNL A   1      39.497  29.551  31.366  1.00  0.00     0.049 A 
ATOM     53  H   UNL A   1      40.771  29.609  29.649  1.00  0.00     0.167 HD
ATOM     54  C   UNL A   1      44.180  27.623  27.102  1.00  0.00     0.031 A 
ATOM     55  C   UNL A   1      39.644  30.752  32.075  1.00  0.00     0.031 A 
ATOM     56  C   UNL A   1      44.452  28.889  27.734  1.00  0.00     0.049 A 
ATOM     57  C   UNL A   1      41.006  31.203  31.777  1.00  0.00     0.074 A 
ATOM     58  C   UNL A   1      44.114  30.185  27.392  1.00  0.00     0.029 A 
ATOM     59  N   UNL A   1      44.653  28.876  29.098  1.00  0.00    -0.354 N 
ATOM     60  N   UNL A   1      42.028  30.676  32.381  1.00  0.00    -0.248 NA
ATOM     61  C   UNL A   1      41.296  32.347  30.923  1.00  0.00     0.031 C 
ATOM     62  C   UNL A   1      43.580  30.724  28.580  1.00  0.00     0.029 A 
ATOM     63  C   UNL A   1      44.031  29.972  29.657  1.00  0.00     0.049 A 
ATOM     64  H   UNL A   1      45.161  28.193  29.593  1.00  0.00     0.167 HD
ATOM     65  C   UNL A   1      43.056  31.018  31.561  1.00  0.00     0.074 A 
ATOM     66  C   UNL A   1      42.626  32.235  30.893  1.00  0.00     0.031 C 
ATOM     67  C   UNL A   1      43.799  29.993  31.078  1.00  0.00     0.031 A 
BRANCH  54  68
ATOM     68  C   UNL A   1      44.687  26.289  27.619  1.00  0.00    -0.014 A 
ATOM     69  C   UNL A   1      45.680  25.612  26.906  1.00  0.00     0.009 A 
ATOM     70  C   UNL A   1      44.080  25.614  28.703  1.00  0.00     0.009 A 
ATOM     71  C   UNL A   1      45.997  24.283  27.220  1.00  0.00     0.001 A 
ATOM     72  C   UNL A   1      44.352  24.275  28.979  1.00  0.00     0.001 A 
ATOM     73  C   UNL A   1      45.310  23.605  28.231  1.00  0.00     0.000 A 
ENDBRANCH  54  68
BRANCH  55  74
ATOM     74  C   UNL A   1      39.114  31.684  33.225  1.00  0.00    -0.014 A 
ATOM     75  C   UNL A   1      38.167  32.731  32.926  1.00  0.00     0.009 A 
ATOM     76  C   UNL A   1      39.128  31.314  34.577  1.00  0.00     0.009 A 
ATOM     77  C   UNL A   1      37.233  33.257  33.847  1.00  0.00     0.001 A 
ATOM     78  C   UNL A   1      38.212  31.875  35.521  1.00  0.00     0.001 A 
ATOM     79  C   UNL A   1      37.243  32.810  35.153  1.00  0.00     0.000 A 
ENDBRANCH  55  74
BRANCH  67  80
ATOM     80  C   UNL A   1      44.133  28.855  32.026  1.00  0.00    -0.014 A 
ATOM     81  C   UNL A   1      43.450  27.621  32.106  1.00  0.00     0.009 A 
ATOM     82  C   UNL A   1      45.177  29.063  32.938  1.00  0.00     0.009 A 
ATOM     83  C   UNL A   1      43.763  26.668  33.084  1.00  0.00     0.001 A 
ATOM     84  C   UNL A   1      45.523  28.094  33.885  1.00  0.00     0.001 A 
ATOM     85  C   UNL A   1      44.806  26.904  33.970  1.00  0.00     0.000 A 
ENDBRANCH  67  80
ENDBRANCH  41  42
ENDBRANCH  33  36
ENDBRANCH  31  32
ENDBRANCH  30  31
ENDBRANCH   1  30
TORSDOF 15
ENDMDL
MODEL 3
REMARK VINA RESULT:     -11.4      2.457      3.639
REMARK SMILES Cc1c(CC(=O)NCCCCNC(=O)c2ccc(-c3c4nc(c(-c5ccccc5)c5ccc([nH]5)c(-c5ccccc5)c5nc(c(-c6ccccc6)c6ccc3[nH]6)C=C5)C=C4)cc2)cc(-c2ccc(S(C)(=O)=O)cc2)n1-c1ccccc1
REMARK SMILES IDX 9 1 8 2 7 3 5 4 6 5 4 7 3 8 1 9 2 10 75 11 63 12 64 13 76 14
REMARK SMILES IDX 77 15 81 16 78 17 80 18 79 19 65 20 66 21 74 22 67 23 73 24
REMARK SMILES IDX 68 25 69 26 70 27 71 28 72 29 10 30 11 31 12 32 13 33 14 35
REMARK SMILES IDX 15 36 16 37 62 38 17 39 61 40 18 41 19 42 20 43 55 44 21 45
REMARK SMILES IDX 60 46 54 47 56 48 22 49 59 50 53 51 52 52 23 54 45 55 30 56
REMARK SMILES IDX 44 57 31 58 34 59 43 60 57 61 32 62 33 63 42 65 58 66 35 67
REMARK SMILES IDX 24 68 25 69 29 70 26 71 28 72 27 73 46 74 47 75 51 76 48 77
REMARK SMILES IDX 50 78 49 79 36 80 37 81 41 82 38 83 40 84 39 85
REMARK H PARENT 7 6 12 34 56 53 34 64
REMARK Flexibility Score: inf
ROOT
ATOM      1  C   UNL A   1      34.908  22.427  24.355  1.00  0.00     0.023 C 
ENDROOT
BRANCH   1   2
ATOM      2  C   UNL A   1      33.918  21.464  25.010  1.00  0.00     0.116 C 
BRANCH   2   3
ATOM      3  N   UNL A   1      33.679  21.780  26.408  1.00  0.00    -0.356 N 
ATOM      4  C   UNL A   1      32.630  22.420  26.997  1.00  0.00     0.224 C 
ATOM      5  O   UNL A   1      32.633  22.513  28.227  1.00  0.00    -0.275 OA
ATOM      6  H   UNL A   1      34.385  21.484  27.027  1.00  0.00     0.163 HD
BRANCH   4   7
ATOM      7  C   UNL A   1      31.484  22.960  26.162  1.00  0.00     0.137 C 
BRANCH   7   8
ATOM      8  C   UNL A   1      31.657  24.404  25.801  1.00  0.00    -0.017 A 
ATOM      9  C   UNL A   1      30.422  24.505  23.519  1.00  0.00     0.065 C 
ATOM     10  C   UNL A   1      31.153  25.074  24.694  1.00  0.00     0.024 A 
ATOM     11  N   UNL A   1      31.515  26.414  24.791  1.00  0.00    -0.314 N 
ATOM     12  C   UNL A   1      32.406  25.350  26.544  1.00  0.00     0.033 A 
ATOM     13  C   UNL A   1      32.280  26.589  25.945  1.00  0.00     0.053 A 
BRANCH  11  14
ATOM     14  C   UNL A   1      31.175  27.438  23.866  1.00  0.00     0.046 A 
ATOM     15  C   UNL A   1      32.179  28.028  23.089  1.00  0.00     0.026 A 
ATOM     16  C   UNL A   1      29.854  27.891  23.784  1.00  0.00     0.026 A 
ATOM     17  C   UNL A   1      31.857  29.073  22.226  1.00  0.00     0.002 A 
ATOM     18  C   UNL A   1      29.545  28.950  22.929  1.00  0.00     0.002 A 
ATOM     19  C   UNL A   1      30.544  29.538  22.150  1.00  0.00     0.000 A 
ENDBRANCH  11  14
BRANCH  13  20
ATOM     20  C   UNL A   1      32.759  27.877  26.462  1.00  0.00    -0.001 A 
ATOM     21  C   UNL A   1      31.860  28.910  26.769  1.00  0.00     0.011 A 
ATOM     22  C   UNL A   1      34.129  28.080  26.672  1.00  0.00     0.011 A 
ATOM     23  C   UNL A   1      32.323  30.143  27.235  1.00  0.00     0.021 A 
ATOM     24  C   UNL A   1      34.601  29.310  27.137  1.00  0.00     0.021 A 
ATOM     25  C   UNL A   1      33.696  30.340  27.401  1.00  0.00     0.067 A 
BRANCH  25  26
ATOM     26  S   UNL A   1      34.272  31.908  28.005  1.00  0.00     0.175 S 
ATOM     27  C   UNL A   1      36.040  31.789  27.912  1.00  0.00     0.163 C 
ATOM     28  O   UNL A   1      33.828  32.912  27.080  1.00  0.00    -0.224 OA
ATOM     29  O   UNL A   1      33.922  31.983  29.425  1.00  0.00    -0.224 OA
ENDBRANCH  25  26
ENDBRANCH  13  20
ENDBRANCH   7   8
ENDBRANCH   4   7
ENDBRANCH   2   3
ENDBRANCH   1   2
BRANCH   1  30
ATOM     30  C   UNL A   1      35.577  23.459  25.285  1.00  0.00     0.023 C 
BRANCH  30  31
ATOM     31  C   UNL A   1      37.077  23.756  25.109  1.00  0.00     0.116 C 
BRANCH  31  32
ATOM     32  N   UNL A   1      37.981  22.660  25.356  1.00  0.00    -0.352 N 
ATOM     33  C   UNL A   1      39.151  22.717  26.104  1.00  0.00     0.251 C 
ATOM     34  H   UNL A   1      37.748  21.791  24.957  1.00  0.00     0.163 HD
ATOM     35  O   UNL A   1      39.862  21.717  26.160  1.00  0.00    -0.269 OA
BRANCH  33  36
ATOM     36  C   UNL A   1      39.613  24.014  26.733  1.00  0.00     0.039 A 
ATOM     37  C   UNL A   1      39.251  24.250  28.041  1.00  0.00     0.014 A 
ATOM     38  C   UNL A   1      40.263  25.078  26.074  1.00  0.00     0.014 A 
ATOM     39  C   UNL A   1      39.601  25.479  28.673  1.00  0.00     0.010 A 
ATOM     40  C   UNL A   1      40.527  26.382  26.713  1.00  0.00     0.010 A 
ATOM     41  C   UNL A   1      40.196  26.650  28.054  1.00  0.00    -0.014 A 
BRANCH  41  42
ATOM     42  C   UNL A   1      40.000  28.090  28.861  1.00  0.00     0.031 A 
ATOM     43  C   UNL A   1      41.337  28.713  28.666  1.00  0.00     0.074 A 
ATOM     44  C   UNL A   1      39.236  28.843  29.772  1.00  0.00     0.049 A 
ATOM     45  N   UNL A   1      42.347  28.049  29.143  1.00  0.00    -0.248 NA
ATOM     46  C   UNL A   1      41.677  29.703  27.646  1.00  0.00     0.031 C 
ATOM     47  C   UNL A   1      38.040  28.442  30.536  1.00  0.00     0.029 A 
ATOM     48  N   UNL A   1      39.363  30.199  30.265  1.00  0.00    -0.354 N 
ATOM     49  C   UNL A   1      43.485  28.643  28.671  1.00  0.00     0.074 A 
ATOM     50  C   UNL A   1      43.007  29.532  27.614  1.00  0.00     0.031 C 
ATOM     51  C   UNL A   1      37.477  29.494  31.211  1.00  0.00     0.029 A 
ATOM     52  C   UNL A   1      38.252  30.725  31.038  1.00  0.00     0.049 A 
ATOM     53  H   UNL A   1      40.165  30.739  30.083  1.00  0.00     0.167 HD
ATOM     54  C   UNL A   1      44.441  28.854  29.618  1.00  0.00     0.031 A 
ATOM     55  C   UNL A   1      38.008  31.998  31.574  1.00  0.00     0.031 A 
ATOM     56  C   UNL A   1      44.341  30.195  30.134  1.00  0.00     0.049 A 
ATOM     57  C   UNL A   1      39.336  32.547  31.863  1.00  0.00     0.074 A 
ATOM     58  C   UNL A   1      44.142  31.413  29.511  1.00  0.00     0.029 A 
ATOM     59  N   UNL A   1      43.898  30.334  31.432  1.00  0.00    -0.354 N 
ATOM     60  N   UNL A   1      39.990  32.182  32.924  1.00  0.00    -0.248 NA
ATOM     61  C   UNL A   1      39.935  33.625  31.089  1.00  0.00     0.031 C 
ATOM     62  C   UNL A   1      43.103  32.011  30.252  1.00  0.00     0.029 A 
ATOM     63  C   UNL A   1      43.043  31.414  31.505  1.00  0.00     0.049 A 
ATOM     64  H   UNL A   1      44.151  29.755  32.186  1.00  0.00     0.167 HD
ATOM     65  C   UNL A   1      41.264  32.541  32.615  1.00  0.00     0.074 A 
ATOM     66  C   UNL A   1      41.135  33.640  31.673  1.00  0.00     0.031 C 
ATOM     67  C   UNL A   1      42.187  31.550  32.655  1.00  0.00     0.031 A 
BRANCH  54  68
ATOM     68  C   UNL A   1      44.711  27.631  30.476  1.00  0.00    -0.014 A 
ATOM     69  C   UNL A   1      45.419  26.557  29.931  1.00  0.00     0.009 A 
ATOM     70  C   UNL A   1      44.133  27.457  31.754  1.00  0.00     0.009 A 
ATOM     71  C   UNL A   1      45.477  25.330  30.609  1.00  0.00     0.001 A 
ATOM     72  C   UNL A   1      44.141  26.223  32.402  1.00  0.00     0.001 A 
ATOM     73  C   UNL A   1      44.811  25.154  31.824  1.00  0.00     0.000 A 
ENDBRANCH  54  68
BRANCH  55  74
ATOM     74  C   UNL A   1      36.973  32.981  32.232  1.00  0.00    -0.014 A 
ATOM     75  C   UNL A   1      35.559  32.706  32.143  1.00  0.00     0.009 A 
ATOM     76  C   UNL A   1      37.305  33.856  33.276  1.00  0.00     0.009 A 
ATOM     77  C   UNL A   1      34.594  33.144  33.077  1.00  0.00     0.001 A 
ATOM     78  C   UNL A   1      36.324  34.333  34.200  1.00  0.00     0.001 A 
ATOM     79  C   UNL A   1      34.984  33.949  34.129  1.00  0.00     0.000 A 
ENDBRANCH  55  74
BRANCH  67  80
ATOM     80  C   UNL A   1      42.098  30.547  33.791  1.00  0.00    -0.014 A 
ATOM     81  C   UNL A   1      41.526  29.259  33.710  1.00  0.00     0.009 A 
ATOM     82  C   UNL A   1      42.581  30.951  35.044  1.00  0.00     0.009 A 
ATOM     83  C   UNL A   1      41.394  28.439  34.839  1.00  0.00     0.001 A 
ATOM     84  C   UNL A   1      42.494  30.115  36.162  1.00  0.00     0.001 A 
ATOM     85  C   UNL A   1      41.886  28.868  36.065  1.00  0.00     0.000 A 
ENDBRANCH  67  80
ENDBRANCH  41  42
ENDBRANCH  33  36
ENDBRANCH  31  32
ENDBRANCH  30  31
ENDBRANCH   1  30
TORSDOF 15
ENDMDL
