MODEL 1
REMARK VINA RESULT:     -12.6      0.000      0.000
REMARK SMILES CC(C)CCn1nc(C(=O)NCCCCNC(=O)c2ccc(-c3c4nc(c(-c5ccccc5)c5ccc([nH]5)c(-c5ccccc5)c5nc(c(-c6ccccc6)c6ccc3[nH]6)C=C5)C=C4)cc2)c2c1CCN(C(=O)[C@@H]1CCc3nn(C)c(=O)n3C1)C2
REMARK SMILES IDX 13 1 12 2 11 3 9 4 10 5 8 7 6 8 7 9 68 10 67 11 69 12 85 13
REMARK SMILES IDX 70 14 71 15 5 16 4 17 2 18 1 19 3 20 72 21 73 22 74 23 75 24
REMARK SMILES IDX 84 25 76 26 83 27 77 28 81 29 78 30 79 31 82 32 80 33 14 34
REMARK SMILES IDX 15 35 16 36 17 37 18 39 19 40 20 41 66 42 21 43 65 44 22 45
REMARK SMILES IDX 23 46 24 47 59 48 25 49 64 50 58 51 60 52 26 53 63 54 57 55
REMARK SMILES IDX 56 56 27 58 49 59 34 60 48 61 35 62 38 63 47 64 61 65 36 66
REMARK SMILES IDX 37 67 46 69 62 70 39 71 28 72 29 73 33 74 30 75 32 76 31 77
REMARK SMILES IDX 50 78 51 79 55 80 52 81 54 82 53 83 40 84 41 85 45 86 42 87
REMARK SMILES IDX 44 88 43 89
REMARK H PARENT 11 6 16 38 60 57 38 68
REMARK Flexibility Score: inf
ROOT
ATOM      1  C   UNL A   1      34.513  30.132  27.398  1.00  0.00     0.023 C 
ENDROOT
BRANCH   1   2
ATOM      2  C   UNL A   1      34.120  28.684  27.066  1.00  0.00     0.116 C 
BRANCH   2   3
ATOM      3  N   UNL A   1      32.788  28.342  27.538  1.00  0.00    -0.351 N 
ATOM      4  C   UNL A   1      31.656  27.754  27.011  1.00  0.00     0.272 C 
ATOM      5  O   UNL A   1      30.794  27.520  27.871  1.00  0.00    -0.267 OA
ATOM      6  H   UNL A   1      32.661  28.597  28.481  1.00  0.00     0.163 HD
BRANCH   4   7
ATOM      7  C   UNL A   1      31.415  27.409  25.578  1.00  0.00     0.155 A 
ATOM      8  N   UNL A   1      30.776  27.857  23.559  1.00  0.00    -0.268 N 
ATOM      9  N   UNL A   1      30.706  28.289  24.829  1.00  0.00    -0.167 NA
ATOM     10  C   UNL A   1      31.333  26.620  23.470  1.00  0.00     0.046 A 
ATOM     11  C   UNL A   1      31.835  26.343  24.727  1.00  0.00     0.026 A 
ATOM     12  C   UNL A   1      31.513  25.744  22.274  1.00  0.00     0.078 C 
ATOM     13  C   UNL A   1      32.692  25.175  24.975  1.00  0.00     0.159 C 
ATOM     14  C   UNL A   1      31.984  24.345  22.761  1.00  0.00     0.126 C 
ATOM     15  N   UNL A   1      33.058  24.452  23.762  1.00  0.00    -0.338 N 
BRANCH   8  16
ATOM     16  C   UNL A   1      30.290  28.708  22.486  1.00  0.00     0.145 C 
BRANCH  16  17
ATOM     17  C   UNL A   1      29.640  30.027  22.939  1.00  0.00     0.027 C 
BRANCH  17  18
ATOM     18  C   UNL A   1      28.132  30.172  22.648  1.00  0.00    -0.016 C 
ATOM     19  C   UNL A   1      27.330  28.942  23.074  1.00  0.00     0.007 C 
ATOM     20  C   UNL A   1      27.579  31.410  23.364  1.00  0.00     0.007 C 
ENDBRANCH  17  18
ENDBRANCH  16  17
ENDBRANCH   8  16
BRANCH  15  21
ATOM     21  C   UNL A   1      34.175  23.657  23.911  1.00  0.00     0.227 C 
ATOM     22  O   UNL A   1      35.012  23.589  22.998  1.00  0.00    -0.274 OA
BRANCH  21  23
ATOM     23  C   UNL A   1      34.430  22.772  25.118  1.00  0.00     0.099 C 
ATOM     24  C   UNL A   1      35.874  22.471  25.515  1.00  0.00     0.023 C 
ATOM     25  C   UNL A   1      33.470  21.600  25.176  1.00  0.00     0.142 C 
ATOM     26  C   UNL A   1      36.443  21.150  25.019  1.00  0.00     0.078 C 
ATOM     27  N   UNL A   1      34.106  20.343  24.894  1.00  0.00    -0.278 N 
ATOM     28  C   UNL A   1      35.420  20.068  24.869  1.00  0.00     0.133 A 
ATOM     29  C   UNL A   1      33.464  19.144  24.758  1.00  0.00     0.345 A 
ATOM     30  N   UNL A   1      35.713  18.819  24.657  1.00  0.00    -0.155 NA
ATOM     31  N   UNL A   1      34.480  18.212  24.566  1.00  0.00    -0.216 N 
ATOM     32  O   UNL A   1      32.256  18.937  24.828  1.00  0.00    -0.246 OA
ATOM     33  C   UNL A   1      34.315  16.795  24.429  1.00  0.00     0.179 C 
ENDBRANCH  21  23
ENDBRANCH  15  21
ENDBRANCH   4   7
ENDBRANCH   2   3
ENDBRANCH   1   2
BRANCH   1  34
ATOM     34  C   UNL A   1      33.732  31.281  26.761  1.00  0.00     0.023 C 
BRANCH  34  35
ATOM     35  C   UNL A   1      32.629  31.849  27.645  1.00  0.00     0.116 C 
BRANCH  35  36
ATOM     36  N   UNL A   1      32.485  33.314  27.580  1.00  0.00    -0.352 N 
ATOM     37  C   UNL A   1      33.109  34.258  28.387  1.00  0.00     0.251 C 
ATOM     38  H   UNL A   1      31.880  33.664  26.886  1.00  0.00     0.163 HD
ATOM     39  O   UNL A   1      32.654  35.378  28.570  1.00  0.00    -0.269 OA
BRANCH  37  40
ATOM     40  C   UNL A   1      34.398  33.871  28.978  1.00  0.00     0.039 A 
ATOM     41  C   UNL A   1      34.530  33.228  30.212  1.00  0.00     0.014 A 
ATOM     42  C   UNL A   1      35.490  34.076  28.146  1.00  0.00     0.014 A 
ATOM     43  C   UNL A   1      35.780  32.714  30.556  1.00  0.00     0.010 A 
ATOM     44  C   UNL A   1      36.616  33.344  28.363  1.00  0.00     0.010 A 
ATOM     45  C   UNL A   1      36.812  32.765  29.607  1.00  0.00    -0.014 A 
BRANCH  45  46
ATOM     46  C   UNL A   1      38.113  32.153  29.812  1.00  0.00     0.031 A 
ATOM     47  C   UNL A   1      38.202  30.734  29.391  1.00  0.00     0.074 A 
ATOM     48  C   UNL A   1      39.208  32.902  30.074  1.00  0.00     0.049 A 
ATOM     49  N   UNL A   1      38.315  29.703  30.157  1.00  0.00    -0.248 NA
ATOM     50  C   UNL A   1      37.993  30.399  27.971  1.00  0.00     0.031 C 
ATOM     51  C   UNL A   1      39.328  34.368  30.143  1.00  0.00     0.029 A 
ATOM     52  N   UNL A   1      40.498  32.507  30.192  1.00  0.00    -0.354 N 
ATOM     53  C   UNL A   1      38.420  28.606  29.311  1.00  0.00     0.074 A 
ATOM     54  C   UNL A   1      38.002  29.064  28.011  1.00  0.00     0.031 C 
ATOM     55  C   UNL A   1      40.627  34.722  30.016  1.00  0.00     0.029 A 
ATOM     56  C   UNL A   1      41.435  33.520  30.035  1.00  0.00     0.049 A 
ATOM     57  H   UNL A   1      40.753  31.573  30.375  1.00  0.00     0.167 HD
ATOM     58  C   UNL A   1      39.109  27.492  29.690  1.00  0.00     0.031 A 
ATOM     59  C   UNL A   1      42.776  33.365  29.883  1.00  0.00     0.031 A 
ATOM     60  C   UNL A   1      39.431  27.532  31.098  1.00  0.00     0.049 A 
ATOM     61  C   UNL A   1      43.112  32.000  30.362  1.00  0.00     0.074 A 
ATOM     62  C   UNL A   1      38.690  27.657  32.258  1.00  0.00     0.029 A 
ATOM     63  N   UNL A   1      40.718  27.891  31.431  1.00  0.00    -0.354 N 
ATOM     64  N   UNL A   1      42.997  31.637  31.610  1.00  0.00    -0.248 NA
ATOM     65  C   UNL A   1      43.067  30.914  29.392  1.00  0.00     0.031 C 
ATOM     66  C   UNL A   1      39.436  28.569  33.062  1.00  0.00     0.029 A 
ATOM     67  C   UNL A   1      40.632  28.857  32.401  1.00  0.00     0.049 A 
ATOM     68  H   UNL A   1      41.545  27.523  31.046  1.00  0.00     0.167 HD
ATOM     69  C   UNL A   1      42.414  30.377  31.558  1.00  0.00     0.074 A 
ATOM     70  C   UNL A   1      42.561  29.947  30.165  1.00  0.00     0.031 C 
ATOM     71  C   UNL A   1      41.592  29.929  32.556  1.00  0.00     0.031 A 
BRANCH  58  72
ATOM     72  C   UNL A   1      39.871  26.601  28.741  1.00  0.00    -0.014 A 
ATOM     73  C   UNL A   1      41.017  27.125  28.113  1.00  0.00     0.009 A 
ATOM     74  C   UNL A   1      39.362  25.397  28.221  1.00  0.00     0.009 A 
ATOM     75  C   UNL A   1      41.559  26.529  26.969  1.00  0.00     0.001 A 
ATOM     76  C   UNL A   1      39.926  24.776  27.103  1.00  0.00     0.001 A 
ATOM     77  C   UNL A   1      41.004  25.362  26.457  1.00  0.00     0.000 A 
ENDBRANCH  58  72
BRANCH  59  78
ATOM     78  C   UNL A   1      43.709  34.192  29.080  1.00  0.00    -0.014 A 
ATOM     79  C   UNL A   1      43.678  34.174  27.677  1.00  0.00     0.009 A 
ATOM     80  C   UNL A   1      44.472  35.204  29.698  1.00  0.00     0.009 A 
ATOM     81  C   UNL A   1      44.354  35.149  26.925  1.00  0.00     0.001 A 
ATOM     82  C   UNL A   1      45.149  36.174  28.949  1.00  0.00     0.001 A 
ATOM     83  C   UNL A   1      45.079  36.155  27.562  1.00  0.00     0.000 A 
ENDBRANCH  59  78
BRANCH  71  84
ATOM     84  C   UNL A   1      41.480  30.740  33.826  1.00  0.00    -0.014 A 
ATOM     85  C   UNL A   1      40.611  31.836  33.977  1.00  0.00     0.009 A 
ATOM     86  C   UNL A   1      42.145  30.262  34.966  1.00  0.00     0.009 A 
ATOM     87  C   UNL A   1      40.438  32.448  35.224  1.00  0.00     0.001 A 
ATOM     88  C   UNL A   1      41.955  30.859  36.214  1.00  0.00     0.001 A 
ATOM     89  C   UNL A   1      41.106  31.955  36.343  1.00  0.00     0.000 A 
ENDBRANCH  71  84
ENDBRANCH  45  46
ENDBRANCH  37  40
ENDBRANCH  35  36
ENDBRANCH  34  35
ENDBRANCH   1  34
TORSDOF 16
ENDMDL
MODEL 2
REMARK VINA RESULT:     -11.7      5.922     10.360
REMARK SMILES CC(C)CCn1nc(C(=O)NCCCCNC(=O)c2ccc(-c3c4nc(c(-c5ccccc5)c5ccc([nH]5)c(-c5ccccc5)c5nc(c(-c6ccccc6)c6ccc3[nH]6)C=C5)C=C4)cc2)c2c1CCN(C(=O)[C@@H]1CCc3nn(C)c(=O)n3C1)C2
REMARK SMILES IDX 13 1 12 2 11 3 9 4 10 5 8 7 6 8 7 9 68 10 67 11 69 12 85 13
REMARK SMILES IDX 70 14 71 15 5 16 4 17 2 18 1 19 3 20 72 21 73 22 74 23 75 24
REMARK SMILES IDX 84 25 76 26 83 27 77 28 81 29 78 30 79 31 82 32 80 33 14 34
REMARK SMILES IDX 15 35 16 36 17 37 18 39 19 40 20 41 66 42 21 43 65 44 22 45
REMARK SMILES IDX 23 46 24 47 59 48 25 49 64 50 58 51 60 52 26 53 63 54 57 55
REMARK SMILES IDX 56 56 27 58 49 59 34 60 48 61 35 62 38 63 47 64 61 65 36 66
REMARK SMILES IDX 37 67 46 69 62 70 39 71 28 72 29 73 33 74 30 75 32 76 31 77
REMARK SMILES IDX 50 78 51 79 55 80 52 81 54 82 53 83 40 84 41 85 45 86 42 87
REMARK SMILES IDX 44 88 43 89
REMARK H PARENT 11 6 16 38 60 57 38 68
REMARK Flexibility Score: inf
ROOT
ATOM      1  C   UNL A   1      44.247  32.210  26.610  1.00  0.00     0.023 C 
ENDROOT
BRANCH   1   2
ATOM      2  C   UNL A   1      45.598  31.565  26.956  1.00  0.00     0.116 C 
BRANCH   2   3
ATOM      3  N   UNL A   1      46.119  30.741  25.877  1.00  0.00    -0.351 N 
ATOM      4  C   UNL A   1      46.299  29.394  25.639  1.00  0.00     0.272 C 
ATOM      5  O   UNL A   1      46.641  29.156  24.472  1.00  0.00    -0.267 OA
ATOM      6  H   UNL A   1      46.424  31.290  25.118  1.00  0.00     0.163 HD
BRANCH   4   7
ATOM      7  C   UNL A   1      46.125  28.284  26.623  1.00  0.00     0.155 A 
ATOM      8  N   UNL A   1      45.480  27.457  28.517  1.00  0.00    -0.268 N 
ATOM      9  N   UNL A   1      45.740  28.612  27.881  1.00  0.00    -0.167 NA
ATOM     10  C   UNL A   1      45.871  26.376  27.793  1.00  0.00     0.046 A 
ATOM     11  C   UNL A   1      46.202  26.861  26.543  1.00  0.00     0.026 A 
ATOM     12  C   UNL A   1      45.852  24.929  28.162  1.00  0.00     0.078 C 
ATOM     13  C   UNL A   1      46.481  25.961  25.415  1.00  0.00     0.159 C 
ATOM     14  C   UNL A   1      46.627  24.137  27.073  1.00  0.00     0.126 C 
ATOM     15  N   UNL A   1      46.234  24.555  25.717  1.00  0.00    -0.338 N 
BRANCH   8  16
ATOM     16  C   UNL A   1      44.841  27.488  29.822  1.00  0.00     0.145 C 
BRANCH  16  17
ATOM     17  C   UNL A   1      43.641  28.444  29.941  1.00  0.00     0.027 C 
BRANCH  17  18
ATOM     18  C   UNL A   1      42.358  28.015  29.199  1.00  0.00    -0.016 C 
ATOM     19  C   UNL A   1      42.205  28.705  27.843  1.00  0.00     0.007 C 
ATOM     20  C   UNL A   1      42.356  26.495  28.997  1.00  0.00     0.007 C 
ENDBRANCH  17  18
ENDBRANCH  16  17
ENDBRANCH   8  16
BRANCH  15  21
ATOM     21  C   UNL A   1      46.062  23.773  24.593  1.00  0.00     0.227 C 
ATOM     22  O   UNL A   1      47.021  23.565  23.834  1.00  0.00    -0.274 OA
BRANCH  21  23
ATOM     23  C   UNL A   1      44.729  23.191  24.160  1.00  0.00     0.099 C 
ATOM     24  C   UNL A   1      43.454  23.705  24.826  1.00  0.00     0.023 C 
ATOM     25  C   UNL A   1      44.806  21.692  23.946  1.00  0.00     0.142 C 
ATOM     26  C   UNL A   1      42.912  22.864  25.972  1.00  0.00     0.078 C 
ATOM     27  N   UNL A   1      44.103  20.948  24.955  1.00  0.00    -0.278 N 
ATOM     28  C   UNL A   1      43.206  21.402  25.844  1.00  0.00     0.133 A 
ATOM     29  C   UNL A   1      44.107  19.586  25.080  1.00  0.00     0.345 A 
ATOM     30  N   UNL A   1      42.668  20.487  26.594  1.00  0.00    -0.155 NA
ATOM     31  N   UNL A   1      43.240  19.321  26.137  1.00  0.00    -0.216 N 
ATOM     32  O   UNL A   1      44.715  18.778  24.384  1.00  0.00    -0.246 OA
ATOM     33  C   UNL A   1      42.865  18.024  26.619  1.00  0.00     0.179 C 
ENDBRANCH  21  23
ENDBRANCH  15  21
ENDBRANCH   4   7
ENDBRANCH   2   3
ENDBRANCH   1   2
BRANCH   1  34
ATOM     34  C   UNL A   1      44.133  33.069  25.351  1.00  0.00     0.023 C 
BRANCH  34  35
ATOM     35  C   UNL A   1      43.707  34.508  25.616  1.00  0.00     0.116 C 
BRANCH  35  36
ATOM     36  N   UNL A   1      44.752  35.354  26.221  1.00  0.00    -0.352 N 
ATOM     37  C   UNL A   1      44.624  36.187  27.327  1.00  0.00     0.251 C 
ATOM     38  H   UNL A   1      45.639  35.326  25.795  1.00  0.00     0.163 HD
ATOM     39  O   UNL A   1      45.357  37.146  27.522  1.00  0.00    -0.269 OA
BRANCH  37  40
ATOM     40  C   UNL A   1      43.590  35.826  28.308  1.00  0.00     0.039 A 
ATOM     41  C   UNL A   1      42.295  36.352  28.307  1.00  0.00     0.014 A 
ATOM     42  C   UNL A   1      43.958  34.805  29.175  1.00  0.00     0.014 A 
ATOM     43  C   UNL A   1      41.346  35.766  29.144  1.00  0.00     0.010 A 
ATOM     44  C   UNL A   1      42.977  34.078  29.771  1.00  0.00     0.010 A 
ATOM     45  C   UNL A   1      41.701  34.613  29.859  1.00  0.00    -0.014 A 
BRANCH  45  46
ATOM     46  C   UNL A   1      40.760  33.853  30.663  1.00  0.00     0.031 A 
ATOM     47  C   UNL A   1      41.187  33.627  32.065  1.00  0.00     0.074 A 
ATOM     48  C   UNL A   1      39.490  33.643  30.248  1.00  0.00     0.049 A 
ATOM     49  N   UNL A   1      41.550  32.509  32.595  1.00  0.00    -0.248 NA
ATOM     50  C   UNL A   1      41.377  34.792  32.946  1.00  0.00     0.031 C 
ATOM     51  C   UNL A   1      38.823  34.142  29.035  1.00  0.00     0.029 A 
ATOM     52  N   UNL A   1      38.469  33.048  30.909  1.00  0.00    -0.354 N 
ATOM     53  C   UNL A   1      41.799  32.783  33.935  1.00  0.00     0.074 A 
ATOM     54  C   UNL A   1      41.886  34.217  34.038  1.00  0.00     0.031 C 
ATOM     55  C   UNL A   1      37.481  34.063  29.192  1.00  0.00     0.029 A 
ATOM     56  C   UNL A   1      37.204  33.354  30.424  1.00  0.00     0.049 A 
ATOM     57  H   UNL A   1      38.612  32.445  31.675  1.00  0.00     0.167 HD
ATOM     58  C   UNL A   1      41.630  31.823  34.889  1.00  0.00     0.031 A 
ATOM     59  C   UNL A   1      36.018  33.081  31.028  1.00  0.00     0.031 A 
ATOM     60  C   UNL A   1      41.448  30.520  34.292  1.00  0.00     0.049 A 
ATOM     61  C   UNL A   1      36.280  32.022  32.038  1.00  0.00     0.074 A 
ATOM     62  C   UNL A   1      42.187  29.743  33.421  1.00  0.00     0.029 A 
ATOM     63  N   UNL A   1      40.159  30.042  34.225  1.00  0.00    -0.354 N 
ATOM     64  N   UNL A   1      36.640  30.810  31.718  1.00  0.00    -0.248 NA
ATOM     65  C   UNL A   1      36.650  32.448  33.381  1.00  0.00     0.031 C 
ATOM     66  C   UNL A   1      41.224  29.212  32.511  1.00  0.00     0.029 A 
ATOM     67  C   UNL A   1      39.955  29.602  32.942  1.00  0.00     0.049 A 
ATOM     68  H   UNL A   1      39.505  30.019  34.961  1.00  0.00     0.167 HD
ATOM     69  C   UNL A   1      37.656  30.497  32.613  1.00  0.00     0.074 A 
ATOM     70  C   UNL A   1      37.559  31.509  33.668  1.00  0.00     0.031 C 
ATOM     71  C   UNL A   1      38.675  29.651  32.269  1.00  0.00     0.031 A 
BRANCH  58  72
ATOM     72  C   UNL A   1      41.186  32.101  36.303  1.00  0.00    -0.014 A 
ATOM     73  C   UNL A   1      39.865  32.539  36.511  1.00  0.00     0.009 A 
ATOM     74  C   UNL A   1      42.072  32.234  37.388  1.00  0.00     0.009 A 
ATOM     75  C   UNL A   1      39.482  33.165  37.703  1.00  0.00     0.001 A 
ATOM     76  C   UNL A   1      41.682  32.820  38.596  1.00  0.00     0.001 A 
ATOM     77  C   UNL A   1      40.396  33.317  38.740  1.00  0.00     0.000 A 
ENDBRANCH  58  72
BRANCH  59  78
ATOM     78  C   UNL A   1      34.769  33.879  31.000  1.00  0.00    -0.014 A 
ATOM     79  C   UNL A   1      34.369  34.647  32.104  1.00  0.00     0.009 A 
ATOM     80  C   UNL A   1      34.089  34.092  29.783  1.00  0.00     0.009 A 
ATOM     81  C   UNL A   1      33.354  35.611  31.986  1.00  0.00     0.001 A 
ATOM     82  C   UNL A   1      33.076  35.050  29.666  1.00  0.00     0.001 A 
ATOM     83  C   UNL A   1      32.717  35.820  30.765  1.00  0.00     0.000 A 
ENDBRANCH  59  78
BRANCH  71  84
ATOM     84  C   UNL A   1      38.581  28.892  30.966  1.00  0.00    -0.014 A 
ATOM     85  C   UNL A   1      38.522  29.512  29.705  1.00  0.00     0.009 A 
ATOM     86  C   UNL A   1      38.744  27.499  31.010  1.00  0.00     0.009 A 
ATOM     87  C   UNL A   1      38.595  28.756  28.529  1.00  0.00     0.001 A 
ATOM     88  C   UNL A   1      38.840  26.747  29.837  1.00  0.00     0.001 A 
ATOM     89  C   UNL A   1      38.759  27.374  28.596  1.00  0.00     0.000 A 
ENDBRANCH  71  84
ENDBRANCH  45  46
ENDBRANCH  37  40
ENDBRANCH  35  36
ENDBRANCH  34  35
ENDBRANCH   1  34
TORSDOF 16
ENDMDL
MODEL 3
REMARK VINA RESULT:     -11.5      2.784      6.321
REMARK SMILES CC(C)CCn1nc(C(=O)NCCCCNC(=O)c2ccc(-c3c4nc(c(-c5ccccc5)c5ccc([nH]5)c(-c5ccccc5)c5nc(c(-c6ccccc6)c6ccc3[nH]6)C=C5)C=C4)cc2)c2c1CCN(C(=O)[C@@H]1CCc3nn(C)c(=O)n3C1)C2
REMARK SMILES IDX 13 1 12 2 11 3 9 4 10 5 8 7 6 8 7 9 68 10 67 11 69 12 85 13
REMARK SMILES IDX 70 14 71 15 5 16 4 17 2 18 1 19 3 20 72 21 73 22 74 23 75 24
REMARK SMILES IDX 84 25 76 26 83 27 77 28 81 29 78 30 79 31 82 32 80 33 14 34
REMARK SMILES IDX 15 35 16 36 17 37 18 39 19 40 20 41 66 42 21 43 65 44 22 45
REMARK SMILES IDX 23 46 24 47 59 48 25 49 64 50 58 51 60 52 26 53 63 54 57 55
REMARK SMILES IDX 56 56 27 58 49 59 34 60 48 61 35 62 38 63 47 64 61 65 36 66
REMARK SMILES IDX 37 67 46 69 62 70 39 71 28 72 29 73 33 74 30 75 32 76 31 77
REMARK SMILES IDX 50 78 51 79 55 80 52 81 54 82 53 83 40 84 41 85 45 86 42 87
REMARK SMILES IDX 44 88 43 89
REMARK H PARENT 11 6 16 38 60 57 38 68
REMARK Flexibility Score: inf
ROOT
ATOM      1  C   UNL A   1      35.026  30.045  27.921  1.00  0.00     0.023 C 
ENDROOT
BRANCH   1   2
ATOM      2  C   UNL A   1      34.218  29.147  26.972  1.00  0.00     0.116 C 
BRANCH   2   3
ATOM      3  N   UNL A   1      32.940  28.742  27.536  1.00  0.00    -0.351 N 
ATOM      4  C   UNL A   1      31.801  28.104  27.086  1.00  0.00     0.272 C 
ATOM      5  O   UNL A   1      31.014  27.828  28.003  1.00  0.00    -0.267 OA
ATOM      6  H   UNL A   1      32.868  28.988  28.487  1.00  0.00     0.163 HD
BRANCH   4   7
ATOM      7  C   UNL A   1      31.476  27.753  25.672  1.00  0.00     0.155 A 
ATOM      8  N   UNL A   1      30.732  28.196  23.687  1.00  0.00    -0.268 N 
ATOM      9  N   UNL A   1      30.740  28.639  24.956  1.00  0.00    -0.167 NA
ATOM     10  C   UNL A   1      31.263  26.950  23.578  1.00  0.00     0.046 A 
ATOM     11  C   UNL A   1      31.830  26.673  24.807  1.00  0.00     0.026 A 
ATOM     12  C   UNL A   1      31.362  26.062  22.381  1.00  0.00     0.078 C 
ATOM     13  C   UNL A   1      32.680  25.493  25.017  1.00  0.00     0.159 C 
ATOM     14  C   UNL A   1      31.836  24.659  22.852  1.00  0.00     0.126 C 
ATOM     15  N   UNL A   1      32.966  24.755  23.791  1.00  0.00    -0.338 N 
BRANCH   8  16
ATOM     16  C   UNL A   1      30.202  29.047  22.636  1.00  0.00     0.145 C 
BRANCH  16  17
ATOM     17  C   UNL A   1      28.674  28.988  22.453  1.00  0.00     0.027 C 
BRANCH  17  18
ATOM     18  C   UNL A   1      27.970  30.338  22.207  1.00  0.00    -0.016 C 
ATOM     19  C   UNL A   1      27.707  31.108  23.502  1.00  0.00     0.007 C 
ATOM     20  C   UNL A   1      28.817  31.204  21.267  1.00  0.00     0.007 C 
ENDBRANCH  17  18
ENDBRANCH  16  17
ENDBRANCH   8  16
BRANCH  15  21
ATOM     21  C   UNL A   1      34.077  23.943  23.885  1.00  0.00     0.227 C 
ATOM     22  O   UNL A   1      34.850  23.840  22.921  1.00  0.00    -0.274 OA
BRANCH  21  23
ATOM     23  C   UNL A   1      34.395  23.078  25.092  1.00  0.00     0.099 C 
ATOM     24  C   UNL A   1      35.857  22.772  25.410  1.00  0.00     0.023 C 
ATOM     25  C   UNL A   1      33.430  21.916  25.228  1.00  0.00     0.142 C 
ATOM     26  C   UNL A   1      36.386  21.437  24.907  1.00  0.00     0.078 C 
ATOM     27  N   UNL A   1      34.039  20.649  24.934  1.00  0.00    -0.278 N 
ATOM     28  C   UNL A   1      35.347  20.361  24.837  1.00  0.00     0.133 A 
ATOM     29  C   UNL A   1      33.381  19.452  24.859  1.00  0.00     0.345 A 
ATOM     30  N   UNL A   1      35.617  19.106  24.633  1.00  0.00    -0.155 NA
ATOM     31  N   UNL A   1      34.377  18.508  24.626  1.00  0.00    -0.216 N 
ATOM     32  O   UNL A   1      32.178  19.258  25.003  1.00  0.00    -0.246 OA
ATOM     33  C   UNL A   1      34.193  17.090  24.526  1.00  0.00     0.179 C 
ENDBRANCH  21  23
ENDBRANCH  15  21
ENDBRANCH   4   7
ENDBRANCH   2   3
ENDBRANCH   1   2
BRANCH   1  34
ATOM     34  C   UNL A   1      34.635  31.515  28.069  1.00  0.00     0.023 C 
BRANCH  34  35
ATOM     35  C   UNL A   1      35.287  32.216  29.255  1.00  0.00     0.116 C 
BRANCH  35  36
ATOM     36  N   UNL A   1      36.277  33.245  28.890  1.00  0.00    -0.352 N 
ATOM     37  C   UNL A   1      37.638  33.240  29.170  1.00  0.00     0.251 C 
ATOM     38  H   UNL A   1      35.936  34.022  28.390  1.00  0.00     0.163 HD
ATOM     39  O   UNL A   1      38.308  34.262  29.224  1.00  0.00    -0.269 OA
BRANCH  37  40
ATOM     40  C   UNL A   1      38.271  31.924  29.345  1.00  0.00     0.039 A 
ATOM     41  C   UNL A   1      38.050  30.833  28.498  1.00  0.00     0.014 A 
ATOM     42  C   UNL A   1      39.224  31.879  30.354  1.00  0.00     0.014 A 
ATOM     43  C   UNL A   1      38.876  29.718  28.635  1.00  0.00     0.010 A 
ATOM     44  C   UNL A   1      40.182  30.916  30.296  1.00  0.00     0.010 A 
ATOM     45  C   UNL A   1      39.953  29.784  29.530  1.00  0.00    -0.014 A 
BRANCH  45  46
ATOM     46  C   UNL A   1      40.944  28.731  29.663  1.00  0.00     0.031 A 
ATOM     47  C   UNL A   1      41.371  28.457  31.057  1.00  0.00     0.074 A 
ATOM     48  C   UNL A   1      41.214  27.886  28.642  1.00  0.00     0.049 A 
ATOM     49  N   UNL A   1      42.520  28.717  31.581  1.00  0.00    -0.248 NA
ATOM     50  C   UNL A   1      40.370  27.976  32.025  1.00  0.00     0.031 C 
ATOM     51  C   UNL A   1      40.579  27.811  27.316  1.00  0.00     0.029 A 
ATOM     52  N   UNL A   1      42.026  26.802  28.629  1.00  0.00    -0.354 N 
ATOM     53  C   UNL A   1      42.467  28.229  32.882  1.00  0.00     0.074 A 
ATOM     54  C   UNL A   1      41.075  27.987  33.160  1.00  0.00     0.031 C 
ATOM     55  C   UNL A   1      40.831  26.604  26.761  1.00  0.00     0.029 A 
ATOM     56  C   UNL A   1      41.778  25.900  27.603  1.00  0.00     0.049 A 
ATOM     57  H   UNL A   1      42.738  26.664  29.296  1.00  0.00     0.167 HD
ATOM     58  C   UNL A   1      43.596  27.799  33.515  1.00  0.00     0.031 A 
ATOM     59  C   UNL A   1      42.284  24.645  27.490  1.00  0.00     0.031 A 
ATOM     60  C   UNL A   1      44.781  28.175  32.781  1.00  0.00     0.049 A 
ATOM     61  C   UNL A   1      43.472  24.574  28.379  1.00  0.00     0.074 A 
ATOM     62  C   UNL A   1      45.303  29.373  32.331  1.00  0.00     0.029 A 
ATOM     63  N   UNL A   1      45.378  27.194  32.019  1.00  0.00    -0.354 N 
ATOM     64  N   UNL A   1      44.560  25.262  28.166  1.00  0.00    -0.248 NA
ATOM     65  C   UNL A   1      43.258  24.160  29.760  1.00  0.00     0.031 C 
ATOM     66  C   UNL A   1      45.763  29.091  31.010  1.00  0.00     0.029 A 
ATOM     67  C   UNL A   1      45.599  27.725  30.774  1.00  0.00     0.049 A 
ATOM     68  H   UNL A   1      45.605  26.283  32.315  1.00  0.00     0.167 HD
ATOM     69  C   UNL A   1      44.916  25.753  29.415  1.00  0.00     0.074 A 
ATOM     70  C   UNL A   1      44.128  24.971  30.372  1.00  0.00     0.031 C 
ATOM     71  C   UNL A   1      45.569  26.948  29.553  1.00  0.00     0.031 A 
BRANCH  58  72
ATOM     72  C   UNL A   1      43.628  26.682  34.528  1.00  0.00    -0.014 A 
ATOM     73  C   UNL A   1      42.826  25.550  34.294  1.00  0.00     0.009 A 
ATOM     74  C   UNL A   1      44.172  26.814  35.819  1.00  0.00     0.009 A 
ATOM     75  C   UNL A   1      42.506  24.657  35.323  1.00  0.00     0.001 A 
ATOM     76  C   UNL A   1      43.889  25.900  36.838  1.00  0.00     0.001 A 
ATOM     77  C   UNL A   1      43.028  24.841  36.598  1.00  0.00     0.000 A 
ENDBRANCH  58  72
BRANCH  59  78
ATOM     78  C   UNL A   1      41.635  23.442  26.912  1.00  0.00    -0.014 A 
ATOM     79  C   UNL A   1      42.395  22.371  26.416  1.00  0.00     0.009 A 
ATOM     80  C   UNL A   1      40.251  23.233  27.078  1.00  0.00     0.009 A 
ATOM     81  C   UNL A   1      41.798  21.132  26.132  1.00  0.00     0.001 A 
ATOM     82  C   UNL A   1      39.656  21.999  26.792  1.00  0.00     0.001 A 
ATOM     83  C   UNL A   1      40.432  20.943  26.332  1.00  0.00     0.000 A 
ENDBRANCH  59  78
BRANCH  71  84
ATOM     84  C   UNL A   1      46.087  27.641  28.314  1.00  0.00    -0.014 A 
ATOM     85  C   UNL A   1      45.323  28.541  27.549  1.00  0.00     0.009 A 
ATOM     86  C   UNL A   1      47.453  27.517  28.019  1.00  0.00     0.009 A 
ATOM     87  C   UNL A   1      45.907  29.271  26.505  1.00  0.00     0.001 A 
ATOM     88  C   UNL A   1      48.039  28.261  26.994  1.00  0.00     0.001 A 
ATOM     89  C   UNL A   1      47.266  29.133  26.232  1.00  0.00     0.000 A 
ENDBRANCH  71  84
ENDBRANCH  45  46
ENDBRANCH  37  40
ENDBRANCH  35  36
ENDBRANCH  34  35
ENDBRANCH   1  34
TORSDOF 16
ENDMDL
