MODEL 1
REMARK VINA RESULT:     -12.4      0.000      0.000
REMARK SMILES COc1ccc([C@H]2CC(c3ccc(S(C)(=O)=O)cc3)=NN2c2ccc(C(=O)NCCCCNC(=O)c3ccc(-c4c5nc(c(-c6ccccc6)c6ccc([nH]6)c(-c6ccccc6)c6nc(c(-c7ccccc7)c7ccc4[nH]7)C=C6)C=C5)cc3)cc2)cc1
REMARK SMILES IDX 30 1 29 2 28 3 26 4 27 5 25 7 22 8 23 9 85 10 24 11 84 12
REMARK SMILES IDX 21 13 7 14 8 15 9 16 20 17 6 18 3 19 4 20 87 21 5 22 86 23
REMARK SMILES IDX 2 24 1 25 10 26 11 27 19 28 12 29 18 30 13 31 14 32 15 33
REMARK SMILES IDX 16 34 17 35 31 36 32 37 33 38 34 39 35 41 36 42 37 43 83 44
REMARK SMILES IDX 38 45 82 46 39 47 40 48 41 49 76 50 42 51 81 52 75 53 77 54
REMARK SMILES IDX 43 55 80 56 74 57 73 58 44 60 66 61 51 62 65 63 52 64 55 65
REMARK SMILES IDX 64 66 78 67 53 68 54 69 63 71 79 72 56 73 45 74 46 75 50 76
REMARK SMILES IDX 47 77 49 78 48 79 67 80 68 81 72 82 69 83 71 84 70 85 57 86
REMARK SMILES IDX 58 87 62 88 59 89 61 90 60 91
REMARK H PARENT 28 6 33 40 77 59 55 70
REMARK Flexibility Score: inf
ROOT
ATOM      1  C   UNL A   1      33.057  33.907  27.889  1.00  0.00     0.023 C 
ENDROOT
BRANCH   1   2
ATOM      2  C   UNL A   1      33.009  32.399  27.631  1.00  0.00     0.116 C 
BRANCH   2   3
ATOM      3  N   UNL A   1      34.195  31.757  28.159  1.00  0.00    -0.352 N 
ATOM      4  C   UNL A   1      34.676  30.477  28.051  1.00  0.00     0.251 C 
ATOM      5  O   UNL A   1      35.738  30.230  28.623  1.00  0.00    -0.269 OA
ATOM      6  H   UNL A   1      34.763  32.353  28.699  1.00  0.00     0.163 HD
BRANCH   4   7
ATOM      7  C   UNL A   1      34.015  29.408  27.247  1.00  0.00     0.039 A 
ATOM      8  C   UNL A   1      32.605  27.362  25.877  1.00  0.00     0.060 A 
ATOM      9  C   UNL A   1      31.999  28.087  26.908  1.00  0.00     0.029 A 
ATOM     10  C   UNL A   1      33.904  27.712  25.506  1.00  0.00     0.029 A 
ATOM     11  C   UNL A   1      32.698  29.081  27.600  1.00  0.00     0.016 A 
ATOM     12  C   UNL A   1      34.586  28.747  26.158  1.00  0.00     0.016 A 
BRANCH   8  13
ATOM     13  N   UNL A   1      31.901  26.360  25.232  1.00  0.00    -0.257 N 
ATOM     14  C   UNL A   1      30.455  26.368  25.017  1.00  0.00     0.144 C 
ATOM     15  C   UNL A   1      30.169  24.929  24.564  1.00  0.00     0.091 C 
ATOM     16  C   UNL A   1      31.539  24.333  24.721  1.00  0.00     0.071 C 
ATOM     17  N   UNL A   1      32.480  25.140  25.094  1.00  0.00    -0.176 NA
BRANCH  14  18
ATOM     18  C   UNL A   1      30.052  27.393  23.971  1.00  0.00    -0.023 A 
ATOM     19  C   UNL A   1      29.292  29.253  21.996  1.00  0.00     0.118 A 
ATOM     20  C   UNL A   1      28.324  28.567  22.728  1.00  0.00     0.047 A 
ATOM     21  C   UNL A   1      30.641  29.049  22.278  1.00  0.00     0.047 A 
ATOM     22  C   UNL A   1      28.697  27.635  23.700  1.00  0.00     0.010 A 
ATOM     23  C   UNL A   1      31.017  28.126  23.258  1.00  0.00     0.010 A 
BRANCH  19  24
ATOM     24  O   UNL A   1      28.823  30.141  21.067  1.00  0.00    -0.497 OA
ATOM     25  C   UNL A   1      27.985  31.160  21.605  1.00  0.00     0.278 C 
ENDBRANCH  19  24
ENDBRANCH  14  18
BRANCH  16  26
ATOM     26  C   UNL A   1      31.769  22.907  24.500  1.00  0.00    -0.002 A 
ATOM     27  C   UNL A   1      31.897  22.068  25.611  1.00  0.00     0.011 A 
ATOM     28  C   UNL A   1      31.898  22.413  23.200  1.00  0.00     0.011 A 
ATOM     29  C   UNL A   1      32.146  20.710  25.422  1.00  0.00     0.021 A 
ATOM     30  C   UNL A   1      32.172  21.058  23.010  1.00  0.00     0.021 A 
ATOM     31  C   UNL A   1      32.300  20.217  24.122  1.00  0.00     0.067 A 
BRANCH  31  32
ATOM     32  S   UNL A   1      32.654  18.490  23.892  1.00  0.00     0.175 S 
ATOM     33  C   UNL A   1      34.385  18.353  24.253  1.00  0.00     0.163 C 
ATOM     34  O   UNL A   1      31.911  17.774  24.910  1.00  0.00    -0.224 OA
ATOM     35  O   UNL A   1      32.474  18.190  22.484  1.00  0.00    -0.224 OA
ENDBRANCH  31  32
ENDBRANCH  16  26
ENDBRANCH   8  13
ENDBRANCH   4   7
ENDBRANCH   2   3
ENDBRANCH   1   2
BRANCH   1  36
ATOM     36  C   UNL A   1      33.566  34.287  29.283  1.00  0.00     0.023 C 
BRANCH  36  37
ATOM     37  C   UNL A   1      33.456  35.770  29.622  1.00  0.00     0.116 C 
BRANCH  37  38
ATOM     38  N   UNL A   1      32.534  36.040  30.714  1.00  0.00    -0.352 N 
ATOM     39  C   UNL A   1      32.651  35.695  32.038  1.00  0.00     0.251 C 
ATOM     40  H   UNL A   1      31.719  36.536  30.472  1.00  0.00     0.163 HD
ATOM     41  O   UNL A   1      31.731  35.909  32.819  1.00  0.00    -0.269 OA
BRANCH  39  42
ATOM     42  C   UNL A   1      33.880  35.023  32.506  1.00  0.00     0.039 A 
ATOM     43  C   UNL A   1      33.779  33.726  33.012  1.00  0.00     0.014 A 
ATOM     44  C   UNL A   1      35.123  35.657  32.423  1.00  0.00     0.014 A 
ATOM     45  C   UNL A   1      34.937  33.039  33.379  1.00  0.00     0.010 A 
ATOM     46  C   UNL A   1      36.280  34.949  32.728  1.00  0.00     0.010 A 
ATOM     47  C   UNL A   1      36.198  33.634  33.208  1.00  0.00    -0.014 A 
BRANCH  47  48
ATOM     48  C   UNL A   1      37.440  32.890  33.526  1.00  0.00     0.031 A 
ATOM     49  C   UNL A   1      38.187  33.172  34.797  1.00  0.00     0.074 A 
ATOM     50  C   UNL A   1      37.921  31.995  32.642  1.00  0.00     0.049 A 
ATOM     51  N   UNL A   1      39.299  32.637  35.236  1.00  0.00    -0.248 NA
ATOM     52  C   UNL A   1      37.625  34.204  35.682  1.00  0.00     0.031 C 
ATOM     53  C   UNL A   1      37.308  31.661  31.353  1.00  0.00     0.029 A 
ATOM     54  N   UNL A   1      39.036  31.201  32.697  1.00  0.00    -0.354 N 
ATOM     55  C   UNL A   1      39.574  33.274  36.439  1.00  0.00     0.074 A 
ATOM     56  C   UNL A   1      38.542  34.270  36.636  1.00  0.00     0.031 C 
ATOM     57  C   UNL A   1      38.037  30.703  30.757  1.00  0.00     0.029 A 
ATOM     58  C   UNL A   1      39.182  30.381  31.604  1.00  0.00     0.049 A 
ATOM     59  H   UNL A   1      39.673  31.215  33.448  1.00  0.00     0.167 HD
ATOM     60  C   UNL A   1      40.580  33.039  37.314  1.00  0.00     0.031 A 
ATOM     61  C   UNL A   1      40.129  29.469  31.319  1.00  0.00     0.031 A 
ATOM     62  C   UNL A   1      41.604  32.048  37.122  1.00  0.00     0.049 A 
ATOM     63  C   UNL A   1      41.243  29.237  32.298  1.00  0.00     0.074 A 
ATOM     64  C   UNL A   1      42.641  31.701  37.971  1.00  0.00     0.029 A 
ATOM     65  N   UNL A   1      41.722  31.245  35.998  1.00  0.00    -0.354 N 
ATOM     66  N   UNL A   1      41.455  29.804  33.460  1.00  0.00    -0.248 NA
ATOM     67  C   UNL A   1      42.245  28.226  31.927  1.00  0.00     0.031 C 
ATOM     68  C   UNL A   1      43.409  30.715  37.342  1.00  0.00     0.029 A 
ATOM     69  C   UNL A   1      42.824  30.415  36.123  1.00  0.00     0.049 A 
ATOM     70  H   UNL A   1      41.110  31.260  35.227  1.00  0.00     0.167 HD
ATOM     71  C   UNL A   1      42.598  29.204  33.971  1.00  0.00     0.074 A 
ATOM     72  C   UNL A   1      43.025  28.218  32.999  1.00  0.00     0.031 C 
ATOM     73  C   UNL A   1      43.238  29.447  35.142  1.00  0.00     0.031 A 
BRANCH  60  74
ATOM     74  C   UNL A   1      40.615  33.882  38.557  1.00  0.00    -0.014 A 
ATOM     75  C   UNL A   1      41.353  35.076  38.602  1.00  0.00     0.009 A 
ATOM     76  C   UNL A   1      39.899  33.483  39.696  1.00  0.00     0.009 A 
ATOM     77  C   UNL A   1      41.407  35.831  39.775  1.00  0.00     0.001 A 
ATOM     78  C   UNL A   1      39.931  34.255  40.859  1.00  0.00     0.001 A 
ATOM     79  C   UNL A   1      40.694  35.422  40.901  1.00  0.00     0.000 A 
ENDBRANCH  60  74
BRANCH  61  80
ATOM     80  C   UNL A   1      40.044  28.676  30.067  1.00  0.00    -0.014 A 
ATOM     81  C   UNL A   1      39.338  27.462  30.046  1.00  0.00     0.009 A 
ATOM     82  C   UNL A   1      40.666  29.121  28.891  1.00  0.00     0.009 A 
ATOM     83  C   UNL A   1      39.278  26.700  28.878  1.00  0.00     0.001 A 
ATOM     84  C   UNL A   1      40.583  28.367  27.718  1.00  0.00     0.001 A 
ATOM     85  C   UNL A   1      39.897  27.154  27.715  1.00  0.00     0.000 A 
ENDBRANCH  61  80
BRANCH  73  86
ATOM     86  C   UNL A   1      44.448  28.610  35.440  1.00  0.00    -0.014 A 
ATOM     87  C   UNL A   1      45.727  29.004  35.018  1.00  0.00     0.009 A 
ATOM     88  C   UNL A   1      44.309  27.421  36.173  1.00  0.00     0.009 A 
ATOM     89  C   UNL A   1      46.838  28.203  35.291  1.00  0.00     0.001 A 
ATOM     90  C   UNL A   1      45.424  26.636  36.468  1.00  0.00     0.001 A 
ATOM     91  C   UNL A   1      46.685  27.023  36.018  1.00  0.00     0.000 A 
ENDBRANCH  73  86
ENDBRANCH  47  48
ENDBRANCH  39  42
ENDBRANCH  37  38
ENDBRANCH  36  37
ENDBRANCH   1  36
TORSDOF 16
ENDMDL
MODEL 2
REMARK VINA RESULT:     -12.4      0.330      5.531
REMARK SMILES COc1ccc([C@H]2CC(c3ccc(S(C)(=O)=O)cc3)=NN2c2ccc(C(=O)NCCCCNC(=O)c3ccc(-c4c5nc(c(-c6ccccc6)c6ccc([nH]6)c(-c6ccccc6)c6nc(c(-c7ccccc7)c7ccc4[nH]7)C=C6)C=C5)cc3)cc2)cc1
REMARK SMILES IDX 30 1 29 2 28 3 26 4 27 5 25 7 22 8 23 9 85 10 24 11 84 12
REMARK SMILES IDX 21 13 7 14 8 15 9 16 20 17 6 18 3 19 4 20 87 21 5 22 86 23
REMARK SMILES IDX 2 24 1 25 10 26 11 27 19 28 12 29 18 30 13 31 14 32 15 33
REMARK SMILES IDX 16 34 17 35 31 36 32 37 33 38 34 39 35 41 36 42 37 43 83 44
REMARK SMILES IDX 38 45 82 46 39 47 40 48 41 49 76 50 42 51 81 52 75 53 77 54
REMARK SMILES IDX 43 55 80 56 74 57 73 58 44 60 66 61 51 62 65 63 52 64 55 65
REMARK SMILES IDX 64 66 78 67 53 68 54 69 63 71 79 72 56 73 45 74 46 75 50 76
REMARK SMILES IDX 47 77 49 78 48 79 67 80 68 81 72 82 69 83 71 84 70 85 57 86
REMARK SMILES IDX 58 87 62 88 59 89 61 90 60 91
REMARK H PARENT 28 6 33 40 77 59 55 70
REMARK Flexibility Score: inf
ROOT
ATOM      1  C   UNL A   1      33.147  33.844  27.956  1.00  0.00     0.023 C 
ENDROOT
BRANCH   1   2
ATOM      2  C   UNL A   1      33.118  32.346  27.646  1.00  0.00     0.116 C 
BRANCH   2   3
ATOM      3  N   UNL A   1      34.318  31.704  28.141  1.00  0.00    -0.352 N 
ATOM      4  C   UNL A   1      34.800  30.426  28.013  1.00  0.00     0.251 C 
ATOM      5  O   UNL A   1      35.876  30.178  28.558  1.00  0.00    -0.269 OA
ATOM      6  H   UNL A   1      34.898  32.298  28.670  1.00  0.00     0.163 HD
BRANCH   4   7
ATOM      7  C   UNL A   1      34.121  29.359  27.221  1.00  0.00     0.039 A 
ATOM      8  C   UNL A   1      32.683  27.318  25.874  1.00  0.00     0.060 A 
ATOM      9  C   UNL A   1      32.101  28.035  26.925  1.00  0.00     0.029 A 
ATOM     10  C   UNL A   1      33.971  27.674  25.472  1.00  0.00     0.029 A 
ATOM     11  C   UNL A   1      32.815  29.026  27.604  1.00  0.00     0.016 A 
ATOM     12  C   UNL A   1      34.667  28.707  26.112  1.00  0.00     0.016 A 
BRANCH   8  13
ATOM     13  N   UNL A   1      31.965  26.318  25.241  1.00  0.00    -0.257 N 
ATOM     14  C   UNL A   1      30.516  26.329  25.051  1.00  0.00     0.144 C 
ATOM     15  C   UNL A   1      30.220  24.891  24.602  1.00  0.00     0.091 C 
ATOM     16  C   UNL A   1      31.590  24.292  24.736  1.00  0.00     0.071 C 
ATOM     17  N   UNL A   1      32.539  25.096  25.093  1.00  0.00    -0.176 NA
BRANCH  14  18
ATOM     18  C   UNL A   1      30.098  27.356  24.011  1.00  0.00    -0.023 A 
ATOM     19  C   UNL A   1      29.311  29.218  22.050  1.00  0.00     0.118 A 
ATOM     20  C   UNL A   1      28.353  28.497  22.761  1.00  0.00     0.047 A 
ATOM     21  C   UNL A   1      30.661  29.048  22.345  1.00  0.00     0.047 A 
ATOM     22  C   UNL A   1      28.740  27.564  23.727  1.00  0.00     0.010 A 
ATOM     23  C   UNL A   1      31.050  28.123  23.320  1.00  0.00     0.010 A 
BRANCH  19  24
ATOM     24  O   UNL A   1      28.829  30.104  21.125  1.00  0.00    -0.497 OA
ATOM     25  C   UNL A   1      27.917  31.062  21.655  1.00  0.00     0.278 C 
ENDBRANCH  19  24
ENDBRANCH  14  18
BRANCH  16  26
ATOM     26  C   UNL A   1      31.813  22.865  24.510  1.00  0.00    -0.002 A 
ATOM     27  C   UNL A   1      31.895  22.016  25.618  1.00  0.00     0.011 A 
ATOM     28  C   UNL A   1      31.981  22.381  23.212  1.00  0.00     0.011 A 
ATOM     29  C   UNL A   1      32.136  20.657  25.425  1.00  0.00     0.021 A 
ATOM     30  C   UNL A   1      32.247  21.024  23.019  1.00  0.00     0.021 A 
ATOM     31  C   UNL A   1      32.329  20.173  24.127  1.00  0.00     0.067 A 
BRANCH  31  32
ATOM     32  S   UNL A   1      32.673  18.444  23.895  1.00  0.00     0.175 S 
ATOM     33  C   UNL A   1      34.392  18.288  24.304  1.00  0.00     0.163 C 
ATOM     34  O   UNL A   1      31.894  17.728  24.886  1.00  0.00    -0.224 OA
ATOM     35  O   UNL A   1      32.531  18.156  22.479  1.00  0.00    -0.224 OA
ENDBRANCH  31  32
ENDBRANCH  16  26
ENDBRANCH   8  13
ENDBRANCH   4   7
ENDBRANCH   2   3
ENDBRANCH   1   2
BRANCH   1  36
ATOM     36  C   UNL A   1      33.704  34.187  29.341  1.00  0.00     0.023 C 
BRANCH  36  37
ATOM     37  C   UNL A   1      33.580  35.655  29.736  1.00  0.00     0.116 C 
BRANCH  37  38
ATOM     38  N   UNL A   1      32.620  35.880  30.805  1.00  0.00    -0.352 N 
ATOM     39  C   UNL A   1      32.715  35.527  32.129  1.00  0.00     0.251 C 
ATOM     40  H   UNL A   1      31.793  36.347  30.546  1.00  0.00     0.163 HD
ATOM     41  O   UNL A   1      31.767  35.698  32.887  1.00  0.00    -0.269 OA
BRANCH  39  42
ATOM     42  C   UNL A   1      33.956  34.897  32.624  1.00  0.00     0.039 A 
ATOM     43  C   UNL A   1      33.908  33.565  33.041  1.00  0.00     0.014 A 
ATOM     44  C   UNL A   1      35.160  35.606  32.652  1.00  0.00     0.014 A 
ATOM     45  C   UNL A   1      35.084  32.924  33.429  1.00  0.00     0.010 A 
ATOM     46  C   UNL A   1      36.340  34.947  32.978  1.00  0.00     0.010 A 
ATOM     47  C   UNL A   1      36.313  33.600  33.369  1.00  0.00    -0.014 A 
BRANCH  47  48
ATOM     48  C   UNL A   1      37.580  32.909  33.710  1.00  0.00     0.031 A 
ATOM     49  C   UNL A   1      38.180  31.914  32.759  1.00  0.00     0.074 A 
ATOM     50  C   UNL A   1      38.162  33.144  34.902  1.00  0.00     0.049 A 
ATOM     51  N   UNL A   1      39.268  31.199  32.893  1.00  0.00    -0.248 NA
ATOM     52  C   UNL A   1      37.451  31.675  31.503  1.00  0.00     0.031 C 
ATOM     53  C   UNL A   1      37.656  34.058  35.929  1.00  0.00     0.029 A 
ATOM     54  N   UNL A   1      39.310  32.632  35.447  1.00  0.00    -0.354 N 
ATOM     55  C   UNL A   1      39.349  30.419  31.746  1.00  0.00     0.074 A 
ATOM     56  C   UNL A   1      38.173  30.710  30.953  1.00  0.00     0.031 C 
ATOM     57  C   UNL A   1      38.511  34.069  36.965  1.00  0.00     0.029 A 
ATOM     58  C   UNL A   1      39.603  33.141  36.688  1.00  0.00     0.049 A 
ATOM     59  H   UNL A   1      39.872  31.962  34.993  1.00  0.00     0.167 HD
ATOM     60  C   UNL A   1      40.322  29.555  31.374  1.00  0.00     0.031 A 
ATOM     61  C   UNL A   1      40.640  32.891  37.510  1.00  0.00     0.031 A 
ATOM     62  C   UNL A   1      41.492  29.267  32.159  1.00  0.00     0.049 A 
ATOM     63  C   UNL A   1      41.698  31.917  37.082  1.00  0.00     0.074 A 
ATOM     64  C   UNL A   1      42.559  28.441  31.849  1.00  0.00     0.029 A 
ATOM     65  N   UNL A   1      41.748  29.796  33.414  1.00  0.00    -0.354 N 
ATOM     66  N   UNL A   1      41.791  31.233  35.968  1.00  0.00    -0.248 NA
ATOM     67  C   UNL A   1      42.803  31.690  38.025  1.00  0.00     0.031 C 
ATOM     68  C   UNL A   1      43.441  28.440  32.936  1.00  0.00     0.029 A 
ATOM     69  C   UNL A   1      42.946  29.301  33.901  1.00  0.00     0.049 A 
ATOM     70  H   UNL A   1      41.164  30.431  33.889  1.00  0.00     0.167 HD
ATOM     71  C   UNL A   1      42.975  30.514  36.064  1.00  0.00     0.074 A 
ATOM     72  C   UNL A   1      43.573  30.857  37.338  1.00  0.00     0.031 C 
ATOM     73  C   UNL A   1      43.520  29.647  35.175  1.00  0.00     0.031 A 
BRANCH  60  74
ATOM     74  C   UNL A   1      40.148  28.857  30.055  1.00  0.00    -0.014 A 
ATOM     75  C   UNL A   1      39.547  27.590  29.980  1.00  0.00     0.009 A 
ATOM     76  C   UNL A   1      40.583  29.473  28.872  1.00  0.00     0.009 A 
ATOM     77  C   UNL A   1      39.424  26.936  28.752  1.00  0.00     0.001 A 
ATOM     78  C   UNL A   1      40.433  28.829  27.642  1.00  0.00     0.001 A 
ATOM     79  C   UNL A   1      39.865  27.557  27.585  1.00  0.00     0.000 A 
ENDBRANCH  60  74
BRANCH  61  80
ATOM     80  C   UNL A   1      40.748  33.606  38.807  1.00  0.00    -0.014 A 
ATOM     81  C   UNL A   1      41.433  34.829  38.884  1.00  0.00     0.009 A 
ATOM     82  C   UNL A   1      40.174  33.072  39.971  1.00  0.00     0.009 A 
ATOM     83  C   UNL A   1      41.561  35.491  40.106  1.00  0.00     0.001 A 
ATOM     84  C   UNL A   1      40.283  33.750  41.188  1.00  0.00     0.001 A 
ATOM     85  C   UNL A   1      40.983  34.954  41.256  1.00  0.00     0.000 A 
ENDBRANCH  61  80
BRANCH  73  86
ATOM     86  C   UNL A   1      44.840  29.035  35.546  1.00  0.00    -0.014 A 
ATOM     87  C   UNL A   1      44.909  27.862  36.313  1.00  0.00     0.009 A 
ATOM     88  C   UNL A   1      46.032  29.631  35.103  1.00  0.00     0.009 A 
ATOM     89  C   UNL A   1      46.147  27.319  36.661  1.00  0.00     0.001 A 
ATOM     90  C   UNL A   1      47.267  29.070  35.429  1.00  0.00     0.001 A 
ATOM     91  C   UNL A   1      47.324  27.921  36.216  1.00  0.00     0.000 A 
ENDBRANCH  73  86
ENDBRANCH  47  48
ENDBRANCH  39  42
ENDBRANCH  37  38
ENDBRANCH  36  37
ENDBRANCH   1  36
TORSDOF 16
ENDMDL
MODEL 3
REMARK VINA RESULT:     -12.0      4.510      7.944
REMARK SMILES COc1ccc([C@H]2CC(c3ccc(S(C)(=O)=O)cc3)=NN2c2ccc(C(=O)NCCCCNC(=O)c3ccc(-c4c5nc(c(-c6ccccc6)c6ccc([nH]6)c(-c6ccccc6)c6nc(c(-c7ccccc7)c7ccc4[nH]7)C=C6)C=C5)cc3)cc2)cc1
REMARK SMILES IDX 30 1 29 2 28 3 26 4 27 5 25 7 22 8 23 9 85 10 24 11 84 12
REMARK SMILES IDX 21 13 7 14 8 15 9 16 20 17 6 18 3 19 4 20 87 21 5 22 86 23
REMARK SMILES IDX 2 24 1 25 10 26 11 27 19 28 12 29 18 30 13 31 14 32 15 33
REMARK SMILES IDX 16 34 17 35 31 36 32 37 33 38 34 39 35 41 36 42 37 43 83 44
REMARK SMILES IDX 38 45 82 46 39 47 40 48 41 49 76 50 42 51 81 52 75 53 77 54
REMARK SMILES IDX 43 55 80 56 74 57 73 58 44 60 66 61 51 62 65 63 52 64 55 65
REMARK SMILES IDX 64 66 78 67 53 68 54 69 63 71 79 72 56 73 45 74 46 75 50 76
REMARK SMILES IDX 47 77 49 78 48 79 67 80 68 81 72 82 69 83 71 84 70 85 57 86
REMARK SMILES IDX 58 87 62 88 59 89 61 90 60 91
REMARK H PARENT 28 6 33 40 77 59 55 70
REMARK Flexibility Score: inf
ROOT
ATOM      1  C   UNL A   1      36.470  30.119  31.026  1.00  0.00     0.023 C 
ENDROOT
BRANCH   1   2
ATOM      2  C   UNL A   1      36.188  29.731  29.573  1.00  0.00     0.116 C 
BRANCH   2   3
ATOM      3  N   UNL A   1      35.752  30.887  28.817  1.00  0.00    -0.352 N 
ATOM      4  C   UNL A   1      34.859  31.030  27.786  1.00  0.00     0.251 C 
ATOM      5  O   UNL A   1      34.694  32.167  27.343  1.00  0.00    -0.269 OA
ATOM      6  H   UNL A   1      36.177  31.729  29.097  1.00  0.00     0.163 HD
BRANCH   4   7
ATOM      7  C   UNL A   1      34.057  29.905  27.220  1.00  0.00     0.039 A 
ATOM      8  C   UNL A   1      32.704  27.723  26.014  1.00  0.00     0.060 A 
ATOM      9  C   UNL A   1      34.089  27.870  25.886  1.00  0.00     0.029 A 
ATOM     10  C   UNL A   1      32.016  28.650  26.798  1.00  0.00     0.029 A 
ATOM     11  C   UNL A   1      34.755  28.956  26.461  1.00  0.00     0.016 A 
ATOM     12  C   UNL A   1      32.690  29.706  27.424  1.00  0.00     0.016 A 
BRANCH   8  13
ATOM     13  N   UNL A   1      32.064  26.656  25.406  1.00  0.00    -0.257 N 
ATOM     14  C   UNL A   1      30.622  26.572  25.183  1.00  0.00     0.144 C 
ATOM     15  C   UNL A   1      30.423  25.102  24.787  1.00  0.00     0.091 C 
ATOM     16  C   UNL A   1      31.823  24.594  24.975  1.00  0.00     0.071 C 
ATOM     17  N   UNL A   1      32.713  25.467  25.320  1.00  0.00    -0.176 NA
BRANCH  14  18
ATOM     18  C   UNL A   1      30.168  27.530  24.094  1.00  0.00    -0.023 A 
ATOM     19  C   UNL A   1      29.319  29.263  22.042  1.00  0.00     0.118 A 
ATOM     20  C   UNL A   1      28.388  28.520  22.767  1.00  0.00     0.047 A 
ATOM     21  C   UNL A   1      30.671  29.181  22.369  1.00  0.00     0.047 A 
ATOM     22  C   UNL A   1      28.807  27.650  23.778  1.00  0.00     0.010 A 
ATOM     23  C   UNL A   1      31.091  28.320  23.388  1.00  0.00     0.010 A 
BRANCH  19  24
ATOM     24  O   UNL A   1      28.808  30.082  21.073  1.00  0.00    -0.497 OA
ATOM     25  C   UNL A   1      28.323  31.330  21.560  1.00  0.00     0.278 C 
ENDBRANCH  19  24
ENDBRANCH  14  18
BRANCH  16  26
ATOM     26  C   UNL A   1      32.138  23.175  24.811  1.00  0.00    -0.002 A 
ATOM     27  C   UNL A   1      32.032  22.608  23.538  1.00  0.00     0.011 A 
ATOM     28  C   UNL A   1      32.495  22.406  25.920  1.00  0.00     0.011 A 
ATOM     29  C   UNL A   1      32.300  21.251  23.366  1.00  0.00     0.021 A 
ATOM     30  C   UNL A   1      32.739  21.042  25.754  1.00  0.00     0.021 A 
ATOM     31  C   UNL A   1      32.634  20.473  24.480  1.00  0.00     0.067 A 
BRANCH  31  32
ATOM     32  S   UNL A   1      32.938  18.736  24.256  1.00  0.00     0.175 S 
ATOM     33  C   UNL A   1      32.322  18.397  22.627  1.00  0.00     0.163 C 
ATOM     34  O   UNL A   1      34.377  18.561  24.251  1.00  0.00    -0.224 OA
ATOM     35  O   UNL A   1      32.100  18.019  25.199  1.00  0.00    -0.224 OA
ENDBRANCH  31  32
ENDBRANCH  16  26
ENDBRANCH   8  13
ENDBRANCH   4   7
ENDBRANCH   2   3
ENDBRANCH   1   2
BRANCH   1  36
ATOM     36  C   UNL A   1      35.816  31.434  31.462  1.00  0.00     0.023 C 
BRANCH  36  37
ATOM     37  C   UNL A   1      35.980  31.771  32.940  1.00  0.00     0.116 C 
BRANCH  37  38
ATOM     38  N   UNL A   1      36.405  33.143  33.170  1.00  0.00    -0.352 N 
ATOM     39  C   UNL A   1      37.589  33.742  32.818  1.00  0.00     0.251 C 
ATOM     40  H   UNL A   1      35.758  33.719  33.638  1.00  0.00     0.163 HD
ATOM     41  O   UNL A   1      37.837  34.888  33.178  1.00  0.00    -0.269 OA
BRANCH  39  42
ATOM     42  C   UNL A   1      38.584  32.979  32.038  1.00  0.00     0.039 A 
ATOM     43  C   UNL A   1      38.658  33.192  30.660  1.00  0.00     0.014 A 
ATOM     44  C   UNL A   1      39.452  32.080  32.663  1.00  0.00     0.014 A 
ATOM     45  C   UNL A   1      39.647  32.548  29.916  1.00  0.00     0.010 A 
ATOM     46  C   UNL A   1      40.477  31.489  31.933  1.00  0.00     0.010 A 
ATOM     47  C   UNL A   1      40.584  31.718  30.553  1.00  0.00    -0.014 A 
BRANCH  47  48
ATOM     48  C   UNL A   1      41.684  31.084  29.787  1.00  0.00     0.031 A 
ATOM     49  C   UNL A   1      41.508  29.711  29.206  1.00  0.00     0.074 A 
ATOM     50  C   UNL A   1      42.859  31.728  29.660  1.00  0.00     0.049 A 
ATOM     51  N   UNL A   1      42.362  28.989  28.524  1.00  0.00    -0.248 NA
ATOM     52  C   UNL A   1      40.212  29.053  29.438  1.00  0.00     0.031 C 
ATOM     53  C   UNL A   1      43.168  33.049  30.213  1.00  0.00     0.029 A 
ATOM     54  N   UNL A   1      44.013  31.356  29.021  1.00  0.00    -0.354 N 
ATOM     55  C   UNL A   1      41.712  27.791  28.256  1.00  0.00     0.074 A 
ATOM     56  C   UNL A   1      40.414  27.863  28.893  1.00  0.00     0.031 C 
ATOM     57  C   UNL A   1      44.417  33.393  29.856  1.00  0.00     0.029 A 
ATOM     58  C   UNL A   1      45.005  32.305  29.081  1.00  0.00     0.049 A 
ATOM     59  H   UNL A   1      44.122  30.491  28.561  1.00  0.00     0.167 HD
ATOM     60  C   UNL A   1      42.144  26.734  27.529  1.00  0.00     0.031 A 
ATOM     61  C   UNL A   1      46.248  32.300  28.564  1.00  0.00     0.031 A 
ATOM     62  C   UNL A   1      43.433  26.663  26.893  1.00  0.00     0.049 A 
ATOM     63  C   UNL A   1      46.710  31.110  27.774  1.00  0.00     0.074 A 
ATOM     64  C   UNL A   1      43.948  25.656  26.096  1.00  0.00     0.029 A 
ATOM     65  N   UNL A   1      44.411  27.640  26.985  1.00  0.00    -0.354 N 
ATOM     66  N   UNL A   1      46.061  30.011  27.478  1.00  0.00    -0.248 NA
ATOM     67  C   UNL A   1      48.078  31.169  27.237  1.00  0.00     0.031 C 
ATOM     68  C   UNL A   1      45.254  26.006  25.739  1.00  0.00     0.029 A 
ATOM     69  C   UNL A   1      45.535  27.252  26.274  1.00  0.00     0.049 A 
ATOM     70  H   UNL A   1      44.320  28.485  27.481  1.00  0.00     0.167 HD
ATOM     71  C   UNL A   1      46.930  29.258  26.700  1.00  0.00     0.074 A 
ATOM     72  C   UNL A   1      48.146  30.032  26.557  1.00  0.00     0.031 C 
ATOM     73  C   UNL A   1      46.738  28.032  26.151  1.00  0.00     0.031 A 
BRANCH  60  74
ATOM     74  C   UNL A   1      41.206  25.569  27.393  1.00  0.00    -0.014 A 
ATOM     75  C   UNL A   1      40.094  25.631  26.537  1.00  0.00     0.009 A 
ATOM     76  C   UNL A   1      41.438  24.393  28.122  1.00  0.00     0.009 A 
ATOM     77  C   UNL A   1      39.210  24.554  26.447  1.00  0.00     0.001 A 
ATOM     78  C   UNL A   1      40.567  23.307  28.009  1.00  0.00     0.001 A 
ATOM     79  C   UNL A   1      39.448  23.393  27.181  1.00  0.00     0.000 A 
ENDBRANCH  60  74
BRANCH  61  80
ATOM     80  C   UNL A   1      47.131  33.480  28.744  1.00  0.00    -0.014 A 
ATOM     81  C   UNL A   1      47.994  33.554  29.849  1.00  0.00     0.009 A 
ATOM     82  C   UNL A   1      47.115  34.536  27.821  1.00  0.00     0.009 A 
ATOM     83  C   UNL A   1      48.807  34.673  30.037  1.00  0.00     0.001 A 
ATOM     84  C   UNL A   1      47.948  35.644  28.000  1.00  0.00     0.001 A 
ATOM     85  C   UNL A   1      48.786  35.715  29.112  1.00  0.00     0.000 A 
ENDBRANCH  61  80
BRANCH  73  86
ATOM     86  C   UNL A   1      47.861  27.475  25.326  1.00  0.00    -0.014 A 
ATOM     87  C   UNL A   1      47.868  27.599  23.928  1.00  0.00     0.009 A 
ATOM     88  C   UNL A   1      48.938  26.834  25.958  1.00  0.00     0.009 A 
ATOM     89  C   UNL A   1      48.914  27.059  23.177  1.00  0.00     0.001 A 
ATOM     90  C   UNL A   1      49.996  26.319  25.207  1.00  0.00     0.001 A 
ATOM     91  C   UNL A   1      49.977  26.423  23.817  1.00  0.00     0.000 A 
ENDBRANCH  73  86
ENDBRANCH  47  48
ENDBRANCH  39  42
ENDBRANCH  37  38
ENDBRANCH  36  37
ENDBRANCH   1  36
TORSDOF 16
ENDMDL
