MODEL 1
REMARK VINA RESULT:     -10.4      0.000      0.000
REMARK SMILES C=CCSc1ccccc1C(=O)NCCCCNC(=O)c1ccc(-c2c3nc(c(-c4ccccc4)c4ccc([nH]4)c(-c4ccccc4)c4nc(c(-c5ccccc5)c5ccc2[nH]5)C=C4)C=C3)cc1
REMARK SMILES IDX 15 1 14 2 13 3 11 4 12 5 10 7 5 8 6 9 7 10 9 11 8 12 4 13
REMARK SMILES IDX 3 14 2 15 1 16 16 17 17 18 18 19 19 20 20 22 21 23 22 24
REMARK SMILES IDX 68 25 23 26 67 27 24 28 25 29 26 30 61 31 27 32 66 33 60 34
REMARK SMILES IDX 62 35 28 36 65 37 59 38 58 39 29 41 51 42 36 43 50 44 37 45
REMARK SMILES IDX 40 46 49 47 63 48 38 49 39 50 48 52 64 53 41 54 30 55 31 56
REMARK SMILES IDX 35 57 32 58 34 59 33 60 52 61 53 62 57 63 54 64 56 65 55 66
REMARK SMILES IDX 42 67 43 68 47 69 44 70 46 71 45 72
REMARK H PARENT 13 6 18 21 62 40 40 51
REMARK Flexibility Score: inf
ROOT
ATOM      1  C   UNL A   1      31.668  30.442  26.567  1.00  0.00     0.023 C 
ENDROOT
BRANCH   1   2
ATOM      2  C   UNL A   1      33.141  30.065  26.367  1.00  0.00     0.116 C 
BRANCH   2   3
ATOM      3  N   UNL A   1      33.409  29.723  24.993  1.00  0.00    -0.352 N 
ATOM      4  C   UNL A   1      32.851  28.953  24.015  1.00  0.00     0.252 C 
ATOM      5  O   UNL A   1      33.505  29.009  22.961  1.00  0.00    -0.269 OA
ATOM      6  H   UNL A   1      34.224  30.170  24.669  1.00  0.00     0.163 HD
BRANCH   4   7
ATOM      7  C   UNL A   1      31.600  28.106  24.013  1.00  0.00     0.053 A 
ATOM      8  C   UNL A   1      30.360  28.234  23.351  1.00  0.00     0.020 A 
ATOM      9  C   UNL A   1      29.302  27.346  23.685  1.00  0.00     0.016 A 
ATOM     10  C   UNL A   1      29.443  26.331  24.626  1.00  0.00     0.001 A 
ATOM     11  C   UNL A   1      31.710  27.032  24.945  1.00  0.00     0.015 A 
ATOM     12  C   UNL A   1      30.659  26.167  25.254  1.00  0.00     0.001 A 
BRANCH   8  13
ATOM     13  S   UNL A   1      29.842  29.502  22.211  1.00  0.00    -0.121 SA
BRANCH  13  14
ATOM     14  C   UNL A   1      28.076  29.727  22.635  1.00  0.00     0.101 C 
BRANCH  14  15
ATOM     15  C   UNL A   1      27.832  30.936  23.487  1.00  0.00    -0.024 C 
ATOM     16  C   UNL A   1      28.715  31.929  23.662  1.00  0.00     0.005 C 
ENDBRANCH  14  15
ENDBRANCH  13  14
ENDBRANCH   8  13
ENDBRANCH   4   7
ENDBRANCH   2   3
ENDBRANCH   1   2
BRANCH   1  17
ATOM     17  C   UNL A   1      31.413  31.943  26.675  1.00  0.00     0.023 C 
BRANCH  17  18
ATOM     18  C   UNL A   1      32.580  32.732  27.252  1.00  0.00     0.116 C 
BRANCH  18  19
ATOM     19  N   UNL A   1      32.258  34.107  27.606  1.00  0.00    -0.352 N 
ATOM     20  C   UNL A   1      32.923  34.911  28.502  1.00  0.00     0.251 C 
ATOM     21  H   UNL A   1      31.479  34.505  27.154  1.00  0.00     0.163 HD
ATOM     22  O   UNL A   1      32.520  36.038  28.770  1.00  0.00    -0.269 OA
BRANCH  20  23
ATOM     23  C   UNL A   1      34.116  34.365  29.180  1.00  0.00     0.039 A 
ATOM     24  C   UNL A   1      33.948  33.616  30.347  1.00  0.00     0.014 A 
ATOM     25  C   UNL A   1      35.382  34.523  28.611  1.00  0.00     0.014 A 
ATOM     26  C   UNL A   1      35.048  32.971  30.911  1.00  0.00     0.010 A 
ATOM     27  C   UNL A   1      36.459  33.815  29.127  1.00  0.00     0.010 A 
ATOM     28  C   UNL A   1      36.305  33.040  30.288  1.00  0.00    -0.014 A 
BRANCH  28  29
ATOM     29  C   UNL A   1      37.485  32.343  30.855  1.00  0.00     0.031 A 
ATOM     30  C   UNL A   1      38.099  32.844  32.133  1.00  0.00     0.074 A 
ATOM     31  C   UNL A   1      38.040  31.306  30.198  1.00  0.00     0.049 A 
ATOM     32  N   UNL A   1      39.161  32.413  32.764  1.00  0.00    -0.248 NA
ATOM     33  C   UNL A   1      37.450  34.003  32.769  1.00  0.00     0.031 C 
ATOM     34  C   UNL A   1      37.571  30.755  28.925  1.00  0.00     0.029 A 
ATOM     35  N   UNL A   1      39.128  30.532  30.514  1.00  0.00    -0.354 N 
ATOM     36  C   UNL A   1      39.321  33.263  33.852  1.00  0.00     0.074 A 
ATOM     37  C   UNL A   1      38.281  34.264  33.766  1.00  0.00     0.031 C 
ATOM     38  C   UNL A   1      38.348  29.713  28.586  1.00  0.00     0.029 A 
ATOM     39  C   UNL A   1      39.385  29.542  29.598  1.00  0.00     0.049 A 
ATOM     40  H   UNL A   1      39.673  30.675  31.322  1.00  0.00     0.167 HD
ATOM     41  C   UNL A   1      40.234  33.203  34.848  1.00  0.00     0.031 A 
ATOM     42  C   UNL A   1      40.346  28.600  29.581  1.00  0.00     0.031 A 
ATOM     43  C   UNL A   1      41.249  32.191  34.952  1.00  0.00     0.049 A 
ATOM     44  C   UNL A   1      41.334  28.537  30.713  1.00  0.00     0.074 A 
ATOM     45  C   UNL A   1      42.186  32.009  35.954  1.00  0.00     0.029 A 
ATOM     46  N   UNL A   1      41.453  31.186  34.021  1.00  0.00    -0.354 N 
ATOM     47  N   UNL A   1      41.431  29.307  31.769  1.00  0.00    -0.248 NA
ATOM     48  C   UNL A   1      42.333  27.460  30.658  1.00  0.00     0.031 C 
ATOM     49  C   UNL A   1      42.979  30.908  35.611  1.00  0.00     0.029 A 
ATOM     50  C   UNL A   1      42.506  30.382  34.420  1.00  0.00     0.049 A 
ATOM     51  H   UNL A   1      40.926  31.062  33.199  1.00  0.00     0.167 HD
ATOM     52  C   UNL A   1      42.477  28.789  32.520  1.00  0.00     0.074 A 
ATOM     53  C   UNL A   1      42.976  27.633  31.805  1.00  0.00     0.031 C 
ATOM     54  C   UNL A   1      42.979  29.230  33.700  1.00  0.00     0.031 A 
BRANCH  41  55
ATOM     55  C   UNL A   1      40.166  34.268  35.906  1.00  0.00    -0.014 A 
ATOM     56  C   UNL A   1      39.374  34.100  37.054  1.00  0.00     0.009 A 
ATOM     57  C   UNL A   1      40.909  35.448  35.759  1.00  0.00     0.009 A 
ATOM     58  C   UNL A   1      39.295  35.112  38.012  1.00  0.00     0.001 A 
ATOM     59  C   UNL A   1      40.851  36.446  36.734  1.00  0.00     0.001 A 
ATOM     60  C   UNL A   1      40.036  36.282  37.854  1.00  0.00     0.000 A 
ENDBRANCH  41  55
BRANCH  42  61
ATOM     61  C   UNL A   1      40.401  27.610  28.475  1.00  0.00    -0.014 A 
ATOM     62  C   UNL A   1      41.140  27.885  27.313  1.00  0.00     0.009 A 
ATOM     63  C   UNL A   1      39.706  26.394  28.565  1.00  0.00     0.009 A 
ATOM     64  C   UNL A   1      41.160  26.975  26.253  1.00  0.00     0.001 A 
ATOM     65  C   UNL A   1      39.748  25.476  27.513  1.00  0.00     0.001 A 
ATOM     66  C   UNL A   1      40.466  25.771  26.356  1.00  0.00     0.000 A 
ENDBRANCH  42  61
BRANCH  54  67
ATOM     67  C   UNL A   1      44.093  28.431  34.313  1.00  0.00    -0.014 A 
ATOM     68  C   UNL A   1      43.831  27.350  35.167  1.00  0.00     0.009 A 
ATOM     69  C   UNL A   1      45.424  28.743  33.993  1.00  0.00     0.009 A 
ATOM     70  C   UNL A   1      44.885  26.612  35.711  1.00  0.00     0.001 A 
ATOM     71  C   UNL A   1      46.473  27.988  34.518  1.00  0.00     0.001 A 
ATOM     72  C   UNL A   1      46.203  26.929  35.384  1.00  0.00     0.000 A 
ENDBRANCH  54  67
ENDBRANCH  28  29
ENDBRANCH  20  23
ENDBRANCH  18  19
ENDBRANCH  17  18
ENDBRANCH   1  17
TORSDOF 14
ENDMDL
MODEL 2
REMARK VINA RESULT:     -10.1      0.844      2.059
REMARK SMILES C=CCSc1ccccc1C(=O)NCCCCNC(=O)c1ccc(-c2c3nc(c(-c4ccccc4)c4ccc([nH]4)c(-c4ccccc4)c4nc(c(-c5ccccc5)c5ccc2[nH]5)C=C4)C=C3)cc1
REMARK SMILES IDX 15 1 14 2 13 3 11 4 12 5 10 7 5 8 6 9 7 10 9 11 8 12 4 13
REMARK SMILES IDX 3 14 2 15 1 16 16 17 17 18 18 19 19 20 20 22 21 23 22 24
REMARK SMILES IDX 68 25 23 26 67 27 24 28 25 29 26 30 61 31 27 32 66 33 60 34
REMARK SMILES IDX 62 35 28 36 65 37 59 38 58 39 29 41 51 42 36 43 50 44 37 45
REMARK SMILES IDX 40 46 49 47 63 48 38 49 39 50 48 52 64 53 41 54 30 55 31 56
REMARK SMILES IDX 35 57 32 58 34 59 33 60 52 61 53 62 57 63 54 64 56 65 55 66
REMARK SMILES IDX 42 67 43 68 47 69 44 70 46 71 45 72
REMARK H PARENT 13 6 18 21 62 40 40 51
REMARK Flexibility Score: inf
ROOT
ATOM      1  C   UNL A   1      31.637  30.387  26.743  1.00  0.00     0.023 C 
ENDROOT
BRANCH   1   2
ATOM      2  C   UNL A   1      33.053  29.834  26.542  1.00  0.00     0.116 C 
BRANCH   2   3
ATOM      3  N   UNL A   1      33.335  29.619  25.146  1.00  0.00    -0.352 N 
ATOM      4  C   UNL A   1      32.682  29.157  24.041  1.00  0.00     0.252 C 
ATOM      5  O   UNL A   1      33.411  29.180  23.036  1.00  0.00    -0.269 OA
ATOM      6  H   UNL A   1      34.259  29.878  24.927  1.00  0.00     0.163 HD
BRANCH   4   7
ATOM      7  C   UNL A   1      31.263  28.670  23.859  1.00  0.00     0.053 A 
ATOM      8  C   UNL A   1      30.677  27.388  23.919  1.00  0.00     0.020 A 
ATOM      9  C   UNL A   1      29.318  27.229  23.534  1.00  0.00     0.016 A 
ATOM     10  C   UNL A   1      28.526  28.295  23.120  1.00  0.00     0.001 A 
ATOM     11  C   UNL A   1      30.406  29.739  23.462  1.00  0.00     0.015 A 
ATOM     12  C   UNL A   1      29.070  29.561  23.093  1.00  0.00     0.001 A 
BRANCH   8  13
ATOM     13  S   UNL A   1      31.464  25.829  24.276  1.00  0.00    -0.121 SA
BRANCH  13  14
ATOM     14  C   UNL A   1      32.032  26.053  26.001  1.00  0.00     0.101 C 
BRANCH  14  15
ATOM     15  C   UNL A   1      33.525  26.128  26.117  1.00  0.00    -0.024 C 
ATOM     16  C   UNL A   1      34.380  25.507  25.293  1.00  0.00     0.005 C 
ENDBRANCH  14  15
ENDBRANCH  13  14
ENDBRANCH   8  13
ENDBRANCH   4   7
ENDBRANCH   2   3
ENDBRANCH   1   2
BRANCH   1  17
ATOM     17  C   UNL A   1      31.524  31.901  26.582  1.00  0.00     0.023 C 
BRANCH  17  18
ATOM     18  C   UNL A   1      32.666  32.680  27.221  1.00  0.00     0.116 C 
BRANCH  18  19
ATOM     19  N   UNL A   1      32.315  34.033  27.626  1.00  0.00    -0.352 N 
ATOM     20  C   UNL A   1      32.967  34.819  28.548  1.00  0.00     0.251 C 
ATOM     21  H   UNL A   1      31.526  34.430  27.192  1.00  0.00     0.163 HD
ATOM     22  O   UNL A   1      32.539  35.925  28.860  1.00  0.00    -0.269 OA
BRANCH  20  23
ATOM     23  C   UNL A   1      34.174  34.274  29.202  1.00  0.00     0.039 A 
ATOM     24  C   UNL A   1      34.027  33.451  30.319  1.00  0.00     0.014 A 
ATOM     25  C   UNL A   1      35.437  34.511  28.652  1.00  0.00     0.014 A 
ATOM     26  C   UNL A   1      35.146  32.811  30.852  1.00  0.00     0.010 A 
ATOM     27  C   UNL A   1      36.536  33.811  29.133  1.00  0.00     0.010 A 
ATOM     28  C   UNL A   1      36.403  32.963  30.244  1.00  0.00    -0.014 A 
BRANCH  28  29
ATOM     29  C   UNL A   1      37.604  32.275  30.777  1.00  0.00     0.031 A 
ATOM     30  C   UNL A   1      38.262  32.793  32.025  1.00  0.00     0.074 A 
ATOM     31  C   UNL A   1      38.137  31.231  30.113  1.00  0.00     0.049 A 
ATOM     32  N   UNL A   1      39.348  32.371  32.624  1.00  0.00    -0.248 NA
ATOM     33  C   UNL A   1      37.635  33.958  32.670  1.00  0.00     0.031 C 
ATOM     34  C   UNL A   1      37.623  30.663  28.865  1.00  0.00     0.029 A 
ATOM     35  N   UNL A   1      39.237  30.462  30.400  1.00  0.00    -0.354 N 
ATOM     36  C   UNL A   1      39.545  33.235  33.694  1.00  0.00     0.074 A 
ATOM     37  C   UNL A   1      38.500  34.233  33.634  1.00  0.00     0.031 C 
ATOM     38  C   UNL A   1      38.390  29.618  28.511  1.00  0.00     0.029 A 
ATOM     39  C   UNL A   1      39.463  29.461  29.488  1.00  0.00     0.049 A 
ATOM     40  H   UNL A   1      39.811  30.615  31.185  1.00  0.00     0.167 HD
ATOM     41  C   UNL A   1      40.493  33.188  34.658  1.00  0.00     0.031 A 
ATOM     42  C   UNL A   1      40.425  28.520  29.447  1.00  0.00     0.031 A 
ATOM     43  C   UNL A   1      41.513  32.180  34.738  1.00  0.00     0.049 A 
ATOM     44  C   UNL A   1      41.452  28.472  30.544  1.00  0.00     0.074 A 
ATOM     45  C   UNL A   1      42.485  32.011  35.707  1.00  0.00     0.029 A 
ATOM     46  N   UNL A   1      41.685  31.163  33.812  1.00  0.00    -0.354 N 
ATOM     47  N   UNL A   1      41.586  29.256  31.586  1.00  0.00    -0.248 NA
ATOM     48  C   UNL A   1      42.451  27.397  30.466  1.00  0.00     0.031 C 
ATOM     49  C   UNL A   1      43.269  30.907  35.350  1.00  0.00     0.029 A 
ATOM     50  C   UNL A   1      42.753  30.366  34.183  1.00  0.00     0.049 A 
ATOM     51  H   UNL A   1      41.130  31.028  33.011  1.00  0.00     0.167 HD
ATOM     52  C   UNL A   1      42.660  28.749  32.305  1.00  0.00     0.074 A 
ATOM     53  C   UNL A   1      43.135  27.585  31.587  1.00  0.00     0.031 C 
ATOM     54  C   UNL A   1      43.203  29.205  33.461  1.00  0.00     0.031 A 
BRANCH  41  55
ATOM     55  C   UNL A   1      40.461  34.266  35.705  1.00  0.00    -0.014 A 
ATOM     56  C   UNL A   1      39.708  34.113  36.880  1.00  0.00     0.009 A 
ATOM     57  C   UNL A   1      41.199  35.444  35.518  1.00  0.00     0.009 A 
ATOM     58  C   UNL A   1      39.661  35.136  37.828  1.00  0.00     0.001 A 
ATOM     59  C   UNL A   1      41.174  36.454  36.482  1.00  0.00     0.001 A 
ATOM     60  C   UNL A   1      40.398  36.304  37.630  1.00  0.00     0.000 A 
ENDBRANCH  41  55
BRANCH  42  61
ATOM     61  C   UNL A   1      40.441  27.517  28.352  1.00  0.00    -0.014 A 
ATOM     62  C   UNL A   1      39.767  26.294  28.501  1.00  0.00     0.009 A 
ATOM     63  C   UNL A   1      41.139  27.767  27.160  1.00  0.00     0.009 A 
ATOM     64  C   UNL A   1      39.815  25.331  27.490  1.00  0.00     0.001 A 
ATOM     65  C   UNL A   1      41.164  26.811  26.142  1.00  0.00     0.001 A 
ATOM     66  C   UNL A   1      40.511  25.591  26.311  1.00  0.00     0.000 A 
ENDBRANCH  42  61
BRANCH  54  67
ATOM     67  C   UNL A   1      44.340  28.416  34.043  1.00  0.00    -0.014 A 
ATOM     68  C   UNL A   1      45.674  28.723  33.737  1.00  0.00     0.009 A 
ATOM     69  C   UNL A   1      44.067  27.378  34.948  1.00  0.00     0.009 A 
ATOM     70  C   UNL A   1      46.714  27.984  34.305  1.00  0.00     0.001 A 
ATOM     71  C   UNL A   1      45.109  26.659  35.533  1.00  0.00     0.001 A 
ATOM     72  C   UNL A   1      46.431  26.956  35.205  1.00  0.00     0.000 A 
ENDBRANCH  54  67
ENDBRANCH  28  29
ENDBRANCH  20  23
ENDBRANCH  18  19
ENDBRANCH  17  18
ENDBRANCH   1  17
TORSDOF 14
ENDMDL
MODEL 3
REMARK VINA RESULT:     -10.1      5.394     10.188
REMARK SMILES C=CCSc1ccccc1C(=O)NCCCCNC(=O)c1ccc(-c2c3nc(c(-c4ccccc4)c4ccc([nH]4)c(-c4ccccc4)c4nc(c(-c5ccccc5)c5ccc2[nH]5)C=C4)C=C3)cc1
REMARK SMILES IDX 15 1 14 2 13 3 11 4 12 5 10 7 5 8 6 9 7 10 9 11 8 12 4 13
REMARK SMILES IDX 3 14 2 15 1 16 16 17 17 18 18 19 19 20 20 22 21 23 22 24
REMARK SMILES IDX 68 25 23 26 67 27 24 28 25 29 26 30 61 31 27 32 66 33 60 34
REMARK SMILES IDX 62 35 28 36 65 37 59 38 58 39 29 41 51 42 36 43 50 44 37 45
REMARK SMILES IDX 40 46 49 47 63 48 38 49 39 50 48 52 64 53 41 54 30 55 31 56
REMARK SMILES IDX 35 57 32 58 34 59 33 60 52 61 53 62 57 63 54 64 56 65 55 66
REMARK SMILES IDX 42 67 43 68 47 69 44 70 46 71 45 72
REMARK H PARENT 13 6 18 21 62 40 40 51
REMARK Flexibility Score: inf
ROOT
ATOM      1  C   UNL A   1      37.326  20.295  24.626  1.00  0.00     0.023 C 
ENDROOT
BRANCH   1   2
ATOM      2  C   UNL A   1      37.515  21.654  25.312  1.00  0.00     0.116 C 
BRANCH   2   3
ATOM      3  N   UNL A   1      36.413  21.949  26.193  1.00  0.00    -0.352 N 
ATOM      4  C   UNL A   1      35.084  22.237  26.088  1.00  0.00     0.252 C 
ATOM      5  O   UNL A   1      34.566  22.415  27.202  1.00  0.00    -0.269 OA
ATOM      6  H   UNL A   1      36.700  21.943  27.134  1.00  0.00     0.163 HD
BRANCH   4   7
ATOM      7  C   UNL A   1      34.183  22.337  24.879  1.00  0.00     0.053 A 
ATOM      8  C   UNL A   1      33.193  21.482  24.351  1.00  0.00     0.020 A 
ATOM      9  C   UNL A   1      32.622  21.782  23.085  1.00  0.00     0.016 A 
ATOM     10  C   UNL A   1      32.982  22.905  22.347  1.00  0.00     0.001 A 
ATOM     11  C   UNL A   1      34.497  23.493  24.105  1.00  0.00     0.015 A 
ATOM     12  C   UNL A   1      33.919  23.772  22.864  1.00  0.00     0.001 A 
BRANCH   8  13
ATOM     13  S   UNL A   1      32.627  19.918  24.993  1.00  0.00    -0.121 SA
BRANCH  13  14
ATOM     14  C   UNL A   1      33.989  18.783  24.542  1.00  0.00     0.101 C 
BRANCH  14  15
ATOM     15  C   UNL A   1      33.501  17.472  24.001  1.00  0.00    -0.024 C 
ATOM     16  C   UNL A   1      34.162  16.732  23.100  1.00  0.00     0.005 C 
ENDBRANCH  14  15
ENDBRANCH  13  14
ENDBRANCH   8  13
ENDBRANCH   4   7
ENDBRANCH   2   3
ENDBRANCH   1   2
BRANCH   1  17
ATOM     17  C   UNL A   1      38.346  19.236  25.036  1.00  0.00     0.023 C 
BRANCH  17  18
ATOM     18  C   UNL A   1      39.424  19.746  25.983  1.00  0.00     0.116 C 
BRANCH  18  19
ATOM     19  N   UNL A   1      40.714  19.088  25.834  1.00  0.00    -0.352 N 
ATOM     20  C   UNL A   1      41.954  19.621  26.096  1.00  0.00     0.251 C 
ATOM     21  H   UNL A   1      40.696  18.158  25.511  1.00  0.00     0.163 HD
ATOM     22  O   UNL A   1      42.981  18.991  25.869  1.00  0.00    -0.269 OA
BRANCH  20  23
ATOM     23  C   UNL A   1      42.025  21.004  26.611  1.00  0.00     0.039 A 
ATOM     24  C   UNL A   1      41.944  21.219  27.988  1.00  0.00     0.014 A 
ATOM     25  C   UNL A   1      42.258  22.068  25.736  1.00  0.00     0.014 A 
ATOM     26  C   UNL A   1      42.161  22.500  28.495  1.00  0.00     0.010 A 
ATOM     27  C   UNL A   1      42.552  23.325  26.248  1.00  0.00     0.010 A 
ATOM     28  C   UNL A   1      42.497  23.556  27.631  1.00  0.00    -0.014 A 
BRANCH  28  29
ATOM     29  C   UNL A   1      42.754  24.921  28.149  1.00  0.00     0.031 A 
ATOM     30  C   UNL A   1      44.153  25.317  28.534  1.00  0.00     0.074 A 
ATOM     31  C   UNL A   1      41.733  25.781  28.330  1.00  0.00     0.049 A 
ATOM     32  N   UNL A   1      44.581  26.438  29.056  1.00  0.00    -0.248 NA
ATOM     33  C   UNL A   1      45.205  24.306  28.336  1.00  0.00     0.031 C 
ATOM     34  C   UNL A   1      40.325  25.503  28.042  1.00  0.00     0.029 A 
ATOM     35  N   UNL A   1      41.727  27.068  28.806  1.00  0.00    -0.354 N 
ATOM     36  C   UNL A   1      45.941  26.256  29.271  1.00  0.00     0.074 A 
ATOM     37  C   UNL A   1      46.257  24.902  28.874  1.00  0.00     0.031 C 
ATOM     38  C   UNL A   1      39.596  26.598  28.319  1.00  0.00     0.029 A 
ATOM     39  C   UNL A   1      40.480  27.641  28.831  1.00  0.00     0.049 A 
ATOM     40  H   UNL A   1      42.541  27.535  29.103  1.00  0.00     0.167 HD
ATOM     41  C   UNL A   1      46.853  27.142  29.733  1.00  0.00     0.031 A 
ATOM     42  C   UNL A   1      40.093  28.871  29.217  1.00  0.00     0.031 A 
ATOM     43  C   UNL A   1      46.547  28.497  30.099  1.00  0.00     0.049 A 
ATOM     44  C   UNL A   1      41.129  29.848  29.701  1.00  0.00     0.074 A 
ATOM     45  C   UNL A   1      47.409  29.492  30.523  1.00  0.00     0.029 A 
ATOM     46  N   UNL A   1      45.276  29.048  30.075  1.00  0.00    -0.354 N 
ATOM     47  N   UNL A   1      42.422  29.682  29.836  1.00  0.00    -0.248 NA
ATOM     48  C   UNL A   1      40.651  31.188  30.070  1.00  0.00     0.031 C 
ATOM     49  C   UNL A   1      46.654  30.639  30.788  1.00  0.00     0.029 A 
ATOM     50  C   UNL A   1      45.329  30.369  30.485  1.00  0.00     0.049 A 
ATOM     51  H   UNL A   1      44.458  28.571  29.807  1.00  0.00     0.167 HD
ATOM     52  C   UNL A   1      42.917  30.904  30.272  1.00  0.00     0.074 A 
ATOM     53  C   UNL A   1      41.787  31.804  30.368  1.00  0.00     0.031 C 
ATOM     54  C   UNL A   1      44.195  31.251  30.563  1.00  0.00     0.031 A 
BRANCH  41  55
ATOM     55  C   UNL A   1      48.271  26.663  29.861  1.00  0.00    -0.014 A 
ATOM     56  C   UNL A   1      48.714  26.007  31.022  1.00  0.00     0.009 A 
ATOM     57  C   UNL A   1      49.174  26.859  28.805  1.00  0.00     0.009 A 
ATOM     58  C   UNL A   1      50.043  25.597  31.139  1.00  0.00     0.001 A 
ATOM     59  C   UNL A   1      50.495  26.421  28.914  1.00  0.00     0.001 A 
ATOM     60  C   UNL A   1      50.931  25.801  30.084  1.00  0.00     0.000 A 
ENDBRANCH  41  55
BRANCH  42  61
ATOM     61  C   UNL A   1      38.665  29.268  29.124  1.00  0.00    -0.014 A 
ATOM     62  C   UNL A   1      38.151  29.789  27.926  1.00  0.00     0.009 A 
ATOM     63  C   UNL A   1      37.812  29.143  30.231  1.00  0.00     0.009 A 
ATOM     64  C   UNL A   1      36.819  30.203  27.847  1.00  0.00     0.001 A 
ATOM     65  C   UNL A   1      36.474  29.535  30.141  1.00  0.00     0.001 A 
ATOM     66  C   UNL A   1      35.982  30.073  28.953  1.00  0.00     0.000 A 
ENDBRANCH  42  61
BRANCH  54  67
ATOM     67  C   UNL A   1      44.444  32.676  30.965  1.00  0.00    -0.014 A 
ATOM     68  C   UNL A   1      44.676  33.675  30.008  1.00  0.00     0.009 A 
ATOM     69  C   UNL A   1      44.400  33.028  32.324  1.00  0.00     0.009 A 
ATOM     70  C   UNL A   1      44.889  34.996  30.408  1.00  0.00     0.001 A 
ATOM     71  C   UNL A   1      44.588  34.352  32.718  1.00  0.00     0.001 A 
ATOM     72  C   UNL A   1      44.840  35.334  31.760  1.00  0.00     0.000 A 
ENDBRANCH  54  67
ENDBRANCH  28  29
ENDBRANCH  20  23
ENDBRANCH  18  19
ENDBRANCH  17  18
ENDBRANCH   1  17
TORSDOF 14
ENDMDL
