MODEL 1
REMARK VINA RESULT:     -10.8      0.000      0.000
REMARK SMILES [NH3+][C@@H]1C=C[C@H](C(=O)N(CC(=O)NCCCCNC(=O)c2ccc(-c3c4nc(c(-c5ccccc5)c5ccc([nH]5)c(-c5ccccc5)c5nc(c(-c6ccccc6)c6ccc3[nH]6)C=C5)C=C4)cc2)c2ccccc2)C1
REMARK SMILES IDX 13 1 12 2 10 3 11 4 9 6 8 7 6 8 7 9 5 10 2 11 3 12 74 13
REMARK SMILES IDX 4 14 1 15 68 19 69 20 73 21 70 22 72 23 71 24 14 25 15 26
REMARK SMILES IDX 16 27 17 28 18 29 19 31 20 32 21 33 67 34 22 35 66 36 23 37
REMARK SMILES IDX 24 38 25 39 60 40 26 41 65 42 59 43 61 44 27 45 64 46 58 47
REMARK SMILES IDX 57 48 28 50 50 51 35 52 49 53 36 54 39 55 48 56 62 57 37 58
REMARK SMILES IDX 38 59 47 61 63 62 40 63 29 64 30 65 34 66 31 67 33 68 32 69
REMARK SMILES IDX 51 70 52 71 56 72 53 73 55 74 54 75 41 76 42 77 46 78 43 79
REMARK SMILES IDX 45 80 44 81
REMARK H PARENT 12 5 1 16 1 17 1 18 17 30 61 49 39 60
REMARK Flexibility Score: inf
ROOT
ATOM      1  C   UNL A   1      32.160  26.095  26.412  1.00  0.00     0.116 C 
ENDROOT
BRANCH   1   2
ATOM      2  N   UNL A   1      31.160  25.102  26.717  1.00  0.00    -0.355 N 
ATOM      3  C   UNL A   1      31.333  23.786  27.024  1.00  0.00     0.240 C 
ATOM      4  O   UNL A   1      30.339  23.170  27.421  1.00  0.00    -0.273 OA
ATOM      5  H   UNL A   1      30.228  25.418  26.703  1.00  0.00     0.163 HD
BRANCH   3   6
ATOM      6  C   UNL A   1      32.722  23.123  27.024  1.00  0.00     0.225 C 
BRANCH   6   7
ATOM      7  N   UNL A   1      33.245  22.419  25.838  1.00  0.00    -0.303 N 
BRANCH   7   8
ATOM      8  C   UNL A   1      32.433  21.802  24.872  1.00  0.00     0.234 C 
ATOM      9  O   UNL A   1      31.916  20.693  25.083  1.00  0.00    -0.274 OA
BRANCH   8  10
ATOM     10  C   UNL A   1      32.075  22.456  23.501  1.00  0.00     0.108 C 
ATOM     11  C   UNL A   1      32.914  24.484  22.357  1.00  0.00     0.205 C 
ATOM     12  C   UNL A   1      31.515  24.648  22.852  1.00  0.00     0.033 C 
ATOM     13  C   UNL A   1      33.243  23.013  22.680  1.00  0.00     0.087 C 
ATOM     14  C   UNL A   1      31.050  23.548  23.455  1.00  0.00    -0.012 C 
BRANCH  11  15
ATOM     15  N   UNL A   1      33.817  25.394  23.036  1.00  0.00    -0.352 N 
ATOM     16  H   UNL A   1      33.416  25.664  23.934  1.00  0.00     0.345 HD
ATOM     17  H   UNL A   1      33.957  26.226  22.462  1.00  0.00     0.345 HD
ATOM     18  H   UNL A   1      34.713  24.932  23.189  1.00  0.00     0.345 HD
ENDBRANCH  11  15
ENDBRANCH   8  10
ENDBRANCH   7   8
BRANCH   7  19
ATOM     19  C   UNL A   1      34.691  22.444  25.670  1.00  0.00     0.044 A 
ATOM     20  C   UNL A   1      35.433  21.286  25.381  1.00  0.00     0.026 A 
ATOM     21  C   UNL A   1      35.419  23.630  25.853  1.00  0.00     0.026 A 
ATOM     22  C   UNL A   1      36.829  21.312  25.261  1.00  0.00     0.002 A 
ATOM     23  C   UNL A   1      36.818  23.657  25.756  1.00  0.00     0.002 A 
ATOM     24  C   UNL A   1      37.523  22.498  25.457  1.00  0.00     0.000 A 
ENDBRANCH   7  19
ENDBRANCH   6   7
ENDBRANCH   3   6
ENDBRANCH   1   2
BRANCH   1  25
ATOM     25  C   UNL A   1      31.581  27.473  26.140  1.00  0.00     0.023 C 
BRANCH  25  26
ATOM     26  C   UNL A   1      32.622  28.583  26.059  1.00  0.00     0.023 C 
BRANCH  26  27
ATOM     27  C   UNL A   1      33.436  28.796  27.328  1.00  0.00     0.116 C 
BRANCH  27  28
ATOM     28  N   UNL A   1      33.502  30.187  27.755  1.00  0.00    -0.352 N 
ATOM     29  C   UNL A   1      34.576  30.858  28.296  1.00  0.00     0.251 C 
ATOM     30  H   UNL A   1      32.677  30.712  27.644  1.00  0.00     0.163 HD
ATOM     31  O   UNL A   1      34.474  32.010  28.688  1.00  0.00    -0.269 OA
BRANCH  29  32
ATOM     32  C   UNL A   1      35.853  30.131  28.434  1.00  0.00     0.039 A 
ATOM     33  C   UNL A   1      36.754  30.141  27.369  1.00  0.00     0.014 A 
ATOM     34  C   UNL A   1      36.191  29.538  29.654  1.00  0.00     0.014 A 
ATOM     35  C   UNL A   1      38.035  29.624  27.554  1.00  0.00     0.010 A 
ATOM     36  C   UNL A   1      37.492  29.098  29.859  1.00  0.00     0.010 A 
ATOM     37  C   UNL A   1      38.428  29.140  28.812  1.00  0.00    -0.014 A 
BRANCH  37  38
ATOM     38  C   UNL A   1      39.813  28.672  29.063  1.00  0.00     0.031 A 
ATOM     39  C   UNL A   1      40.822  29.613  29.656  1.00  0.00     0.074 A 
ATOM     40  C   UNL A   1      40.182  27.433  28.684  1.00  0.00     0.049 A 
ATOM     41  N   UNL A   1      42.099  29.425  29.873  1.00  0.00    -0.248 NA
ATOM     42  C   UNL A   1      40.340  30.954  30.024  1.00  0.00     0.031 C 
ATOM     43  C   UNL A   1      39.310  26.441  28.051  1.00  0.00     0.029 A 
ATOM     44  N   UNL A   1      41.397  26.801  28.768  1.00  0.00    -0.354 N 
ATOM     45  C   UNL A   1      42.573  30.625  30.385  1.00  0.00     0.074 A 
ATOM     46  C   UNL A   1      41.462  31.553  30.391  1.00  0.00     0.031 C 
ATOM     47  C   UNL A   1      40.014  25.319  27.825  1.00  0.00     0.029 A 
ATOM     48  C   UNL A   1      41.391  25.525  28.260  1.00  0.00     0.049 A 
ATOM     49  H   UNL A   1      42.198  27.223  29.155  1.00  0.00     0.167 HD
ATOM     50  C   UNL A   1      43.815  30.926  30.832  1.00  0.00     0.031 A 
ATOM     51  C   UNL A   1      42.385  24.624  28.151  1.00  0.00     0.031 A 
ATOM     52  C   UNL A   1      44.916  30.002  30.836  1.00  0.00     0.049 A 
ATOM     53  C   UNL A   1      43.756  24.979  28.653  1.00  0.00     0.074 A 
ATOM     54  C   UNL A   1      46.199  30.193  31.315  1.00  0.00     0.029 A 
ATOM     55  N   UNL A   1      44.861  28.710  30.336  1.00  0.00    -0.354 N 
ATOM     56  N   UNL A   1      44.174  26.097  29.195  1.00  0.00    -0.248 NA
ATOM     57  C   UNL A   1      44.791  23.941  28.540  1.00  0.00     0.031 C 
ATOM     58  C   UNL A   1      46.935  29.029  31.066  1.00  0.00     0.029 A 
ATOM     59  C   UNL A   1      46.094  28.097  30.479  1.00  0.00     0.049 A 
ATOM     60  H   UNL A   1      44.064  28.291  29.938  1.00  0.00     0.167 HD
ATOM     61  C   UNL A   1      45.511  25.891  29.509  1.00  0.00     0.074 A 
ATOM     62  C   UNL A   1      45.830  24.535  29.112  1.00  0.00     0.031 C 
ATOM     63  C   UNL A   1      46.394  26.747  30.077  1.00  0.00     0.031 A 
BRANCH  50  64
ATOM     64  C   UNL A   1      44.037  32.317  31.352  1.00  0.00    -0.014 A 
ATOM     65  C   UNL A   1      44.466  33.350  30.502  1.00  0.00     0.009 A 
ATOM     66  C   UNL A   1      43.808  32.605  32.706  1.00  0.00     0.009 A 
ATOM     67  C   UNL A   1      44.702  34.630  31.006  1.00  0.00     0.001 A 
ATOM     68  C   UNL A   1      44.015  33.893  33.201  1.00  0.00     0.001 A 
ATOM     69  C   UNL A   1      44.474  34.902  32.354  1.00  0.00     0.000 A 
ENDBRANCH  50  64
BRANCH  51  70
ATOM     70  C   UNL A   1      42.115  23.290  27.554  1.00  0.00    -0.014 A 
ATOM     71  C   UNL A   1      42.456  23.026  26.218  1.00  0.00     0.009 A 
ATOM     72  C   UNL A   1      41.520  22.273  28.316  1.00  0.00     0.009 A 
ATOM     73  C   UNL A   1      42.184  21.779  25.652  1.00  0.00     0.001 A 
ATOM     74  C   UNL A   1      41.275  21.018  27.755  1.00  0.00     0.001 A 
ATOM     75  C   UNL A   1      41.599  20.775  26.421  1.00  0.00     0.000 A 
ENDBRANCH  51  70
BRANCH  63  76
ATOM     76  C   UNL A   1      47.781  26.233  30.331  1.00  0.00    -0.014 A 
ATOM     77  C   UNL A   1      48.755  26.235  29.321  1.00  0.00     0.009 A 
ATOM     78  C   UNL A   1      48.132  25.785  31.615  1.00  0.00     0.009 A 
ATOM     79  C   UNL A   1      50.045  25.771  29.585  1.00  0.00     0.001 A 
ATOM     80  C   UNL A   1      49.429  25.348  31.883  1.00  0.00     0.001 A 
ATOM     81  C   UNL A   1      50.382  25.332  30.866  1.00  0.00     0.000 A 
ENDBRANCH  63  76
ENDBRANCH  37  38
ENDBRANCH  29  32
ENDBRANCH  27  28
ENDBRANCH  26  27
ENDBRANCH  25  26
ENDBRANCH   1  25
TORSDOF 16
ENDMDL
MODEL 2
REMARK VINA RESULT:     -10.8      1.100      2.284
REMARK SMILES [NH3+][C@@H]1C=C[C@H](C(=O)N(CC(=O)NCCCCNC(=O)c2ccc(-c3c4nc(c(-c5ccccc5)c5ccc([nH]5)c(-c5ccccc5)c5nc(c(-c6ccccc6)c6ccc3[nH]6)C=C5)C=C4)cc2)c2ccccc2)C1
REMARK SMILES IDX 13 1 12 2 10 3 11 4 9 6 8 7 6 8 7 9 5 10 2 11 3 12 74 13
REMARK SMILES IDX 4 14 1 15 68 19 69 20 73 21 70 22 72 23 71 24 14 25 15 26
REMARK SMILES IDX 16 27 17 28 18 29 19 31 20 32 21 33 67 34 22 35 66 36 23 37
REMARK SMILES IDX 24 38 25 39 60 40 26 41 65 42 59 43 61 44 27 45 64 46 58 47
REMARK SMILES IDX 57 48 28 50 50 51 35 52 49 53 36 54 39 55 48 56 62 57 37 58
REMARK SMILES IDX 38 59 47 61 63 62 40 63 29 64 30 65 34 66 31 67 33 68 32 69
REMARK SMILES IDX 51 70 52 71 56 72 53 73 55 74 54 75 41 76 42 77 46 78 43 79
REMARK SMILES IDX 45 80 44 81
REMARK H PARENT 12 5 1 16 1 17 1 18 17 30 61 49 39 60
REMARK Flexibility Score: inf
ROOT
ATOM      1  C   UNL A   1      31.992  26.183  26.156  1.00  0.00     0.116 C 
ENDROOT
BRANCH   1   2
ATOM      2  N   UNL A   1      31.180  25.193  26.817  1.00  0.00    -0.355 N 
ATOM      3  C   UNL A   1      31.029  23.874  26.513  1.00  0.00     0.240 C 
ATOM      4  O   UNL A   1      30.416  23.178  27.328  1.00  0.00    -0.273 OA
ATOM      5  H   UNL A   1      30.667  25.513  27.595  1.00  0.00     0.163 HD
BRANCH   3   6
ATOM      6  C   UNL A   1      31.711  23.234  25.291  1.00  0.00     0.225 C 
BRANCH   6   7
ATOM      7  N   UNL A   1      32.918  22.395  25.426  1.00  0.00    -0.303 N 
BRANCH   7   8
ATOM      8  C   UNL A   1      34.096  22.817  26.063  1.00  0.00     0.234 C 
ATOM      9  O   UNL A   1      34.200  22.796  27.300  1.00  0.00    -0.274 OA
BRANCH   8  10
ATOM     10  C   UNL A   1      35.369  23.293  25.295  1.00  0.00     0.108 C 
ATOM     11  C   UNL A   1      37.408  22.100  24.558  1.00  0.00     0.205 C 
ATOM     12  C   UNL A   1      37.677  23.045  25.682  1.00  0.00     0.033 C 
ATOM     13  C   UNL A   1      35.922  22.342  24.227  1.00  0.00     0.087 C 
ATOM     14  C   UNL A   1      36.582  23.706  26.072  1.00  0.00    -0.012 C 
BRANCH  11  15
ATOM     15  N   UNL A   1      37.647  20.727  24.962  1.00  0.00    -0.352 N 
ATOM     16  H   UNL A   1      36.967  20.459  25.673  1.00  0.00     0.345 HD
ATOM     17  H   UNL A   1      38.590  20.644  25.344  1.00  0.00     0.345 HD
ATOM     18  H   UNL A   1      37.553  20.113  24.153  1.00  0.00     0.345 HD
ENDBRANCH  11  15
ENDBRANCH   8  10
ENDBRANCH   7   8
BRANCH   7  19
ATOM     19  C   UNL A   1      32.812  21.040  24.908  1.00  0.00     0.044 A 
ATOM     20  C   UNL A   1      32.423  20.770  23.584  1.00  0.00     0.026 A 
ATOM     21  C   UNL A   1      33.036  19.929  25.738  1.00  0.00     0.026 A 
ATOM     22  C   UNL A   1      32.284  19.460  23.106  1.00  0.00     0.002 A 
ATOM     23  C   UNL A   1      32.877  18.617  25.269  1.00  0.00     0.002 A 
ATOM     24  C   UNL A   1      32.504  18.382  23.952  1.00  0.00     0.000 A 
ENDBRANCH   7  19
ENDBRANCH   6   7
ENDBRANCH   3   6
ENDBRANCH   1   2
BRANCH   1  25
ATOM     25  C   UNL A   1      31.528  27.609  26.403  1.00  0.00     0.023 C 
BRANCH  25  26
ATOM     26  C   UNL A   1      32.194  28.283  27.597  1.00  0.00     0.023 C 
BRANCH  26  27
ATOM     27  C   UNL A   1      33.490  29.017  27.281  1.00  0.00     0.116 C 
BRANCH  27  28
ATOM     28  N   UNL A   1      33.548  30.366  27.828  1.00  0.00    -0.352 N 
ATOM     29  C   UNL A   1      34.608  30.984  28.452  1.00  0.00     0.251 C 
ATOM     30  H   UNL A   1      32.726  30.902  27.742  1.00  0.00     0.163 HD
ATOM     31  O   UNL A   1      34.498  32.098  28.939  1.00  0.00    -0.269 OA
BRANCH  29  32
ATOM     32  C   UNL A   1      35.880  30.242  28.559  1.00  0.00     0.039 A 
ATOM     33  C   UNL A   1      36.760  30.253  27.475  1.00  0.00     0.014 A 
ATOM     34  C   UNL A   1      36.237  29.636  29.766  1.00  0.00     0.014 A 
ATOM     35  C   UNL A   1      38.039  29.722  27.631  1.00  0.00     0.010 A 
ATOM     36  C   UNL A   1      37.537  29.182  29.942  1.00  0.00     0.010 A 
ATOM     37  C   UNL A   1      38.452  29.223  28.877  1.00  0.00    -0.014 A 
BRANCH  37  38
ATOM     38  C   UNL A   1      39.837  28.740  29.096  1.00  0.00     0.031 A 
ATOM     39  C   UNL A   1      40.875  29.674  29.649  1.00  0.00     0.074 A 
ATOM     40  C   UNL A   1      40.179  27.491  28.723  1.00  0.00     0.049 A 
ATOM     41  N   UNL A   1      42.154  29.471  29.835  1.00  0.00    -0.248 NA
ATOM     42  C   UNL A   1      40.421  31.026  30.014  1.00  0.00     0.031 C 
ATOM     43  C   UNL A   1      39.277  26.503  28.126  1.00  0.00     0.029 A 
ATOM     44  N   UNL A   1      41.388  26.843  28.782  1.00  0.00    -0.354 N 
ATOM     45  C   UNL A   1      42.658  30.671  30.318  1.00  0.00     0.074 A 
ATOM     46  C   UNL A   1      41.560  31.613  30.342  1.00  0.00     0.031 C 
ATOM     47  C   UNL A   1      39.959  25.369  27.895  1.00  0.00     0.029 A 
ATOM     48  C   UNL A   1      41.350  25.561  28.290  1.00  0.00     0.049 A 
ATOM     49  H   UNL A   1      42.204  27.259  29.142  1.00  0.00     0.167 HD
ATOM     50  C   UNL A   1      43.915  30.959  30.728  1.00  0.00     0.031 A 
ATOM     51  C   UNL A   1      42.329  24.646  28.166  1.00  0.00     0.031 A 
ATOM     52  C   UNL A   1      45.004  30.020  30.714  1.00  0.00     0.049 A 
ATOM     53  C   UNL A   1      43.718  24.988  28.627  1.00  0.00     0.074 A 
ATOM     54  C   UNL A   1      46.302  30.200  31.156  1.00  0.00     0.029 A 
ATOM     55  N   UNL A   1      44.918  28.723  30.232  1.00  0.00    -0.354 N 
ATOM     56  N   UNL A   1      44.165  26.106  29.143  1.00  0.00    -0.248 NA
ATOM     57  C   UNL A   1      44.735  23.934  28.498  1.00  0.00     0.031 C 
ATOM     58  C   UNL A   1      47.015  29.023  30.902  1.00  0.00     0.029 A 
ATOM     59  C   UNL A   1      46.146  28.095  30.349  1.00  0.00     0.049 A 
ATOM     60  H   UNL A   1      44.105  28.311  29.861  1.00  0.00     0.167 HD
ATOM     61  C   UNL A   1      45.507  25.886  29.423  1.00  0.00     0.074 A 
ATOM     62  C   UNL A   1      45.797  24.521  29.034  1.00  0.00     0.031 C 
ATOM     63  C   UNL A   1      46.417  26.737  29.956  1.00  0.00     0.031 A 
BRANCH  50  64
ATOM     64  C   UNL A   1      44.170  32.354  31.224  1.00  0.00    -0.014 A 
ATOM     65  C   UNL A   1      44.060  32.670  32.589  1.00  0.00     0.009 A 
ATOM     66  C   UNL A   1      44.532  33.364  30.321  1.00  0.00     0.009 A 
ATOM     67  C   UNL A   1      44.266  33.977  33.031  1.00  0.00     0.001 A 
ATOM     68  C   UNL A   1      44.767  34.665  30.770  1.00  0.00     0.001 A 
ATOM     69  C   UNL A   1      44.622  34.974  32.123  1.00  0.00     0.000 A 
ENDBRANCH  50  64
BRANCH  51  70
ATOM     70  C   UNL A   1      42.025  23.308  27.593  1.00  0.00    -0.014 A 
ATOM     71  C   UNL A   1      42.148  23.080  26.213  1.00  0.00     0.009 A 
ATOM     72  C   UNL A   1      41.616  22.252  28.422  1.00  0.00     0.009 A 
ATOM     73  C   UNL A   1      41.843  21.829  25.673  1.00  0.00     0.001 A 
ATOM     74  C   UNL A   1      41.339  20.994  27.882  1.00  0.00     0.001 A 
ATOM     75  C   UNL A   1      41.444  20.787  26.508  1.00  0.00     0.000 A 
ENDBRANCH  51  70
BRANCH  63  76
ATOM     76  C   UNL A   1      47.804  26.207  30.179  1.00  0.00    -0.014 A 
ATOM     77  C   UNL A   1      48.750  26.182  29.142  1.00  0.00     0.009 A 
ATOM     78  C   UNL A   1      48.183  25.771  31.459  1.00  0.00     0.009 A 
ATOM     79  C   UNL A   1      50.040  25.704  29.378  1.00  0.00     0.001 A 
ATOM     80  C   UNL A   1      49.481  25.318  31.697  1.00  0.00     0.001 A 
ATOM     81  C   UNL A   1      50.406  25.277  30.655  1.00  0.00     0.000 A 
ENDBRANCH  63  76
ENDBRANCH  37  38
ENDBRANCH  29  32
ENDBRANCH  27  28
ENDBRANCH  26  27
ENDBRANCH  25  26
ENDBRANCH   1  25
TORSDOF 16
ENDMDL
MODEL 3
REMARK VINA RESULT:     -10.8      2.017      7.400
REMARK SMILES [NH3+][C@@H]1C=C[C@H](C(=O)N(CC(=O)NCCCCNC(=O)c2ccc(-c3c4nc(c(-c5ccccc5)c5ccc([nH]5)c(-c5ccccc5)c5nc(c(-c6ccccc6)c6ccc3[nH]6)C=C5)C=C4)cc2)c2ccccc2)C1
REMARK SMILES IDX 13 1 12 2 10 3 11 4 9 6 8 7 6 8 7 9 5 10 2 11 3 12 74 13
REMARK SMILES IDX 4 14 1 15 68 19 69 20 73 21 70 22 72 23 71 24 14 25 15 26
REMARK SMILES IDX 16 27 17 28 18 29 19 31 20 32 21 33 67 34 22 35 66 36 23 37
REMARK SMILES IDX 24 38 25 39 60 40 26 41 65 42 59 43 61 44 27 45 64 46 58 47
REMARK SMILES IDX 57 48 28 50 50 51 35 52 49 53 36 54 39 55 48 56 62 57 37 58
REMARK SMILES IDX 38 59 47 61 63 62 40 63 29 64 30 65 34 66 31 67 33 68 32 69
REMARK SMILES IDX 51 70 52 71 56 72 53 73 55 74 54 75 41 76 42 77 46 78 43 79
REMARK SMILES IDX 45 80 44 81
REMARK H PARENT 12 5 1 16 1 17 1 18 17 30 61 49 39 60
REMARK Flexibility Score: inf
ROOT
ATOM      1  C   UNL A   1      35.517  22.168  24.236  1.00  0.00     0.116 C 
ENDROOT
BRANCH   1   2
ATOM      2  N   UNL A   1      35.028  23.083  23.235  1.00  0.00    -0.355 N 
ATOM      3  C   UNL A   1      34.258  24.194  23.400  1.00  0.00     0.240 C 
ATOM      4  O   UNL A   1      34.108  24.923  22.414  1.00  0.00    -0.273 OA
ATOM      5  H   UNL A   1      35.287  22.877  22.307  1.00  0.00     0.163 HD
BRANCH   3   6
ATOM      6  C   UNL A   1      33.716  24.615  24.778  1.00  0.00     0.225 C 
BRANCH   6   7
ATOM      7  N   UNL A   1      32.479  25.408  24.915  1.00  0.00    -0.303 N 
BRANCH   7   8
ATOM      8  C   UNL A   1      31.251  25.047  24.339  1.00  0.00     0.234 C 
ATOM      9  O   UNL A   1      30.664  24.005  24.678  1.00  0.00    -0.274 OA
BRANCH   8  10
ATOM     10  C   UNL A   1      30.502  25.920  23.283  1.00  0.00     0.108 C 
ATOM     11  C   UNL A   1      30.724  28.298  22.636  1.00  0.00     0.205 C 
ATOM     12  C   UNL A   1      29.457  28.026  23.376  1.00  0.00     0.033 C 
ATOM     13  C   UNL A   1      31.358  26.902  22.475  1.00  0.00     0.087 C 
ATOM     14  C   UNL A   1      29.323  26.738  23.712  1.00  0.00    -0.012 C 
BRANCH  11  15
ATOM     15  N   UNL A   1      31.586  29.191  23.388  1.00  0.00    -0.352 N 
ATOM     16  H   UNL A   1      32.121  29.771  22.742  1.00  0.00     0.345 HD
ATOM     17  H   UNL A   1      32.227  28.642  23.962  1.00  0.00     0.345 HD
ATOM     18  H   UNL A   1      31.017  29.787  23.989  1.00  0.00     0.345 HD
ENDBRANCH  11  15
ENDBRANCH   8  10
ENDBRANCH   7   8
BRANCH   7  19
ATOM     19  C   UNL A   1      32.573  26.593  25.755  1.00  0.00     0.044 A 
ATOM     20  C   UNL A   1      31.524  27.001  26.598  1.00  0.00     0.026 A 
ATOM     21  C   UNL A   1      33.706  27.422  25.711  1.00  0.00     0.026 A 
ATOM     22  C   UNL A   1      31.608  28.166  27.372  1.00  0.00     0.002 A 
ATOM     23  C   UNL A   1      33.784  28.600  26.468  1.00  0.00     0.002 A 
ATOM     24  C   UNL A   1      32.737  28.971  27.301  1.00  0.00     0.000 A 
ENDBRANCH   7  19
ENDBRANCH   6   7
ENDBRANCH   3   6
ENDBRANCH   1   2
BRANCH   1  25
ATOM     25  C   UNL A   1      37.033  22.073  24.279  1.00  0.00     0.023 C 
BRANCH  25  26
ATOM     26  C   UNL A   1      37.559  20.754  24.833  1.00  0.00     0.023 C 
BRANCH  26  27
ATOM     27  C   UNL A   1      38.736  20.883  25.791  1.00  0.00     0.116 C 
BRANCH  27  28
ATOM     28  N   UNL A   1      39.678  19.774  25.713  1.00  0.00    -0.352 N 
ATOM     29  C   UNL A   1      41.016  19.774  26.035  1.00  0.00     0.251 C 
ATOM     30  H   UNL A   1      39.312  18.919  25.389  1.00  0.00     0.163 HD
ATOM     31  O   UNL A   1      41.716  18.792  25.847  1.00  0.00    -0.269 OA
BRANCH  29  32
ATOM     32  C   UNL A   1      41.602  21.017  26.576  1.00  0.00     0.039 A 
ATOM     33  C   UNL A   1      42.093  21.974  25.687  1.00  0.00     0.014 A 
ATOM     34  C   UNL A   1      41.560  21.268  27.950  1.00  0.00     0.014 A 
ATOM     35  C   UNL A   1      42.471  23.225  26.172  1.00  0.00     0.010 A 
ATOM     36  C   UNL A   1      41.860  22.541  28.418  1.00  0.00     0.010 A 
ATOM     37  C   UNL A   1      42.315  23.533  27.534  1.00  0.00    -0.014 A 
BRANCH  37  38
ATOM     38  C   UNL A   1      42.619  24.885  28.060  1.00  0.00     0.031 A 
ATOM     39  C   UNL A   1      44.018  25.222  28.490  1.00  0.00     0.074 A 
ATOM     40  C   UNL A   1      41.625  25.781  28.225  1.00  0.00     0.049 A 
ATOM     41  N   UNL A   1      44.469  26.315  29.052  1.00  0.00    -0.248 NA
ATOM     42  C   UNL A   1      45.039  24.181  28.292  1.00  0.00     0.031 C 
ATOM     43  C   UNL A   1      40.216  25.559  27.893  1.00  0.00     0.029 A 
ATOM     44  N   UNL A   1      41.651  27.058  28.726  1.00  0.00    -0.354 N 
ATOM     45  C   UNL A   1      45.817  26.085  29.289  1.00  0.00     0.074 A 
ATOM     46  C   UNL A   1      46.098  24.731  28.866  1.00  0.00     0.031 C 
ATOM     47  C   UNL A   1      39.518  26.670  28.180  1.00  0.00     0.029 A 
ATOM     48  C   UNL A   1      40.419  27.666  28.748  1.00  0.00     0.049 A 
ATOM     49  H   UNL A   1      42.475  27.496  29.040  1.00  0.00     0.167 HD
ATOM     50  C   UNL A   1      46.746  26.931  29.793  1.00  0.00     0.031 A 
ATOM     51  C   UNL A   1      40.057  28.886  29.185  1.00  0.00     0.031 A 
ATOM     52  C   UNL A   1      46.470  28.281  30.204  1.00  0.00     0.049 A 
ATOM     53  C   UNL A   1      41.105  29.809  29.742  1.00  0.00     0.074 A 
ATOM     54  C   UNL A   1      47.352  29.234  30.679  1.00  0.00     0.029 A 
ATOM     55  N   UNL A   1      45.213  28.867  30.187  1.00  0.00    -0.354 N 
ATOM     56  N   UNL A   1      42.389  29.600  29.899  1.00  0.00    -0.248 NA
ATOM     57  C   UNL A   1      40.653  31.141  30.169  1.00  0.00     0.031 C 
ATOM     58  C   UNL A   1      46.621  30.386  30.990  1.00  0.00     0.029 A 
ATOM     59  C   UNL A   1      45.294  30.165  30.660  1.00  0.00     0.049 A 
ATOM     60  H   UNL A   1      44.388  28.425  29.884  1.00  0.00     0.167 HD
ATOM     61  C   UNL A   1      42.904  30.780  30.421  1.00  0.00     0.074 A 
ATOM     62  C   UNL A   1      41.795  31.705  30.537  1.00  0.00     0.031 C 
ATOM     63  C   UNL A   1      44.180  31.071  30.770  1.00  0.00     0.031 A 
BRANCH  50  64
ATOM     64  C   UNL A   1      48.148  26.408  29.924  1.00  0.00    -0.014 A 
ATOM     65  C   UNL A   1      48.582  25.783  31.105  1.00  0.00     0.009 A 
ATOM     66  C   UNL A   1      49.046  26.533  28.853  1.00  0.00     0.009 A 
ATOM     67  C   UNL A   1      49.898  25.333  31.225  1.00  0.00     0.001 A 
ATOM     68  C   UNL A   1      50.353  26.055  28.965  1.00  0.00     0.001 A 
ATOM     69  C   UNL A   1      50.782  25.467  30.155  1.00  0.00     0.000 A 
ENDBRANCH  50  64
BRANCH  51  70
ATOM     70  C   UNL A   1      38.636  29.313  29.099  1.00  0.00    -0.014 A 
ATOM     71  C   UNL A   1      37.783  29.178  30.205  1.00  0.00     0.009 A 
ATOM     72  C   UNL A   1      38.126  29.861  27.912  1.00  0.00     0.009 A 
ATOM     73  C   UNL A   1      36.443  29.560  30.117  1.00  0.00     0.001 A 
ATOM     74  C   UNL A   1      36.792  30.269  27.836  1.00  0.00     0.001 A 
ATOM     75  C   UNL A   1      35.950  30.110  28.935  1.00  0.00     0.000 A 
ENDBRANCH  51  70
BRANCH  63  76
ATOM     76  C   UNL A   1      44.453  32.456  31.282  1.00  0.00    -0.014 A 
ATOM     77  C   UNL A   1      44.404  32.749  32.654  1.00  0.00     0.009 A 
ATOM     78  C   UNL A   1      44.810  33.472  30.380  1.00  0.00     0.009 A 
ATOM     79  C   UNL A   1      44.681  34.039  33.109  1.00  0.00     0.001 A 
ATOM     80  C   UNL A   1      45.112  34.753  30.841  1.00  0.00     0.001 A 
ATOM     81  C   UNL A   1      45.040  35.039  32.203  1.00  0.00     0.000 A 
ENDBRANCH  63  76
ENDBRANCH  37  38
ENDBRANCH  29  32
ENDBRANCH  27  28
ENDBRANCH  26  27
ENDBRANCH  25  26
ENDBRANCH   1  25
TORSDOF 16
ENDMDL
