MODEL 1
REMARK VINA RESULT:     -14.3      0.000      0.000
REMARK SMILES Cc1ccccc1C(=O)Nc1ccc(N2CCC(n3c(C)nc4cccnc43)CC2)c(C(=O)NCCCCNC(=O)c2ccc(-c3c4nc(c(-c5ccccc5)c5ccc([nH]5)c(-c5ccccc5)c5nc(c(-c6ccccc6)c6ccc3[nH]6)C=C5)C=C4)cc2)c1
REMARK SMILES IDX 36 1 35 2 34 3 32 4 33 5 31 7 11 8 12 9 90 10 13 11 14 12
REMARK SMILES IDX 10 13 8 14 9 15 7 17 1 18 2 19 3 20 4 21 6 22 5 23 15 24
REMARK SMILES IDX 16 25 30 26 17 27 29 28 18 29 19 30 20 31 28 32 21 33 22 34
REMARK SMILES IDX 23 35 27 36 24 37 26 38 25 39 37 40 38 41 39 42 40 43 41 45
REMARK SMILES IDX 42 46 43 47 89 48 44 49 88 50 45 51 46 52 47 53 82 54 48 55
REMARK SMILES IDX 87 56 81 57 83 58 49 59 86 60 80 61 79 62 50 64 72 65 57 66
REMARK SMILES IDX 71 67 58 68 61 69 70 70 84 71 59 72 60 73 69 75 85 76 62 77
REMARK SMILES IDX 51 78 52 79 56 80 53 81 55 82 54 83 73 84 74 85 78 86 75 87
REMARK SMILES IDX 77 88 76 89 63 90 64 91 68 92 65 93 67 94 66 95
REMARK H PARENT 34 6 10 16 39 44 83 63 61 74
REMARK Flexibility Score: inf
ROOT
ATOM      1  C   UNL A   1      34.925  30.602  27.910  1.00  0.00     0.023 C 
ENDROOT
BRANCH   1   2
ATOM      2  C   UNL A   1      34.716  29.298  27.146  1.00  0.00     0.116 C 
BRANCH   2   3
ATOM      3  N   UNL A   1      33.580  28.446  27.392  1.00  0.00    -0.352 N 
ATOM      4  C   UNL A   1      32.937  27.611  26.482  1.00  0.00     0.253 C 
ATOM      5  O   UNL A   1      32.070  26.861  26.943  1.00  0.00    -0.269 OA
ATOM      6  H   UNL A   1      33.218  28.455  28.307  1.00  0.00     0.163 HD
BRANCH   4   7
ATOM      7  C   UNL A   1      33.174  27.591  24.979  1.00  0.00     0.065 A 
ATOM      8  C   UNL A   1      32.649  28.760  22.881  1.00  0.00     0.042 A 
ATOM      9  C   UNL A   1      33.419  27.872  22.159  1.00  0.00     0.028 A 
ATOM     10  C   UNL A   1      32.655  28.713  24.284  1.00  0.00     0.042 A 
ATOM     11  C   UNL A   1      33.965  26.782  22.821  1.00  0.00     0.029 A 
ATOM     12  C   UNL A   1      33.723  26.544  24.198  1.00  0.00     0.050 A 
BRANCH   8  13
ATOM     13  N   UNL A   1      31.759  29.630  22.243  1.00  0.00    -0.322 N 
ATOM     14  C   UNL A   1      30.395  29.526  22.031  1.00  0.00     0.255 C 
ATOM     15  O   UNL A   1      29.895  30.317  21.225  1.00  0.00    -0.269 OA
ATOM     16  H   UNL A   1      32.170  30.451  21.887  1.00  0.00     0.170 HD
BRANCH  14  17
ATOM     17  C   UNL A   1      29.459  28.583  22.756  1.00  0.00     0.043 A 
ATOM     18  C   UNL A   1      27.299  30.018  22.789  1.00  0.00     0.045 C 
ATOM     19  C   UNL A   1      28.111  28.802  23.115  1.00  0.00    -0.038 A 
ATOM     20  C   UNL A   1      27.392  27.788  23.793  1.00  0.00     0.004 A 
ATOM     21  C   UNL A   1      27.931  26.524  23.987  1.00  0.00     0.000 A 
ATOM     22  C   UNL A   1      29.970  27.279  22.944  1.00  0.00     0.014 A 
ATOM     23  C   UNL A   1      29.211  26.257  23.529  1.00  0.00     0.001 A 
ENDBRANCH  14  17
ENDBRANCH   8  13
BRANCH  12  24
ATOM     24  N   UNL A   1      33.841  25.209  24.605  1.00  0.00    -0.371 N 
ATOM     25  C   UNL A   1      34.999  24.833  25.404  1.00  0.00     0.118 C 
ATOM     26  C   UNL A   1      32.808  24.285  24.157  1.00  0.00     0.118 C 
ATOM     27  C   UNL A   1      35.324  23.364  25.431  1.00  0.00     0.047 C 
ATOM     28  C   UNL A   1      33.379  22.914  23.880  1.00  0.00     0.047 C 
ATOM     29  C   UNL A   1      34.229  22.373  25.022  1.00  0.00     0.094 C 
BRANCH  29  30
ATOM     30  N   UNL A   1      34.896  21.088  24.752  1.00  0.00    -0.310 N 
ATOM     31  C   UNL A   1      36.230  20.723  24.813  1.00  0.00     0.108 A 
ATOM     32  C   UNL A   1      34.175  19.923  24.592  1.00  0.00     0.160 A 
ATOM     33  C   UNL A   1      37.403  21.624  24.678  1.00  0.00     0.088 C 
ATOM     34  N   UNL A   1      36.351  19.411  24.933  1.00  0.00    -0.232 NA
ATOM     35  C   UNL A   1      35.095  18.901  24.764  1.00  0.00     0.108 A 
ATOM     36  N   UNL A   1      32.856  19.807  24.337  1.00  0.00    -0.237 NA
ATOM     37  C   UNL A   1      34.641  17.583  24.652  1.00  0.00     0.034 A 
ATOM     38  C   UNL A   1      32.470  18.516  24.185  1.00  0.00     0.113 A 
ATOM     39  C   UNL A   1      33.293  17.400  24.327  1.00  0.00     0.022 A 
ENDBRANCH  29  30
ENDBRANCH  12  24
ENDBRANCH   4   7
ENDBRANCH   2   3
ENDBRANCH   1   2
BRANCH   1  40
ATOM     40  C   UNL A   1      33.807  31.636  27.951  1.00  0.00     0.023 C 
BRANCH  40  41
ATOM     41  C   UNL A   1      34.219  33.096  27.916  1.00  0.00     0.116 C 
BRANCH  41  42
ATOM     42  N   UNL A   1      33.598  34.021  28.841  1.00  0.00    -0.352 N 
ATOM     43  C   UNL A   1      33.949  34.301  30.162  1.00  0.00     0.251 C 
ATOM     44  H   UNL A   1      32.825  34.518  28.490  1.00  0.00     0.163 HD
ATOM     45  O   UNL A   1      33.198  34.977  30.837  1.00  0.00    -0.269 OA
BRANCH  43  46
ATOM     46  C   UNL A   1      35.275  33.888  30.735  1.00  0.00     0.039 A 
ATOM     47  C   UNL A   1      36.452  34.243  30.043  1.00  0.00     0.014 A 
ATOM     48  C   UNL A   1      35.385  33.015  31.809  1.00  0.00     0.014 A 
ATOM     49  C   UNL A   1      37.654  33.583  30.307  1.00  0.00     0.010 A 
ATOM     50  C   UNL A   1      36.526  32.306  32.017  1.00  0.00     0.010 A 
ATOM     51  C   UNL A   1      37.634  32.539  31.214  1.00  0.00    -0.014 A 
BRANCH  51  52
ATOM     52  C   UNL A   1      38.678  31.580  31.494  1.00  0.00     0.031 A 
ATOM     53  C   UNL A   1      38.605  30.284  30.813  1.00  0.00     0.074 A 
ATOM     54  C   UNL A   1      39.822  32.151  31.928  1.00  0.00     0.049 A 
ATOM     55  N   UNL A   1      39.438  29.324  30.984  1.00  0.00    -0.248 NA
ATOM     56  C   UNL A   1      37.539  29.966  29.862  1.00  0.00     0.031 C 
ATOM     57  C   UNL A   1      41.212  31.755  31.746  1.00  0.00     0.029 A 
ATOM     58  N   UNL A   1      39.892  33.205  32.833  1.00  0.00    -0.354 N 
ATOM     59  C   UNL A   1      39.236  28.439  29.947  1.00  0.00     0.074 A 
ATOM     60  C   UNL A   1      37.966  28.801  29.370  1.00  0.00     0.031 C 
ATOM     61  C   UNL A   1      41.956  32.347  32.703  1.00  0.00     0.029 A 
ATOM     62  C   UNL A   1      41.014  32.961  33.636  1.00  0.00     0.049 A 
ATOM     63  H   UNL A   1      39.276  33.970  32.896  1.00  0.00     0.167 HD
ATOM     64  C   UNL A   1      40.265  27.628  29.580  1.00  0.00     0.031 A 
ATOM     65  C   UNL A   1      40.819  32.528  34.924  1.00  0.00     0.031 A 
ATOM     66  C   UNL A   1      41.411  27.828  30.467  1.00  0.00     0.049 A 
ATOM     67  C   UNL A   1      41.409  31.165  35.142  1.00  0.00     0.074 A 
ATOM     68  C   UNL A   1      42.570  28.575  30.334  1.00  0.00     0.029 A 
ATOM     69  N   UNL A   1      41.275  27.543  31.820  1.00  0.00    -0.354 N 
ATOM     70  N   UNL A   1      41.410  30.219  34.244  1.00  0.00    -0.248 NA
ATOM     71  C   UNL A   1      42.085  30.793  36.377  1.00  0.00     0.031 C 
ATOM     72  C   UNL A   1      43.090  28.802  31.637  1.00  0.00     0.029 A 
ATOM     73  C   UNL A   1      42.265  28.166  32.553  1.00  0.00     0.049 A 
ATOM     74  H   UNL A   1      40.568  26.974  32.205  1.00  0.00     0.167 HD
ATOM     75  C   UNL A   1      42.111  29.153  34.733  1.00  0.00     0.074 A 
ATOM     76  C   UNL A   1      42.503  29.555  36.072  1.00  0.00     0.031 C 
ATOM     77  C   UNL A   1      42.315  28.020  34.002  1.00  0.00     0.031 A 
BRANCH  64  78
ATOM     78  C   UNL A   1      40.355  26.883  28.270  1.00  0.00    -0.014 A 
ATOM     79  C   UNL A   1      39.706  25.639  28.151  1.00  0.00     0.009 A 
ATOM     80  C   UNL A   1      41.075  27.305  27.140  1.00  0.00     0.009 A 
ATOM     81  C   UNL A   1      39.812  24.846  27.000  1.00  0.00     0.001 A 
ATOM     82  C   UNL A   1      41.204  26.510  25.992  1.00  0.00     0.001 A 
ATOM     83  C   UNL A   1      40.574  25.276  25.923  1.00  0.00     0.000 A 
ENDBRANCH  64  78
BRANCH  65  84
ATOM     84  C   UNL A   1      39.494  32.947  35.493  1.00  0.00    -0.014 A 
ATOM     85  C   UNL A   1      38.534  31.939  35.667  1.00  0.00     0.009 A 
ATOM     86  C   UNL A   1      39.362  34.125  36.248  1.00  0.00     0.009 A 
ATOM     87  C   UNL A   1      37.653  32.003  36.746  1.00  0.00     0.001 A 
ATOM     88  C   UNL A   1      38.397  34.214  37.261  1.00  0.00     0.001 A 
ATOM     89  C   UNL A   1      37.587  33.124  37.552  1.00  0.00     0.000 A 
ENDBRANCH  65  84
BRANCH  77  90
ATOM     90  C   UNL A   1      42.612  26.666  34.594  1.00  0.00    -0.014 A 
ATOM     91  C   UNL A   1      41.682  25.906  35.317  1.00  0.00     0.009 A 
ATOM     92  C   UNL A   1      43.831  26.029  34.276  1.00  0.00     0.009 A 
ATOM     93  C   UNL A   1      41.969  24.605  35.740  1.00  0.00     0.001 A 
ATOM     94  C   UNL A   1      44.096  24.707  34.638  1.00  0.00     0.001 A 
ATOM     95  C   UNL A   1      43.167  24.000  35.387  1.00  0.00     0.000 A 
ENDBRANCH  77  90
ENDBRANCH  51  52
ENDBRANCH  43  46
ENDBRANCH  41  42
ENDBRANCH  40  41
ENDBRANCH   1  40
TORSDOF 15
ENDMDL
MODEL 2
REMARK VINA RESULT:     -14.2      1.269      2.207
REMARK SMILES Cc1ccccc1C(=O)Nc1ccc(N2CCC(n3c(C)nc4cccnc43)CC2)c(C(=O)NCCCCNC(=O)c2ccc(-c3c4nc(c(-c5ccccc5)c5ccc([nH]5)c(-c5ccccc5)c5nc(c(-c6ccccc6)c6ccc3[nH]6)C=C5)C=C4)cc2)c1
REMARK SMILES IDX 36 1 35 2 34 3 32 4 33 5 31 7 11 8 12 9 90 10 13 11 14 12
REMARK SMILES IDX 10 13 8 14 9 15 7 17 1 18 2 19 3 20 4 21 6 22 5 23 15 24
REMARK SMILES IDX 16 25 30 26 17 27 29 28 18 29 19 30 20 31 28 32 21 33 22 34
REMARK SMILES IDX 23 35 27 36 24 37 26 38 25 39 37 40 38 41 39 42 40 43 41 45
REMARK SMILES IDX 42 46 43 47 89 48 44 49 88 50 45 51 46 52 47 53 82 54 48 55
REMARK SMILES IDX 87 56 81 57 83 58 49 59 86 60 80 61 79 62 50 64 72 65 57 66
REMARK SMILES IDX 71 67 58 68 61 69 70 70 84 71 59 72 60 73 69 75 85 76 62 77
REMARK SMILES IDX 51 78 52 79 56 80 53 81 55 82 54 83 73 84 74 85 78 86 75 87
REMARK SMILES IDX 77 88 76 89 63 90 64 91 68 92 65 93 67 94 66 95
REMARK H PARENT 34 6 10 16 39 44 83 63 61 74
REMARK Flexibility Score: inf
ROOT
ATOM      1  C   UNL A   1      34.582  30.460  27.288  1.00  0.00     0.023 C 
ENDROOT
BRANCH   1   2
ATOM      2  C   UNL A   1      33.568  29.629  26.508  1.00  0.00     0.116 C 
BRANCH   2   3
ATOM      3  N   UNL A   1      32.647  28.738  27.167  1.00  0.00    -0.352 N 
ATOM      4  C   UNL A   1      31.836  27.773  26.576  1.00  0.00     0.253 C 
ATOM      5  O   UNL A   1      31.226  27.023  27.346  1.00  0.00    -0.269 OA
ATOM      6  H   UNL A   1      32.585  28.822  28.146  1.00  0.00     0.163 HD
BRANCH   4   7
ATOM      7  C   UNL A   1      31.601  27.609  25.082  1.00  0.00     0.065 A 
ATOM      8  C   UNL A   1      29.929  27.899  23.302  1.00  0.00     0.042 A 
ATOM      9  C   UNL A   1      30.823  27.454  22.350  1.00  0.00     0.028 A 
ATOM     10  C   UNL A   1      30.362  28.121  24.619  1.00  0.00     0.042 A 
ATOM     11  C   UNL A   1      32.055  26.977  22.773  1.00  0.00     0.029 A 
ATOM     12  C   UNL A   1      32.398  26.903  24.148  1.00  0.00     0.050 A 
BRANCH   8  13
ATOM     13  N   UNL A   1      28.566  28.015  23.016  1.00  0.00    -0.322 N 
ATOM     14  C   UNL A   1      27.756  29.134  22.929  1.00  0.00     0.255 C 
ATOM     15  O   UNL A   1      26.536  28.938  22.906  1.00  0.00    -0.269 OA
ATOM     16  H   UNL A   1      28.107  27.161  22.848  1.00  0.00     0.170 HD
BRANCH  14  17
ATOM     17  C   UNL A   1      28.236  30.562  22.784  1.00  0.00     0.043 A 
ATOM     18  C   UNL A   1      27.788  30.940  20.257  1.00  0.00     0.045 C 
ATOM     19  C   UNL A   1      28.279  31.350  21.612  1.00  0.00    -0.038 A 
ATOM     20  C   UNL A   1      28.763  32.678  21.679  1.00  0.00     0.004 A 
ATOM     21  C   UNL A   1      29.062  33.282  22.893  1.00  0.00     0.000 A 
ATOM     22  C   UNL A   1      28.523  31.212  24.006  1.00  0.00     0.014 A 
ATOM     23  C   UNL A   1      28.907  32.558  24.064  1.00  0.00     0.001 A 
ENDBRANCH  14  17
ENDBRANCH   8  13
BRANCH  12  24
ATOM     24  N   UNL A   1      33.367  25.946  24.472  1.00  0.00    -0.371 N 
ATOM     25  C   UNL A   1      34.096  25.307  23.385  1.00  0.00     0.118 C 
ATOM     26  C   UNL A   1      33.541  25.630  25.884  1.00  0.00     0.118 C 
ATOM     27  C   UNL A   1      34.770  24.006  23.727  1.00  0.00     0.047 C 
ATOM     28  C   UNL A   1      33.874  24.170  26.085  1.00  0.00     0.047 C 
ATOM     29  C   UNL A   1      35.018  23.686  25.205  1.00  0.00     0.094 C 
BRANCH  29  30
ATOM     30  N   UNL A   1      35.304  22.244  25.286  1.00  0.00    -0.310 N 
ATOM     31  C   UNL A   1      34.492  21.140  25.084  1.00  0.00     0.108 A 
ATOM     32  C   UNL A   1      36.596  21.770  25.379  1.00  0.00     0.160 A 
ATOM     33  C   UNL A   1      33.013  21.090  25.220  1.00  0.00     0.088 C 
ATOM     34  N   UNL A   1      35.218  20.067  24.818  1.00  0.00    -0.232 NA
ATOM     35  C   UNL A   1      36.518  20.432  25.031  1.00  0.00     0.108 A 
ATOM     36  N   UNL A   1      37.698  22.467  25.723  1.00  0.00    -0.237 NA
ATOM     37  C   UNL A   1      37.697  19.680  25.039  1.00  0.00     0.034 A 
ATOM     38  C   UNL A   1      38.809  21.689  25.768  1.00  0.00     0.113 A 
ATOM     39  C   UNL A   1      38.865  20.334  25.447  1.00  0.00     0.022 A 
ENDBRANCH  29  30
ENDBRANCH  12  24
ENDBRANCH   4   7
ENDBRANCH   2   3
ENDBRANCH   1   2
BRANCH   1  40
ATOM     40  C   UNL A   1      34.094  31.475  28.314  1.00  0.00     0.023 C 
BRANCH  40  41
ATOM     41  C   UNL A   1      34.183  32.939  27.928  1.00  0.00     0.116 C 
BRANCH  41  42
ATOM     42  N   UNL A   1      33.614  33.932  28.815  1.00  0.00    -0.352 N 
ATOM     43  C   UNL A   1      34.021  34.289  30.101  1.00  0.00     0.251 C 
ATOM     44  H   UNL A   1      32.836  34.422  28.463  1.00  0.00     0.163 HD
ATOM     45  O   UNL A   1      33.308  35.020  30.760  1.00  0.00    -0.269 OA
BRANCH  43  46
ATOM     46  C   UNL A   1      35.361  33.887  30.648  1.00  0.00     0.039 A 
ATOM     47  C   UNL A   1      36.519  34.206  29.908  1.00  0.00     0.014 A 
ATOM     48  C   UNL A   1      35.499  33.055  31.751  1.00  0.00     0.014 A 
ATOM     49  C   UNL A   1      37.724  33.547  30.160  1.00  0.00     0.010 A 
ATOM     50  C   UNL A   1      36.641  32.344  31.951  1.00  0.00     0.010 A 
ATOM     51  C   UNL A   1      37.724  32.538  31.106  1.00  0.00    -0.014 A 
BRANCH  51  52
ATOM     52  C   UNL A   1      38.770  31.582  31.390  1.00  0.00     0.031 A 
ATOM     53  C   UNL A   1      38.739  30.310  30.661  1.00  0.00     0.074 A 
ATOM     54  C   UNL A   1      39.890  32.150  31.885  1.00  0.00     0.049 A 
ATOM     55  N   UNL A   1      39.578  29.355  30.829  1.00  0.00    -0.248 NA
ATOM     56  C   UNL A   1      37.712  30.014  29.661  1.00  0.00     0.031 C 
ATOM     57  C   UNL A   1      41.291  31.778  31.741  1.00  0.00     0.029 A 
ATOM     58  N   UNL A   1      39.914  33.172  32.829  1.00  0.00    -0.354 N 
ATOM     59  C   UNL A   1      39.425  28.506  29.755  1.00  0.00     0.074 A 
ATOM     60  C   UNL A   1      38.172  28.872  29.144  1.00  0.00     0.031 C 
ATOM     61  C   UNL A   1      41.992  32.344  32.745  1.00  0.00     0.029 A 
ATOM     62  C   UNL A   1      41.009  32.914  33.663  1.00  0.00     0.049 A 
ATOM     63  H   UNL A   1      39.286  33.928  32.896  1.00  0.00     0.167 HD
ATOM     64  C   UNL A   1      40.477  27.720  29.397  1.00  0.00     0.031 A 
ATOM     65  C   UNL A   1      40.773  32.432  34.927  1.00  0.00     0.031 A 
ATOM     66  C   UNL A   1      41.588  27.901  30.332  1.00  0.00     0.049 A 
ATOM     67  C   UNL A   1      41.372  31.069  35.119  1.00  0.00     0.074 A 
ATOM     68  C   UNL A   1      42.741  28.666  30.269  1.00  0.00     0.029 A 
ATOM     69  N   UNL A   1      41.406  27.567  31.669  1.00  0.00    -0.354 N 
ATOM     70  N   UNL A   1      41.419  30.156  34.188  1.00  0.00    -0.248 NA
ATOM     71  C   UNL A   1      42.008  30.662  36.364  1.00  0.00     0.031 C 
ATOM     72  C   UNL A   1      43.210  28.852  31.597  1.00  0.00     0.029 A 
ATOM     73  C   UNL A   1      42.361  28.175  32.458  1.00  0.00     0.049 A 
ATOM     74  H   UNL A   1      40.694  26.976  32.007  1.00  0.00     0.167 HD
ATOM     75  C   UNL A   1      42.116  29.081  34.665  1.00  0.00     0.074 A 
ATOM     76  C   UNL A   1      42.453  29.440  36.031  1.00  0.00     0.031 C 
ATOM     77  C   UNL A   1      42.360  27.978  33.903  1.00  0.00     0.031 A 
BRANCH  64  78
ATOM     78  C   UNL A   1      40.624  27.023  28.066  1.00  0.00    -0.014 A 
ATOM     79  C   UNL A   1      40.006  25.771  27.884  1.00  0.00     0.009 A 
ATOM     80  C   UNL A   1      41.370  27.500  26.975  1.00  0.00     0.009 A 
ATOM     81  C   UNL A   1      40.165  25.021  26.711  1.00  0.00     0.001 A 
ATOM     82  C   UNL A   1      41.552  26.748  25.805  1.00  0.00     0.001 A 
ATOM     83  C   UNL A   1      40.951  25.505  25.674  1.00  0.00     0.000 A 
ENDBRANCH  64  78
BRANCH  65  84
ATOM     84  C   UNL A   1      39.423  32.815  35.462  1.00  0.00    -0.014 A 
ATOM     85  C   UNL A   1      38.533  31.767  35.739  1.00  0.00     0.009 A 
ATOM     86  C   UNL A   1      39.213  34.049  36.100  1.00  0.00     0.009 A 
ATOM     87  C   UNL A   1      37.650  31.876  36.812  1.00  0.00     0.001 A 
ATOM     88  C   UNL A   1      38.244  34.172  37.106  1.00  0.00     0.001 A 
ATOM     89  C   UNL A   1      37.509  33.064  37.507  1.00  0.00     0.000 A 
ENDBRANCH  65  84
BRANCH  77  90
ATOM     90  C   UNL A   1      42.653  26.607  34.457  1.00  0.00    -0.014 A 
ATOM     91  C   UNL A   1      41.797  25.914  35.324  1.00  0.00     0.009 A 
ATOM     92  C   UNL A   1      43.762  25.888  33.961  1.00  0.00     0.009 A 
ATOM     93  C   UNL A   1      42.058  24.596  35.712  1.00  0.00     0.001 A 
ATOM     94  C   UNL A   1      43.990  24.551  34.293  1.00  0.00     0.001 A 
ATOM     95  C   UNL A   1      43.143  23.910  35.185  1.00  0.00     0.000 A 
ENDBRANCH  77  90
ENDBRANCH  51  52
ENDBRANCH  43  46
ENDBRANCH  41  42
ENDBRANCH  40  41
ENDBRANCH   1  40
TORSDOF 15
ENDMDL
MODEL 3
REMARK VINA RESULT:     -14.0      4.089     10.091
REMARK SMILES Cc1ccccc1C(=O)Nc1ccc(N2CCC(n3c(C)nc4cccnc43)CC2)c(C(=O)NCCCCNC(=O)c2ccc(-c3c4nc(c(-c5ccccc5)c5ccc([nH]5)c(-c5ccccc5)c5nc(c(-c6ccccc6)c6ccc3[nH]6)C=C5)C=C4)cc2)c1
REMARK SMILES IDX 36 1 35 2 34 3 32 4 33 5 31 7 11 8 12 9 90 10 13 11 14 12
REMARK SMILES IDX 10 13 8 14 9 15 7 17 1 18 2 19 3 20 4 21 6 22 5 23 15 24
REMARK SMILES IDX 16 25 30 26 17 27 29 28 18 29 19 30 20 31 28 32 21 33 22 34
REMARK SMILES IDX 23 35 27 36 24 37 26 38 25 39 37 40 38 41 39 42 40 43 41 45
REMARK SMILES IDX 42 46 43 47 89 48 44 49 88 50 45 51 46 52 47 53 82 54 48 55
REMARK SMILES IDX 87 56 81 57 83 58 49 59 86 60 80 61 79 62 50 64 72 65 57 66
REMARK SMILES IDX 71 67 58 68 61 69 70 70 84 71 59 72 60 73 69 75 85 76 62 77
REMARK SMILES IDX 51 78 52 79 56 80 53 81 55 82 54 83 73 84 74 85 78 86 75 87
REMARK SMILES IDX 77 88 76 89 63 90 64 91 68 92 65 93 67 94 66 95
REMARK H PARENT 34 6 10 16 39 44 83 63 61 74
REMARK Flexibility Score: inf
ROOT
ATOM      1  C   UNL A   1      38.493  22.166  25.859  1.00  0.00     0.023 C 
ENDROOT
BRANCH   1   2
ATOM      2  C   UNL A   1      37.795  23.458  25.444  1.00  0.00     0.116 C 
BRANCH   2   3
ATOM      3  N   UNL A   1      37.010  23.544  24.239  1.00  0.00    -0.352 N 
ATOM      4  C   UNL A   1      35.622  23.527  24.132  1.00  0.00     0.253 C 
ATOM      5  O   UNL A   1      35.155  23.756  23.011  1.00  0.00    -0.269 OA
ATOM      6  H   UNL A   1      37.512  23.625  23.396  1.00  0.00     0.163 HD
BRANCH   4   7
ATOM      7  C   UNL A   1      34.651  23.197  25.256  1.00  0.00     0.065 A 
ATOM      8  C   UNL A   1      33.711  21.346  26.575  1.00  0.00     0.042 A 
ATOM      9  C   UNL A   1      32.951  22.225  27.319  1.00  0.00     0.028 A 
ATOM     10  C   UNL A   1      34.662  21.839  25.666  1.00  0.00     0.042 A 
ATOM     11  C   UNL A   1      32.948  23.564  26.959  1.00  0.00     0.029 A 
ATOM     12  C   UNL A   1      33.670  24.040  25.835  1.00  0.00     0.050 A 
BRANCH   8  13
ATOM     13  N   UNL A   1      33.469  19.970  26.610  1.00  0.00    -0.322 N 
ATOM     14  C   UNL A   1      32.855  19.140  25.688  1.00  0.00     0.255 C 
ATOM     15  O   UNL A   1      32.550  18.007  26.075  1.00  0.00    -0.269 OA
ATOM     16  H   UNL A   1      33.787  19.517  27.424  1.00  0.00     0.170 HD
BRANCH  14  17
ATOM     17  C   UNL A   1      32.597  19.474  24.235  1.00  0.00     0.043 A 
ATOM     18  C   UNL A   1      32.917  17.134  23.164  1.00  0.00     0.045 C 
ATOM     19  C   UNL A   1      32.649  18.607  23.121  1.00  0.00    -0.038 A 
ATOM     20  C   UNL A   1      32.370  19.111  21.828  1.00  0.00     0.004 A 
ATOM     21  C   UNL A   1      31.901  20.403  21.638  1.00  0.00     0.000 A 
ATOM     22  C   UNL A   1      32.093  20.776  24.012  1.00  0.00     0.014 A 
ATOM     23  C   UNL A   1      31.728  21.228  22.738  1.00  0.00     0.001 A 
ENDBRANCH  14  17
ENDBRANCH   8  13
BRANCH  12  24
ATOM     24  N   UNL A   1      33.179  25.219  25.263  1.00  0.00    -0.371 N 
ATOM     25  C   UNL A   1      33.957  26.439  25.425  1.00  0.00     0.118 C 
ATOM     26  C   UNL A   1      31.895  25.141  24.579  1.00  0.00     0.118 C 
ATOM     27  C   UNL A   1      33.206  27.726  25.209  1.00  0.00     0.047 C 
ATOM     28  C   UNL A   1      31.095  26.410  24.762  1.00  0.00     0.047 C 
ATOM     29  C   UNL A   1      31.884  27.671  24.437  1.00  0.00     0.094 C 
BRANCH  29  30
ATOM     30  N   UNL A   1      31.181  28.936  24.707  1.00  0.00    -0.310 N 
ATOM     31  C   UNL A   1      31.439  29.947  25.618  1.00  0.00     0.108 A 
ATOM     32  C   UNL A   1      30.203  29.411  23.857  1.00  0.00     0.160 A 
ATOM     33  C   UNL A   1      32.181  29.818  26.899  1.00  0.00     0.088 C 
ATOM     34  N   UNL A   1      30.859  31.075  25.242  1.00  0.00    -0.232 NA
ATOM     35  C   UNL A   1      30.066  30.752  24.177  1.00  0.00     0.108 A 
ATOM     36  N   UNL A   1      29.537  28.720  22.911  1.00  0.00    -0.237 NA
ATOM     37  C   UNL A   1      29.125  31.505  23.466  1.00  0.00     0.034 A 
ATOM     38  C   UNL A   1      28.601  29.473  22.282  1.00  0.00     0.113 A 
ATOM     39  C   UNL A   1      28.359  30.826  22.512  1.00  0.00     0.022 A 
ENDBRANCH  29  30
ENDBRANCH  12  24
ENDBRANCH   4   7
ENDBRANCH   2   3
ENDBRANCH   1   2
BRANCH   1  40
ATOM     40  C   UNL A   1      39.903  22.225  26.433  1.00  0.00     0.023 C 
BRANCH  40  41
ATOM     41  C   UNL A   1      40.465  20.938  27.006  1.00  0.00     0.116 C 
BRANCH  41  42
ATOM     42  N   UNL A   1      41.505  20.243  26.277  1.00  0.00    -0.352 N 
ATOM     43  C   UNL A   1      42.745  20.723  25.855  1.00  0.00     0.251 C 
ATOM     44  H   UNL A   1      41.311  19.305  26.048  1.00  0.00     0.163 HD
ATOM     45  O   UNL A   1      43.411  20.045  25.098  1.00  0.00    -0.269 OA
BRANCH  43  46
ATOM     46  C   UNL A   1      43.327  21.998  26.396  1.00  0.00     0.039 A 
ATOM     47  C   UNL A   1      43.385  22.177  27.795  1.00  0.00     0.014 A 
ATOM     48  C   UNL A   1      43.636  23.082  25.585  1.00  0.00     0.014 A 
ATOM     49  C   UNL A   1      43.552  23.453  28.338  1.00  0.00     0.010 A 
ATOM     50  C   UNL A   1      43.713  24.339  26.099  1.00  0.00     0.010 A 
ATOM     51  C   UNL A   1      43.595  24.526  27.469  1.00  0.00    -0.014 A 
BRANCH  51  52
ATOM     52  C   UNL A   1      43.547  25.935  27.788  1.00  0.00     0.031 A 
ATOM     53  C   UNL A   1      42.249  26.608  27.684  1.00  0.00     0.074 A 
ATOM     54  C   UNL A   1      44.547  26.330  28.604  1.00  0.00     0.049 A 
ATOM     55  N   UNL A   1      42.057  27.857  27.903  1.00  0.00    -0.248 NA
ATOM     56  C   UNL A   1      41.032  25.891  27.299  1.00  0.00     0.031 C 
ATOM     57  C   UNL A   1      44.588  27.362  29.631  1.00  0.00     0.029 A 
ATOM     58  N   UNL A   1      45.870  25.912  28.502  1.00  0.00    -0.354 N 
ATOM     59  C   UNL A   1      40.696  28.028  28.035  1.00  0.00     0.074 A 
ATOM     60  C   UNL A   1      40.101  26.824  27.512  1.00  0.00     0.031 C 
ATOM     61  C   UNL A   1      45.876  27.692  29.858  1.00  0.00     0.029 A 
ATOM     62  C   UNL A   1      46.661  27.022  28.825  1.00  0.00     0.049 A 
ATOM     63  H   UNL A   1      46.188  25.014  28.252  1.00  0.00     0.167 HD
ATOM     64  C   UNL A   1      40.245  29.091  28.754  1.00  0.00     0.031 A 
ATOM     65  C   UNL A   1      47.315  27.680  27.813  1.00  0.00     0.031 A 
ATOM     66  C   UNL A   1      41.368  29.920  29.195  1.00  0.00     0.049 A 
ATOM     67  C   UNL A   1      46.849  29.101  27.687  1.00  0.00     0.074 A 
ATOM     68  C   UNL A   1      42.051  29.994  30.398  1.00  0.00     0.029 A 
ATOM     69  N   UNL A   1      42.176  30.525  28.241  1.00  0.00    -0.354 N 
ATOM     70  N   UNL A   1      45.617  29.483  27.877  1.00  0.00    -0.248 NA
ATOM     71  C   UNL A   1      47.758  30.199  27.388  1.00  0.00     0.031 C 
ATOM     72  C   UNL A   1      43.317  30.585  30.140  1.00  0.00     0.029 A 
ATOM     73  C   UNL A   1      43.387  30.896  28.791  1.00  0.00     0.049 A 
ATOM     74  H   UNL A   1      41.921  30.669  27.300  1.00  0.00     0.167 HD
ATOM     75  C   UNL A   1      45.562  30.846  27.783  1.00  0.00     0.074 A 
ATOM     76  C   UNL A   1      46.921  31.246  27.465  1.00  0.00     0.031 C 
ATOM     77  C   UNL A   1      44.405  31.541  27.971  1.00  0.00     0.031 A 
BRANCH  64  78
ATOM     78  C   UNL A   1      38.848  29.233  29.307  1.00  0.00    -0.014 A 
ATOM     79  C   UNL A   1      37.804  29.588  28.431  1.00  0.00     0.009 A 
ATOM     80  C   UNL A   1      38.485  29.076  30.655  1.00  0.00     0.009 A 
ATOM     81  C   UNL A   1      36.497  29.823  28.880  1.00  0.00     0.001 A 
ATOM     82  C   UNL A   1      37.185  29.329  31.117  1.00  0.00     0.001 A 
ATOM     83  C   UNL A   1      36.190  29.706  30.228  1.00  0.00     0.000 A 
ENDBRANCH  64  78
BRANCH  65  84
ATOM     84  C   UNL A   1      47.600  26.804  26.627  1.00  0.00    -0.014 A 
ATOM     85  C   UNL A   1      46.861  27.059  25.462  1.00  0.00     0.009 A 
ATOM     86  C   UNL A   1      48.819  26.117  26.501  1.00  0.00     0.009 A 
ATOM     87  C   UNL A   1      47.454  26.878  24.214  1.00  0.00     0.001 A 
ATOM     88  C   UNL A   1      49.353  25.846  25.233  1.00  0.00     0.001 A 
ATOM     89  C   UNL A   1      48.699  26.288  24.090  1.00  0.00     0.000 A 
ENDBRANCH  65  84
BRANCH  77  90
ATOM     90  C   UNL A   1      44.138  32.917  27.416  1.00  0.00    -0.014 A 
ATOM     91  C   UNL A   1      44.175  33.232  26.051  1.00  0.00     0.009 A 
ATOM     92  C   UNL A   1      43.657  33.925  28.280  1.00  0.00     0.009 A 
ATOM     93  C   UNL A   1      43.802  34.494  25.579  1.00  0.00     0.001 A 
ATOM     94  C   UNL A   1      43.219  35.163  27.807  1.00  0.00     0.001 A 
ATOM     95  C   UNL A   1      43.308  35.453  26.454  1.00  0.00     0.000 A 
ENDBRANCH  77  90
ENDBRANCH  51  52
ENDBRANCH  43  46
ENDBRANCH  41  42
ENDBRANCH  40  41
ENDBRANCH   1  40
TORSDOF 15
ENDMDL
