MODEL 1
REMARK VINA RESULT:     -10.2      0.000      0.000
REMARK SMILES CCOc1cc(C=O)ccc1OCc1ccc(C(=O)NCCCCNC(=O)c2ccc(-c3c4nc(c(-c5ccccc5)c5ccc([nH]5)c(-c5ccccc5)c5nc(c(-c6ccccc6)c6ccc3[nH]6)C=C5)C=C4)cc2)cc1
REMARK SMILES IDX 21 1 20 2 18 3 19 4 17 6 14 7 15 8 77 9 16 10 76 11 13 12
REMARK SMILES IDX 12 13 11 14 4 15 5 16 6 17 10 18 9 19 3 20 2 21 1 22 7 23
REMARK SMILES IDX 8 24 22 25 23 26 24 27 25 28 26 29 27 31 28 32 29 33 75 34
REMARK SMILES IDX 30 35 74 36 31 37 32 38 33 39 68 40 34 41 73 42 67 43 69 44
REMARK SMILES IDX 35 45 72 46 66 47 65 48 36 50 58 51 43 52 57 53 44 54 47 55
REMARK SMILES IDX 56 56 70 57 45 58 46 59 55 61 71 62 48 63 37 64 38 65 42 66
REMARK SMILES IDX 39 67 41 68 40 69 59 70 60 71 64 72 61 73 63 74 62 75 49 76
REMARK SMILES IDX 50 77 54 78 51 79 53 80 52 81
REMARK H PARENT 20 5 25 30 69 49 47 60
REMARK Flexibility Score: inf
ROOT
ATOM      1  C   UNL A   1      37.994  23.552  26.126  1.00  0.00     0.116 C 
ENDROOT
BRANCH   1   2
ATOM      2  N   UNL A   1      37.653  23.370  24.738  1.00  0.00    -0.352 N 
ATOM      3  C   UNL A   1      36.470  23.051  24.125  1.00  0.00     0.251 C 
ATOM      4  O   UNL A   1      36.517  22.904  22.901  1.00  0.00    -0.269 OA
ATOM      5  H   UNL A   1      38.407  23.498  24.117  1.00  0.00     0.163 HD
BRANCH   3   6
ATOM      6  C   UNL A   1      35.155  22.907  24.831  1.00  0.00     0.039 A 
ATOM      7  C   UNL A   1      32.481  22.747  25.845  1.00  0.00    -0.011 A 
ATOM      8  C   UNL A   1      32.837  22.187  24.614  1.00  0.00     0.008 A 
ATOM      9  C   UNL A   1      33.518  23.289  26.607  1.00  0.00     0.008 A 
ATOM     10  C   UNL A   1      34.138  22.284  24.106  1.00  0.00     0.014 A 
ATOM     11  C   UNL A   1      34.827  23.353  26.114  1.00  0.00     0.014 A 
BRANCH   7  12
ATOM     12  C   UNL A   1      31.053  22.977  26.338  1.00  0.00     0.265 C 
BRANCH  12  13
ATOM     13  O   UNL A   1      30.381  24.212  26.085  1.00  0.00    -0.485 OA
BRANCH  13  14
ATOM     14  C   UNL A   1      30.880  25.040  25.120  1.00  0.00     0.161 A 
ATOM     15  C   UNL A   1      31.775  26.110  25.304  1.00  0.00     0.161 A 
ATOM     16  C   UNL A   1      32.404  26.662  24.182  1.00  0.00     0.062 A 
ATOM     17  C   UNL A   1      32.113  26.160  22.904  1.00  0.00     0.018 A 
ATOM     18  C   UNL A   1      30.514  24.631  23.833  1.00  0.00     0.051 A 
ATOM     19  C   UNL A   1      31.138  25.179  22.720  1.00  0.00     0.015 A 
BRANCH  15  20
ATOM     20  O   UNL A   1      31.990  26.562  26.576  1.00  0.00    -0.490 OA
BRANCH  20  21
ATOM     21  C   UNL A   1      31.419  27.831  26.913  1.00  0.00     0.226 C 
ATOM     22  C   UNL A   1      32.554  28.734  27.379  1.00  0.00     0.049 C 
ENDBRANCH  20  21
ENDBRANCH  15  20
BRANCH  17  23
ATOM     23  C   UNL A   1      32.870  26.618  21.722  1.00  0.00     0.260 C 
ATOM     24  O   UNL A   1      33.276  25.840  20.870  1.00  0.00    -0.298 OA
ENDBRANCH  17  23
ENDBRANCH  13  14
ENDBRANCH  12  13
ENDBRANCH   7  12
ENDBRANCH   3   6
ENDBRANCH   1   2
BRANCH   1  25
ATOM     25  C   UNL A   1      39.258  22.765  26.480  1.00  0.00     0.023 C 
BRANCH  25  26
ATOM     26  C   UNL A   1      39.304  21.364  25.877  1.00  0.00     0.023 C 
BRANCH  26  27
ATOM     27  C   UNL A   1      40.034  20.343  26.735  1.00  0.00     0.116 C 
BRANCH  27  28
ATOM     28  N   UNL A   1      41.108  19.658  26.030  1.00  0.00    -0.352 N 
ATOM     29  C   UNL A   1      42.368  20.130  25.754  1.00  0.00     0.251 C 
ATOM     30  H   UNL A   1      40.907  18.748  25.713  1.00  0.00     0.163 HD
ATOM     31  O   UNL A   1      43.149  19.490  25.067  1.00  0.00    -0.269 OA
BRANCH  29  32
ATOM     32  C   UNL A   1      42.735  21.459  26.274  1.00  0.00     0.039 A 
ATOM     33  C   UNL A   1      42.874  22.515  25.375  1.00  0.00     0.014 A 
ATOM     34  C   UNL A   1      42.842  21.665  27.652  1.00  0.00     0.014 A 
ATOM     35  C   UNL A   1      43.060  23.805  25.867  1.00  0.00     0.010 A 
ATOM     36  C   UNL A   1      42.948  22.958  28.141  1.00  0.00     0.010 A 
ATOM     37  C   UNL A   1      43.063  24.038  27.253  1.00  0.00    -0.014 A 
BRANCH  37  38
ATOM     38  C   UNL A   1      43.195  25.408  27.797  1.00  0.00     0.031 A 
ATOM     39  C   UNL A   1      44.549  25.925  28.193  1.00  0.00     0.074 A 
ATOM     40  C   UNL A   1      42.093  26.156  27.994  1.00  0.00     0.049 A 
ATOM     41  N   UNL A   1      44.867  27.072  28.734  1.00  0.00    -0.248 NA
ATOM     42  C   UNL A   1      45.693  25.022  27.980  1.00  0.00     0.031 C 
ATOM     43  C   UNL A   1      40.720  25.743  27.693  1.00  0.00     0.029 A 
ATOM     44  N   UNL A   1      41.956  27.423  28.500  1.00  0.00    -0.354 N 
ATOM     45  C   UNL A   1      46.239  27.021  28.941  1.00  0.00     0.074 A 
ATOM     46  C   UNL A   1      46.685  25.712  28.519  1.00  0.00     0.031 C 
ATOM     47  C   UNL A   1      39.884  26.751  27.993  1.00  0.00     0.029 A 
ATOM     48  C   UNL A   1      40.656  27.861  28.539  1.00  0.00     0.049 A 
ATOM     49  H   UNL A   1      42.718  27.966  28.806  1.00  0.00     0.167 HD
ATOM     50  C   UNL A   1      47.058  27.986  29.419  1.00  0.00     0.031 A 
ATOM     51  C   UNL A   1      40.144  29.030  28.970  1.00  0.00     0.031 A 
ATOM     52  C   UNL A   1      46.614  29.292  29.822  1.00  0.00     0.049 A 
ATOM     53  C   UNL A   1      41.076  30.085  29.496  1.00  0.00     0.074 A 
ATOM     54  C   UNL A   1      47.371  30.362  30.263  1.00  0.00     0.029 A 
ATOM     55  N   UNL A   1      45.290  29.703  29.834  1.00  0.00    -0.354 N 
ATOM     56  N   UNL A   1      42.381  30.049  29.617  1.00  0.00    -0.248 NA
ATOM     57  C   UNL A   1      40.463  31.347  29.934  1.00  0.00     0.031 C 
ATOM     58  C   UNL A   1      46.500  31.407  30.585  1.00  0.00     0.029 A 
ATOM     59  C   UNL A   1      45.206  31.005  30.295  1.00  0.00     0.049 A 
ATOM     60  H   UNL A   1      44.524  29.150  29.556  1.00  0.00     0.167 HD
ATOM     61  C   UNL A   1      42.748  31.291  30.119  1.00  0.00     0.074 A 
ATOM     62  C   UNL A   1      41.530  32.061  30.264  1.00  0.00     0.031 C 
ATOM     63  C   UNL A   1      43.983  31.753  30.432  1.00  0.00     0.031 A 
BRANCH  50  64
ATOM     64  C   UNL A   1      48.520  27.656  29.530  1.00  0.00    -0.014 A 
ATOM     65  C   UNL A   1      49.050  27.087  30.700  1.00  0.00     0.009 A 
ATOM     66  C   UNL A   1      49.375  27.897  28.444  1.00  0.00     0.009 A 
ATOM     67  C   UNL A   1      50.413  26.801  30.793  1.00  0.00     0.001 A 
ATOM     68  C   UNL A   1      50.733  27.583  28.530  1.00  0.00     0.001 A 
ATOM     69  C   UNL A   1      51.252  27.045  29.706  1.00  0.00     0.000 A 
ENDBRANCH  50  64
BRANCH  51  70
ATOM     70  C   UNL A   1      38.681  29.275  28.897  1.00  0.00    -0.014 A 
ATOM     71  C   UNL A   1      37.880  29.143  30.043  1.00  0.00     0.009 A 
ATOM     72  C   UNL A   1      38.075  29.635  27.684  1.00  0.00     0.009 A 
ATOM     73  C   UNL A   1      36.500  29.341  29.968  1.00  0.00     0.001 A 
ATOM     74  C   UNL A   1      36.698  29.860  27.619  1.00  0.00     0.001 A 
ATOM     75  C   UNL A   1      35.910  29.702  28.759  1.00  0.00     0.000 A 
ENDBRANCH  51  70
BRANCH  63  76
ATOM     76  C   UNL A   1      44.080  33.167  30.928  1.00  0.00    -0.014 A 
ATOM     77  C   UNL A   1      44.268  34.239  30.042  1.00  0.00     0.009 A 
ATOM     78  C   UNL A   1      43.938  33.432  32.299  1.00  0.00     0.009 A 
ATOM     79  C   UNL A   1      44.343  35.546  30.524  1.00  0.00     0.001 A 
ATOM     80  C   UNL A   1      43.984  34.743  32.775  1.00  0.00     0.001 A 
ATOM     81  C   UNL A   1      44.197  35.797  31.887  1.00  0.00     0.000 A 
ENDBRANCH  63  76
ENDBRANCH  37  38
ENDBRANCH  29  32
ENDBRANCH  27  28
ENDBRANCH  26  27
ENDBRANCH  25  26
ENDBRANCH   1  25
TORSDOF 17
ENDMDL
MODEL 2
REMARK VINA RESULT:      -9.7      2.340      6.580
REMARK SMILES CCOc1cc(C=O)ccc1OCc1ccc(C(=O)NCCCCNC(=O)c2ccc(-c3c4nc(c(-c5ccccc5)c5ccc([nH]5)c(-c5ccccc5)c5nc(c(-c6ccccc6)c6ccc3[nH]6)C=C5)C=C4)cc2)cc1
REMARK SMILES IDX 21 1 20 2 18 3 19 4 17 6 14 7 15 8 77 9 16 10 76 11 13 12
REMARK SMILES IDX 12 13 11 14 4 15 5 16 6 17 10 18 9 19 3 20 2 21 1 22 7 23
REMARK SMILES IDX 8 24 22 25 23 26 24 27 25 28 26 29 27 31 28 32 29 33 75 34
REMARK SMILES IDX 30 35 74 36 31 37 32 38 33 39 68 40 34 41 73 42 67 43 69 44
REMARK SMILES IDX 35 45 72 46 66 47 65 48 36 50 58 51 43 52 57 53 44 54 47 55
REMARK SMILES IDX 56 56 70 57 45 58 46 59 55 61 71 62 48 63 37 64 38 65 42 66
REMARK SMILES IDX 39 67 41 68 40 69 59 70 60 71 64 72 61 73 63 74 62 75 49 76
REMARK SMILES IDX 50 77 54 78 51 79 53 80 52 81
REMARK H PARENT 20 5 25 30 69 49 47 60
REMARK Flexibility Score: inf
ROOT
ATOM      1  C   UNL A   1      40.343  21.781  27.251  1.00  0.00     0.116 C 
ENDROOT
BRANCH   1   2
ATOM      2  N   UNL A   1      40.032  23.187  27.173  1.00  0.00    -0.352 N 
ATOM      3  C   UNL A   1      38.972  23.856  26.621  1.00  0.00     0.251 C 
ATOM      4  O   UNL A   1      39.029  25.088  26.663  1.00  0.00    -0.269 OA
ATOM      5  H   UNL A   1      40.703  23.771  27.594  1.00  0.00     0.163 HD
BRANCH   3   6
ATOM      6  C   UNL A   1      37.769  23.196  26.014  1.00  0.00     0.039 A 
ATOM      7  C   UNL A   1      35.272  22.089  25.155  1.00  0.00    -0.011 A 
ATOM      8  C   UNL A   1      35.393  23.432  25.527  1.00  0.00     0.008 A 
ATOM      9  C   UNL A   1      36.451  21.344  25.115  1.00  0.00     0.008 A 
ATOM     10  C   UNL A   1      36.608  23.969  25.969  1.00  0.00     0.014 A 
ATOM     11  C   UNL A   1      37.674  21.892  25.522  1.00  0.00     0.014 A 
BRANCH   7  12
ATOM     12  C   UNL A   1      33.956  21.333  24.968  1.00  0.00     0.265 C 
BRANCH  12  13
ATOM     13  O   UNL A   1      33.267  21.360  23.718  1.00  0.00    -0.485 OA
BRANCH  13  14
ATOM     14  C   UNL A   1      32.632  22.513  23.348  1.00  0.00     0.161 A 
ATOM     15  C   UNL A   1      31.604  23.172  24.046  1.00  0.00     0.161 A 
ATOM     16  C   UNL A   1      31.273  24.482  23.679  1.00  0.00     0.062 A 
ATOM     17  C   UNL A   1      31.951  25.098  22.615  1.00  0.00     0.018 A 
ATOM     18  C   UNL A   1      33.215  23.097  22.219  1.00  0.00     0.051 A 
ATOM     19  C   UNL A   1      32.888  24.397  21.856  1.00  0.00     0.015 A 
BRANCH  15  20
ATOM     20  O   UNL A   1      30.971  22.499  25.054  1.00  0.00    -0.490 OA
BRANCH  20  21
ATOM     21  C   UNL A   1      30.658  23.251  26.232  1.00  0.00     0.226 C 
ATOM     22  C   UNL A   1      31.970  23.559  26.940  1.00  0.00     0.049 C 
ENDBRANCH  20  21
ENDBRANCH  15  20
BRANCH  17  23
ATOM     23  C   UNL A   1      31.731  26.524  22.305  1.00  0.00     0.260 C 
ATOM     24  O   UNL A   1      30.679  27.091  22.566  1.00  0.00    -0.298 OA
ENDBRANCH  17  23
ENDBRANCH  13  14
ENDBRANCH  12  13
ENDBRANCH   7  12
ENDBRANCH   3   6
ENDBRANCH   1   2
BRANCH   1  25
ATOM     25  C   UNL A   1      41.628  21.468  26.482  1.00  0.00     0.023 C 
BRANCH  25  26
ATOM     26  C   UNL A   1      41.750  20.012  26.045  1.00  0.00     0.023 C 
BRANCH  26  27
ATOM     27  C   UNL A   1      43.163  19.457  26.121  1.00  0.00     0.116 C 
BRANCH  27  28
ATOM     28  N   UNL A   1      43.699  19.060  24.826  1.00  0.00    -0.352 N 
ATOM     29  C   UNL A   1      44.482  19.802  23.977  1.00  0.00     0.251 C 
ATOM     30  H   UNL A   1      43.471  18.151  24.524  1.00  0.00     0.163 HD
ATOM     31  O   UNL A   1      44.787  19.386  22.870  1.00  0.00    -0.269 OA
BRANCH  29  32
ATOM     32  C   UNL A   1      44.905  21.140  24.424  1.00  0.00     0.039 A 
ATOM     33  C   UNL A   1      44.521  22.250  23.672  1.00  0.00     0.014 A 
ATOM     34  C   UNL A   1      45.594  21.289  25.630  1.00  0.00     0.014 A 
ATOM     35  C   UNL A   1      44.776  23.527  24.168  1.00  0.00     0.010 A 
ATOM     36  C   UNL A   1      45.776  22.558  26.159  1.00  0.00     0.010 A 
ATOM     37  C   UNL A   1      45.372  23.688  25.430  1.00  0.00    -0.014 A 
BRANCH  37  38
ATOM     38  C   UNL A   1      45.593  25.033  26.005  1.00  0.00     0.031 A 
ATOM     39  C   UNL A   1      44.442  25.782  26.613  1.00  0.00     0.074 A 
ATOM     40  C   UNL A   1      46.811  25.602  25.920  1.00  0.00     0.049 A 
ATOM     41  N   UNL A   1      44.419  26.986  27.122  1.00  0.00    -0.248 NA
ATOM     42  C   UNL A   1      43.138  25.097  26.626  1.00  0.00     0.031 C 
ATOM     43  C   UNL A   1      47.994  24.992  25.309  1.00  0.00     0.029 A 
ATOM     44  N   UNL A   1      47.253  26.827  26.349  1.00  0.00    -0.354 N 
ATOM     45  C   UNL A   1      43.101  27.209  27.496  1.00  0.00     0.074 A 
ATOM     46  C   UNL A   1      42.344  26.040  27.109  1.00  0.00     0.031 C 
ATOM     47  C   UNL A   1      49.033  25.835  25.428  1.00  0.00     0.029 A 
ATOM     48  C   UNL A   1      48.581  27.054  26.089  1.00  0.00     0.049 A 
ATOM     49  H   UNL A   1      46.671  27.483  26.798  1.00  0.00     0.167 HD
ATOM     50  C   UNL A   1      42.572  28.283  28.128  1.00  0.00     0.031 A 
ATOM     51  C   UNL A   1      49.349  28.128  26.355  1.00  0.00     0.031 A 
ATOM     52  C   UNL A   1      43.331  29.437  28.526  1.00  0.00     0.049 A 
ATOM     53  C   UNL A   1      48.737  29.308  27.056  1.00  0.00     0.074 A 
ATOM     54  C   UNL A   1      42.901  30.551  29.224  1.00  0.00     0.029 A 
ATOM     55  N   UNL A   1      44.678  29.623  28.258  1.00  0.00    -0.354 N 
ATOM     56  N   UNL A   1      47.504  29.474  27.471  1.00  0.00    -0.248 NA
ATOM     57  C   UNL A   1      49.627  30.442  27.337  1.00  0.00     0.031 C 
ATOM     58  C   UNL A   1      43.980  31.433  29.340  1.00  0.00     0.029 A 
ATOM     59  C   UNL A   1      45.093  30.845  28.759  1.00  0.00     0.049 A 
ATOM     60  H   UNL A   1      45.253  28.981  27.782  1.00  0.00     0.167 HD
ATOM     61  C   UNL A   1      47.477  30.719  28.085  1.00  0.00     0.074 A 
ATOM     62  C   UNL A   1      48.819  31.257  28.002  1.00  0.00     0.031 C 
ATOM     63  C   UNL A   1      46.434  31.360  28.666  1.00  0.00     0.031 A 
BRANCH  50  64
ATOM     64  C   UNL A   1      41.098  28.252  28.421  1.00  0.00    -0.014 A 
ATOM     65  C   UNL A   1      40.598  27.607  29.564  1.00  0.00     0.009 A 
ATOM     66  C   UNL A   1      40.201  28.894  27.555  1.00  0.00     0.009 A 
ATOM     67  C   UNL A   1      39.224  27.573  29.812  1.00  0.00     0.001 A 
ATOM     68  C   UNL A   1      38.830  28.884  27.822  1.00  0.00     0.001 A 
ATOM     69  C   UNL A   1      38.343  28.215  28.944  1.00  0.00     0.000 A 
ENDBRANCH  50  64
BRANCH  51  70
ATOM     70  C   UNL A   1      50.786  28.127  25.980  1.00  0.00    -0.014 A 
ATOM     71  C   UNL A   1      51.756  27.660  26.881  1.00  0.00     0.009 A 
ATOM     72  C   UNL A   1      51.198  28.598  24.724  1.00  0.00     0.009 A 
ATOM     73  C   UNL A   1      53.111  27.690  26.541  1.00  0.00     0.001 A 
ATOM     74  C   UNL A   1      52.551  28.601  24.377  1.00  0.00     0.001 A 
ATOM     75  C   UNL A   1      53.507  28.157  25.290  1.00  0.00     0.000 A 
ENDBRANCH  51  70
BRANCH  63  76
ATOM     76  C   UNL A   1      46.713  32.698  29.287  1.00  0.00    -0.014 A 
ATOM     77  C   UNL A   1      47.139  32.808  30.620  1.00  0.00     0.009 A 
ATOM     78  C   UNL A   1      46.588  33.862  28.513  1.00  0.00     0.009 A 
ATOM     79  C   UNL A   1      47.405  34.061  31.173  1.00  0.00     0.001 A 
ATOM     80  C   UNL A   1      46.882  35.111  29.060  1.00  0.00     0.001 A 
ATOM     81  C   UNL A   1      47.281  35.210  30.393  1.00  0.00     0.000 A 
ENDBRANCH  63  76
ENDBRANCH  37  38
ENDBRANCH  29  32
ENDBRANCH  27  28
ENDBRANCH  26  27
ENDBRANCH  25  26
ENDBRANCH   1  25
TORSDOF 17
ENDMDL
MODEL 3
REMARK VINA RESULT:      -9.6      4.532     10.704
REMARK SMILES CCOc1cc(C=O)ccc1OCc1ccc(C(=O)NCCCCNC(=O)c2ccc(-c3c4nc(c(-c5ccccc5)c5ccc([nH]5)c(-c5ccccc5)c5nc(c(-c6ccccc6)c6ccc3[nH]6)C=C5)C=C4)cc2)cc1
REMARK SMILES IDX 21 1 20 2 18 3 19 4 17 6 14 7 15 8 77 9 16 10 76 11 13 12
REMARK SMILES IDX 12 13 11 14 4 15 5 16 6 17 10 18 9 19 3 20 2 21 1 22 7 23
REMARK SMILES IDX 8 24 22 25 23 26 24 27 25 28 26 29 27 31 28 32 29 33 75 34
REMARK SMILES IDX 30 35 74 36 31 37 32 38 33 39 68 40 34 41 73 42 67 43 69 44
REMARK SMILES IDX 35 45 72 46 66 47 65 48 36 50 58 51 43 52 57 53 44 54 47 55
REMARK SMILES IDX 56 56 70 57 45 58 46 59 55 61 71 62 48 63 37 64 38 65 42 66
REMARK SMILES IDX 39 67 41 68 40 69 59 70 60 71 64 72 61 73 63 74 62 75 49 76
REMARK SMILES IDX 50 77 54 78 51 79 53 80 52 81
REMARK H PARENT 20 5 25 30 69 49 47 60
REMARK Flexibility Score: inf
ROOT
ATOM      1  C   UNL A   1      33.100  34.945  29.709  1.00  0.00     0.116 C 
ENDROOT
BRANCH   1   2
ATOM      2  N   UNL A   1      33.012  36.043  30.639  1.00  0.00    -0.352 N 
ATOM      3  C   UNL A   1      33.588  36.245  31.865  1.00  0.00     0.251 C 
ATOM      4  O   UNL A   1      33.260  37.279  32.454  1.00  0.00    -0.269 OA
ATOM      5  H   UNL A   1      32.434  36.781  30.339  1.00  0.00     0.163 HD
BRANCH   3   6
ATOM      6  C   UNL A   1      34.589  35.325  32.501  1.00  0.00     0.039 A 
ATOM      7  C   UNL A   1      36.287  33.609  34.040  1.00  0.00    -0.011 A 
ATOM      8  C   UNL A   1      34.896  33.467  34.047  1.00  0.00     0.008 A 
ATOM      9  C   UNL A   1      36.814  34.555  33.160  1.00  0.00     0.008 A 
ATOM     10  C   UNL A   1      34.062  34.320  33.313  1.00  0.00     0.014 A 
ATOM     11  C   UNL A   1      35.981  35.384  32.398  1.00  0.00     0.014 A 
BRANCH   7  12
ATOM     12  C   UNL A   1      37.253  32.957  35.030  1.00  0.00     0.265 C 
BRANCH  12  13
ATOM     13  O   UNL A   1      37.358  31.536  35.123  1.00  0.00    -0.485 OA
BRANCH  13  14
ATOM     14  C   UNL A   1      38.561  30.951  34.844  1.00  0.00     0.161 A 
ATOM     15  C   UNL A   1      39.688  30.895  35.683  1.00  0.00     0.161 A 
ATOM     16  C   UNL A   1      40.726  30.014  35.359  1.00  0.00     0.062 A 
ATOM     17  C   UNL A   1      40.635  29.227  34.200  1.00  0.00     0.018 A 
ATOM     18  C   UNL A   1      38.538  30.248  33.634  1.00  0.00     0.051 A 
ATOM     19  C   UNL A   1      39.567  29.373  33.313  1.00  0.00     0.015 A 
BRANCH  15  20
ATOM     20  O   UNL A   1      39.718  31.709  36.782  1.00  0.00    -0.490 OA
BRANCH  20  21
ATOM     21  C   UNL A   1      40.905  32.486  36.975  1.00  0.00     0.226 C 
ATOM     22  C   UNL A   1      40.654  33.861  36.371  1.00  0.00     0.049 C 
ENDBRANCH  20  21
ENDBRANCH  15  20
BRANCH  17  23
ATOM     23  C   UNL A   1      41.639  28.184  33.914  1.00  0.00     0.260 C 
ATOM     24  O   UNL A   1      41.594  27.079  34.438  1.00  0.00    -0.298 OA
ENDBRANCH  17  23
ENDBRANCH  13  14
ENDBRANCH  12  13
ENDBRANCH   7  12
ENDBRANCH   3   6
ENDBRANCH   1   2
BRANCH   1  25
ATOM     25  C   UNL A   1      34.293  35.128  28.769  1.00  0.00     0.023 C 
BRANCH  25  26
ATOM     26  C   UNL A   1      35.461  34.190  29.060  1.00  0.00     0.023 C 
BRANCH  26  27
ATOM     27  C   UNL A   1      35.696  33.139  27.987  1.00  0.00     0.116 C 
BRANCH  27  28
ATOM     28  N   UNL A   1      34.587  32.207  27.838  1.00  0.00    -0.352 N 
ATOM     29  C   UNL A   1      34.632  30.835  27.875  1.00  0.00     0.251 C 
ATOM     30  H   UNL A   1      33.700  32.609  27.693  1.00  0.00     0.163 HD
ATOM     31  O   UNL A   1      33.640  30.162  27.638  1.00  0.00    -0.269 OA
BRANCH  29  32
ATOM     32  C   UNL A   1      35.927  30.195  28.162  1.00  0.00     0.039 A 
ATOM     33  C   UNL A   1      36.897  30.168  27.161  1.00  0.00     0.014 A 
ATOM     34  C   UNL A   1      36.201  29.717  29.446  1.00  0.00     0.014 A 
ATOM     35  C   UNL A   1      38.178  29.712  27.469  1.00  0.00     0.010 A 
ATOM     36  C   UNL A   1      37.495  29.340  29.770  1.00  0.00     0.010 A 
ATOM     37  C   UNL A   1      38.493  29.329  28.783  1.00  0.00    -0.014 A 
BRANCH  37  38
ATOM     38  C   UNL A   1      39.862  28.904  29.147  1.00  0.00     0.031 A 
ATOM     39  C   UNL A   1      40.353  27.543  28.741  1.00  0.00     0.074 A 
ATOM     40  C   UNL A   1      40.636  29.714  29.895  1.00  0.00     0.049 A 
ATOM     41  N   UNL A   1      41.497  26.967  29.006  1.00  0.00    -0.248 NA
ATOM     42  C   UNL A   1      39.424  26.710  27.959  1.00  0.00     0.031 C 
ATOM     43  C   UNL A   1      40.250  31.038  30.390  1.00  0.00     0.029 A 
ATOM     44  N   UNL A   1      41.908  29.538  30.374  1.00  0.00    -0.354 N 
ATOM     45  C   UNL A   1      41.417  25.702  28.440  1.00  0.00     0.074 A 
ATOM     46  C   UNL A   1      40.097  25.573  27.866  1.00  0.00     0.031 C 
ATOM     47  C   UNL A   1      41.277  31.565  31.078  1.00  0.00     0.029 A 
ATOM     48  C   UNL A   1      42.374  30.604  31.102  1.00  0.00     0.049 A 
ATOM     49  H   UNL A   1      42.437  28.723  30.212  1.00  0.00     0.167 HD
ATOM     50  C   UNL A   1      42.368  24.739  28.384  1.00  0.00     0.031 A 
ATOM     51  C   UNL A   1      43.556  30.785  31.721  1.00  0.00     0.031 A 
ATOM     52  C   UNL A   1      43.685  24.876  28.942  1.00  0.00     0.049 A 
ATOM     53  C   UNL A   1      44.595  29.701  31.644  1.00  0.00     0.074 A 
ATOM     54  C   UNL A   1      44.741  23.985  28.886  1.00  0.00     0.029 A 
ATOM     55  N   UNL A   1      44.124  25.978  29.659  1.00  0.00    -0.354 N 
ATOM     56  N   UNL A   1      44.531  28.538  31.042  1.00  0.00    -0.248 NA
ATOM     57  C   UNL A   1      45.871  29.961  32.323  1.00  0.00     0.031 C 
ATOM     58  C   UNL A   1      45.807  24.529  29.610  1.00  0.00     0.029 A 
ATOM     59  C   UNL A   1      45.431  25.781  30.072  1.00  0.00     0.049 A 
ATOM     60  H   UNL A   1      43.586  26.781  29.848  1.00  0.00     0.167 HD
ATOM     61  C   UNL A   1      45.768  27.940  31.246  1.00  0.00     0.074 A 
ATOM     62  C   UNL A   1      46.565  28.875  32.013  1.00  0.00     0.031 C 
ATOM     63  C   UNL A   1      46.205  26.725  30.834  1.00  0.00     0.031 A 
BRANCH  50  64
ATOM     64  C   UNL A   1      42.006  23.454  27.694  1.00  0.00    -0.014 A 
ATOM     65  C   UNL A   1      41.322  22.432  28.372  1.00  0.00     0.009 A 
ATOM     66  C   UNL A   1      42.337  23.271  26.343  1.00  0.00     0.009 A 
ATOM     67  C   UNL A   1      41.009  21.238  27.721  1.00  0.00     0.001 A 
ATOM     68  C   UNL A   1      41.996  22.086  25.686  1.00  0.00     0.001 A 
ATOM     69  C   UNL A   1      41.342  21.068  26.378  1.00  0.00     0.000 A 
ENDBRANCH  50  64
BRANCH  51  70
ATOM     70  C   UNL A   1      43.832  32.051  32.446  1.00  0.00    -0.014 A 
ATOM     71  C   UNL A   1      43.517  32.174  33.809  1.00  0.00     0.009 A 
ATOM     72  C   UNL A   1      44.404  33.147  31.781  1.00  0.00     0.009 A 
ATOM     73  C   UNL A   1      43.746  33.376  34.483  1.00  0.00     0.001 A 
ATOM     74  C   UNL A   1      44.657  34.338  32.465  1.00  0.00     0.001 A 
ATOM     75  C   UNL A   1      44.318  34.454  33.813  1.00  0.00     0.000 A 
ENDBRANCH  51  70
BRANCH  63  76
ATOM     76  C   UNL A   1      47.619  26.354  31.176  1.00  0.00    -0.014 A 
ATOM     77  C   UNL A   1      48.681  26.653  30.308  1.00  0.00     0.009 A 
ATOM     78  C   UNL A   1      47.896  25.736  32.405  1.00  0.00     0.009 A 
ATOM     79  C   UNL A   1      49.989  26.310  30.652  1.00  0.00     0.001 A 
ATOM     80  C   UNL A   1      49.209  25.420  32.759  1.00  0.00     0.001 A 
ATOM     81  C   UNL A   1      50.252  25.699  31.877  1.00  0.00     0.000 A 
ENDBRANCH  63  76
ENDBRANCH  37  38
ENDBRANCH  29  32
ENDBRANCH  27  28
ENDBRANCH  26  27
ENDBRANCH  25  26
ENDBRANCH   1  25
TORSDOF 17
ENDMDL
