MODEL 1
REMARK VINA RESULT:     -13.0      0.000      0.000
REMARK SMILES Cc1cccc(-n2c(C)cc(/C=N\c3ccc(O)c(C(=O)NCCCCNC(=O)c4ccc(-c5c6nc(c(-c7ccccc7)c7ccc([nH]7)c(-c7ccccc7)c7nc(c(-c8ccccc8)c8ccc5[nH]8)C=C7)C=C6)cc4)c3)c2C)c1
REMARK SMILES IDX 24 1 23 2 22 3 20 4 21 5 19 7 14 8 15 9 78 10 16 11 17 12
REMARK SMILES IDX 13 13 12 14 11 15 7 16 8 17 79 18 9 19 10 20 80 21 6 22 1 23
REMARK SMILES IDX 2 24 3 25 81 26 4 27 5 28 18 29 25 31 26 32 27 33 28 34
REMARK SMILES IDX 29 36 30 37 31 38 77 39 32 40 76 41 33 42 34 43 35 44 70 45
REMARK SMILES IDX 36 46 75 47 69 48 71 49 37 50 74 51 68 52 67 53 38 55 60 56
REMARK SMILES IDX 45 57 59 58 46 59 49 60 58 61 72 62 47 63 48 64 57 66 73 67
REMARK SMILES IDX 50 68 39 69 40 70 44 71 41 72 43 73 42 74 61 75 62 76 66 77
REMARK SMILES IDX 63 78 65 79 64 80 51 81 52 82 56 83 53 84 55 85 54 86
REMARK H PARENT 22 6 18 30 27 35 71 54 49 65
REMARK Flexibility Score: inf
ROOT
ATOM      1  C   UNL A   1      38.213  21.314  25.391  1.00  0.00     0.023 C 
ENDROOT
BRANCH   1   2
ATOM      2  C   UNL A   1      37.300  22.482  25.035  1.00  0.00     0.116 C 
BRANCH   2   3
ATOM      3  N   UNL A   1      36.373  22.923  26.067  1.00  0.00    -0.352 N 
ATOM      4  C   UNL A   1      34.996  22.879  26.140  1.00  0.00     0.255 C 
ATOM      5  O   UNL A   1      34.474  23.271  27.186  1.00  0.00    -0.269 OA
ATOM      6  H   UNL A   1      36.807  23.325  26.855  1.00  0.00     0.163 HD
BRANCH   4   7
ATOM      7  C   UNL A   1      34.116  22.413  25.025  1.00  0.00     0.083 A 
ATOM      8  C   UNL A   1      33.470  22.664  22.683  1.00  0.00     0.064 A 
ATOM      9  C   UNL A   1      32.624  21.563  22.793  1.00  0.00     0.032 A 
ATOM     10  C   UNL A   1      34.311  22.991  23.759  1.00  0.00     0.046 A 
ATOM     11  C   UNL A   1      32.386  21.010  24.044  1.00  0.00     0.049 A 
ATOM     12  C   UNL A   1      33.032  21.542  25.159  1.00  0.00     0.128 A 
BRANCH   8  13
ATOM     13  N   UNL A   1      33.465  23.477  21.547  1.00  0.00    -0.256 NA
ATOM     14  C   UNL A   1      33.009  24.700  21.553  1.00  0.00     0.121 C 
BRANCH  14  15
ATOM     15  C   UNL A   1      32.426  25.513  22.629  1.00  0.00     0.014 A 
ATOM     16  N   UNL A   1      31.970  27.034  24.248  1.00  0.00    -0.318 N 
ATOM     17  C   UNL A   1      30.956  26.091  24.282  1.00  0.00     0.021 A 
ATOM     18  C   UNL A   1      32.756  26.780  23.117  1.00  0.00     0.029 A 
ATOM     19  C   UNL A   1      29.756  26.201  25.161  1.00  0.00     0.065 C 
ATOM     20  C   UNL A   1      31.240  25.136  23.327  1.00  0.00     0.033 A 
ATOM     21  C   UNL A   1      33.792  27.742  22.656  1.00  0.00     0.065 C 
BRANCH  16  22
ATOM     22  C   UNL A   1      32.216  28.031  25.240  1.00  0.00     0.046 A 
ATOM     23  C   UNL A   1      31.114  31.610  25.990  1.00  0.00     0.044 C 
ATOM     24  C   UNL A   1      31.749  30.255  26.114  1.00  0.00    -0.049 A 
ATOM     25  C   UNL A   1      32.406  29.912  27.302  1.00  0.00     0.003 A 
ATOM     26  C   UNL A   1      31.660  29.311  25.078  1.00  0.00     0.030 A 
ATOM     27  C   UNL A   1      32.999  28.659  27.443  1.00  0.00     0.002 A 
ATOM     28  C   UNL A   1      32.917  27.726  26.410  1.00  0.00     0.026 A 
ENDBRANCH  16  22
ENDBRANCH  14  15
ENDBRANCH   8  13
BRANCH  12  29
ATOM     29  O   UNL A   1      32.397  21.308  26.352  1.00  0.00    -0.507 OA
ATOM     30  H   UNL A   1      31.566  20.875  26.363  1.00  0.00     0.293 HD
ENDBRANCH  12  29
ENDBRANCH   4   7
ENDBRANCH   2   3
ENDBRANCH   1   2
BRANCH   1  31
ATOM     31  C   UNL A   1      39.583  21.632  25.958  1.00  0.00     0.023 C 
BRANCH  31  32
ATOM     32  C   UNL A   1      40.357  20.469  26.554  1.00  0.00     0.116 C 
BRANCH  32  33
ATOM     33  N   UNL A   1      41.520  20.015  25.812  1.00  0.00    -0.352 N 
ATOM     34  C   UNL A   1      42.791  20.561  25.743  1.00  0.00     0.251 C 
ATOM     35  H   UNL A   1      41.386  19.198  25.279  1.00  0.00     0.163 HD
ATOM     36  O   UNL A   1      43.613  20.053  24.977  1.00  0.00    -0.269 OA
BRANCH  34  37
ATOM     37  C   UNL A   1      43.229  21.658  26.657  1.00  0.00     0.039 A 
ATOM     38  C   UNL A   1      42.755  21.657  27.980  1.00  0.00     0.014 A 
ATOM     39  C   UNL A   1      43.951  22.758  26.209  1.00  0.00     0.014 A 
ATOM     40  C   UNL A   1      42.795  22.828  28.738  1.00  0.00     0.010 A 
ATOM     41  C   UNL A   1      43.889  23.946  26.902  1.00  0.00     0.010 A 
ATOM     42  C   UNL A   1      43.262  23.996  28.143  1.00  0.00    -0.014 A 
BRANCH  42  43
ATOM     43  C   UNL A   1      43.018  25.337  28.647  1.00  0.00     0.031 A 
ATOM     44  C   UNL A   1      41.830  26.106  28.238  1.00  0.00     0.074 A 
ATOM     45  C   UNL A   1      43.808  25.804  29.635  1.00  0.00     0.049 A 
ATOM     46  N   UNL A   1      41.762  27.393  28.285  1.00  0.00    -0.248 NA
ATOM     47  C   UNL A   1      40.615  25.480  27.727  1.00  0.00     0.031 C 
ATOM     48  C   UNL A   1      43.570  26.943  30.517  1.00  0.00     0.029 A 
ATOM     49  N   UNL A   1      45.111  25.431  29.919  1.00  0.00    -0.354 N 
ATOM     50  C   UNL A   1      40.438  27.730  28.141  1.00  0.00     0.074 A 
ATOM     51  C   UNL A   1      39.778  26.521  27.704  1.00  0.00     0.031 C 
ATOM     52  C   UNL A   1      44.739  27.323  31.060  1.00  0.00     0.029 A 
ATOM     53  C   UNL A   1      45.790  26.541  30.428  1.00  0.00     0.049 A 
ATOM     54  H   UNL A   1      45.495  24.533  29.785  1.00  0.00     0.167 HD
ATOM     55  C   UNL A   1      39.998  28.946  28.568  1.00  0.00     0.031 A 
ATOM     56  C   UNL A   1      46.841  27.073  29.735  1.00  0.00     0.031 A 
ATOM     57  C   UNL A   1      41.073  29.759  29.130  1.00  0.00     0.049 A 
ATOM     58  C   UNL A   1      46.584  28.476  29.219  1.00  0.00     0.074 A 
ATOM     59  C   UNL A   1      41.445  30.067  30.429  1.00  0.00     0.029 A 
ATOM     60  N   UNL A   1      42.142  30.131  28.322  1.00  0.00    -0.354 N 
ATOM     61  N   UNL A   1      45.408  29.038  29.171  1.00  0.00    -0.248 NA
ATOM     62  C   UNL A   1      47.630  29.346  28.689  1.00  0.00     0.031 C 
ATOM     63  C   UNL A   1      42.765  30.584  30.403  1.00  0.00     0.029 A 
ATOM     64  C   UNL A   1      43.188  30.611  29.086  1.00  0.00     0.049 A 
ATOM     65  H   UNL A   1      42.151  30.063  27.340  1.00  0.00     0.167 HD
ATOM     66  C   UNL A   1      45.509  30.292  28.626  1.00  0.00     0.074 A 
ATOM     67  C   UNL A   1      46.928  30.444  28.354  1.00  0.00     0.031 C 
ATOM     68  C   UNL A   1      44.409  31.084  28.444  1.00  0.00     0.031 A 
BRANCH  55  69
ATOM     69  C   UNL A   1      38.531  29.240  28.752  1.00  0.00    -0.014 A 
ATOM     70  C   UNL A   1      37.783  29.782  27.691  1.00  0.00     0.009 A 
ATOM     71  C   UNL A   1      37.843  29.045  29.961  1.00  0.00     0.009 A 
ATOM     72  C   UNL A   1      36.460  30.208  27.859  1.00  0.00     0.001 A 
ATOM     73  C   UNL A   1      36.533  29.509  30.150  1.00  0.00     0.001 A 
ATOM     74  C   UNL A   1      35.846  30.103  29.099  1.00  0.00     0.000 A 
ENDBRANCH  55  69
BRANCH  56  75
ATOM     75  C   UNL A   1      47.663  26.040  29.039  1.00  0.00    -0.014 A 
ATOM     76  C   UNL A   1      47.404  25.802  27.673  1.00  0.00     0.009 A 
ATOM     77  C   UNL A   1      48.888  25.611  29.571  1.00  0.00     0.009 A 
ATOM     78  C   UNL A   1      48.387  25.262  26.839  1.00  0.00     0.001 A 
ATOM     79  C   UNL A   1      49.867  25.058  28.732  1.00  0.00     0.001 A 
ATOM     80  C   UNL A   1      49.630  24.918  27.364  1.00  0.00     0.000 A 
ENDBRANCH  56  75
BRANCH  68  81
ATOM     81  C   UNL A   1      44.337  32.407  27.710  1.00  0.00    -0.014 A 
ATOM     82  C   UNL A   1      44.510  33.666  28.296  1.00  0.00     0.009 A 
ATOM     83  C   UNL A   1      44.188  32.392  26.301  1.00  0.00     0.009 A 
ATOM     84  C   UNL A   1      44.501  34.840  27.526  1.00  0.00     0.001 A 
ATOM     85  C   UNL A   1      44.224  33.552  25.524  1.00  0.00     0.001 A 
ATOM     86  C   UNL A   1      44.370  34.783  26.141  1.00  0.00     0.000 A 
ENDBRANCH  68  81
ENDBRANCH  42  43
ENDBRANCH  34  37
ENDBRANCH  32  33
ENDBRANCH  31  32
ENDBRANCH   1  31
TORSDOF 15
ENDMDL
MODEL 2
REMARK VINA RESULT:     -12.9      3.189      8.404
REMARK SMILES Cc1cccc(-n2c(C)cc(/C=N\c3ccc(O)c(C(=O)NCCCCNC(=O)c4ccc(-c5c6nc(c(-c7ccccc7)c7ccc([nH]7)c(-c7ccccc7)c7nc(c(-c8ccccc8)c8ccc5[nH]8)C=C7)C=C6)cc4)c3)c2C)c1
REMARK SMILES IDX 24 1 23 2 22 3 20 4 21 5 19 7 14 8 15 9 78 10 16 11 17 12
REMARK SMILES IDX 13 13 12 14 11 15 7 16 8 17 79 18 9 19 10 20 80 21 6 22 1 23
REMARK SMILES IDX 2 24 3 25 81 26 4 27 5 28 18 29 25 31 26 32 27 33 28 34
REMARK SMILES IDX 29 36 30 37 31 38 77 39 32 40 76 41 33 42 34 43 35 44 70 45
REMARK SMILES IDX 36 46 75 47 69 48 71 49 37 50 74 51 68 52 67 53 38 55 60 56
REMARK SMILES IDX 45 57 59 58 46 59 49 60 58 61 72 62 47 63 48 64 57 66 73 67
REMARK SMILES IDX 50 68 39 69 40 70 44 71 41 72 43 73 42 74 61 75 62 76 66 77
REMARK SMILES IDX 63 78 65 79 64 80 51 81 52 82 56 83 53 84 55 85 54 86
REMARK H PARENT 22 6 18 30 27 35 71 54 49 65
REMARK Flexibility Score: inf
ROOT
ATOM      1  C   UNL A   1      33.804  28.907  25.329  1.00  0.00     0.023 C 
ENDROOT
BRANCH   1   2
ATOM      2  C   UNL A   1      33.831  28.947  23.805  1.00  0.00     0.116 C 
BRANCH   2   3
ATOM      3  N   UNL A   1      32.654  29.496  23.147  1.00  0.00    -0.352 N 
ATOM      4  C   UNL A   1      31.438  28.929  22.823  1.00  0.00     0.255 C 
ATOM      5  O   UNL A   1      30.588  29.667  22.320  1.00  0.00    -0.269 OA
ATOM      6  H   UNL A   1      32.742  30.441  22.886  1.00  0.00     0.163 HD
BRANCH   4   7
ATOM      7  C   UNL A   1      31.112  27.484  23.023  1.00  0.00     0.083 A 
ATOM      8  C   UNL A   1      30.114  25.792  24.475  1.00  0.00     0.064 A 
ATOM      9  C   UNL A   1      30.315  24.824  23.493  1.00  0.00     0.032 A 
ATOM     10  C   UNL A   1      30.387  27.137  24.176  1.00  0.00     0.046 A 
ATOM     11  C   UNL A   1      31.069  25.140  22.370  1.00  0.00     0.049 A 
ATOM     12  C   UNL A   1      31.574  26.432  22.229  1.00  0.00     0.128 A 
BRANCH   8  13
ATOM     13  N   UNL A   1      29.695  25.448  25.762  1.00  0.00    -0.256 NA
ATOM     14  C   UNL A   1      30.321  24.572  26.500  1.00  0.00     0.121 C 
BRANCH  14  15
ATOM     15  C   UNL A   1      31.522  23.766  26.242  1.00  0.00     0.014 A 
ATOM     16  N   UNL A   1      33.577  22.978  25.697  1.00  0.00    -0.318 N 
ATOM     17  C   UNL A   1      32.785  21.878  25.982  1.00  0.00     0.021 A 
ATOM     18  C   UNL A   1      32.857  24.128  26.042  1.00  0.00     0.029 A 
ATOM     19  C   UNL A   1      33.300  20.480  26.027  1.00  0.00     0.065 C 
ATOM     20  C   UNL A   1      31.519  22.340  26.277  1.00  0.00     0.033 A 
ATOM     21  C   UNL A   1      33.500  25.469  26.078  1.00  0.00     0.065 C 
BRANCH  16  22
ATOM     22  C   UNL A   1      34.866  22.942  25.081  1.00  0.00     0.046 A 
ATOM     23  C   UNL A   1      38.479  22.262  26.114  1.00  0.00     0.044 C 
ATOM     24  C   UNL A   1      37.257  22.537  25.286  1.00  0.00    -0.049 A 
ATOM     25  C   UNL A   1      37.365  22.548  23.889  1.00  0.00     0.003 A 
ATOM     26  C   UNL A   1      36.002  22.741  25.881  1.00  0.00     0.030 A 
ATOM     27  C   UNL A   1      36.245  22.796  23.097  1.00  0.00     0.002 A 
ATOM     28  C   UNL A   1      35.001  23.006  23.692  1.00  0.00     0.026 A 
ENDBRANCH  16  22
ENDBRANCH  14  15
ENDBRANCH   8  13
BRANCH  12  29
ATOM     29  O   UNL A   1      32.672  26.528  21.415  1.00  0.00    -0.507 OA
ATOM     30  H   UNL A   1      32.609  26.288  20.512  1.00  0.00     0.293 HD
ENDBRANCH  12  29
ENDBRANCH   4   7
ENDBRANCH   2   3
ENDBRANCH   1   2
BRANCH   1  31
ATOM     31  C   UNL A   1      33.140  30.061  26.057  1.00  0.00     0.023 C 
BRANCH  31  32
ATOM     32  C   UNL A   1      33.345  30.121  27.560  1.00  0.00     0.116 C 
BRANCH  32  33
ATOM     33  N   UNL A   1      34.063  31.275  28.072  1.00  0.00    -0.352 N 
ATOM     34  C   UNL A   1      35.327  31.348  28.636  1.00  0.00     0.251 C 
ATOM     35  H   UNL A   1      33.583  32.131  28.007  1.00  0.00     0.163 HD
ATOM     36  O   UNL A   1      35.714  32.431  29.083  1.00  0.00    -0.269 OA
BRANCH  34  37
ATOM     37  C   UNL A   1      36.275  30.195  28.603  1.00  0.00     0.039 A 
ATOM     38  C   UNL A   1      36.504  29.483  29.793  1.00  0.00     0.014 A 
ATOM     39  C   UNL A   1      37.056  29.903  27.491  1.00  0.00     0.014 A 
ATOM     40  C   UNL A   1      37.642  28.684  29.921  1.00  0.00     0.010 A 
ATOM     41  C   UNL A   1      38.239  29.217  27.645  1.00  0.00     0.010 A 
ATOM     42  C   UNL A   1      38.560  28.653  28.876  1.00  0.00    -0.014 A 
BRANCH  42  43
ATOM     43  C   UNL A   1      39.936  28.199  28.995  1.00  0.00     0.031 A 
ATOM     44  C   UNL A   1      40.369  26.906  28.439  1.00  0.00     0.074 A 
ATOM     45  C   UNL A   1      40.856  29.063  29.473  1.00  0.00     0.049 A 
ATOM     46  N   UNL A   1      41.404  26.260  28.858  1.00  0.00    -0.248 NA
ATOM     47  C   UNL A   1      39.656  26.225  27.363  1.00  0.00     0.031 C 
ATOM     48  C   UNL A   1      42.309  28.973  29.379  1.00  0.00     0.029 A 
ATOM     49  N   UNL A   1      40.643  30.134  30.325  1.00  0.00    -0.354 N 
ATOM     50  C   UNL A   1      41.677  25.292  27.922  1.00  0.00     0.074 A 
ATOM     51  C   UNL A   1      40.515  25.246  27.064  1.00  0.00     0.031 C 
ATOM     52  C   UNL A   1      42.855  29.775  30.310  1.00  0.00     0.029 A 
ATOM     53  C   UNL A   1      41.772  30.288  31.134  1.00  0.00     0.049 A 
ATOM     54  H   UNL A   1      39.832  30.693  30.356  1.00  0.00     0.167 HD
ATOM     55  C   UNL A   1      42.923  24.745  27.857  1.00  0.00     0.031 A 
ATOM     56  C   UNL A   1      41.671  30.104  32.484  1.00  0.00     0.031 A 
ATOM     57  C   UNL A   1      43.823  25.294  28.867  1.00  0.00     0.049 A 
ATOM     58  C   UNL A   1      42.459  28.914  32.998  1.00  0.00     0.074 A 
ATOM     59  C   UNL A   1      44.845  26.228  28.814  1.00  0.00     0.029 A 
ATOM     60  N   UNL A   1      43.526  25.120  30.214  1.00  0.00    -0.354 N 
ATOM     61  N   UNL A   1      42.956  27.978  32.237  1.00  0.00    -0.248 NA
ATOM     62  C   UNL A   1      42.724  28.670  34.413  1.00  0.00     0.031 C 
ATOM     63  C   UNL A   1      45.130  26.651  30.138  1.00  0.00     0.029 A 
ATOM     64  C   UNL A   1      44.296  25.958  30.997  1.00  0.00     0.049 A 
ATOM     65  H   UNL A   1      42.858  24.485  30.563  1.00  0.00     0.167 HD
ATOM     66  C   UNL A   1      43.582  27.031  33.007  1.00  0.00     0.074 A 
ATOM     67  C   UNL A   1      43.422  27.521  34.365  1.00  0.00     0.031 C 
ATOM     68  C   UNL A   1      44.168  25.928  32.449  1.00  0.00     0.031 A 
BRANCH  55  69
ATOM     69  C   UNL A   1      43.378  23.947  26.662  1.00  0.00    -0.014 A 
ATOM     70  C   UNL A   1      43.188  22.555  26.631  1.00  0.00     0.009 A 
ATOM     71  C   UNL A   1      44.041  24.509  25.557  1.00  0.00     0.009 A 
ATOM     72  C   UNL A   1      43.725  21.756  25.614  1.00  0.00     0.001 A 
ATOM     73  C   UNL A   1      44.619  23.712  24.559  1.00  0.00     0.001 A 
ATOM     74  C   UNL A   1      44.470  22.332  24.595  1.00  0.00     0.000 A 
ENDBRANCH  55  69
BRANCH  56  75
ATOM     75  C   UNL A   1      40.371  30.578  33.043  1.00  0.00    -0.014 A 
ATOM     76  C   UNL A   1      40.069  31.951  32.935  1.00  0.00     0.009 A 
ATOM     77  C   UNL A   1      39.323  29.681  33.296  1.00  0.00     0.009 A 
ATOM     78  C   UNL A   1      38.744  32.399  32.957  1.00  0.00     0.001 A 
ATOM     79  C   UNL A   1      37.997  30.138  33.331  1.00  0.00     0.001 A 
ATOM     80  C   UNL A   1      37.707  31.487  33.125  1.00  0.00     0.000 A 
ENDBRANCH  56  75
BRANCH  68  81
ATOM     81  C   UNL A   1      44.744  24.727  33.170  1.00  0.00    -0.014 A 
ATOM     82  C   UNL A   1      46.077  24.589  33.572  1.00  0.00     0.009 A 
ATOM     83  C   UNL A   1      43.863  23.693  33.572  1.00  0.00     0.009 A 
ATOM     84  C   UNL A   1      46.509  23.470  34.303  1.00  0.00     0.001 A 
ATOM     85  C   UNL A   1      44.276  22.601  34.338  1.00  0.00     0.001 A 
ATOM     86  C   UNL A   1      45.608  22.484  34.695  1.00  0.00     0.000 A 
ENDBRANCH  68  81
ENDBRANCH  42  43
ENDBRANCH  34  37
ENDBRANCH  32  33
ENDBRANCH  31  32
ENDBRANCH   1  31
TORSDOF 15
ENDMDL
MODEL 3
REMARK VINA RESULT:     -12.7      3.845      9.171
REMARK SMILES Cc1cccc(-n2c(C)cc(/C=N\c3ccc(O)c(C(=O)NCCCCNC(=O)c4ccc(-c5c6nc(c(-c7ccccc7)c7ccc([nH]7)c(-c7ccccc7)c7nc(c(-c8ccccc8)c8ccc5[nH]8)C=C7)C=C6)cc4)c3)c2C)c1
REMARK SMILES IDX 24 1 23 2 22 3 20 4 21 5 19 7 14 8 15 9 78 10 16 11 17 12
REMARK SMILES IDX 13 13 12 14 11 15 7 16 8 17 79 18 9 19 10 20 80 21 6 22 1 23
REMARK SMILES IDX 2 24 3 25 81 26 4 27 5 28 18 29 25 31 26 32 27 33 28 34
REMARK SMILES IDX 29 36 30 37 31 38 77 39 32 40 76 41 33 42 34 43 35 44 70 45
REMARK SMILES IDX 36 46 75 47 69 48 71 49 37 50 74 51 68 52 67 53 38 55 60 56
REMARK SMILES IDX 45 57 59 58 46 59 49 60 58 61 72 62 47 63 48 64 57 66 73 67
REMARK SMILES IDX 50 68 39 69 40 70 44 71 41 72 43 73 42 74 61 75 62 76 66 77
REMARK SMILES IDX 63 78 65 79 64 80 51 81 52 82 56 83 53 84 55 85 54 86
REMARK H PARENT 22 6 18 30 27 35 71 54 49 65
REMARK Flexibility Score: inf
ROOT
ATOM      1  C   UNL A   1      32.365  30.474  26.992  1.00  0.00     0.023 C 
ENDROOT
BRANCH   1   2
ATOM      2  C   UNL A   1      32.409  30.274  25.482  1.00  0.00     0.116 C 
BRANCH   2   3
ATOM      3  N   UNL A   1      33.314  29.246  24.986  1.00  0.00    -0.352 N 
ATOM      4  C   UNL A   1      33.074  27.997  24.450  1.00  0.00     0.255 C 
ATOM      5  O   UNL A   1      34.050  27.361  24.045  1.00  0.00    -0.269 OA
ATOM      6  H   UNL A   1      34.267  29.485  25.045  1.00  0.00     0.163 HD
BRANCH   4   7
ATOM      7  C   UNL A   1      31.718  27.375  24.357  1.00  0.00     0.083 A 
ATOM      8  C   UNL A   1      29.991  26.054  25.469  1.00  0.00     0.064 A 
ATOM      9  C   UNL A   1      29.135  26.255  24.388  1.00  0.00     0.032 A 
ATOM     10  C   UNL A   1      31.220  26.731  25.503  1.00  0.00     0.046 A 
ATOM     11  C   UNL A   1      29.625  26.848  23.232  1.00  0.00     0.049 A 
ATOM     12  C   UNL A   1      30.954  27.267  23.192  1.00  0.00     0.128 A 
BRANCH   8  13
ATOM     13  N   UNL A   1      29.674  25.157  26.492  1.00  0.00    -0.256 NA
ATOM     14  C   UNL A   1      30.280  24.011  26.641  1.00  0.00     0.121 C 
BRANCH  14  15
ATOM     15  C   UNL A   1      31.358  23.375  25.872  1.00  0.00     0.014 A 
ATOM     16  N   UNL A   1      33.285  22.437  25.131  1.00  0.00    -0.318 N 
ATOM     17  C   UNL A   1      32.454  22.575  24.031  1.00  0.00     0.021 A 
ATOM     18  C   UNL A   1      32.541  22.748  26.276  1.00  0.00     0.029 A 
ATOM     19  C   UNL A   1      32.788  22.056  22.674  1.00  0.00     0.065 C 
ATOM     20  C   UNL A   1      31.290  23.181  24.461  1.00  0.00     0.033 A 
ATOM     21  C   UNL A   1      33.064  22.482  27.642  1.00  0.00     0.065 C 
BRANCH  16  22
ATOM     22  C   UNL A   1      34.676  22.116  25.090  1.00  0.00     0.046 A 
ATOM     23  C   UNL A   1      38.001  23.834  25.849  1.00  0.00     0.044 C 
ATOM     24  C   UNL A   1      36.979  22.793  25.496  1.00  0.00    -0.049 A 
ATOM     25  C   UNL A   1      37.385  21.462  25.332  1.00  0.00     0.003 A 
ATOM     26  C   UNL A   1      35.619  23.119  25.368  1.00  0.00     0.030 A 
ATOM     27  C   UNL A   1      36.455  20.476  25.008  1.00  0.00     0.002 A 
ATOM     28  C   UNL A   1      35.106  20.804  24.874  1.00  0.00     0.026 A 
ENDBRANCH  16  22
ENDBRANCH  14  15
ENDBRANCH   8  13
BRANCH  12  29
ATOM     29  O   UNL A   1      31.485  27.361  21.932  1.00  0.00    -0.507 OA
ATOM     30  H   UNL A   1      30.922  27.343  21.184  1.00  0.00     0.293 HD
ENDBRANCH  12  29
ENDBRANCH   4   7
ENDBRANCH   2   3
ENDBRANCH   1   2
BRANCH   1  31
ATOM     31  C   UNL A   1      33.685  30.560  27.735  1.00  0.00     0.023 C 
BRANCH  31  32
ATOM     32  C   UNL A   1      34.407  31.896  27.679  1.00  0.00     0.116 C 
BRANCH  32  33
ATOM     33  N   UNL A   1      33.767  33.008  28.359  1.00  0.00    -0.352 N 
ATOM     34  C   UNL A   1      34.171  33.701  29.489  1.00  0.00     0.251 C 
ATOM     35  H   UNL A   1      32.923  33.316  27.958  1.00  0.00     0.163 HD
ATOM     36  O   UNL A   1      33.425  34.569  29.949  1.00  0.00    -0.269 OA
BRANCH  34  37
ATOM     37  C   UNL A   1      35.527  33.518  30.085  1.00  0.00     0.039 A 
ATOM     38  C   UNL A   1      36.626  34.116  29.443  1.00  0.00     0.014 A 
ATOM     39  C   UNL A   1      35.766  32.654  31.147  1.00  0.00     0.014 A 
ATOM     40  C   UNL A   1      37.920  33.663  29.705  1.00  0.00     0.010 A 
ATOM     41  C   UNL A   1      37.021  32.119  31.327  1.00  0.00     0.010 A 
ATOM     42  C   UNL A   1      38.091  32.583  30.567  1.00  0.00    -0.014 A 
BRANCH  42  43
ATOM     43  C   UNL A   1      39.290  31.767  30.645  1.00  0.00     0.031 A 
ATOM     44  C   UNL A   1      39.423  30.521  29.870  1.00  0.00     0.074 A 
ATOM     45  C   UNL A   1      40.358  32.258  31.307  1.00  0.00     0.049 A 
ATOM     46  N   UNL A   1      40.221  29.561  30.194  1.00  0.00    -0.248 NA
ATOM     47  C   UNL A   1      38.650  30.250  28.662  1.00  0.00     0.031 C 
ATOM     48  C   UNL A   1      41.743  31.803  31.246  1.00  0.00     0.029 A 
ATOM     49  N   UNL A   1      40.357  33.184  32.337  1.00  0.00    -0.354 N 
ATOM     50  C   UNL A   1      40.314  28.732  29.103  1.00  0.00     0.074 A 
ATOM     51  C   UNL A   1      39.252  29.145  28.213  1.00  0.00     0.031 C 
ATOM     52  C   UNL A   1      42.398  32.258  32.328  1.00  0.00     0.029 A 
ATOM     53  C   UNL A   1      41.418  32.891  33.198  1.00  0.00     0.049 A 
ATOM     54  H   UNL A   1      39.716  33.925  32.446  1.00  0.00     0.167 HD
ATOM     55  C   UNL A   1      41.379  27.893  28.977  1.00  0.00     0.031 A 
ATOM     56  C   UNL A   1      41.165  32.510  34.485  1.00  0.00     0.031 A 
ATOM     57  C   UNL A   1      42.304  28.000  30.102  1.00  0.00     0.049 A 
ATOM     58  C   UNL A   1      41.578  31.083  34.792  1.00  0.00     0.074 A 
ATOM     59  C   UNL A   1      43.532  28.623  30.259  1.00  0.00     0.029 A 
ATOM     60  N   UNL A   1      41.864  27.682  31.382  1.00  0.00    -0.354 N 
ATOM     61  N   UNL A   1      41.880  30.194  33.886  1.00  0.00    -0.248 NA
ATOM     62  C   UNL A   1      41.656  30.536  36.144  1.00  0.00     0.031 C 
ATOM     63  C   UNL A   1      43.806  28.721  31.648  1.00  0.00     0.029 A 
ATOM     64  C   UNL A   1      42.756  28.137  32.333  1.00  0.00     0.049 A 
ATOM     65  H   UNL A   1      41.030  27.197  31.582  1.00  0.00     0.167 HD
ATOM     66  C   UNL A   1      42.179  28.997  34.484  1.00  0.00     0.074 A 
ATOM     67  C   UNL A   1      42.039  29.269  35.904  1.00  0.00     0.031 C 
ATOM     68  C   UNL A   1      42.507  27.892  33.749  1.00  0.00     0.031 A 
BRANCH  55  69
ATOM     69  C   UNL A   1      41.712  27.222  27.669  1.00  0.00    -0.014 A 
ATOM     70  C   UNL A   1      41.053  26.036  27.299  1.00  0.00     0.009 A 
ATOM     71  C   UNL A   1      42.698  27.688  26.783  1.00  0.00     0.009 A 
ATOM     72  C   UNL A   1      41.432  25.300  26.170  1.00  0.00     0.001 A 
ATOM     73  C   UNL A   1      43.112  26.935  25.676  1.00  0.00     0.001 A 
ATOM     74  C   UNL A   1      42.485  25.732  25.377  1.00  0.00     0.000 A 
ENDBRANCH  55  69
BRANCH  56  75
ATOM     75  C   UNL A   1      39.987  33.208  35.080  1.00  0.00    -0.014 A 
ATOM     76  C   UNL A   1      38.737  32.557  35.023  1.00  0.00     0.009 A 
ATOM     77  C   UNL A   1      40.154  34.254  35.999  1.00  0.00     0.009 A 
ATOM     78  C   UNL A   1      37.727  32.861  35.940  1.00  0.00     0.001 A 
ATOM     79  C   UNL A   1      39.132  34.563  36.909  1.00  0.00     0.001 A 
ATOM     80  C   UNL A   1      37.937  33.844  36.903  1.00  0.00     0.000 A 
ENDBRANCH  56  75
BRANCH  68  81
ATOM     81  C   UNL A   1      42.696  26.475  34.249  1.00  0.00    -0.014 A 
ATOM     82  C   UNL A   1      41.808  25.787  35.084  1.00  0.00     0.009 A 
ATOM     83  C   UNL A   1      43.798  25.727  33.765  1.00  0.00     0.009 A 
ATOM     84  C   UNL A   1      42.025  24.446  35.440  1.00  0.00     0.001 A 
ATOM     85  C   UNL A   1      43.996  24.381  34.078  1.00  0.00     0.001 A 
ATOM     86  C   UNL A   1      43.111  23.741  34.928  1.00  0.00     0.000 A 
ENDBRANCH  68  81
ENDBRANCH  42  43
ENDBRANCH  34  37
ENDBRANCH  32  33
ENDBRANCH  31  32
ENDBRANCH   1  31
TORSDOF 15
ENDMDL
