MODEL 1
REMARK VINA RESULT:     -11.2      0.000      0.000
REMARK SMILES O=C(CCCN1C(=O)/C(=C\c2ccc(O)c(O)c2)SC1=S)NCCCCNC(=O)c1ccc(-c2c3nc(c(-c4ccccc4)c4ccc([nH]4)c(-c4ccccc4)c4nc(c(-c5ccccc5)c5ccc2[nH]5)C=C4)C=C3)cc1
REMARK SMILES IDX 23 1 22 2 1 3 2 4 3 6 4 7 5 8 6 9 7 10 20 11 8 12 9 13 19 14
REMARK SMILES IDX 21 15 10 16 11 17 12 18 18 19 13 20 16 21 14 22 17 23 15 25
REMARK SMILES IDX 24 27 25 28 26 29 27 30 28 31 29 33 30 34 31 35 77 36 32 37
REMARK SMILES IDX 76 38 33 39 34 40 35 41 70 42 36 43 75 44 69 45 71 46 37 47
REMARK SMILES IDX 74 48 68 49 67 50 38 52 60 53 45 54 59 55 46 56 49 57 58 58
REMARK SMILES IDX 72 59 47 60 48 61 57 63 73 64 50 65 39 66 40 67 44 68 41 69
REMARK SMILES IDX 43 70 42 71 61 72 62 73 66 74 63 75 65 76 64 77 51 78 52 79
REMARK SMILES IDX 56 80 53 81 55 82 54 83
REMARK H PARENT 22 5 17 24 15 26 27 32 71 51 49 62
REMARK Flexibility Score: inf
ROOT
ATOM      1  C   UNL A   1      40.673  21.359  27.360  1.00  0.00     0.116 C 
ENDROOT
BRANCH   1   2
ATOM      2  N   UNL A   1      39.858  22.484  26.951  1.00  0.00    -0.356 N 
ATOM      3  O   UNL A   1      38.457  21.246  25.616  1.00  0.00    -0.275 OA
ATOM      4  C   UNL A   1      38.791  22.323  26.097  1.00  0.00     0.220 C 
ATOM      5  H   UNL A   1      40.072  23.383  27.290  1.00  0.00     0.163 HD
BRANCH   4   6
ATOM      6  C   UNL A   1      38.031  23.597  25.813  1.00  0.00     0.102 C 
BRANCH   6   7
ATOM      7  C   UNL A   1      36.537  23.341  25.612  1.00  0.00     0.032 C 
BRANCH   7   8
ATOM      8  C   UNL A   1      36.113  22.851  24.216  1.00  0.00     0.128 C 
BRANCH   8   9
ATOM      9  N   UNL A   1      34.698  22.498  24.020  1.00  0.00    -0.293 N 
ATOM     10  C   UNL A   1      34.204  21.291  24.482  1.00  0.00     0.266 C 
ATOM     11  C   UNL A   1      33.736  23.396  23.602  1.00  0.00     0.148 C 
ATOM     12  O   UNL A   1      34.805  20.525  25.218  1.00  0.00    -0.268 OA
ATOM     13  C   UNL A   1      32.804  21.087  24.015  1.00  0.00     0.081 C 
ATOM     14  S   UNL A   1      32.179  22.589  23.447  1.00  0.00    -0.054 SA
ATOM     15  S   UNL A   1      33.921  25.019  23.266  1.00  0.00    -0.052 S 
ATOM     16  C   UNL A   1      32.122  19.934  23.932  1.00  0.00     0.029 C 
BRANCH  16  17
ATOM     17  C   UNL A   1      32.658  18.606  24.256  1.00  0.00    -0.020 A 
ATOM     18  C   UNL A   1      32.558  18.066  25.548  1.00  0.00     0.012 A 
ATOM     19  C   UNL A   1      33.308  17.872  23.255  1.00  0.00     0.058 A 
ATOM     20  C   UNL A   1      33.175  16.853  25.867  1.00  0.00     0.051 A 
ATOM     21  C   UNL A   1      33.897  16.656  23.575  1.00  0.00     0.157 A 
ATOM     22  C   UNL A   1      33.854  16.159  24.875  1.00  0.00     0.157 A 
BRANCH  21  23
ATOM     23  O   UNL A   1      34.548  15.954  22.601  1.00  0.00    -0.504 OA
ATOM     24  H   UNL A   1      34.060  15.441  21.988  1.00  0.00     0.293 HD
ENDBRANCH  21  23
BRANCH  22  25
ATOM     25  O   UNL A   1      34.505  14.986  25.132  1.00  0.00    -0.504 OA
ATOM     26  H   UNL A   1      34.502  14.298  24.496  1.00  0.00     0.293 HD
ENDBRANCH  22  25
ENDBRANCH  16  17
ENDBRANCH   8   9
ENDBRANCH   7   8
ENDBRANCH   6   7
ENDBRANCH   4   6
ENDBRANCH   1   2
BRANCH   1  27
ATOM     27  C   UNL A   1      41.824  21.087  26.394  1.00  0.00     0.023 C 
BRANCH  27  28
ATOM     28  C   UNL A   1      41.900  19.661  25.844  1.00  0.00     0.023 C 
BRANCH  28  29
ATOM     29  C   UNL A   1      43.209  18.922  26.104  1.00  0.00     0.116 C 
BRANCH  29  30
ATOM     30  N   UNL A   1      43.962  18.645  24.895  1.00  0.00    -0.352 N 
ATOM     31  C   UNL A   1      44.736  19.493  24.138  1.00  0.00     0.251 C 
ATOM     32  H   UNL A   1      43.911  17.717  24.570  1.00  0.00     0.163 HD
ATOM     33  O   UNL A   1      45.198  19.104  23.069  1.00  0.00    -0.269 OA
BRANCH  31  34
ATOM     34  C   UNL A   1      44.989  20.884  24.582  1.00  0.00     0.039 A 
ATOM     35  C   UNL A   1      44.557  21.933  23.767  1.00  0.00     0.014 A 
ATOM     36  C   UNL A   1      45.659  21.162  25.777  1.00  0.00     0.014 A 
ATOM     37  C   UNL A   1      44.735  23.258  24.178  1.00  0.00     0.010 A 
ATOM     38  C   UNL A   1      45.778  22.481  26.218  1.00  0.00     0.010 A 
ATOM     39  C   UNL A   1      45.317  23.543  25.424  1.00  0.00    -0.014 A 
BRANCH  39  40
ATOM     40  C   UNL A   1      45.437  24.942  25.914  1.00  0.00     0.031 A 
ATOM     41  C   UNL A   1      46.761  25.654  25.881  1.00  0.00     0.074 A 
ATOM     42  C   UNL A   1      44.360  25.557  26.442  1.00  0.00     0.049 A 
ATOM     43  N   UNL A   1      47.063  26.856  26.306  1.00  0.00    -0.248 NA
ATOM     44  C   UNL A   1      47.899  24.914  25.314  1.00  0.00     0.031 C 
ATOM     45  C   UNL A   1      43.023  24.974  26.565  1.00  0.00     0.029 A 
ATOM     46  N   UNL A   1      44.224  26.814  26.980  1.00  0.00    -0.354 N 
ATOM     47  C   UNL A   1      48.424  27.007  26.076  1.00  0.00     0.074 A 
ATOM     48  C   UNL A   1      48.898  25.762  25.510  1.00  0.00     0.031 C 
ATOM     49  C   UNL A   1      42.197  25.878  27.116  1.00  0.00     0.029 A 
ATOM     50  C   UNL A   1      42.953  27.088  27.423  1.00  0.00     0.049 A 
ATOM     51  H   UNL A   1      44.967  27.457  27.042  1.00  0.00     0.167 HD
ATOM     52  C   UNL A   1      49.209  28.089  26.301  1.00  0.00     0.031 A 
ATOM     53  C   UNL A   1      42.450  28.187  28.016  1.00  0.00     0.031 A 
ATOM     54  C   UNL A   1      48.742  29.333  26.853  1.00  0.00     0.049 A 
ATOM     55  C   UNL A   1      43.347  29.366  28.274  1.00  0.00     0.074 A 
ATOM     56  C   UNL A   1      49.452  30.504  27.059  1.00  0.00     0.029 A 
ATOM     57  N   UNL A   1      47.449  29.568  27.291  1.00  0.00    -0.354 N 
ATOM     58  N   UNL A   1      44.616  29.517  27.988  1.00  0.00    -0.248 NA
ATOM     59  C   UNL A   1      42.735  30.531  28.929  1.00  0.00     0.031 C 
ATOM     60  C   UNL A   1      48.600  31.432  27.669  1.00  0.00     0.029 A 
ATOM     61  C   UNL A   1      47.347  30.856  27.793  1.00  0.00     0.049 A 
ATOM     62  H   UNL A   1      46.711  28.916  27.252  1.00  0.00     0.167 HD
ATOM     63  C   UNL A   1      44.948  30.801  28.401  1.00  0.00     0.074 A 
ATOM     64  C   UNL A   1      43.743  31.392  28.945  1.00  0.00     0.031 C 
ATOM     65  C   UNL A   1      46.144  31.433  28.332  1.00  0.00     0.031 A 
BRANCH  52  66
ATOM     66  C   UNL A   1      50.668  27.969  25.959  1.00  0.00    -0.014 A 
ATOM     67  C   UNL A   1      51.143  28.279  24.674  1.00  0.00     0.009 A 
ATOM     68  C   UNL A   1      51.585  27.578  26.946  1.00  0.00     0.009 A 
ATOM     69  C   UNL A   1      52.503  28.165  24.377  1.00  0.00     0.001 A 
ATOM     70  C   UNL A   1      52.948  27.492  26.653  1.00  0.00     0.001 A 
ATOM     71  C   UNL A   1      53.404  27.777  25.367  1.00  0.00     0.000 A 
ENDBRANCH  52  66
BRANCH  53  72
ATOM     72  C   UNL A   1      41.015  28.236  28.399  1.00  0.00    -0.014 A 
ATOM     73  C   UNL A   1      40.582  27.658  29.603  1.00  0.00     0.009 A 
ATOM     74  C   UNL A   1      40.070  28.848  27.561  1.00  0.00     0.009 A 
ATOM     75  C   UNL A   1      39.229  27.670  29.947  1.00  0.00     0.001 A 
ATOM     76  C   UNL A   1      38.722  28.882  27.921  1.00  0.00     0.001 A 
ATOM     77  C   UNL A   1      38.301  28.286  29.109  1.00  0.00     0.000 A 
ENDBRANCH  53  72
BRANCH  65  78
ATOM     78  C   UNL A   1      46.201  32.852  28.826  1.00  0.00    -0.014 A 
ATOM     79  C   UNL A   1      45.917  33.932  27.976  1.00  0.00     0.009 A 
ATOM     80  C   UNL A   1      46.507  33.107  30.172  1.00  0.00     0.009 A 
ATOM     81  C   UNL A   1      45.971  35.241  28.459  1.00  0.00     0.001 A 
ATOM     82  C   UNL A   1      46.533  34.415  30.658  1.00  0.00     0.001 A 
ATOM     83  C   UNL A   1      46.274  35.481  29.798  1.00  0.00     0.000 A 
ENDBRANCH  65  78
ENDBRANCH  39  40
ENDBRANCH  31  34
ENDBRANCH  29  30
ENDBRANCH  28  29
ENDBRANCH  27  28
ENDBRANCH   1  27
TORSDOF 17
ENDMDL
MODEL 2
REMARK VINA RESULT:     -10.9      7.905     12.593
REMARK SMILES O=C(CCCN1C(=O)/C(=C\c2ccc(O)c(O)c2)SC1=S)NCCCCNC(=O)c1ccc(-c2c3nc(c(-c4ccccc4)c4ccc([nH]4)c(-c4ccccc4)c4nc(c(-c5ccccc5)c5ccc2[nH]5)C=C4)C=C3)cc1
REMARK SMILES IDX 23 1 22 2 1 3 2 4 3 6 4 7 5 8 6 9 7 10 20 11 8 12 9 13 19 14
REMARK SMILES IDX 21 15 10 16 11 17 12 18 18 19 13 20 16 21 14 22 17 23 15 25
REMARK SMILES IDX 24 27 25 28 26 29 27 30 28 31 29 33 30 34 31 35 77 36 32 37
REMARK SMILES IDX 76 38 33 39 34 40 35 41 70 42 36 43 75 44 69 45 71 46 37 47
REMARK SMILES IDX 74 48 68 49 67 50 38 52 60 53 45 54 59 55 46 56 49 57 58 58
REMARK SMILES IDX 72 59 47 60 48 61 57 63 73 64 50 65 39 66 40 67 44 68 41 69
REMARK SMILES IDX 43 70 42 71 61 72 62 73 66 74 63 75 65 76 64 77 51 78 52 79
REMARK SMILES IDX 56 80 53 81 55 82 54 83
REMARK H PARENT 22 5 17 24 15 26 27 32 71 51 49 62
REMARK Flexibility Score: inf
ROOT
ATOM      1  C   UNL A   1      34.357  31.953  29.076  1.00  0.00     0.116 C 
ENDROOT
BRANCH   1   2
ATOM      2  N   UNL A   1      34.550  30.809  28.209  1.00  0.00    -0.356 N 
ATOM      3  O   UNL A   1      32.468  30.927  27.249  1.00  0.00    -0.275 OA
ATOM      4  C   UNL A   1      33.565  30.390  27.346  1.00  0.00     0.220 C 
ATOM      5  H   UNL A   1      35.405  30.321  28.238  1.00  0.00     0.163 HD
BRANCH   4   6
ATOM      6  C   UNL A   1      33.957  29.208  26.491  1.00  0.00     0.102 C 
BRANCH   6   7
ATOM      7  C   UNL A   1      33.651  29.444  25.011  1.00  0.00     0.032 C 
BRANCH   7   8
ATOM      8  C   UNL A   1      33.406  28.187  24.158  1.00  0.00     0.128 C 
BRANCH   8   9
ATOM      9  N   UNL A   1      32.015  27.730  24.004  1.00  0.00    -0.293 N 
ATOM     10  C   UNL A   1      31.121  28.448  23.231  1.00  0.00     0.266 C 
ATOM     11  C   UNL A   1      31.572  26.481  24.394  1.00  0.00     0.148 C 
ATOM     12  O   UNL A   1      31.420  29.372  22.491  1.00  0.00    -0.268 OA
ATOM     13  C   UNL A   1      29.746  27.890  23.370  1.00  0.00     0.081 C 
ATOM     14  S   UNL A   1      29.847  26.326  24.085  1.00  0.00    -0.054 SA
ATOM     15  S   UNL A   1      32.460  25.240  25.066  1.00  0.00    -0.052 S 
ATOM     16  C   UNL A   1      28.579  28.495  23.094  1.00  0.00     0.029 C 
BRANCH  16  17
ATOM     17  C   UNL A   1      28.430  29.879  22.631  1.00  0.00    -0.020 A 
ATOM     18  C   UNL A   1      28.603  30.969  23.498  1.00  0.00     0.012 A 
ATOM     19  C   UNL A   1      28.080  30.116  21.295  1.00  0.00     0.058 A 
ATOM     20  C   UNL A   1      28.343  32.275  23.070  1.00  0.00     0.051 A 
ATOM     21  C   UNL A   1      27.848  31.418  20.872  1.00  0.00     0.157 A 
ATOM     22  C   UNL A   1      27.954  32.488  21.755  1.00  0.00     0.157 A 
BRANCH  21  23
ATOM     23  O   UNL A   1      27.487  31.642  19.574  1.00  0.00    -0.504 OA
ATOM     24  H   UNL A   1      28.059  32.116  19.003  1.00  0.00     0.293 HD
ENDBRANCH  21  23
BRANCH  22  25
ATOM     25  O   UNL A   1      27.654  33.736  21.286  1.00  0.00    -0.504 OA
ATOM     26  H   UNL A   1      27.856  34.492  21.802  1.00  0.00     0.293 HD
ENDBRANCH  22  25
ENDBRANCH  16  17
ENDBRANCH   8   9
ENDBRANCH   7   8
ENDBRANCH   6   7
ENDBRANCH   4   6
ENDBRANCH   1   2
BRANCH   1  27
ATOM     27  C   UNL A   1      34.463  33.280  28.326  1.00  0.00     0.023 C 
BRANCH  27  28
ATOM     28  C   UNL A   1      33.262  34.217  28.474  1.00  0.00     0.023 C 
BRANCH  28  29
ATOM     29  C   UNL A   1      33.541  35.540  29.179  1.00  0.00     0.116 C 
BRANCH  29  30
ATOM     30  N   UNL A   1      32.646  35.797  30.293  1.00  0.00    -0.352 N 
ATOM     31  C   UNL A   1      32.783  35.450  31.617  1.00  0.00     0.251 C 
ATOM     32  H   UNL A   1      31.824  36.290  30.068  1.00  0.00     0.163 HD
ATOM     33  O   UNL A   1      31.854  35.645  32.396  1.00  0.00    -0.269 OA
BRANCH  31  34
ATOM     34  C   UNL A   1      34.027  34.810  32.106  1.00  0.00     0.039 A 
ATOM     35  C   UNL A   1      33.996  33.449  32.424  1.00  0.00     0.014 A 
ATOM     36  C   UNL A   1      35.210  35.536  32.270  1.00  0.00     0.014 A 
ATOM     37  C   UNL A   1      35.163  32.802  32.841  1.00  0.00     0.010 A 
ATOM     38  C   UNL A   1      36.388  34.876  32.623  1.00  0.00     0.010 A 
ATOM     39  C   UNL A   1      36.379  33.502  32.911  1.00  0.00    -0.014 A 
BRANCH  39  40
ATOM     40  C   UNL A   1      37.644  32.810  33.270  1.00  0.00     0.031 A 
ATOM     41  C   UNL A   1      38.246  31.786  32.348  1.00  0.00     0.074 A 
ATOM     42  C   UNL A   1      38.229  33.063  34.458  1.00  0.00     0.049 A 
ATOM     43  N   UNL A   1      39.317  31.052  32.515  1.00  0.00    -0.248 NA
ATOM     44  C   UNL A   1      37.542  31.542  31.079  1.00  0.00     0.031 C 
ATOM     45  C   UNL A   1      37.737  34.009  35.463  1.00  0.00     0.029 A 
ATOM     46  N   UNL A   1      39.367  32.541  35.024  1.00  0.00    -0.354 N 
ATOM     47  C   UNL A   1      39.405  30.247  31.386  1.00  0.00     0.074 A 
ATOM     48  C   UNL A   1      38.258  30.555  30.559  1.00  0.00     0.031 C 
ATOM     49  C   UNL A   1      38.581  34.018  36.508  1.00  0.00     0.029 A 
ATOM     50  C   UNL A   1      39.648  33.052  36.268  1.00  0.00     0.049 A 
ATOM     51  H   UNL A   1      39.926  31.863  34.580  1.00  0.00     0.167 HD
ATOM     52  C   UNL A   1      40.360  29.343  31.059  1.00  0.00     0.031 A 
ATOM     53  C   UNL A   1      40.649  32.773  37.123  1.00  0.00     0.031 A 
ATOM     54  C   UNL A   1      41.508  29.040  31.871  1.00  0.00     0.049 A 
ATOM     55  C   UNL A   1      41.684  31.751  36.745  1.00  0.00     0.074 A 
ATOM     56  C   UNL A   1      42.559  28.184  31.591  1.00  0.00     0.029 A 
ATOM     57  N   UNL A   1      41.753  29.578  33.124  1.00  0.00    -0.354 N 
ATOM     58  N   UNL A   1      41.789  31.049  35.644  1.00  0.00    -0.248 NA
ATOM     59  C   UNL A   1      42.746  31.490  37.728  1.00  0.00     0.031 C 
ATOM     60  C   UNL A   1      43.416  28.166  32.697  1.00  0.00     0.029 A 
ATOM     61  C   UNL A   1      42.925  29.051  33.643  1.00  0.00     0.049 A 
ATOM     62  H   UNL A   1      41.180  30.238  33.579  1.00  0.00     0.167 HD
ATOM     63  C   UNL A   1      42.940  30.286  35.788  1.00  0.00     0.074 A 
ATOM     64  C   UNL A   1      43.507  30.621  37.078  1.00  0.00     0.031 C 
ATOM     65  C   UNL A   1      43.480  29.391  34.927  1.00  0.00     0.031 A 
BRANCH  52  66
ATOM     66  C   UNL A   1      40.195  28.602  29.760  1.00  0.00    -0.014 A 
ATOM     67  C   UNL A   1      40.696  29.122  28.556  1.00  0.00     0.009 A 
ATOM     68  C   UNL A   1      39.565  27.348  29.749  1.00  0.00     0.009 A 
ATOM     69  C   UNL A   1      40.537  28.416  27.361  1.00  0.00     0.001 A 
ATOM     70  C   UNL A   1      39.432  26.633  28.558  1.00  0.00     0.001 A 
ATOM     71  C   UNL A   1      39.910  27.171  27.364  1.00  0.00     0.000 A 
ENDBRANCH  52  66
BRANCH  53  72
ATOM     72  C   UNL A   1      40.734  33.482  38.426  1.00  0.00    -0.014 A 
ATOM     73  C   UNL A   1      41.348  34.742  38.510  1.00  0.00     0.009 A 
ATOM     74  C   UNL A   1      40.214  32.902  39.593  1.00  0.00     0.009 A 
ATOM     75  C   UNL A   1      41.462  35.394  39.739  1.00  0.00     0.001 A 
ATOM     76  C   UNL A   1      40.304  33.569  40.817  1.00  0.00     0.001 A 
ATOM     77  C   UNL A   1      40.936  34.809  40.890  1.00  0.00     0.000 A 
ENDBRANCH  53  72
BRANCH  65  78
ATOM     78  C   UNL A   1      44.769  28.735  35.335  1.00  0.00    -0.014 A 
ATOM     79  C   UNL A   1      46.011  29.317  35.035  1.00  0.00     0.009 A 
ATOM     80  C   UNL A   1      44.738  27.536  36.063  1.00  0.00     0.009 A 
ATOM     81  C   UNL A   1      47.196  28.692  35.429  1.00  0.00     0.001 A 
ATOM     82  C   UNL A   1      45.923  26.928  36.480  1.00  0.00     0.001 A 
ATOM     83  C   UNL A   1      47.151  27.502  36.155  1.00  0.00     0.000 A 
ENDBRANCH  65  78
ENDBRANCH  39  40
ENDBRANCH  31  34
ENDBRANCH  29  30
ENDBRANCH  28  29
ENDBRANCH  27  28
ENDBRANCH   1  27
TORSDOF 17
ENDMDL
MODEL 3
REMARK VINA RESULT:     -10.8      2.553      4.281
REMARK SMILES O=C(CCCN1C(=O)/C(=C\c2ccc(O)c(O)c2)SC1=S)NCCCCNC(=O)c1ccc(-c2c3nc(c(-c4ccccc4)c4ccc([nH]4)c(-c4ccccc4)c4nc(c(-c5ccccc5)c5ccc2[nH]5)C=C4)C=C3)cc1
REMARK SMILES IDX 23 1 22 2 1 3 2 4 3 6 4 7 5 8 6 9 7 10 20 11 8 12 9 13 19 14
REMARK SMILES IDX 21 15 10 16 11 17 12 18 18 19 13 20 16 21 14 22 17 23 15 25
REMARK SMILES IDX 24 27 25 28 26 29 27 30 28 31 29 33 30 34 31 35 77 36 32 37
REMARK SMILES IDX 76 38 33 39 34 40 35 41 70 42 36 43 75 44 69 45 71 46 37 47
REMARK SMILES IDX 74 48 68 49 67 50 38 52 60 53 45 54 59 55 46 56 49 57 58 58
REMARK SMILES IDX 72 59 47 60 48 61 57 63 73 64 50 65 39 66 40 67 44 68 41 69
REMARK SMILES IDX 43 70 42 71 61 72 62 73 66 74 63 75 65 76 64 77 51 78 52 79
REMARK SMILES IDX 56 80 53 81 55 82 54 83
REMARK H PARENT 22 5 17 24 15 26 27 32 71 51 49 62
REMARK Flexibility Score: inf
ROOT
ATOM      1  C   UNL A   1      40.066  21.523  26.857  1.00  0.00     0.116 C 
ENDROOT
BRANCH   1   2
ATOM      2  N   UNL A   1      39.333  22.527  26.113  1.00  0.00    -0.356 N 
ATOM      3  O   UNL A   1      37.494  21.202  25.742  1.00  0.00    -0.275 OA
ATOM      4  C   UNL A   1      38.077  22.273  25.613  1.00  0.00     0.220 C 
ATOM      5  H   UNL A   1      39.742  23.410  25.962  1.00  0.00     0.163 HD
BRANCH   4   6
ATOM      6  C   UNL A   1      37.448  23.448  24.902  1.00  0.00     0.102 C 
BRANCH   6   7
ATOM      7  C   UNL A   1      36.097  23.829  25.510  1.00  0.00     0.032 C 
BRANCH   7   8
ATOM      8  C   UNL A   1      34.848  23.347  24.748  1.00  0.00     0.128 C 
BRANCH   8   9
ATOM      9  N   UNL A   1      33.536  23.619  25.354  1.00  0.00    -0.293 N 
ATOM     10  C   UNL A   1      32.645  24.484  24.743  1.00  0.00     0.266 C 
ATOM     11  C   UNL A   1      33.008  22.884  26.398  1.00  0.00     0.148 C 
ATOM     12  O   UNL A   1      32.769  24.936  23.617  1.00  0.00    -0.268 OA
ATOM     13  C   UNL A   1      31.469  24.731  25.626  1.00  0.00     0.081 C 
ATOM     14  S   UNL A   1      31.444  23.539  26.870  1.00  0.00    -0.054 SA
ATOM     15  S   UNL A   1      33.674  21.562  27.164  1.00  0.00    -0.052 S 
ATOM     16  C   UNL A   1      30.598  25.751  25.573  1.00  0.00     0.029 C 
BRANCH  16  17
ATOM     17  C   UNL A   1      30.666  26.876  24.632  1.00  0.00    -0.020 A 
ATOM     18  C   UNL A   1      29.745  27.012  23.581  1.00  0.00     0.012 A 
ATOM     19  C   UNL A   1      31.690  27.821  24.773  1.00  0.00     0.058 A 
ATOM     20  C   UNL A   1      29.893  28.023  22.626  1.00  0.00     0.051 A 
ATOM     21  C   UNL A   1      31.814  28.836  23.834  1.00  0.00     0.157 A 
ATOM     22  C   UNL A   1      30.939  28.925  22.755  1.00  0.00     0.157 A 
BRANCH  21  23
ATOM     23  O   UNL A   1      32.827  29.743  23.964  1.00  0.00    -0.504 OA
ATOM     24  H   UNL A   1      33.403  29.909  23.244  1.00  0.00     0.293 HD
ENDBRANCH  21  23
BRANCH  22  25
ATOM     25  O   UNL A   1      31.156  29.914  21.837  1.00  0.00    -0.504 OA
ATOM     26  H   UNL A   1      31.248  30.803  22.118  1.00  0.00     0.293 HD
ENDBRANCH  22  25
ENDBRANCH  16  17
ENDBRANCH   8   9
ENDBRANCH   7   8
ENDBRANCH   6   7
ENDBRANCH   4   6
ENDBRANCH   1   2
BRANCH   1  27
ATOM     27  C   UNL A   1      41.383  21.142  26.185  1.00  0.00     0.023 C 
BRANCH  27  28
ATOM     28  C   UNL A   1      41.562  19.652  25.886  1.00  0.00     0.023 C 
BRANCH  28  29
ATOM     29  C   UNL A   1      42.931  19.070  26.225  1.00  0.00     0.116 C 
BRANCH  29  30
ATOM     30  N   UNL A   1      43.730  18.760  25.055  1.00  0.00    -0.352 N 
ATOM     31  C   UNL A   1      44.560  19.579  24.326  1.00  0.00     0.251 C 
ATOM     32  H   UNL A   1      43.668  17.830  24.737  1.00  0.00     0.163 HD
ATOM     33  O   UNL A   1      45.059  19.166  23.282  1.00  0.00    -0.269 OA
BRANCH  31  34
ATOM     34  C   UNL A   1      44.831  20.967  24.768  1.00  0.00     0.039 A 
ATOM     35  C   UNL A   1      44.561  22.014  23.882  1.00  0.00     0.014 A 
ATOM     36  C   UNL A   1      45.361  21.244  26.031  1.00  0.00     0.014 A 
ATOM     37  C   UNL A   1      44.757  23.339  24.284  1.00  0.00     0.010 A 
ATOM     38  C   UNL A   1      45.496  22.568  26.455  1.00  0.00     0.010 A 
ATOM     39  C   UNL A   1      45.195  23.629  25.587  1.00  0.00    -0.014 A 
BRANCH  39  40
ATOM     40  C   UNL A   1      45.327  25.033  26.058  1.00  0.00     0.031 A 
ATOM     41  C   UNL A   1      46.657  25.734  26.010  1.00  0.00     0.074 A 
ATOM     42  C   UNL A   1      44.258  25.664  26.582  1.00  0.00     0.049 A 
ATOM     43  N   UNL A   1      46.970  26.939  26.417  1.00  0.00    -0.248 NA
ATOM     44  C   UNL A   1      47.786  24.978  25.447  1.00  0.00     0.031 C 
ATOM     45  C   UNL A   1      42.917  25.093  26.719  1.00  0.00     0.029 A 
ATOM     46  N   UNL A   1      44.134  26.929  27.105  1.00  0.00    -0.354 N 
ATOM     47  C   UNL A   1      48.332  27.077  26.179  1.00  0.00     0.074 A 
ATOM     48  C   UNL A   1      48.793  25.821  25.627  1.00  0.00     0.031 C 
ATOM     49  C   UNL A   1      42.101  26.011  27.262  1.00  0.00     0.029 A 
ATOM     50  C   UNL A   1      42.868  27.219  27.550  1.00  0.00     0.049 A 
ATOM     51  H   UNL A   1      44.883  27.567  27.155  1.00  0.00     0.167 HD
ATOM     52  C   UNL A   1      49.126  28.155  26.386  1.00  0.00     0.031 A 
ATOM     53  C   UNL A   1      42.377  28.330  28.130  1.00  0.00     0.031 A 
ATOM     54  C   UNL A   1      48.672  29.410  26.923  1.00  0.00     0.049 A 
ATOM     55  C   UNL A   1      43.283  29.505  28.369  1.00  0.00     0.074 A 
ATOM     56  C   UNL A   1      49.392  30.578  27.110  1.00  0.00     0.029 A 
ATOM     57  N   UNL A   1      47.383  29.661  27.364  1.00  0.00    -0.354 N 
ATOM     58  N   UNL A   1      44.553  29.642  28.074  1.00  0.00    -0.248 NA
ATOM     59  C   UNL A   1      42.684  30.683  29.011  1.00  0.00     0.031 C 
ATOM     60  C   UNL A   1      48.550  31.521  27.711  1.00  0.00     0.029 A 
ATOM     61  C   UNL A   1      47.293  30.956  27.849  1.00  0.00     0.049 A 
ATOM     62  H   UNL A   1      46.640  29.015  27.337  1.00  0.00     0.167 HD
ATOM     63  C   UNL A   1      44.897  30.928  28.469  1.00  0.00     0.074 A 
ATOM     64  C   UNL A   1      43.699  31.536  29.011  1.00  0.00     0.031 C 
ATOM     65  C   UNL A   1      46.097  31.550  28.386  1.00  0.00     0.031 A 
BRANCH  52  66
ATOM     66  C   UNL A   1      50.582  28.019  26.038  1.00  0.00    -0.014 A 
ATOM     67  C   UNL A   1      51.521  27.583  26.987  1.00  0.00     0.009 A 
ATOM     68  C   UNL A   1      51.015  28.294  24.731  1.00  0.00     0.009 A 
ATOM     69  C   UNL A   1      52.869  27.459  26.642  1.00  0.00     0.001 A 
ATOM     70  C   UNL A   1      52.358  28.143  24.383  1.00  0.00     0.001 A 
ATOM     71  C   UNL A   1      53.286  27.734  25.341  1.00  0.00     0.000 A 
ENDBRANCH  52  66
BRANCH  53  72
ATOM     72  C   UNL A   1      40.944  28.395  28.520  1.00  0.00    -0.014 A 
ATOM     73  C   UNL A   1      39.995  28.946  27.644  1.00  0.00     0.009 A 
ATOM     74  C   UNL A   1      40.519  27.918  29.769  1.00  0.00     0.009 A 
ATOM     75  C   UNL A   1      38.655  29.042  28.023  1.00  0.00     0.001 A 
ATOM     76  C   UNL A   1      39.173  27.990  30.133  1.00  0.00     0.001 A 
ATOM     77  C   UNL A   1      38.244  28.560  29.265  1.00  0.00     0.000 A 
ENDBRANCH  53  72
BRANCH  65  78
ATOM     78  C   UNL A   1      46.168  32.975  28.861  1.00  0.00    -0.014 A 
ATOM     79  C   UNL A   1      46.517  33.286  30.184  1.00  0.00     0.009 A 
ATOM     80  C   UNL A   1      45.917  34.020  27.958  1.00  0.00     0.009 A 
ATOM     81  C   UNL A   1      46.582  34.618  30.601  1.00  0.00     0.001 A 
ATOM     82  C   UNL A   1      46.011  35.350  28.371  1.00  0.00     0.001 A 
ATOM     83  C   UNL A   1      46.334  35.648  29.694  1.00  0.00     0.000 A 
ENDBRANCH  65  78
ENDBRANCH  39  40
ENDBRANCH  31  34
ENDBRANCH  29  30
ENDBRANCH  28  29
ENDBRANCH  27  28
ENDBRANCH   1  27
TORSDOF 17
ENDMDL
