MODEL 1
REMARK VINA RESULT:     -10.8      0.000      0.000
REMARK SMILES COc1ccc(C(=O)NNC(=O)CCC(=O)NCCCCNC(=O)c2ccc(-c3c4nc(c(-c5ccccc5)c5ccc([nH]5)c(-c5ccccc5)c5nc(c(-c6ccccc6)c6ccc3[nH]6)C=C5)C=C4)cc2)cc1Br
REMARK SMILES IDX 18 1 17 2 15 3 16 4 14 6 13 7 11 8 10 9 12 11 9 12 7 13 8 14
REMARK SMILES IDX 6 16 3 17 4 18 74 19 5 20 73 21 75 22 2 23 1 24 19 25 20 26
REMARK SMILES IDX 21 27 22 28 23 29 24 31 25 32 26 33 72 34 27 35 71 36 28 37
REMARK SMILES IDX 29 38 30 39 65 40 31 41 70 42 64 43 66 44 32 45 69 46 63 47
REMARK SMILES IDX 62 48 33 50 55 51 40 52 54 53 41 54 44 55 53 56 67 57 42 58
REMARK SMILES IDX 43 59 52 61 68 62 45 63 34 64 35 65 39 66 36 67 38 68 37 69
REMARK SMILES IDX 56 70 57 71 61 72 58 73 60 74 59 75 46 76 47 77 51 78 48 79
REMARK SMILES IDX 50 80 49 81
REMARK H PARENT 17 5 10 10 9 15 22 30 66 49 44 60
REMARK Flexibility Score: inf
ROOT
ATOM      1  C   UNL A   1      36.048  21.471  25.754  1.00  0.00     0.116 C 
ENDROOT
BRANCH   1   2
ATOM      2  N   UNL A   1      35.021  21.555  26.782  1.00  0.00    -0.356 N 
ATOM      3  C   UNL A   1      33.960  22.390  26.925  1.00  0.00     0.220 C 
ATOM      4  O   UNL A   1      33.262  22.289  27.937  1.00  0.00    -0.275 OA
ATOM      5  H   UNL A   1      35.112  20.887  27.501  1.00  0.00     0.163 HD
BRANCH   3   6
ATOM      6  C   UNL A   1      33.660  23.453  25.896  1.00  0.00     0.110 C 
BRANCH   6   7
ATOM      7  C   UNL A   1      33.176  22.805  24.602  1.00  0.00     0.112 C 
BRANCH   7   8
ATOM      8  C   UNL A   1      31.731  23.179  24.384  1.00  0.00     0.238 C 
ATOM      9  N   UNL A   1      31.322  23.692  23.181  1.00  0.00    -0.267 N 
ATOM     10  H   UNL A   1      30.351  23.779  23.037  1.00  0.00     0.191 HD
ATOM     11  O   UNL A   1      30.884  22.944  25.248  1.00  0.00    -0.273 OA
BRANCH   9  12
ATOM     12  N   UNL A   1      32.155  24.100  22.145  1.00  0.00    -0.264 N 
ATOM     13  C   UNL A   1      32.606  25.381  21.883  1.00  0.00     0.269 C 
ATOM     14  O   UNL A   1      33.284  25.575  20.874  1.00  0.00    -0.267 OA
ATOM     15  H   UNL A   1      32.458  23.396  21.528  1.00  0.00     0.191 HD
BRANCH  13  16
ATOM     16  C   UNL A   1      32.251  26.560  22.719  1.00  0.00     0.042 A 
ATOM     17  C   UNL A   1      31.765  28.825  24.364  1.00  0.00     0.133 A 
ATOM     18  C   UNL A   1      32.820  27.935  24.631  1.00  0.00     0.048 A 
ATOM     19  C   UNL A   1      30.932  28.544  23.273  1.00  0.00     0.060 A 
ATOM     20  C   UNL A   1      33.069  26.826  23.820  1.00  0.00     0.018 A 
ATOM     21  C   UNL A   1      31.154  27.390  22.491  1.00  0.00     0.033 A 
ATOM     22  Br  UNL A   1      29.465  29.600  22.685  1.00  0.00    -0.047 Br
BRANCH  17  23
ATOM     23  O   UNL A   1      31.732  29.822  25.293  1.00  0.00    -0.496 OA
ATOM     24  C   UNL A   1      32.133  29.606  26.632  1.00  0.00     0.278 C 
ENDBRANCH  17  23
ENDBRANCH  13  16
ENDBRANCH   9  12
ENDBRANCH   7   8
ENDBRANCH   6   7
ENDBRANCH   3   6
ENDBRANCH   1   2
BRANCH   1  25
ATOM     25  C   UNL A   1      36.059  20.137  25.000  1.00  0.00     0.023 C 
BRANCH  25  26
ATOM     26  C   UNL A   1      37.428  19.462  24.890  1.00  0.00     0.023 C 
BRANCH  26  27
ATOM     27  C   UNL A   1      38.569  20.152  25.623  1.00  0.00     0.116 C 
BRANCH  27  28
ATOM     28  N   UNL A   1      39.739  19.300  25.753  1.00  0.00    -0.352 N 
ATOM     29  C   UNL A   1      41.032  19.573  26.128  1.00  0.00     0.251 C 
ATOM     30  H   UNL A   1      39.575  18.354  25.530  1.00  0.00     0.163 HD
ATOM     31  O   UNL A   1      41.869  18.675  26.019  1.00  0.00    -0.269 OA
BRANCH  29  32
ATOM     32  C   UNL A   1      41.466  20.904  26.631  1.00  0.00     0.039 A 
ATOM     33  C   UNL A   1      41.895  21.855  25.692  1.00  0.00     0.014 A 
ATOM     34  C   UNL A   1      41.522  21.228  27.988  1.00  0.00     0.014 A 
ATOM     35  C   UNL A   1      42.299  23.133  26.096  1.00  0.00     0.010 A 
ATOM     36  C   UNL A   1      41.860  22.520  28.391  1.00  0.00     0.010 A 
ATOM     37  C   UNL A   1      42.264  23.479  27.450  1.00  0.00    -0.014 A 
BRANCH  37  38
ATOM     38  C   UNL A   1      42.765  24.789  27.928  1.00  0.00     0.031 A 
ATOM     39  C   UNL A   1      41.773  25.876  28.231  1.00  0.00     0.074 A 
ATOM     40  C   UNL A   1      44.084  25.027  28.034  1.00  0.00     0.049 A 
ATOM     41  N   UNL A   1      41.982  27.113  28.598  1.00  0.00    -0.248 NA
ATOM     42  C   UNL A   1      40.351  25.522  28.083  1.00  0.00     0.031 C 
ATOM     43  C   UNL A   1      45.147  24.056  27.776  1.00  0.00     0.029 A 
ATOM     44  N   UNL A   1      44.755  26.175  28.375  1.00  0.00    -0.354 N 
ATOM     45  C   UNL A   1      40.723  27.686  28.715  1.00  0.00     0.074 A 
ATOM     46  C   UNL A   1      39.759  26.680  28.328  1.00  0.00     0.031 C 
ATOM     47  C   UNL A   1      46.338  24.650  27.969  1.00  0.00     0.029 A 
ATOM     48  C   UNL A   1      46.122  26.044  28.343  1.00  0.00     0.049 A 
ATOM     49  H   UNL A   1      44.300  27.013  28.620  1.00  0.00     0.167 HD
ATOM     50  C   UNL A   1      40.391  28.932  29.127  1.00  0.00     0.031 A 
ATOM     51  C   UNL A   1      47.087  26.951  28.587  1.00  0.00     0.031 A 
ATOM     52  C   UNL A   1      41.347  29.936  29.502  1.00  0.00     0.049 A 
ATOM     53  C   UNL A   1      46.698  28.352  28.976  1.00  0.00     0.074 A 
ATOM     54  C   UNL A   1      41.119  31.217  29.973  1.00  0.00     0.029 A 
ATOM     55  N   UNL A   1      42.723  29.771  29.435  1.00  0.00    -0.354 N 
ATOM     56  N   UNL A   1      45.502  28.862  29.150  1.00  0.00    -0.248 NA
ATOM     57  C   UNL A   1      47.796  29.301  29.214  1.00  0.00     0.031 C 
ATOM     58  C   UNL A   1      42.359  31.843  30.144  1.00  0.00     0.029 A 
ATOM     59  C   UNL A   1      43.358  30.936  29.827  1.00  0.00     0.049 A 
ATOM     60  H   UNL A   1      43.180  28.946  29.152  1.00  0.00     0.167 HD
ATOM     61  C   UNL A   1      45.703  30.174  29.555  1.00  0.00     0.074 A 
ATOM     62  C   UNL A   1      47.138  30.383  29.602  1.00  0.00     0.031 C 
ATOM     63  C   UNL A   1      44.785  31.121  29.870  1.00  0.00     0.031 A 
BRANCH  50  64
ATOM     64  C   UNL A   1      38.926  29.265  29.159  1.00  0.00    -0.014 A 
ATOM     65  C   UNL A   1      38.172  29.108  30.333  1.00  0.00     0.009 A 
ATOM     66  C   UNL A   1      38.285  29.703  27.991  1.00  0.00     0.009 A 
ATOM     67  C   UNL A   1      36.792  29.328  30.321  1.00  0.00     0.001 A 
ATOM     68  C   UNL A   1      36.910  29.951  27.990  1.00  0.00     0.001 A 
ATOM     69  C   UNL A   1      36.164  29.749  29.151  1.00  0.00     0.000 A 
ENDBRANCH  50  64
BRANCH  51  70
ATOM     70  C   UNL A   1      48.518  26.560  28.508  1.00  0.00    -0.014 A 
ATOM     71  C   UNL A   1      49.215  26.680  27.296  1.00  0.00     0.009 A 
ATOM     72  C   UNL A   1      49.191  26.055  29.630  1.00  0.00     0.009 A 
ATOM     73  C   UNL A   1      50.550  26.282  27.203  1.00  0.00     0.001 A 
ATOM     74  C   UNL A   1      50.534  25.678  29.540  1.00  0.00     0.001 A 
ATOM     75  C   UNL A   1      51.210  25.785  28.326  1.00  0.00     0.000 A 
ENDBRANCH  51  70
BRANCH  63  76
ATOM     76  C   UNL A   1      45.302  32.453  30.334  1.00  0.00    -0.014 A 
ATOM     77  C   UNL A   1      45.571  32.700  31.688  1.00  0.00     0.009 A 
ATOM     78  C   UNL A   1      45.570  33.457  29.389  1.00  0.00     0.009 A 
ATOM     79  C   UNL A   1      46.075  33.940  32.090  1.00  0.00     0.001 A 
ATOM     80  C   UNL A   1      46.100  34.683  29.791  1.00  0.00     0.001 A 
ATOM     81  C   UNL A   1      46.345  34.926  31.142  1.00  0.00     0.000 A 
ENDBRANCH  63  76
ENDBRANCH  37  38
ENDBRANCH  29  32
ENDBRANCH  27  28
ENDBRANCH  26  27
ENDBRANCH  25  26
ENDBRANCH   1  25
TORSDOF 16
ENDMDL
MODEL 2
REMARK VINA RESULT:     -10.8      2.361      7.654
REMARK SMILES COc1ccc(C(=O)NNC(=O)CCC(=O)NCCCCNC(=O)c2ccc(-c3c4nc(c(-c5ccccc5)c5ccc([nH]5)c(-c5ccccc5)c5nc(c(-c6ccccc6)c6ccc3[nH]6)C=C5)C=C4)cc2)cc1Br
REMARK SMILES IDX 18 1 17 2 15 3 16 4 14 6 13 7 11 8 10 9 12 11 9 12 7 13 8 14
REMARK SMILES IDX 6 16 3 17 4 18 74 19 5 20 73 21 75 22 2 23 1 24 19 25 20 26
REMARK SMILES IDX 21 27 22 28 23 29 24 31 25 32 26 33 72 34 27 35 71 36 28 37
REMARK SMILES IDX 29 38 30 39 65 40 31 41 70 42 64 43 66 44 32 45 69 46 63 47
REMARK SMILES IDX 62 48 33 50 55 51 40 52 54 53 41 54 44 55 53 56 67 57 42 58
REMARK SMILES IDX 43 59 52 61 68 62 45 63 34 64 35 65 39 66 36 67 38 68 37 69
REMARK SMILES IDX 56 70 57 71 61 72 58 73 60 74 59 75 46 76 47 77 51 78 48 79
REMARK SMILES IDX 50 80 49 81
REMARK H PARENT 17 5 10 10 9 15 22 30 66 49 44 60
REMARK Flexibility Score: inf
ROOT
ATOM      1  C   UNL A   1      32.579  28.823  23.694  1.00  0.00     0.116 C 
ENDROOT
BRANCH   1   2
ATOM      2  N   UNL A   1      31.362  29.609  23.833  1.00  0.00    -0.356 N 
ATOM      3  C   UNL A   1      30.090  29.377  23.416  1.00  0.00     0.220 C 
ATOM      4  O   UNL A   1      29.238  30.247  23.612  1.00  0.00    -0.275 OA
ATOM      5  H   UNL A   1      31.482  30.459  24.317  1.00  0.00     0.163 HD
BRANCH   3   6
ATOM      6  C   UNL A   1      29.729  28.107  22.685  1.00  0.00     0.110 C 
BRANCH   6   7
ATOM      7  C   UNL A   1      29.568  26.960  23.679  1.00  0.00     0.112 C 
BRANCH   7   8
ATOM      8  C   UNL A   1      30.430  25.807  23.231  1.00  0.00     0.238 C 
ATOM      9  N   UNL A   1      30.502  24.663  23.981  1.00  0.00    -0.267 N 
ATOM     10  H   UNL A   1      30.954  23.887  23.575  1.00  0.00     0.191 HD
ATOM     11  O   UNL A   1      31.008  25.840  22.142  1.00  0.00    -0.273 OA
BRANCH   9  12
ATOM     12  N   UNL A   1      29.992  24.498  25.263  1.00  0.00    -0.264 N 
ATOM     13  C   UNL A   1      30.540  23.763  26.299  1.00  0.00     0.269 C 
ATOM     14  O   UNL A   1      29.912  23.667  27.354  1.00  0.00    -0.267 OA
ATOM     15  H   UNL A   1      29.144  24.958  25.457  1.00  0.00     0.191 HD
BRANCH  13  16
ATOM     16  C   UNL A   1      31.820  23.013  26.181  1.00  0.00     0.042 A 
ATOM     17  C   UNL A   1      34.334  21.691  26.107  1.00  0.00     0.133 A 
ATOM     18  C   UNL A   1      34.216  23.022  26.543  1.00  0.00     0.048 A 
ATOM     19  C   UNL A   1      33.172  21.038  25.675  1.00  0.00     0.060 A 
ATOM     20  C   UNL A   1      32.982  23.673  26.591  1.00  0.00     0.018 A 
ATOM     21  C   UNL A   1      31.936  21.720  25.672  1.00  0.00     0.033 A 
ATOM     22  Br  UNL A   1      33.058  19.239  25.071  1.00  0.00    -0.047 Br
BRANCH  17  23
ATOM     23  O   UNL A   1      35.634  21.284  26.154  1.00  0.00    -0.496 OA
ATOM     24  C   UNL A   1      36.403  21.108  24.979  1.00  0.00     0.278 C 
ENDBRANCH  17  23
ENDBRANCH  13  16
ENDBRANCH   9  12
ENDBRANCH   7   8
ENDBRANCH   6   7
ENDBRANCH   3   6
ENDBRANCH   1   2
BRANCH   1  25
ATOM     25  C   UNL A   1      32.866  27.913  24.893  1.00  0.00     0.023 C 
BRANCH  25  26
ATOM     26  C   UNL A   1      32.518  28.506  26.259  1.00  0.00     0.023 C 
BRANCH  26  27
ATOM     27  C   UNL A   1      33.686  28.705  27.215  1.00  0.00     0.116 C 
BRANCH  27  28
ATOM     28  N   UNL A   1      33.731  30.051  27.762  1.00  0.00    -0.352 N 
ATOM     29  C   UNL A   1      34.726  30.742  28.409  1.00  0.00     0.251 C 
ATOM     30  H   UNL A   1      32.894  30.559  27.649  1.00  0.00     0.163 HD
ATOM     31  O   UNL A   1      34.447  31.839  28.897  1.00  0.00    -0.269 OA
BRANCH  29  32
ATOM     32  C   UNL A   1      36.108  30.214  28.568  1.00  0.00     0.039 A 
ATOM     33  C   UNL A   1      36.465  29.667  29.811  1.00  0.00     0.014 A 
ATOM     34  C   UNL A   1      37.076  30.290  27.565  1.00  0.00     0.014 A 
ATOM     35  C   UNL A   1      37.743  29.136  30.022  1.00  0.00     0.010 A 
ATOM     36  C   UNL A   1      38.328  29.704  27.749  1.00  0.00     0.010 A 
ATOM     37  C   UNL A   1      38.677  29.134  28.982  1.00  0.00    -0.014 A 
BRANCH  37  38
ATOM     38  C   UNL A   1      40.066  28.663  29.190  1.00  0.00     0.031 A 
ATOM     39  C   UNL A   1      41.064  29.603  29.804  1.00  0.00     0.074 A 
ATOM     40  C   UNL A   1      40.448  27.438  28.786  1.00  0.00     0.049 A 
ATOM     41  N   UNL A   1      42.342  29.432  30.022  1.00  0.00    -0.248 NA
ATOM     42  C   UNL A   1      40.553  30.923  30.211  1.00  0.00     0.031 C 
ATOM     43  C   UNL A   1      39.576  26.431  28.184  1.00  0.00     0.029 A 
ATOM     44  N   UNL A   1      41.684  26.841  28.810  1.00  0.00    -0.354 N 
ATOM     45  C   UNL A   1      42.788  30.623  30.581  1.00  0.00     0.074 A 
ATOM     46  C   UNL A   1      41.660  31.525  30.618  1.00  0.00     0.031 C 
ATOM     47  C   UNL A   1      40.304  25.337  27.897  1.00  0.00     0.029 A 
ATOM     48  C   UNL A   1      41.694  25.576  28.274  1.00  0.00     0.049 A 
ATOM     49  H   UNL A   1      42.486  27.276  29.178  1.00  0.00     0.167 HD
ATOM     50  C   UNL A   1      44.022  30.935  31.042  1.00  0.00     0.031 A 
ATOM     51  C   UNL A   1      42.713  24.712  28.107  1.00  0.00     0.031 A 
ATOM     52  C   UNL A   1      45.147  30.043  30.996  1.00  0.00     0.049 A 
ATOM     53  C   UNL A   1      44.092  25.105  28.563  1.00  0.00     0.074 A 
ATOM     54  C   UNL A   1      46.430  30.243  31.473  1.00  0.00     0.029 A 
ATOM     55  N   UNL A   1      45.121  28.779  30.426  1.00  0.00    -0.354 N 
ATOM     56  N   UNL A   1      44.487  26.208  29.154  1.00  0.00    -0.248 NA
ATOM     57  C   UNL A   1      45.166  24.125  28.339  1.00  0.00     0.031 C 
ATOM     58  C   UNL A   1      47.195  29.117  31.145  1.00  0.00     0.029 A 
ATOM     59  C   UNL A   1      46.374  28.198  30.510  1.00  0.00     0.049 A 
ATOM     60  H   UNL A   1      44.329  28.357  30.021  1.00  0.00     0.167 HD
ATOM     61  C   UNL A   1      45.842  26.040  29.407  1.00  0.00     0.074 A 
ATOM     62  C   UNL A   1      46.202  24.727  28.907  1.00  0.00     0.031 C 
ATOM     63  C   UNL A   1      46.709  26.890  30.009  1.00  0.00     0.031 A 
BRANCH  50  64
ATOM     64  C   UNL A   1      44.202  32.315  31.608  1.00  0.00    -0.014 A 
ATOM     65  C   UNL A   1      44.615  33.384  30.795  1.00  0.00     0.009 A 
ATOM     66  C   UNL A   1      43.994  32.541  32.976  1.00  0.00     0.009 A 
ATOM     67  C   UNL A   1      44.872  34.638  31.355  1.00  0.00     0.001 A 
ATOM     68  C   UNL A   1      44.224  33.804  33.527  1.00  0.00     0.001 A 
ATOM     69  C   UNL A   1      44.676  34.846  32.718  1.00  0.00     0.000 A 
ENDBRANCH  50  64
BRANCH  51  70
ATOM     70  C   UNL A   1      42.469  23.373  27.512  1.00  0.00    -0.014 A 
ATOM     71  C   UNL A   1      42.644  23.171  26.134  1.00  0.00     0.009 A 
ATOM     72  C   UNL A   1      42.048  22.296  28.307  1.00  0.00     0.009 A 
ATOM     73  C   UNL A   1      42.382  21.925  25.561  1.00  0.00     0.001 A 
ATOM     74  C   UNL A   1      41.809  21.044  27.734  1.00  0.00     0.001 A 
ATOM     75  C   UNL A   1      41.968  20.862  26.361  1.00  0.00     0.000 A 
ENDBRANCH  51  70
BRANCH  63  76
ATOM     76  C   UNL A   1      48.121  26.412  30.198  1.00  0.00    -0.014 A 
ATOM     77  C   UNL A   1      49.108  26.653  29.231  1.00  0.00     0.009 A 
ATOM     78  C   UNL A   1      48.476  25.756  31.388  1.00  0.00     0.009 A 
ATOM     79  C   UNL A   1      50.420  26.221  29.442  1.00  0.00     0.001 A 
ATOM     80  C   UNL A   1      49.792  25.351  31.607  1.00  0.00     0.001 A 
ATOM     81  C   UNL A   1      50.762  25.576  30.631  1.00  0.00     0.000 A 
ENDBRANCH  63  76
ENDBRANCH  37  38
ENDBRANCH  29  32
ENDBRANCH  27  28
ENDBRANCH  26  27
ENDBRANCH  25  26
ENDBRANCH   1  25
TORSDOF 16
ENDMDL
MODEL 3
REMARK VINA RESULT:     -10.7      3.546      8.581
REMARK SMILES COc1ccc(C(=O)NNC(=O)CCC(=O)NCCCCNC(=O)c2ccc(-c3c4nc(c(-c5ccccc5)c5ccc([nH]5)c(-c5ccccc5)c5nc(c(-c6ccccc6)c6ccc3[nH]6)C=C5)C=C4)cc2)cc1Br
REMARK SMILES IDX 18 1 17 2 15 3 16 4 14 6 13 7 11 8 10 9 12 11 9 12 7 13 8 14
REMARK SMILES IDX 6 16 3 17 4 18 74 19 5 20 73 21 75 22 2 23 1 24 19 25 20 26
REMARK SMILES IDX 21 27 22 28 23 29 24 31 25 32 26 33 72 34 27 35 71 36 28 37
REMARK SMILES IDX 29 38 30 39 65 40 31 41 70 42 64 43 66 44 32 45 69 46 63 47
REMARK SMILES IDX 62 48 33 50 55 51 40 52 54 53 41 54 44 55 53 56 67 57 42 58
REMARK SMILES IDX 43 59 52 61 68 62 45 63 34 64 35 65 39 66 36 67 38 68 37 69
REMARK SMILES IDX 56 70 57 71 61 72 58 73 60 74 59 75 46 76 47 77 51 78 48 79
REMARK SMILES IDX 50 80 49 81
REMARK H PARENT 17 5 10 10 9 15 22 30 66 49 44 60
REMARK Flexibility Score: inf
ROOT
ATOM      1  C   UNL A   1      34.158  29.239  27.177  1.00  0.00     0.116 C 
ENDROOT
BRANCH   1   2
ATOM      2  N   UNL A   1      32.909  28.697  27.692  1.00  0.00    -0.356 N 
ATOM      3  C   UNL A   1      32.043  27.789  27.173  1.00  0.00     0.220 C 
ATOM      4  O   UNL A   1      31.006  27.542  27.794  1.00  0.00    -0.275 OA
ATOM      5  H   UNL A   1      32.646  29.051  28.572  1.00  0.00     0.163 HD
BRANCH   3   6
ATOM      6  C   UNL A   1      32.311  27.127  25.843  1.00  0.00     0.110 C 
BRANCH   6   7
ATOM      7  C   UNL A   1      31.291  27.598  24.810  1.00  0.00     0.112 C 
BRANCH   7   8
ATOM      8  C   UNL A   1      30.391  26.440  24.457  1.00  0.00     0.238 C 
ATOM      9  N   UNL A   1      30.634  25.690  23.336  1.00  0.00    -0.267 N 
ATOM     10  H   UNL A   1      30.113  24.860  23.230  1.00  0.00     0.191 HD
ATOM     11  O   UNL A   1      29.482  26.097  25.216  1.00  0.00    -0.273 OA
BRANCH   9  12
ATOM     12  N   UNL A   1      31.550  25.994  22.337  1.00  0.00    -0.264 N 
ATOM     13  C   UNL A   1      32.781  25.402  22.115  1.00  0.00     0.269 C 
ATOM     14  O   UNL A   1      33.500  25.848  21.220  1.00  0.00    -0.267 OA
ATOM     15  H   UNL A   1      31.294  26.712  21.715  1.00  0.00     0.191 HD
BRANCH  13  16
ATOM     16  C   UNL A   1      33.320  24.297  22.953  1.00  0.00     0.042 A 
ATOM     17  C   UNL A   1      34.289  22.061  24.413  1.00  0.00     0.133 A 
ATOM     18  C   UNL A   1      33.198  21.948  23.534  1.00  0.00     0.048 A 
ATOM     19  C   UNL A   1      34.870  23.325  24.577  1.00  0.00     0.060 A 
ATOM     20  C   UNL A   1      32.725  23.041  22.806  1.00  0.00     0.018 A 
ATOM     21  C   UNL A   1      34.350  24.439  23.882  1.00  0.00     0.033 A 
ATOM     22  Br  UNL A   1      36.365  23.736  25.676  1.00  0.00    -0.047 Br
BRANCH  17  23
ATOM     23  O   UNL A   1      34.560  20.860  24.999  1.00  0.00    -0.496 OA
ATOM     24  C   UNL A   1      33.859  19.683  24.644  1.00  0.00     0.278 C 
ENDBRANCH  17  23
ENDBRANCH  13  16
ENDBRANCH   9  12
ENDBRANCH   7   8
ENDBRANCH   6   7
ENDBRANCH   3   6
ENDBRANCH   1   2
BRANCH   1  25
ATOM     25  C   UNL A   1      34.241  30.767  27.244  1.00  0.00     0.023 C 
BRANCH  25  26
ATOM     26  C   UNL A   1      32.934  31.476  27.606  1.00  0.00     0.023 C 
BRANCH  26  27
ATOM     27  C   UNL A   1      32.624  32.741  26.817  1.00  0.00     0.116 C 
BRANCH  27  28
ATOM     28  N   UNL A   1      32.466  33.903  27.675  1.00  0.00    -0.352 N 
ATOM     29  C   UNL A   1      33.207  34.363  28.736  1.00  0.00     0.251 C 
ATOM     30  H   UNL A   1      31.685  34.461  27.456  1.00  0.00     0.163 HD
ATOM     31  O   UNL A   1      32.765  35.315  29.382  1.00  0.00    -0.269 OA
BRANCH  29  32
ATOM     32  C   UNL A   1      34.497  33.748  29.151  1.00  0.00     0.039 A 
ATOM     33  C   UNL A   1      35.622  33.968  28.340  1.00  0.00     0.014 A 
ATOM     34  C   UNL A   1      34.626  32.922  30.269  1.00  0.00     0.014 A 
ATOM     35  C   UNL A   1      36.869  33.434  28.683  1.00  0.00     0.010 A 
ATOM     36  C   UNL A   1      35.880  32.443  30.650  1.00  0.00     0.010 A 
ATOM     37  C   UNL A   1      37.009  32.683  29.854  1.00  0.00    -0.014 A 
BRANCH  37  38
ATOM     38  C   UNL A   1      38.290  32.028  30.205  1.00  0.00     0.031 A 
ATOM     39  C   UNL A   1      39.243  32.747  31.118  1.00  0.00     0.074 A 
ATOM     40  C   UNL A   1      38.627  30.839  29.675  1.00  0.00     0.049 A 
ATOM     41  N   UNL A   1      40.441  32.398  31.510  1.00  0.00    -0.248 NA
ATOM     42  C   UNL A   1      38.788  34.044  31.646  1.00  0.00     0.031 C 
ATOM     43  C   UNL A   1      37.789  30.037  28.783  1.00  0.00     0.029 A 
ATOM     44  N   UNL A   1      39.779  30.104  29.802  1.00  0.00    -0.354 N 
ATOM     45  C   UNL A   1      40.885  33.435  32.320  1.00  0.00     0.074 A 
ATOM     46  C   UNL A   1      39.853  34.448  32.320  1.00  0.00     0.031 C 
ATOM     47  C   UNL A   1      38.456  28.920  28.444  1.00  0.00     0.029 A 
ATOM     48  C   UNL A   1      39.772  28.938  29.076  1.00  0.00     0.049 A 
ATOM     49  H   UNL A   1      40.539  30.385  30.361  1.00  0.00     0.167 HD
ATOM     50  C   UNL A   1      42.039  33.531  33.021  1.00  0.00     0.031 A 
ATOM     51  C   UNL A   1      40.723  27.994  28.938  1.00  0.00     0.031 A 
ATOM     52  C   UNL A   1      43.069  32.530  33.013  1.00  0.00     0.049 A 
ATOM     53  C   UNL A   1      42.028  28.154  29.670  1.00  0.00     0.074 A 
ATOM     54  C   UNL A   1      44.260  32.508  33.718  1.00  0.00     0.029 A 
ATOM     55  N   UNL A   1      43.033  31.374  32.248  1.00  0.00    -0.354 N 
ATOM     56  N   UNL A   1      42.408  29.106  30.488  1.00  0.00    -0.248 NA
ATOM     57  C   UNL A   1      43.032  27.099  29.467  1.00  0.00     0.031 C 
ATOM     58  C   UNL A   1      44.966  31.360  33.341  1.00  0.00     0.029 A 
ATOM     59  C   UNL A   1      44.193  30.645  32.439  1.00  0.00     0.049 A 
ATOM     60  H   UNL A   1      42.291  31.111  31.657  1.00  0.00     0.167 HD
ATOM     61  C   UNL A   1      43.675  28.746  30.928  1.00  0.00     0.074 A 
ATOM     62  C   UNL A   1      44.000  27.487  30.286  1.00  0.00     0.031 C 
ATOM     63  C   UNL A   1      44.494  29.394  31.793  1.00  0.00     0.031 A 
BRANCH  50  64
ATOM     64  C   UNL A   1      42.238  34.784  33.825  1.00  0.00    -0.014 A 
ATOM     65  C   UNL A   1      41.772  34.879  35.147  1.00  0.00     0.009 A 
ATOM     66  C   UNL A   1      42.863  35.895  33.242  1.00  0.00     0.009 A 
ATOM     67  C   UNL A   1      41.878  36.083  35.848  1.00  0.00     0.001 A 
ATOM     68  C   UNL A   1      42.993  37.089  33.956  1.00  0.00     0.001 A 
ATOM     69  C   UNL A   1      42.488  37.185  35.253  1.00  0.00     0.000 A 
ENDBRANCH  50  64
BRANCH  51  70
ATOM     70  C   UNL A   1      40.469  26.794  28.102  1.00  0.00    -0.014 A 
ATOM     71  C   UNL A   1      40.945  26.740  26.782  1.00  0.00     0.009 A 
ATOM     72  C   UNL A   1      39.743  25.704  28.604  1.00  0.00     0.009 A 
ATOM     73  C   UNL A   1      40.681  25.631  25.977  1.00  0.00     0.001 A 
ATOM     74  C   UNL A   1      39.499  24.585  27.803  1.00  0.00     0.001 A 
ATOM     75  C   UNL A   1      39.962  24.552  26.489  1.00  0.00     0.000 A 
ENDBRANCH  51  70
BRANCH  63  76
ATOM     76  C   UNL A   1      45.800  28.732  32.129  1.00  0.00    -0.014 A 
ATOM     77  C   UNL A   1      46.978  29.050  31.436  1.00  0.00     0.009 A 
ATOM     78  C   UNL A   1      45.859  27.815  33.190  1.00  0.00     0.009 A 
ATOM     79  C   UNL A   1      48.186  28.440  31.784  1.00  0.00     0.001 A 
ATOM     80  C   UNL A   1      47.071  27.229  33.553  1.00  0.00     0.001 A 
ATOM     81  C   UNL A   1      48.232  27.536  32.845  1.00  0.00     0.000 A 
ENDBRANCH  63  76
ENDBRANCH  37  38
ENDBRANCH  29  32
ENDBRANCH  27  28
ENDBRANCH  26  27
ENDBRANCH  25  26
ENDBRANCH   1  25
TORSDOF 16
ENDMDL
