MODEL 1
REMARK VINA RESULT:     -10.6      0.000      0.000
REMARK SMILES NC(=O)C[C@@H](NC(=O)c1ccc(CO)cc1)C(=O)NCCCCNC(=O)c1ccc(-c2c3nc(c(-c4ccccc4)c4ccc([nH]4)c(-c4ccccc4)c4nc(c(-c5ccccc5)c5ccc2[nH]5)C=C4)C=C3)cc1
REMARK SMILES IDX 20 1 19 2 17 3 18 4 5 6 4 7 2 8 1 9 3 12 6 13 7 14 8 16 9 17
REMARK SMILES IDX 10 18 16 19 11 20 15 21 12 22 13 23 14 24 21 26 22 27 23 28
REMARK SMILES IDX 24 29 25 30 26 32 27 33 28 34 74 35 29 36 73 37 30 38 31 39
REMARK SMILES IDX 32 40 67 41 33 42 72 43 66 44 68 45 34 46 71 47 65 48 64 49
REMARK SMILES IDX 35 51 57 52 42 53 56 54 43 55 46 56 55 57 69 58 44 59 45 60
REMARK SMILES IDX 54 62 70 63 47 64 36 65 37 66 41 67 38 68 40 69 39 70 58 71
REMARK SMILES IDX 59 72 63 73 60 74 62 75 61 76 48 77 49 78 53 79 50 80 52 81
REMARK SMILES IDX 51 82
REMARK H PARENT 19 5 1 10 1 11 6 15 14 25 24 31 68 50 46 61
REMARK Flexibility Score: inf
ROOT
ATOM      1  C   UNL A   1      32.014  26.612  26.325  1.00  0.00     0.116 C 
ENDROOT
BRANCH   1   2
ATOM      2  N   UNL A   1      31.552  25.369  26.912  1.00  0.00    -0.354 N 
ATOM      3  C   UNL A   1      32.034  24.104  26.777  1.00  0.00     0.243 C 
ATOM      4  O   UNL A   1      31.379  23.190  27.289  1.00  0.00    -0.273 OA
ATOM      5  H   UNL A   1      30.766  25.455  27.499  1.00  0.00     0.163 HD
BRANCH   3   6
ATOM      6  C   UNL A   1      33.253  23.787  25.890  1.00  0.00     0.180 C 
BRANCH   6   7
ATOM      7  C   UNL A   1      34.237  23.056  26.822  1.00  0.00     0.134 C 
BRANCH   7   8
ATOM      8  C   UNL A   1      34.412  21.606  26.476  1.00  0.00     0.220 C 
ATOM      9  N   UNL A   1      33.554  20.753  27.109  1.00  0.00    -0.370 N 
ATOM     10  H   UNL A   1      33.605  19.785  26.936  1.00  0.00     0.159 HD
ATOM     11  H   UNL A   1      32.884  21.106  27.738  1.00  0.00     0.159 HD
ATOM     12  O   UNL A   1      35.247  21.197  25.680  1.00  0.00    -0.275 OA
ENDBRANCH   7   8
ENDBRANCH   6   7
BRANCH   6  13
ATOM     13  N   UNL A   1      32.990  23.043  24.640  1.00  0.00    -0.340 N 
ATOM     14  C   UNL A   1      32.966  23.474  23.332  1.00  0.00     0.251 C 
ATOM     15  H   UNL A   1      32.804  22.085  24.763  1.00  0.00     0.164 HD
ATOM     16  O   UNL A   1      33.103  22.654  22.429  1.00  0.00    -0.269 OA
BRANCH  14  17
ATOM     17  C   UNL A   1      32.568  24.857  23.001  1.00  0.00     0.039 A 
ATOM     18  C   UNL A   1      31.202  25.154  23.077  1.00  0.00     0.014 A 
ATOM     19  C   UNL A   1      33.490  25.863  22.722  1.00  0.00     0.014 A 
ATOM     20  C   UNL A   1      30.776  26.480  23.028  1.00  0.00     0.007 A 
ATOM     21  C   UNL A   1      33.060  27.194  22.684  1.00  0.00     0.007 A 
ATOM     22  C   UNL A   1      31.708  27.517  22.880  1.00  0.00    -0.023 A 
BRANCH  22  23
ATOM     23  C   UNL A   1      31.271  28.951  23.029  1.00  0.00     0.191 C 
BRANCH  23  24
ATOM     24  O   UNL A   1      31.514  29.679  21.836  1.00  0.00    -0.392 OA
ATOM     25  H   UNL A   1      31.866  29.081  21.159  1.00  0.00     0.211 HD
ENDBRANCH  23  24
ENDBRANCH  22  23
ENDBRANCH  14  17
ENDBRANCH   6  13
ENDBRANCH   3   6
ENDBRANCH   1   2
BRANCH   1  26
ATOM     26  C   UNL A   1      31.587  27.809  27.170  1.00  0.00     0.023 C 
BRANCH  26  27
ATOM     27  C   UNL A   1      32.186  29.146  26.724  1.00  0.00     0.023 C 
BRANCH  27  28
ATOM     28  C   UNL A   1      33.592  29.432  27.243  1.00  0.00     0.116 C 
BRANCH  28  29
ATOM     29  N   UNL A   1      33.703  30.740  27.871  1.00  0.00    -0.352 N 
ATOM     30  C   UNL A   1      34.736  31.250  28.620  1.00  0.00     0.251 C 
ATOM     31  H   UNL A   1      32.934  31.341  27.742  1.00  0.00     0.163 HD
ATOM     32  O   UNL A   1      34.615  32.322  29.205  1.00  0.00    -0.269 OA
BRANCH  30  33
ATOM     33  C   UNL A   1      35.983  30.473  28.747  1.00  0.00     0.039 A 
ATOM     34  C   UNL A   1      36.897  30.489  27.690  1.00  0.00     0.014 A 
ATOM     35  C   UNL A   1      36.271  29.787  29.930  1.00  0.00     0.014 A 
ATOM     36  C   UNL A   1      38.146  29.891  27.856  1.00  0.00     0.010 A 
ATOM     37  C   UNL A   1      37.535  29.237  30.112  1.00  0.00     0.010 A 
ATOM     38  C   UNL A   1      38.491  29.304  29.086  1.00  0.00    -0.014 A 
BRANCH  38  39
ATOM     39  C   UNL A   1      39.867  28.815  29.343  1.00  0.00     0.031 A 
ATOM     40  C   UNL A   1      40.894  29.719  29.957  1.00  0.00     0.074 A 
ATOM     41  C   UNL A   1      40.210  27.576  28.941  1.00  0.00     0.049 A 
ATOM     42  N   UNL A   1      42.164  29.492  30.176  1.00  0.00    -0.248 NA
ATOM     43  C   UNL A   1      40.440  31.059  30.361  1.00  0.00     0.031 C 
ATOM     44  C   UNL A   1      39.310  26.612  28.301  1.00  0.00     0.029 A 
ATOM     45  N   UNL A   1      41.414  26.921  28.995  1.00  0.00    -0.354 N 
ATOM     46  C   UNL A   1      42.665  30.661  30.732  1.00  0.00     0.074 A 
ATOM     47  C   UNL A   1      41.571  31.608  30.785  1.00  0.00     0.031 C 
ATOM     48  C   UNL A   1      39.991  25.485  28.035  1.00  0.00     0.029 A 
ATOM     49  C   UNL A   1      41.379  25.662  28.445  1.00  0.00     0.049 A 
ATOM     50  H   UNL A   1      42.224  27.314  29.391  1.00  0.00     0.167 HD
ATOM     51  C   UNL A   1      43.919  30.918  31.171  1.00  0.00     0.031 A 
ATOM     52  C   UNL A   1      42.361  24.757  28.273  1.00  0.00     0.031 A 
ATOM     53  C   UNL A   1      45.006  29.977  31.120  1.00  0.00     0.049 A 
ATOM     54  C   UNL A   1      43.755  25.085  28.723  1.00  0.00     0.074 A 
ATOM     55  C   UNL A   1      46.294  30.122  31.606  1.00  0.00     0.029 A 
ATOM     56  N   UNL A   1      44.935  28.721  30.538  1.00  0.00    -0.354 N 
ATOM     57  N   UNL A   1      44.194  26.168  29.316  1.00  0.00    -0.248 NA
ATOM     58  C   UNL A   1      44.787  24.067  28.480  1.00  0.00     0.031 C 
ATOM     59  C   UNL A   1      47.018  28.972  31.272  1.00  0.00     0.029 A 
ATOM     60  C   UNL A   1      46.168  28.095  30.619  1.00  0.00     0.049 A 
ATOM     61  H   UNL A   1      44.129  28.332  30.129  1.00  0.00     0.167 HD
ATOM     62  C   UNL A   1      45.550  25.959  29.527  1.00  0.00     0.074 A 
ATOM     63  C   UNL A   1      45.858  24.638  29.015  1.00  0.00     0.031 C 
ATOM     64  C   UNL A   1      46.460  26.787  30.092  1.00  0.00     0.031 A 
BRANCH  51  65
ATOM     65  C   UNL A   1      44.187  32.283  31.736  1.00  0.00    -0.014 A 
ATOM     66  C   UNL A   1      44.659  33.324  30.922  1.00  0.00     0.009 A 
ATOM     67  C   UNL A   1      43.924  32.541  33.090  1.00  0.00     0.009 A 
ATOM     68  C   UNL A   1      44.893  34.591  31.460  1.00  0.00     0.001 A 
ATOM     69  C   UNL A   1      44.137  33.815  33.620  1.00  0.00     0.001 A 
ATOM     70  C   UNL A   1      44.628  34.836  32.808  1.00  0.00     0.000 A 
ENDBRANCH  51  65
BRANCH  52  71
ATOM     71  C   UNL A   1      42.061  23.452  27.630  1.00  0.00    -0.014 A 
ATOM     72  C   UNL A   1      41.584  22.378  28.394  1.00  0.00     0.009 A 
ATOM     73  C   UNL A   1      42.248  23.276  26.250  1.00  0.00     0.009 A 
ATOM     74  C   UNL A   1      41.317  21.146  27.792  1.00  0.00     0.001 A 
ATOM     75  C   UNL A   1      41.960  22.050  25.647  1.00  0.00     0.001 A 
ATOM     76  C   UNL A   1      41.501  20.985  26.419  1.00  0.00     0.000 A 
ENDBRANCH  52  71
BRANCH  64  77
ATOM     77  C   UNL A   1      47.872  26.289  30.193  1.00  0.00    -0.014 A 
ATOM     78  C   UNL A   1      48.771  26.451  29.129  1.00  0.00     0.009 A 
ATOM     79  C   UNL A   1      48.320  25.695  31.383  1.00  0.00     0.009 A 
ATOM     80  C   UNL A   1      50.090  26.007  29.247  1.00  0.00     0.001 A 
ATOM     81  C   UNL A   1      49.645  25.273  31.506  1.00  0.00     0.001 A 
ATOM     82  C   UNL A   1      50.526  25.424  30.436  1.00  0.00     0.000 A 
ENDBRANCH  64  77
ENDBRANCH  38  39
ENDBRANCH  30  33
ENDBRANCH  28  29
ENDBRANCH  27  28
ENDBRANCH  26  27
ENDBRANCH   1  26
TORSDOF 17
ENDMDL
MODEL 2
REMARK VINA RESULT:     -10.3      2.067      7.038
REMARK SMILES NC(=O)C[C@@H](NC(=O)c1ccc(CO)cc1)C(=O)NCCCCNC(=O)c1ccc(-c2c3nc(c(-c4ccccc4)c4ccc([nH]4)c(-c4ccccc4)c4nc(c(-c5ccccc5)c5ccc2[nH]5)C=C4)C=C3)cc1
REMARK SMILES IDX 20 1 19 2 17 3 18 4 5 6 4 7 2 8 1 9 3 12 6 13 7 14 8 16 9 17
REMARK SMILES IDX 10 18 16 19 11 20 15 21 12 22 13 23 14 24 21 26 22 27 23 28
REMARK SMILES IDX 24 29 25 30 26 32 27 33 28 34 74 35 29 36 73 37 30 38 31 39
REMARK SMILES IDX 32 40 67 41 33 42 72 43 66 44 68 45 34 46 71 47 65 48 64 49
REMARK SMILES IDX 35 51 57 52 42 53 56 54 43 55 46 56 55 57 69 58 44 59 45 60
REMARK SMILES IDX 54 62 70 63 47 64 36 65 37 66 41 67 38 68 40 69 39 70 58 71
REMARK SMILES IDX 59 72 63 73 60 74 62 75 61 76 48 77 49 78 53 79 50 80 52 81
REMARK SMILES IDX 51 82
REMARK H PARENT 19 5 1 10 1 11 6 15 14 25 24 31 68 50 46 61
REMARK Flexibility Score: inf
ROOT
ATOM      1  C   UNL A   1      35.934  23.163  24.440  1.00  0.00     0.116 C 
ENDROOT
BRANCH   1   2
ATOM      2  N   UNL A   1      35.648  22.904  25.838  1.00  0.00    -0.354 N 
ATOM      3  C   UNL A   1      34.591  22.270  26.414  1.00  0.00     0.243 C 
ATOM      4  O   UNL A   1      34.520  22.290  27.647  1.00  0.00    -0.273 OA
ATOM      5  H   UNL A   1      36.325  23.240  26.469  1.00  0.00     0.163 HD
BRANCH   3   6
ATOM      6  C   UNL A   1      33.436  21.690  25.576  1.00  0.00     0.180 C 
BRANCH   6   7
ATOM      7  C   UNL A   1      33.889  20.262  25.220  1.00  0.00     0.134 C 
BRANCH   7   8
ATOM      8  C   UNL A   1      32.815  19.233  25.426  1.00  0.00     0.220 C 
ATOM      9  N   UNL A   1      32.922  18.510  26.580  1.00  0.00    -0.370 N 
ATOM     10  H   UNL A   1      32.257  17.814  26.788  1.00  0.00     0.159 HD
ATOM     11  H   UNL A   1      33.664  18.684  27.202  1.00  0.00     0.159 HD
ATOM     12  O   UNL A   1      31.897  19.047  24.639  1.00  0.00    -0.275 OA
ENDBRANCH   7   8
ENDBRANCH   6   7
BRANCH   6  13
ATOM     13  N   UNL A   1      32.089  21.727  26.184  1.00  0.00    -0.340 N 
ATOM     14  C   UNL A   1      30.988  22.495  25.873  1.00  0.00     0.251 C 
ATOM     15  H   UNL A   1      31.957  21.101  26.932  1.00  0.00     0.164 HD
ATOM     16  O   UNL A   1      29.876  22.120  26.233  1.00  0.00    -0.269 OA
BRANCH  14  17
ATOM     17  C   UNL A   1      31.149  23.849  25.308  1.00  0.00     0.039 A 
ATOM     18  C   UNL A   1      30.917  23.989  23.934  1.00  0.00     0.014 A 
ATOM     19  C   UNL A   1      31.417  24.969  26.091  1.00  0.00     0.014 A 
ATOM     20  C   UNL A   1      30.800  25.261  23.376  1.00  0.00     0.007 A 
ATOM     21  C   UNL A   1      31.289  26.244  25.530  1.00  0.00     0.007 A 
ATOM     22  C   UNL A   1      30.937  26.401  24.180  1.00  0.00    -0.023 A 
BRANCH  22  23
ATOM     23  C   UNL A   1      30.613  27.761  23.620  1.00  0.00     0.191 C 
BRANCH  23  24
ATOM     24  O   UNL A   1      30.173  27.661  22.275  1.00  0.00    -0.392 OA
ATOM     25  H   UNL A   1      29.553  26.920  22.192  1.00  0.00     0.211 HD
ENDBRANCH  23  24
ENDBRANCH  22  23
ENDBRANCH  14  17
ENDBRANCH   6  13
ENDBRANCH   3   6
ENDBRANCH   1   2
BRANCH   1  26
ATOM     26  C   UNL A   1      37.053  22.258  23.933  1.00  0.00     0.023 C 
BRANCH  26  27
ATOM     27  C   UNL A   1      37.375  21.074  24.848  1.00  0.00     0.023 C 
BRANCH  27  28
ATOM     28  C   UNL A   1      38.618  21.244  25.717  1.00  0.00     0.116 C 
BRANCH  28  29
ATOM     29  N   UNL A   1      39.493  20.082  25.679  1.00  0.00    -0.352 N 
ATOM     30  C   UNL A   1      40.823  19.994  26.010  1.00  0.00     0.251 C 
ATOM     31  H   UNL A   1      39.075  19.244  25.375  1.00  0.00     0.163 HD
ATOM     32  O   UNL A   1      41.459  18.969  25.784  1.00  0.00    -0.269 OA
BRANCH  30  33
ATOM     33  C   UNL A   1      41.492  21.166  26.607  1.00  0.00     0.039 A 
ATOM     34  C   UNL A   1      42.085  22.107  25.761  1.00  0.00     0.014 A 
ATOM     35  C   UNL A   1      41.475  21.359  27.991  1.00  0.00     0.014 A 
ATOM     36  C   UNL A   1      42.581  23.295  26.299  1.00  0.00     0.010 A 
ATOM     37  C   UNL A   1      41.922  22.566  28.519  1.00  0.00     0.010 A 
ATOM     38  C   UNL A   1      42.458  23.553  27.675  1.00  0.00    -0.014 A 
BRANCH  38  39
ATOM     39  C   UNL A   1      42.821  24.873  28.244  1.00  0.00     0.031 A 
ATOM     40  C   UNL A   1      41.775  25.928  28.446  1.00  0.00     0.074 A 
ATOM     41  C   UNL A   1      44.116  25.146  28.496  1.00  0.00     0.049 A 
ATOM     42  N   UNL A   1      41.921  27.165  28.850  1.00  0.00    -0.248 NA
ATOM     43  C   UNL A   1      40.386  25.552  28.139  1.00  0.00     0.031 C 
ATOM     44  C   UNL A   1      45.232  24.215  28.308  1.00  0.00     0.029 A 
ATOM     45  N   UNL A   1      44.714  26.295  28.949  1.00  0.00    -0.354 N 
ATOM     46  C   UNL A   1      40.648  27.718  28.835  1.00  0.00     0.074 A 
ATOM     47  C   UNL A   1      39.747  26.695  28.349  1.00  0.00     0.031 C 
ATOM     48  C   UNL A   1      46.376  24.826  28.656  1.00  0.00     0.029 A 
ATOM     49  C   UNL A   1      46.081  26.199  29.050  1.00  0.00     0.049 A 
ATOM     50  H   UNL A   1      44.212  27.108  29.180  1.00  0.00     0.167 HD
ATOM     51  C   UNL A   1      40.264  28.962  29.204  1.00  0.00     0.031 A 
ATOM     52  C   UNL A   1      46.998  27.120  29.401  1.00  0.00     0.031 A 
ATOM     53  C   UNL A   1      41.159  29.979  29.688  1.00  0.00     0.049 A 
ATOM     54  C   UNL A   1      46.550  28.507  29.759  1.00  0.00     0.074 A 
ATOM     55  C   UNL A   1      40.852  31.245  30.155  1.00  0.00     0.029 A 
ATOM     56  N   UNL A   1      42.537  29.849  29.757  1.00  0.00    -0.354 N 
ATOM     57  N   UNL A   1      45.333  28.992  29.811  1.00  0.00    -0.248 NA
ATOM     58  C   UNL A   1      47.602  29.474  30.105  1.00  0.00     0.031 C 
ATOM     59  C   UNL A   1      42.051  31.901  30.457  1.00  0.00     0.029 A 
ATOM     60  C   UNL A   1      43.098  31.026  30.221  1.00  0.00     0.049 A 
ATOM     61  H   UNL A   1      43.041  29.039  29.512  1.00  0.00     0.167 HD
ATOM     62  C   UNL A   1      45.472  30.315  30.206  1.00  0.00     0.074 A 
ATOM     63  C   UNL A   1      46.888  30.553  30.397  1.00  0.00     0.031 C 
ATOM     64  C   UNL A   1      44.510  31.251  30.392  1.00  0.00     0.031 A 
BRANCH  51  65
ATOM     65  C   UNL A   1      38.805  29.297  29.087  1.00  0.00    -0.014 A 
ATOM     66  C   UNL A   1      38.261  29.746  27.874  1.00  0.00     0.009 A 
ATOM     67  C   UNL A   1      37.958  29.122  30.191  1.00  0.00     0.009 A 
ATOM     68  C   UNL A   1      36.900  30.043  27.777  1.00  0.00     0.001 A 
ATOM     69  C   UNL A   1      36.593  29.398  30.086  1.00  0.00     0.001 A 
ATOM     70  C   UNL A   1      36.067  29.865  28.882  1.00  0.00     0.000 A 
ENDBRANCH  51  65
BRANCH  52  71
ATOM     71  C   UNL A   1      48.439  26.761  29.420  1.00  0.00    -0.014 A 
ATOM     72  C   UNL A   1      49.242  26.992  28.294  1.00  0.00     0.009 A 
ATOM     73  C   UNL A   1      49.018  26.189  30.564  1.00  0.00     0.009 A 
ATOM     74  C   UNL A   1      50.593  26.640  28.306  1.00  0.00     0.001 A 
ATOM     75  C   UNL A   1      50.374  25.859  30.580  1.00  0.00     0.001 A 
ATOM     76  C   UNL A   1      51.159  26.078  29.450  1.00  0.00     0.000 A 
ENDBRANCH  52  71
BRANCH  64  77
ATOM     77  C   UNL A   1      44.956  32.615  30.830  1.00  0.00    -0.014 A 
ATOM     78  C   UNL A   1      45.117  32.917  32.191  1.00  0.00     0.009 A 
ATOM     79  C   UNL A   1      45.266  33.591  29.871  1.00  0.00     0.009 A 
ATOM     80  C   UNL A   1      45.559  34.182  32.583  1.00  0.00     0.001 A 
ATOM     81  C   UNL A   1      45.731  34.846  30.266  1.00  0.00     0.001 A 
ATOM     82  C   UNL A   1      45.871  35.142  31.621  1.00  0.00     0.000 A 
ENDBRANCH  64  77
ENDBRANCH  38  39
ENDBRANCH  30  33
ENDBRANCH  28  29
ENDBRANCH  27  28
ENDBRANCH  26  27
ENDBRANCH   1  26
TORSDOF 17
ENDMDL
MODEL 3
REMARK VINA RESULT:     -10.2      3.241      5.319
REMARK SMILES NC(=O)C[C@@H](NC(=O)c1ccc(CO)cc1)C(=O)NCCCCNC(=O)c1ccc(-c2c3nc(c(-c4ccccc4)c4ccc([nH]4)c(-c4ccccc4)c4nc(c(-c5ccccc5)c5ccc2[nH]5)C=C4)C=C3)cc1
REMARK SMILES IDX 20 1 19 2 17 3 18 4 5 6 4 7 2 8 1 9 3 12 6 13 7 14 8 16 9 17
REMARK SMILES IDX 10 18 16 19 11 20 15 21 12 22 13 23 14 24 21 26 22 27 23 28
REMARK SMILES IDX 24 29 25 30 26 32 27 33 28 34 74 35 29 36 73 37 30 38 31 39
REMARK SMILES IDX 32 40 67 41 33 42 72 43 66 44 68 45 34 46 71 47 65 48 64 49
REMARK SMILES IDX 35 51 57 52 42 53 56 54 43 55 46 56 55 57 69 58 44 59 45 60
REMARK SMILES IDX 54 62 70 63 47 64 36 65 37 66 41 67 38 68 40 69 39 70 58 71
REMARK SMILES IDX 59 72 63 73 60 74 62 75 61 76 48 77 49 78 53 79 50 80 52 81
REMARK SMILES IDX 51 82
REMARK H PARENT 19 5 1 10 1 11 6 15 14 25 24 31 68 50 46 61
REMARK Flexibility Score: inf
ROOT
ATOM      1  C   UNL A   1      32.399  29.638  25.425  1.00  0.00     0.116 C 
ENDROOT
BRANCH   1   2
ATOM      2  N   UNL A   1      31.447  29.874  24.357  1.00  0.00    -0.354 N 
ATOM      3  C   UNL A   1      30.966  29.026  23.408  1.00  0.00     0.243 C 
ATOM      4  O   UNL A   1      30.250  29.509  22.525  1.00  0.00    -0.273 OA
ATOM      5  H   UNL A   1      31.094  30.792  24.311  1.00  0.00     0.163 HD
BRANCH   3   6
ATOM      6  C   UNL A   1      31.417  27.556  23.327  1.00  0.00     0.180 C 
BRANCH   6   7
ATOM      7  C   UNL A   1      30.110  26.743  23.344  1.00  0.00     0.134 C 
BRANCH   7   8
ATOM      8  C   UNL A   1      30.064  25.722  24.445  1.00  0.00     0.220 C 
ATOM      9  N   UNL A   1      30.223  24.427  24.040  1.00  0.00    -0.370 N 
ATOM     10  H   UNL A   1      30.204  23.699  24.701  1.00  0.00     0.159 HD
ATOM     11  H   UNL A   1      30.356  24.224  23.086  1.00  0.00     0.159 HD
ATOM     12  O   UNL A   1      29.908  26.007  25.625  1.00  0.00    -0.275 OA
ENDBRANCH   7   8
ENDBRANCH   6   7
BRANCH   6  13
ATOM     13  N   UNL A   1      32.301  27.192  22.199  1.00  0.00    -0.340 N 
ATOM     14  C   UNL A   1      33.002  26.032  21.950  1.00  0.00     0.251 C 
ATOM     15  H   UNL A   1      32.406  27.892  21.515  1.00  0.00     0.164 HD
ATOM     16  O   UNL A   1      33.364  25.786  20.804  1.00  0.00    -0.269 OA
BRANCH  14  17
ATOM     17  C   UNL A   1      33.500  25.199  23.062  1.00  0.00     0.039 A 
ATOM     18  C   UNL A   1      33.658  23.832  22.802  1.00  0.00     0.014 A 
ATOM     19  C   UNL A   1      33.898  25.730  24.286  1.00  0.00     0.014 A 
ATOM     20  C   UNL A   1      34.354  23.029  23.704  1.00  0.00     0.007 A 
ATOM     21  C   UNL A   1      34.605  24.924  25.185  1.00  0.00     0.007 A 
ATOM     22  C   UNL A   1      34.877  23.580  24.883  1.00  0.00    -0.023 A 
BRANCH  22  23
ATOM     23  C   UNL A   1      35.796  22.763  25.753  1.00  0.00     0.191 C 
BRANCH  23  24
ATOM     24  O   UNL A   1      36.762  23.591  26.382  1.00  0.00    -0.392 OA
ATOM     25  H   UNL A   1      36.989  24.327  25.793  1.00  0.00     0.211 HD
ENDBRANCH  23  24
ENDBRANCH  22  23
ENDBRANCH  14  17
ENDBRANCH   6  13
ENDBRANCH   3   6
ENDBRANCH   1   2
BRANCH   1  26
ATOM     26  C   UNL A   1      31.883  30.190  26.751  1.00  0.00     0.023 C 
BRANCH  26  27
ATOM     27  C   UNL A   1      31.660  31.705  26.764  1.00  0.00     0.023 C 
BRANCH  27  28
ATOM     28  C   UNL A   1      32.837  32.528  27.279  1.00  0.00     0.116 C 
BRANCH  28  29
ATOM     29  N   UNL A   1      32.470  33.905  27.580  1.00  0.00    -0.352 N 
ATOM     30  C   UNL A   1      33.011  34.755  28.513  1.00  0.00     0.251 C 
ATOM     31  H   UNL A   1      31.735  34.276  27.041  1.00  0.00     0.163 HD
ATOM     32  O   UNL A   1      32.492  35.843  28.745  1.00  0.00    -0.269 OA
BRANCH  30  33
ATOM     33  C   UNL A   1      34.207  34.329  29.265  1.00  0.00     0.039 A 
ATOM     34  C   UNL A   1      34.038  33.725  30.513  1.00  0.00     0.014 A 
ATOM     35  C   UNL A   1      35.480  34.471  28.706  1.00  0.00     0.014 A 
ATOM     36  C   UNL A   1      35.143  33.176  31.163  1.00  0.00     0.010 A 
ATOM     37  C   UNL A   1      36.571  33.876  29.330  1.00  0.00     0.010 A 
ATOM     38  C   UNL A   1      36.409  33.204  30.553  1.00  0.00    -0.014 A 
BRANCH  38  39
ATOM     39  C   UNL A   1      37.561  32.481  31.141  1.00  0.00     0.031 A 
ATOM     40  C   UNL A   1      38.253  33.015  32.360  1.00  0.00     0.074 A 
ATOM     41  C   UNL A   1      38.035  31.384  30.519  1.00  0.00     0.049 A 
ATOM     42  N   UNL A   1      39.325  32.564  32.961  1.00  0.00    -0.248 NA
ATOM     43  C   UNL A   1      37.677  34.221  32.973  1.00  0.00     0.031 C 
ATOM     44  C   UNL A   1      37.470  30.784  29.307  1.00  0.00     0.029 A 
ATOM     45  N   UNL A   1      39.113  30.587  30.812  1.00  0.00    -0.354 N 
ATOM     46  C   UNL A   1      39.560  33.436  34.015  1.00  0.00     0.074 A 
ATOM     47  C   UNL A   1      38.540  34.462  33.951  1.00  0.00     0.031 C 
ATOM     48  C   UNL A   1      38.198  29.707  28.969  1.00  0.00     0.029 A 
ATOM     49  C   UNL A   1      39.302  29.566  29.913  1.00  0.00     0.049 A 
ATOM     50  H   UNL A   1      39.694  30.732  31.593  1.00  0.00     0.167 HD
ATOM     51  C   UNL A   1      40.529  33.380  34.957  1.00  0.00     0.031 A 
ATOM     52  C   UNL A   1      40.267  28.630  29.843  1.00  0.00     0.031 A 
ATOM     53  C   UNL A   1      41.542  32.360  35.021  1.00  0.00     0.049 A 
ATOM     54  C   UNL A   1      41.360  28.620  30.873  1.00  0.00     0.074 A 
ATOM     55  C   UNL A   1      42.523  32.180  35.981  1.00  0.00     0.029 A 
ATOM     56  N   UNL A   1      41.711  31.356  34.081  1.00  0.00    -0.354 N 
ATOM     57  N   UNL A   1      41.524  29.408  31.907  1.00  0.00    -0.248 NA
ATOM     58  C   UNL A   1      42.400  27.592  30.725  1.00  0.00     0.031 C 
ATOM     59  C   UNL A   1      43.318  31.096  35.593  1.00  0.00     0.029 A 
ATOM     60  C   UNL A   1      42.803  30.576  34.417  1.00  0.00     0.049 A 
ATOM     61  H   UNL A   1      41.138  31.219  33.292  1.00  0.00     0.167 HD
ATOM     62  C   UNL A   1      42.678  28.965  32.539  1.00  0.00     0.074 A 
ATOM     63  C   UNL A   1      43.163  27.829  31.783  1.00  0.00     0.031 C 
ATOM     64  C   UNL A   1      43.282  29.458  33.646  1.00  0.00     0.031 A 
BRANCH  51  65
ATOM     65  C   UNL A   1      40.548  34.466  35.994  1.00  0.00    -0.014 A 
ATOM     66  C   UNL A   1      39.758  34.375  37.151  1.00  0.00     0.009 A 
ATOM     67  C   UNL A   1      41.395  35.571  35.832  1.00  0.00     0.009 A 
ATOM     68  C   UNL A   1      39.794  35.387  38.112  1.00  0.00     0.001 A 
ATOM     69  C   UNL A   1      41.446  36.571  36.806  1.00  0.00     0.001 A 
ATOM     70  C   UNL A   1      40.640  36.482  37.940  1.00  0.00     0.000 A 
ENDBRANCH  51  65
BRANCH  52  71
ATOM     71  C   UNL A   1      40.251  27.629  28.747  1.00  0.00    -0.014 A 
ATOM     72  C   UNL A   1      40.907  27.892  27.536  1.00  0.00     0.009 A 
ATOM     73  C   UNL A   1      39.582  26.405  28.907  1.00  0.00     0.009 A 
ATOM     74  C   UNL A   1      40.878  26.957  26.499  1.00  0.00     0.001 A 
ATOM     75  C   UNL A   1      39.574  25.463  27.876  1.00  0.00     0.001 A 
ATOM     76  C   UNL A   1      40.216  25.742  26.672  1.00  0.00     0.000 A 
ENDBRANCH  52  71
BRANCH  64  77
ATOM     77  C   UNL A   1      44.531  28.767  34.111  1.00  0.00    -0.014 A 
ATOM     78  C   UNL A   1      45.795  29.207  33.692  1.00  0.00     0.009 A 
ATOM     79  C   UNL A   1      44.443  27.697  35.014  1.00  0.00     0.009 A 
ATOM     80  C   UNL A   1      46.950  28.573  34.153  1.00  0.00     0.001 A 
ATOM     81  C   UNL A   1      45.601  27.080  35.491  1.00  0.00     0.001 A 
ATOM     82  C   UNL A   1      46.852  27.514  35.057  1.00  0.00     0.000 A 
ENDBRANCH  64  77
ENDBRANCH  38  39
ENDBRANCH  30  33
ENDBRANCH  28  29
ENDBRANCH  27  28
ENDBRANCH  26  27
ENDBRANCH   1  26
TORSDOF 17
ENDMDL
