MODEL 1
REMARK VINA RESULT:     -11.2      0.000      0.000
REMARK SMILES C[C@@H]1OCC[C@@H]1C(=O)Nc1ccc(C(=O)NCCCCNC(=O)c2ccc(-c3c4nc(c(-c5ccccc5)c5ccc([nH]5)c(-c5ccccc5)c5nc(c(-c6ccccc6)c6ccc3[nH]6)C=C5)C=C4)cc2)cc1F
REMARK SMILES IDX 18 1 17 2 16 3 14 4 15 5 13 7 10 8 11 9 73 10 12 11 72 12
REMARK SMILES IDX 74 13 9 14 7 15 8 16 6 18 1 19 2 20 3 21 4 22 5 23 19 24
REMARK SMILES IDX 20 25 21 26 22 27 23 29 24 30 25 31 71 32 26 33 70 34 27 35
REMARK SMILES IDX 28 36 29 37 64 38 30 39 69 40 63 41 65 42 31 43 68 44 62 45
REMARK SMILES IDX 61 46 32 48 54 49 39 50 53 51 40 52 43 53 52 54 66 55 41 56
REMARK SMILES IDX 42 57 51 59 67 60 44 61 33 62 34 63 38 64 35 65 37 66 36 67
REMARK SMILES IDX 55 68 56 69 60 70 57 71 59 72 58 73 45 74 46 75 50 76 47 77
REMARK SMILES IDX 49 78 48 79
REMARK H PARENT 16 6 9 17 21 28 65 47 43 58
REMARK Flexibility Score: inf
ROOT
ATOM      1  C   UNL A   1      33.371  29.237  24.575  1.00  0.00     0.023 C 
ENDROOT
BRANCH   1   2
ATOM      2  C   UNL A   1      33.431  29.119  23.042  1.00  0.00     0.116 C 
BRANCH   2   3
ATOM      3  N   UNL A   1      32.116  29.288  22.433  1.00  0.00    -0.352 N 
ATOM      4  C   UNL A   1      30.980  28.507  22.402  1.00  0.00     0.251 C 
ATOM      5  O   UNL A   1      29.986  28.961  21.835  1.00  0.00    -0.269 OA
ATOM      6  H   UNL A   1      32.020  30.135  21.941  1.00  0.00     0.163 HD
BRANCH   4   7
ATOM      7  C   UNL A   1      30.882  27.164  23.044  1.00  0.00     0.042 A 
ATOM      8  C   UNL A   1      30.576  24.573  24.222  1.00  0.00     0.077 A 
ATOM      9  C   UNL A   1      31.179  24.734  22.963  1.00  0.00     0.030 A 
ATOM     10  C   UNL A   1      30.102  25.730  24.815  1.00  0.00     0.147 A 
ATOM     11  C   UNL A   1      31.301  26.011  22.366  1.00  0.00     0.016 A 
ATOM     12  C   UNL A   1      30.354  26.985  24.301  1.00  0.00     0.055 A 
ATOM     13  F   UNL A   1      29.301  25.757  25.874  1.00  0.00    -0.205 F 
BRANCH   8  14
ATOM     14  N   UNL A   1      30.549  23.275  24.779  1.00  0.00    -0.323 N 
ATOM     15  C   UNL A   1      31.410  22.524  25.536  1.00  0.00     0.230 C 
ATOM     16  O   UNL A   1      31.064  21.361  25.771  1.00  0.00    -0.274 OA
ATOM     17  H   UNL A   1      29.714  22.796  24.574  1.00  0.00     0.170 HD
BRANCH  15  18
ATOM     18  C   UNL A   1      32.705  23.065  26.103  1.00  0.00     0.110 C 
ATOM     19  C   UNL A   1      34.002  22.281  23.999  1.00  0.00     0.039 C 
ATOM     20  C   UNL A   1      33.851  23.309  25.111  1.00  0.00     0.127 C 
ATOM     21  O   UNL A   1      35.070  23.291  25.892  1.00  0.00    -0.378 OA
ATOM     22  C   UNL A   1      34.731  22.904  27.231  1.00  0.00     0.161 C 
ATOM     23  C   UNL A   1      33.403  22.186  27.127  1.00  0.00     0.044 C 
ENDBRANCH  15  18
ENDBRANCH   8  14
ENDBRANCH   4   7
ENDBRANCH   2   3
ENDBRANCH   1   2
BRANCH   1  24
ATOM     24  C   UNL A   1      33.999  28.054  25.307  1.00  0.00     0.023 C 
BRANCH  24  25
ATOM     25  C   UNL A   1      34.299  28.343  26.771  1.00  0.00     0.116 C 
BRANCH  25  26
ATOM     26  N   UNL A   1      33.827  29.644  27.218  1.00  0.00    -0.352 N 
ATOM     27  C   UNL A   1      34.520  30.565  27.978  1.00  0.00     0.251 C 
ATOM     28  H   UNL A   1      32.913  29.895  26.950  1.00  0.00     0.163 HD
ATOM     29  O   UNL A   1      33.992  31.586  28.378  1.00  0.00    -0.269 OA
BRANCH  27  30
ATOM     30  C   UNL A   1      35.920  30.251  28.338  1.00  0.00     0.039 A 
ATOM     31  C   UNL A   1      36.191  29.731  29.606  1.00  0.00     0.014 A 
ATOM     32  C   UNL A   1      36.938  30.390  27.392  1.00  0.00     0.014 A 
ATOM     33  C   UNL A   1      37.480  29.281  29.900  1.00  0.00     0.010 A 
ATOM     34  C   UNL A   1      38.199  29.876  27.662  1.00  0.00     0.010 A 
ATOM     35  C   UNL A   1      38.482  29.313  28.918  1.00  0.00    -0.014 A 
BRANCH  35  36
ATOM     36  C   UNL A   1      39.845  28.788  29.172  1.00  0.00     0.031 A 
ATOM     37  C   UNL A   1      40.890  29.695  29.757  1.00  0.00     0.074 A 
ATOM     38  C   UNL A   1      40.169  27.537  28.794  1.00  0.00     0.049 A 
ATOM     39  N   UNL A   1      42.171  29.483  29.920  1.00  0.00    -0.248 NA
ATOM     40  C   UNL A   1      40.440  31.030  30.186  1.00  0.00     0.031 C 
ATOM     41  C   UNL A   1      39.255  26.566  28.185  1.00  0.00     0.029 A 
ATOM     42  N   UNL A   1      41.369  26.873  28.850  1.00  0.00    -0.354 N 
ATOM     43  C   UNL A   1      42.682  30.664  30.441  1.00  0.00     0.074 A 
ATOM     44  C   UNL A   1      41.583  31.602  30.529  1.00  0.00     0.031 C 
ATOM     45  C   UNL A   1      39.926  25.429  27.935  1.00  0.00     0.029 A 
ATOM     46  C   UNL A   1      41.321  25.603  28.328  1.00  0.00     0.049 A 
ATOM     47  H   UNL A   1      42.186  27.268  29.229  1.00  0.00     0.167 HD
ATOM     48  C   UNL A   1      43.949  30.941  30.828  1.00  0.00     0.031 A 
ATOM     49  C   UNL A   1      42.296  24.687  28.170  1.00  0.00     0.031 A 
ATOM     50  C   UNL A   1      45.037  30.004  30.765  1.00  0.00     0.049 A 
ATOM     51  C   UNL A   1      43.693  25.014  28.617  1.00  0.00     0.074 A 
ATOM     52  C   UNL A   1      46.348  30.175  31.171  1.00  0.00     0.029 A 
ATOM     53  N   UNL A   1      44.934  28.713  30.270  1.00  0.00    -0.354 N 
ATOM     54  N   UNL A   1      44.152  26.123  29.145  1.00  0.00    -0.248 NA
ATOM     55  C   UNL A   1      44.705  23.959  28.455  1.00  0.00     0.031 C 
ATOM     56  C   UNL A   1      47.048  28.996  30.895  1.00  0.00     0.029 A 
ATOM     57  C   UNL A   1      46.160  28.077  30.358  1.00  0.00     0.049 A 
ATOM     58  H   UNL A   1      44.112  28.309  29.911  1.00  0.00     0.167 HD
ATOM     59  C   UNL A   1      45.495  25.886  29.409  1.00  0.00     0.074 A 
ATOM     60  C   UNL A   1      45.776  24.530  28.990  1.00  0.00     0.031 C 
ATOM     61  C   UNL A   1      46.414  26.720  29.953  1.00  0.00     0.031 A 
BRANCH  48  62
ATOM     62  C   UNL A   1      44.222  32.320  31.356  1.00  0.00    -0.014 A 
ATOM     63  C   UNL A   1      44.112  32.605  32.727  1.00  0.00     0.009 A 
ATOM     64  C   UNL A   1      44.618  33.340  30.478  1.00  0.00     0.009 A 
ATOM     65  C   UNL A   1      44.359  33.895  33.201  1.00  0.00     0.001 A 
ATOM     66  C   UNL A   1      44.890  34.621  30.960  1.00  0.00     0.001 A 
ATOM     67  C   UNL A   1      44.751  34.900  32.319  1.00  0.00     0.000 A 
ENDBRANCH  48  62
BRANCH  49  68
ATOM     68  C   UNL A   1      41.985  23.363  27.572  1.00  0.00    -0.014 A 
ATOM     69  C   UNL A   1      41.424  22.343  28.354  1.00  0.00     0.009 A 
ATOM     70  C   UNL A   1      42.262  23.106  26.220  1.00  0.00     0.009 A 
ATOM     71  C   UNL A   1      41.172  21.084  27.804  1.00  0.00     0.001 A 
ATOM     72  C   UNL A   1      41.985  21.855  25.665  1.00  0.00     0.001 A 
ATOM     73  C   UNL A   1      41.449  20.842  26.459  1.00  0.00     0.000 A 
ENDBRANCH  49  68
BRANCH  61  74
ATOM     74  C   UNL A   1      47.793  26.175  30.179  1.00  0.00    -0.014 A 
ATOM     75  C   UNL A   1      48.743  26.141  29.148  1.00  0.00     0.009 A 
ATOM     76  C   UNL A   1      48.162  25.744  31.464  1.00  0.00     0.009 A 
ATOM     77  C   UNL A   1      50.031  25.663  29.395  1.00  0.00     0.001 A 
ATOM     78  C   UNL A   1      49.457  25.289  31.712  1.00  0.00     0.001 A 
ATOM     79  C   UNL A   1      50.388  25.243  30.676  1.00  0.00     0.000 A 
ENDBRANCH  61  74
ENDBRANCH  35  36
ENDBRANCH  27  30
ENDBRANCH  25  26
ENDBRANCH  24  25
ENDBRANCH   1  24
TORSDOF 13
ENDMDL
MODEL 2
REMARK VINA RESULT:     -11.1      5.459     10.204
REMARK SMILES C[C@@H]1OCC[C@@H]1C(=O)Nc1ccc(C(=O)NCCCCNC(=O)c2ccc(-c3c4nc(c(-c5ccccc5)c5ccc([nH]5)c(-c5ccccc5)c5nc(c(-c6ccccc6)c6ccc3[nH]6)C=C5)C=C4)cc2)cc1F
REMARK SMILES IDX 18 1 17 2 16 3 14 4 15 5 13 7 10 8 11 9 73 10 12 11 72 12
REMARK SMILES IDX 74 13 9 14 7 15 8 16 6 18 1 19 2 20 3 21 4 22 5 23 19 24
REMARK SMILES IDX 20 25 21 26 22 27 23 29 24 30 25 31 71 32 26 33 70 34 27 35
REMARK SMILES IDX 28 36 29 37 64 38 30 39 69 40 63 41 65 42 31 43 68 44 62 45
REMARK SMILES IDX 61 46 32 48 54 49 39 50 53 51 40 52 43 53 52 54 66 55 41 56
REMARK SMILES IDX 42 57 51 59 67 60 44 61 33 62 34 63 38 64 35 65 37 66 36 67
REMARK SMILES IDX 55 68 56 69 60 70 57 71 59 72 58 73 45 74 46 75 50 76 47 77
REMARK SMILES IDX 49 78 48 79
REMARK H PARENT 16 6 9 17 21 28 65 47 43 58
REMARK Flexibility Score: inf
ROOT
ATOM      1  C   UNL A   1      34.892  35.531  32.863  1.00  0.00     0.023 C 
ENDROOT
BRANCH   1   2
ATOM      2  C   UNL A   1      35.939  34.447  33.179  1.00  0.00     0.116 C 
BRANCH   2   3
ATOM      3  N   UNL A   1      36.077  34.231  34.616  1.00  0.00    -0.352 N 
ATOM      4  C   UNL A   1      36.869  33.397  35.376  1.00  0.00     0.251 C 
ATOM      5  O   UNL A   1      36.790  33.488  36.601  1.00  0.00    -0.269 OA
ATOM      6  H   UNL A   1      35.479  34.797  35.155  1.00  0.00     0.163 HD
BRANCH   4   7
ATOM      7  C   UNL A   1      37.837  32.421  34.796  1.00  0.00     0.042 A 
ATOM      8  C   UNL A   1      39.673  30.471  33.786  1.00  0.00     0.077 A 
ATOM      9  C   UNL A   1      38.308  30.424  33.458  1.00  0.00     0.030 A 
ATOM     10  C   UNL A   1      40.048  31.477  34.658  1.00  0.00     0.147 A 
ATOM     11  C   UNL A   1      37.394  31.368  33.983  1.00  0.00     0.016 A 
ATOM     12  C   UNL A   1      39.187  32.482  35.049  1.00  0.00     0.055 A 
ATOM     13  F   UNL A   1      41.227  31.543  35.267  1.00  0.00    -0.205 F 
BRANCH   8  14
ATOM     14  N   UNL A   1      40.532  29.532  33.171  1.00  0.00    -0.323 N 
ATOM     15  C   UNL A   1      41.295  28.482  33.608  1.00  0.00     0.230 C 
ATOM     16  O   UNL A   1      42.001  27.925  32.759  1.00  0.00    -0.274 OA
ATOM     17  H   UNL A   1      40.596  29.663  32.198  1.00  0.00     0.170 HD
BRANCH  15  18
ATOM     18  C   UNL A   1      41.276  27.977  35.036  1.00  0.00     0.110 C 
ATOM     19  C   UNL A   1      43.593  29.050  35.490  1.00  0.00     0.039 C 
ATOM     20  C   UNL A   1      42.222  28.665  36.029  1.00  0.00     0.127 C 
ATOM     21  O   UNL A   1      42.426  27.722  37.108  1.00  0.00    -0.378 OA
ATOM     22  C   UNL A   1      41.795  26.488  36.743  1.00  0.00     0.161 C 
ATOM     23  C   UNL A   1      41.668  26.524  35.235  1.00  0.00     0.044 C 
ENDBRANCH  15  18
ENDBRANCH   8  14
ENDBRANCH   4   7
ENDBRANCH   2   3
ENDBRANCH   1   2
BRANCH   1  24
ATOM     24  C   UNL A   1      33.753  35.043  31.973  1.00  0.00     0.023 C 
BRANCH  24  25
ATOM     25  C   UNL A   1      33.724  35.717  30.609  1.00  0.00     0.116 C 
BRANCH  25  26
ATOM     26  N   UNL A   1      32.851  35.058  29.650  1.00  0.00    -0.352 N 
ATOM     27  C   UNL A   1      33.166  33.987  28.838  1.00  0.00     0.251 C 
ATOM     28  H   UNL A   1      31.937  35.414  29.573  1.00  0.00     0.163 HD
ATOM     29  O   UNL A   1      32.387  33.573  27.999  1.00  0.00    -0.269 OA
BRANCH  27  30
ATOM     30  C   UNL A   1      34.509  33.382  28.979  1.00  0.00     0.039 A 
ATOM     31  C   UNL A   1      35.541  33.825  28.149  1.00  0.00     0.014 A 
ATOM     32  C   UNL A   1      34.756  32.448  29.987  1.00  0.00     0.014 A 
ATOM     33  C   UNL A   1      36.845  33.381  28.380  1.00  0.00     0.010 A 
ATOM     34  C   UNL A   1      36.063  32.064  30.261  1.00  0.00     0.010 A 
ATOM     35  C   UNL A   1      37.120  32.529  29.462  1.00  0.00    -0.014 A 
BRANCH  35  36
ATOM     36  C   UNL A   1      38.500  32.085  29.777  1.00  0.00     0.031 A 
ATOM     37  C   UNL A   1      38.985  30.760  29.263  1.00  0.00     0.074 A 
ATOM     38  C   UNL A   1      39.276  32.821  30.595  1.00  0.00     0.049 A 
ATOM     39  N   UNL A   1      40.092  30.121  29.542  1.00  0.00    -0.248 NA
ATOM     40  C   UNL A   1      38.092  30.043  28.337  1.00  0.00     0.031 C 
ATOM     41  C   UNL A   1      38.911  34.110  31.187  1.00  0.00     0.029 A 
ATOM     42  N   UNL A   1      40.534  32.575  31.087  1.00  0.00    -0.354 N 
ATOM     43  C   UNL A   1      40.014  28.918  28.851  1.00  0.00     0.074 A 
ATOM     44  C   UNL A   1      38.736  28.898  28.174  1.00  0.00     0.031 C 
ATOM     45  C   UNL A   1      39.926  34.546  31.952  1.00  0.00     0.029 A 
ATOM     46  C   UNL A   1      40.995  33.551  31.936  1.00  0.00     0.049 A 
ATOM     47  H   UNL A   1      41.057  31.775  30.853  1.00  0.00     0.167 HD
ATOM     48  C   UNL A   1      40.931  27.926  28.774  1.00  0.00     0.031 A 
ATOM     49  C   UNL A   1      42.143  33.629  32.636  1.00  0.00     0.031 A 
ATOM     50  C   UNL A   1      42.211  27.954  29.426  1.00  0.00     0.049 A 
ATOM     51  C   UNL A   1      43.149  32.518  32.525  1.00  0.00     0.074 A 
ATOM     52  C   UNL A   1      43.226  27.015  29.375  1.00  0.00     0.029 A 
ATOM     53  N   UNL A   1      42.655  28.983  30.241  1.00  0.00    -0.354 N 
ATOM     54  N   UNL A   1      43.078  31.405  31.835  1.00  0.00    -0.248 NA
ATOM     55  C   UNL A   1      44.400  32.679  33.281  1.00  0.00     0.031 C 
ATOM     56  C   UNL A   1      44.275  27.463  30.184  1.00  0.00     0.029 A 
ATOM     57  C   UNL A   1      43.928  28.701  30.702  1.00  0.00     0.049 A 
ATOM     58  H   UNL A   1      42.142  29.794  30.459  1.00  0.00     0.167 HD
ATOM     59  C   UNL A   1      44.284  30.752  32.047  1.00  0.00     0.074 A 
ATOM     60  C   UNL A   1      45.072  31.593  32.923  1.00  0.00     0.031 C 
ATOM     61  C   UNL A   1      44.703  29.560  31.557  1.00  0.00     0.031 A 
BRANCH  48  62
ATOM     62  C   UNL A   1      40.574  26.723  27.949  1.00  0.00    -0.014 A 
ATOM     63  C   UNL A   1      39.763  25.701  28.471  1.00  0.00     0.009 A 
ATOM     64  C   UNL A   1      41.031  26.620  26.627  1.00  0.00     0.009 A 
ATOM     65  C   UNL A   1      39.448  24.584  27.695  1.00  0.00     0.001 A 
ATOM     66  C   UNL A   1      40.692  25.513  25.845  1.00  0.00     0.001 A 
ATOM     67  C   UNL A   1      39.909  24.493  26.383  1.00  0.00     0.000 A 
ENDBRANCH  48  62
BRANCH  49  68
ATOM     68  C   UNL A   1      42.413  34.809  33.497  1.00  0.00    -0.014 A 
ATOM     69  C   UNL A   1      42.019  34.812  34.843  1.00  0.00     0.009 A 
ATOM     70  C   UNL A   1      43.054  35.944  32.974  1.00  0.00     0.009 A 
ATOM     71  C   UNL A   1      42.234  35.937  35.642  1.00  0.00     0.001 A 
ATOM     72  C   UNL A   1      43.292  37.057  33.783  1.00  0.00     0.001 A 
ATOM     73  C   UNL A   1      42.873  37.058  35.112  1.00  0.00     0.000 A 
ENDBRANCH  49  68
BRANCH  61  74
ATOM     74  C   UNL A   1      46.093  29.120  31.909  1.00  0.00    -0.014 A 
ATOM     75  C   UNL A   1      47.198  29.498  31.131  1.00  0.00     0.009 A 
ATOM     76  C   UNL A   1      46.304  28.363  33.073  1.00  0.00     0.009 A 
ATOM     77  C   UNL A   1      48.485  29.106  31.501  1.00  0.00     0.001 A 
ATOM     78  C   UNL A   1      47.594  27.993  33.452  1.00  0.00     0.001 A 
ATOM     79  C   UNL A   1      48.683  28.359  32.663  1.00  0.00     0.000 A 
ENDBRANCH  61  74
ENDBRANCH  35  36
ENDBRANCH  27  30
ENDBRANCH  25  26
ENDBRANCH  24  25
ENDBRANCH   1  24
TORSDOF 13
ENDMDL
MODEL 3
REMARK VINA RESULT:     -11.1      3.282      4.625
REMARK SMILES C[C@@H]1OCC[C@@H]1C(=O)Nc1ccc(C(=O)NCCCCNC(=O)c2ccc(-c3c4nc(c(-c5ccccc5)c5ccc([nH]5)c(-c5ccccc5)c5nc(c(-c6ccccc6)c6ccc3[nH]6)C=C5)C=C4)cc2)cc1F
REMARK SMILES IDX 18 1 17 2 16 3 14 4 15 5 13 7 10 8 11 9 73 10 12 11 72 12
REMARK SMILES IDX 74 13 9 14 7 15 8 16 6 18 1 19 2 20 3 21 4 22 5 23 19 24
REMARK SMILES IDX 20 25 21 26 22 27 23 29 24 30 25 31 71 32 26 33 70 34 27 35
REMARK SMILES IDX 28 36 29 37 64 38 30 39 69 40 63 41 65 42 31 43 68 44 62 45
REMARK SMILES IDX 61 46 32 48 54 49 39 50 53 51 40 52 43 53 52 54 66 55 41 56
REMARK SMILES IDX 42 57 51 59 67 60 44 61 33 62 34 63 38 64 35 65 37 66 36 67
REMARK SMILES IDX 55 68 56 69 60 70 57 71 59 72 58 73 45 74 46 75 50 76 47 77
REMARK SMILES IDX 49 78 48 79
REMARK H PARENT 16 6 9 17 21 28 65 47 43 58
REMARK Flexibility Score: inf
ROOT
ATOM      1  C   UNL A   1      31.867  30.478  26.860  1.00  0.00     0.023 C 
ENDROOT
BRANCH   1   2
ATOM      2  C   UNL A   1      32.065  29.820  25.482  1.00  0.00     0.116 C 
BRANCH   2   3
ATOM      3  N   UNL A   1      30.970  30.134  24.569  1.00  0.00    -0.352 N 
ATOM      4  C   UNL A   1      30.258  29.390  23.653  1.00  0.00     0.251 C 
ATOM      5  O   UNL A   1      29.333  29.944  23.058  1.00  0.00    -0.269 OA
ATOM      6  H   UNL A   1      30.681  31.074  24.617  1.00  0.00     0.163 HD
BRANCH   4   7
ATOM      7  C   UNL A   1      30.525  27.950  23.371  1.00  0.00     0.042 A 
ATOM      8  C   UNL A   1      31.128  25.187  22.925  1.00  0.00     0.077 A 
ATOM      9  C   UNL A   1      30.133  25.577  23.837  1.00  0.00     0.030 A 
ATOM     10  C   UNL A   1      31.817  26.217  22.310  1.00  0.00     0.147 A 
ATOM     11  C   UNL A   1      29.858  26.943  24.083  1.00  0.00     0.016 A 
ATOM     12  C   UNL A   1      31.448  27.540  22.438  1.00  0.00     0.055 A 
ATOM     13  F   UNL A   1      32.936  26.059  21.610  1.00  0.00    -0.205 F 
BRANCH   8  14
ATOM     14  N   UNL A   1      31.300  23.805  22.688  1.00  0.00    -0.323 N 
ATOM     15  C   UNL A   1      31.987  22.792  23.304  1.00  0.00     0.230 C 
ATOM     16  O   UNL A   1      31.965  21.691  22.739  1.00  0.00    -0.274 OA
ATOM     17  H   UNL A   1      30.810  23.497  21.891  1.00  0.00     0.170 HD
BRANCH  15  18
ATOM     18  C   UNL A   1      32.712  22.960  24.622  1.00  0.00     0.110 C 
ATOM     19  C   UNL A   1      34.909  23.564  23.382  1.00  0.00     0.039 C 
ATOM     20  C   UNL A   1      34.017  23.769  24.599  1.00  0.00     0.127 C 
ATOM     21  O   UNL A   1      34.767  23.354  25.765  1.00  0.00    -0.378 OA
ATOM     22  C   UNL A   1      34.067  22.262  26.376  1.00  0.00     0.161 C 
ATOM     23  C   UNL A   1      33.186  21.682  25.291  1.00  0.00     0.044 C 
ENDBRANCH  15  18
ENDBRANCH   8  14
ENDBRANCH   4   7
ENDBRANCH   2   3
ENDBRANCH   1   2
BRANCH   1  24
ATOM     24  C   UNL A   1      31.595  31.978  26.789  1.00  0.00     0.023 C 
BRANCH  24  25
ATOM     25  C   UNL A   1      32.777  32.825  27.238  1.00  0.00     0.116 C 
BRANCH  25  26
ATOM     26  N   UNL A   1      32.413  34.181  27.619  1.00  0.00    -0.352 N 
ATOM     27  C   UNL A   1      33.016  34.964  28.582  1.00  0.00     0.251 C 
ATOM     28  H   UNL A   1      31.655  34.583  27.136  1.00  0.00     0.163 HD
ATOM     29  O   UNL A   1      32.568  36.054  28.888  1.00  0.00    -0.269 OA
BRANCH  27  30
ATOM     30  C   UNL A   1      34.203  34.417  29.277  1.00  0.00     0.039 A 
ATOM     31  C   UNL A   1      34.020  33.684  30.451  1.00  0.00     0.014 A 
ATOM     32  C   UNL A   1      35.473  34.560  28.715  1.00  0.00     0.014 A 
ATOM     33  C   UNL A   1      35.111  33.028  31.025  1.00  0.00     0.010 A 
ATOM     34  C   UNL A   1      36.541  33.849  29.247  1.00  0.00     0.010 A 
ATOM     35  C   UNL A   1      36.369  33.074  30.405  1.00  0.00    -0.014 A 
BRANCH  35  36
ATOM     36  C   UNL A   1      37.537  32.340  30.951  1.00  0.00     0.031 A 
ATOM     37  C   UNL A   1      38.246  32.874  32.163  1.00  0.00     0.074 A 
ATOM     38  C   UNL A   1      38.016  31.257  30.309  1.00  0.00     0.049 A 
ATOM     39  N   UNL A   1      39.365  32.475  32.709  1.00  0.00    -0.248 NA
ATOM     40  C   UNL A   1      37.629  34.033  32.830  1.00  0.00     0.031 C 
ATOM     41  C   UNL A   1      37.439  30.656  29.104  1.00  0.00     0.029 A 
ATOM     42  N   UNL A   1      39.115  30.479  30.574  1.00  0.00    -0.354 N 
ATOM     43  C   UNL A   1      39.600  33.349  33.763  1.00  0.00     0.074 A 
ATOM     44  C   UNL A   1      38.531  34.323  33.755  1.00  0.00     0.031 C 
ATOM     45  C   UNL A   1      38.183  29.598  28.742  1.00  0.00     0.029 A 
ATOM     46  C   UNL A   1      39.308  29.469  29.663  1.00  0.00     0.049 A 
ATOM     47  H   UNL A   1      39.708  30.629  31.345  1.00  0.00     0.167 HD
ATOM     48  C   UNL A   1      40.607  33.333  34.667  1.00  0.00     0.031 A 
ATOM     49  C   UNL A   1      40.290  28.552  29.572  1.00  0.00     0.031 A 
ATOM     50  C   UNL A   1      41.657  32.352  34.692  1.00  0.00     0.049 A 
ATOM     51  C   UNL A   1      41.392  28.550  30.595  1.00  0.00     0.074 A 
ATOM     52  C   UNL A   1      42.699  32.226  35.593  1.00  0.00     0.029 A 
ATOM     53  N   UNL A   1      41.790  31.320  33.776  1.00  0.00    -0.354 N 
ATOM     54  N   UNL A   1      41.579  29.358  31.610  1.00  0.00    -0.248 NA
ATOM     55  C   UNL A   1      42.413  27.499  30.466  1.00  0.00     0.031 C 
ATOM     56  C   UNL A   1      43.482  31.134  35.205  1.00  0.00     0.029 A 
ATOM     57  C   UNL A   1      42.899  30.555  34.089  1.00  0.00     0.049 A 
ATOM     58  H   UNL A   1      41.185  31.155  33.018  1.00  0.00     0.167 HD
ATOM     59  C   UNL A   1      42.717  28.895  32.257  1.00  0.00     0.074 A 
ATOM     60  C   UNL A   1      43.174  27.732  31.527  1.00  0.00     0.031 C 
ATOM     61  C   UNL A   1      43.327  29.389  33.361  1.00  0.00     0.031 A 
BRANCH  48  62
ATOM     62  C   UNL A   1      40.616  34.417  35.706  1.00  0.00    -0.014 A 
ATOM     63  C   UNL A   1      41.320  35.614  35.499  1.00  0.00     0.009 A 
ATOM     64  C   UNL A   1      39.890  34.252  36.895  1.00  0.00     0.009 A 
ATOM     65  C   UNL A   1      41.327  36.608  36.478  1.00  0.00     0.001 A 
ATOM     66  C   UNL A   1      39.877  35.260  37.862  1.00  0.00     0.001 A 
ATOM     67  C   UNL A   1      40.603  36.432  37.656  1.00  0.00     0.000 A 
ENDBRANCH  48  62
BRANCH  49  68
ATOM     68  C   UNL A   1      40.274  27.547  28.478  1.00  0.00    -0.014 A 
ATOM     69  C   UNL A   1      39.612  26.322  28.648  1.00  0.00     0.009 A 
ATOM     70  C   UNL A   1      40.931  27.801  27.264  1.00  0.00     0.009 A 
ATOM     71  C   UNL A   1      39.632  25.359  27.637  1.00  0.00     0.001 A 
ATOM     72  C   UNL A   1      40.927  26.847  26.244  1.00  0.00     0.001 A 
ATOM     73  C   UNL A   1      40.287  25.624  26.434  1.00  0.00     0.000 A 
ENDBRANCH  49  68
BRANCH  61  74
ATOM     74  C   UNL A   1      44.521  28.645  33.881  1.00  0.00    -0.014 A 
ATOM     75  C   UNL A   1      45.823  28.983  33.482  1.00  0.00     0.009 A 
ATOM     76  C   UNL A   1      44.339  27.628  34.833  1.00  0.00     0.009 A 
ATOM     77  C   UNL A   1      46.919  28.298  34.010  1.00  0.00     0.001 A 
ATOM     78  C   UNL A   1      45.438  26.963  35.375  1.00  0.00     0.001 A 
ATOM     79  C   UNL A   1      46.726  27.294  34.959  1.00  0.00     0.000 A 
ENDBRANCH  61  74
ENDBRANCH  35  36
ENDBRANCH  27  30
ENDBRANCH  25  26
ENDBRANCH  24  25
ENDBRANCH   1  24
TORSDOF 13
ENDMDL
