MODEL 1
REMARK VINA RESULT:     -12.8      0.000      0.000
REMARK SMILES Cc1c(CC(=O)NCCCCNC(=O)c2ccc(-c3c4nc(c(-c5ccccc5)c5ccc([nH]5)c(-c5ccccc5)c5nc(c(-c6ccccc6)c6ccc3[nH]6)C=C5)C=C4)cc2)cc(-c2ccc(S(C)(=O)=O)cc2)n1-c1cccc(F)c1
REMARK SMILES IDX 9 1 8 2 7 3 5 4 6 5 4 7 3 8 1 9 2 10 75 11 63 12 64 13 76 14
REMARK SMILES IDX 77 15 82 16 78 17 80 18 79 19 81 20 65 21 66 22 74 23 67 24
REMARK SMILES IDX 73 25 68 26 69 27 70 28 71 29 72 30 10 31 11 32 12 33 13 34
REMARK SMILES IDX 14 36 15 37 16 38 62 39 17 40 61 41 18 42 19 43 20 44 55 45
REMARK SMILES IDX 21 46 60 47 54 48 56 49 22 50 59 51 53 52 52 53 23 55 45 56
REMARK SMILES IDX 30 57 44 58 31 59 34 60 43 61 57 62 32 63 33 64 42 66 58 67
REMARK SMILES IDX 35 68 24 69 25 70 29 71 26 72 28 73 27 74 46 75 47 76 51 77
REMARK SMILES IDX 48 78 50 79 49 80 36 81 37 82 41 83 38 84 40 85 39 86
REMARK H PARENT 7 6 12 35 56 54 34 65
REMARK Flexibility Score: inf
ROOT
ATOM      1  C   UNL A   1      31.492  28.936  26.050  1.00  0.00     0.023 C 
ENDROOT
BRANCH   1   2
ATOM      2  C   UNL A   1      31.794  28.357  24.668  1.00  0.00     0.116 C 
BRANCH   2   3
ATOM      3  N   UNL A   1      30.688  27.583  24.133  1.00  0.00    -0.356 N 
ATOM      4  C   UNL A   1      30.116  26.434  24.591  1.00  0.00     0.224 C 
ATOM      5  O   UNL A   1      29.121  26.014  23.993  1.00  0.00    -0.275 OA
ATOM      6  H   UNL A   1      30.289  27.946  23.310  1.00  0.00     0.163 HD
BRANCH   4   7
ATOM      7  C   UNL A   1      30.663  25.726  25.816  1.00  0.00     0.137 C 
BRANCH   7   8
ATOM      8  C   UNL A   1      31.644  24.644  25.478  1.00  0.00    -0.017 A 
ATOM      9  C   UNL A   1      33.794  26.029  25.013  1.00  0.00     0.065 C 
ATOM     10  C   UNL A   1      32.998  24.775  25.202  1.00  0.00     0.024 A 
ATOM     11  N   UNL A   1      33.528  23.503  25.008  1.00  0.00    -0.313 N 
ATOM     12  C   UNL A   1      31.331  23.269  25.329  1.00  0.00     0.033 A 
ATOM     13  C   UNL A   1      32.493  22.570  25.056  1.00  0.00     0.053 A 
BRANCH  11  14
ATOM     14  C   UNL A   1      34.897  23.215  24.773  1.00  0.00     0.049 A 
ATOM     15  C   UNL A   1      35.376  23.116  23.461  1.00  0.00     0.027 A 
ATOM     16  C   UNL A   1      35.747  22.993  25.860  1.00  0.00     0.065 A 
ATOM     17  C   UNL A   1      36.721  22.818  23.240  1.00  0.00     0.005 A 
ATOM     18  C   UNL A   1      37.078  22.680  25.620  1.00  0.00     0.125 A 
ATOM     19  C   UNL A   1      37.574  22.597  24.322  1.00  0.00     0.039 A 
ATOM     20  F   UNL A   1      37.895  22.441  26.654  1.00  0.00    -0.207 F 
ENDBRANCH  11  14
BRANCH  13  21
ATOM     21  C   UNL A   1      32.639  21.115  24.928  1.00  0.00    -0.001 A 
ATOM     22  C   UNL A   1      32.869  20.304  26.049  1.00  0.00     0.011 A 
ATOM     23  C   UNL A   1      32.522  20.515  23.666  1.00  0.00     0.011 A 
ATOM     24  C   UNL A   1      33.029  18.923  25.909  1.00  0.00     0.021 A 
ATOM     25  C   UNL A   1      32.681  19.135  23.517  1.00  0.00     0.021 A 
ATOM     26  C   UNL A   1      32.953  18.349  24.637  1.00  0.00     0.067 A 
BRANCH  26  27
ATOM     27  S   UNL A   1      33.167  16.593  24.470  1.00  0.00     0.175 S 
ATOM     28  C   UNL A   1      34.803  16.299  25.091  1.00  0.00     0.163 C 
ATOM     29  O   UNL A   1      32.218  15.961  25.345  1.00  0.00    -0.224 OA
ATOM     30  O   UNL A   1      33.191  16.292  23.039  1.00  0.00    -0.224 OA
ENDBRANCH  26  27
ENDBRANCH  13  21
ENDBRANCH   7   8
ENDBRANCH   4   7
ENDBRANCH   2   3
ENDBRANCH   1   2
BRANCH   1  31
ATOM     31  C   UNL A   1      32.295  28.362  27.236  1.00  0.00     0.023 C 
BRANCH  31  32
ATOM     32  C   UNL A   1      33.669  28.974  27.577  1.00  0.00     0.116 C 
BRANCH  32  33
ATOM     33  N   UNL A   1      33.743  30.415  27.541  1.00  0.00    -0.352 N 
ATOM     34  C   UNL A   1      34.848  31.200  27.838  1.00  0.00     0.251 C 
ATOM     35  H   UNL A   1      32.922  30.891  27.277  1.00  0.00     0.163 HD
ATOM     36  O   UNL A   1      34.738  32.422  27.748  1.00  0.00    -0.269 OA
BRANCH  34  37
ATOM     37  C   UNL A   1      36.137  30.597  28.352  1.00  0.00     0.039 A 
ATOM     38  C   UNL A   1      37.175  30.402  27.456  1.00  0.00     0.014 A 
ATOM     39  C   UNL A   1      36.301  30.026  29.627  1.00  0.00     0.014 A 
ATOM     40  C   UNL A   1      38.363  29.715  27.854  1.00  0.00     0.010 A 
ATOM     41  C   UNL A   1      37.487  29.254  30.001  1.00  0.00     0.010 A 
ATOM     42  C   UNL A   1      38.573  29.060  29.124  1.00  0.00    -0.014 A 
BRANCH  42  43
ATOM     43  C   UNL A   1      39.651  27.845  29.123  1.00  0.00     0.031 A 
ATOM     44  C   UNL A   1      40.636  28.321  30.133  1.00  0.00     0.074 A 
ATOM     45  C   UNL A   1      40.065  26.687  28.460  1.00  0.00     0.049 A 
ATOM     46  N   UNL A   1      41.231  29.456  29.908  1.00  0.00    -0.248 NA
ATOM     47  C   UNL A   1      40.683  27.862  31.519  1.00  0.00     0.031 C 
ATOM     48  C   UNL A   1      39.529  26.105  27.218  1.00  0.00     0.029 A 
ATOM     49  N   UNL A   1      41.090  25.719  28.745  1.00  0.00    -0.354 N 
ATOM     50  C   UNL A   1      41.927  29.768  31.047  1.00  0.00     0.074 A 
ATOM     51  C   UNL A   1      41.386  28.866  32.058  1.00  0.00     0.031 C 
ATOM     52  C   UNL A   1      40.075  24.881  26.950  1.00  0.00     0.029 A 
ATOM     53  C   UNL A   1      41.077  24.513  27.950  1.00  0.00     0.049 A 
ATOM     54  H   UNL A   1      41.765  25.871  29.446  1.00  0.00     0.167 HD
ATOM     55  C   UNL A   1      43.228  30.125  30.842  1.00  0.00     0.031 A 
ATOM     56  C   UNL A   1      41.836  23.344  28.026  1.00  0.00     0.031 A 
ATOM     57  C   UNL A   1      44.100  28.994  31.030  1.00  0.00     0.049 A 
ATOM     58  C   UNL A   1      43.087  23.710  28.697  1.00  0.00     0.074 A 
ATOM     59  C   UNL A   1      44.189  28.056  32.040  1.00  0.00     0.029 A 
ATOM     60  N   UNL A   1      44.655  28.424  29.904  1.00  0.00    -0.354 N 
ATOM     61  N   UNL A   1      44.057  24.273  28.045  1.00  0.00    -0.248 NA
ATOM     62  C   UNL A   1      43.371  23.387  30.088  1.00  0.00     0.031 C 
ATOM     63  C   UNL A   1      44.314  26.820  31.371  1.00  0.00     0.029 A 
ATOM     64  C   UNL A   1      44.721  27.052  30.064  1.00  0.00     0.049 A 
ATOM     65  H   UNL A   1      44.959  28.917  29.108  1.00  0.00     0.167 HD
ATOM     66  C   UNL A   1      44.752  24.889  29.038  1.00  0.00     0.074 A 
ATOM     67  C   UNL A   1      44.492  24.098  30.228  1.00  0.00     0.031 C 
ATOM     68  C   UNL A   1      44.954  26.225  28.903  1.00  0.00     0.031 A 
BRANCH  55  69
ATOM     69  C   UNL A   1      43.390  31.180  29.776  1.00  0.00    -0.014 A 
ATOM     70  C   UNL A   1      44.211  30.907  28.676  1.00  0.00     0.009 A 
ATOM     71  C   UNL A   1      42.922  32.502  29.941  1.00  0.00     0.009 A 
ATOM     72  C   UNL A   1      44.607  31.937  27.813  1.00  0.00     0.001 A 
ATOM     73  C   UNL A   1      43.352  33.534  29.107  1.00  0.00     0.001 A 
ATOM     74  C   UNL A   1      44.202  33.252  28.046  1.00  0.00     0.000 A 
ENDBRANCH  55  69
BRANCH  56  75
ATOM     75  C   UNL A   1      41.968  21.882  27.518  1.00  0.00    -0.014 A 
ATOM     76  C   UNL A   1      40.824  21.009  27.548  1.00  0.00     0.009 A 
ATOM     77  C   UNL A   1      43.000  21.443  26.680  1.00  0.00     0.009 A 
ATOM     78  C   UNL A   1      40.666  19.876  26.724  1.00  0.00     0.001 A 
ATOM     79  C   UNL A   1      42.857  20.279  25.870  1.00  0.00     0.001 A 
ATOM     80  C   UNL A   1      41.684  19.521  25.861  1.00  0.00     0.000 A 
ENDBRANCH  56  75
BRANCH  68  81
ATOM     81  C   UNL A   1      45.225  26.760  27.502  1.00  0.00    -0.014 A 
ATOM     82  C   UNL A   1      44.244  27.223  26.595  1.00  0.00     0.009 A 
ATOM     83  C   UNL A   1      46.549  26.742  27.041  1.00  0.00     0.009 A 
ATOM     84  C   UNL A   1      44.560  27.574  25.276  1.00  0.00     0.001 A 
ATOM     85  C   UNL A   1      46.876  27.146  25.741  1.00  0.00     0.001 A 
ATOM     86  C   UNL A   1      45.881  27.540  24.852  1.00  0.00     0.000 A 
ENDBRANCH  68  81
ENDBRANCH  42  43
ENDBRANCH  34  37
ENDBRANCH  32  33
ENDBRANCH  31  32
ENDBRANCH   1  31
TORSDOF 15
ENDMDL
MODEL 2
REMARK VINA RESULT:     -11.4      5.354     12.210
REMARK SMILES Cc1c(CC(=O)NCCCCNC(=O)c2ccc(-c3c4nc(c(-c5ccccc5)c5ccc([nH]5)c(-c5ccccc5)c5nc(c(-c6ccccc6)c6ccc3[nH]6)C=C5)C=C4)cc2)cc(-c2ccc(S(C)(=O)=O)cc2)n1-c1cccc(F)c1
REMARK SMILES IDX 9 1 8 2 7 3 5 4 6 5 4 7 3 8 1 9 2 10 75 11 63 12 64 13 76 14
REMARK SMILES IDX 77 15 82 16 78 17 80 18 79 19 81 20 65 21 66 22 74 23 67 24
REMARK SMILES IDX 73 25 68 26 69 27 70 28 71 29 72 30 10 31 11 32 12 33 13 34
REMARK SMILES IDX 14 36 15 37 16 38 62 39 17 40 61 41 18 42 19 43 20 44 55 45
REMARK SMILES IDX 21 46 60 47 54 48 56 49 22 50 59 51 53 52 52 53 23 55 45 56
REMARK SMILES IDX 30 57 44 58 31 59 34 60 43 61 57 62 32 63 33 64 42 66 58 67
REMARK SMILES IDX 35 68 24 69 25 70 29 71 26 72 28 73 27 74 46 75 47 76 51 77
REMARK SMILES IDX 48 78 50 79 49 80 36 81 37 82 41 83 38 84 40 85 39 86
REMARK H PARENT 7 6 12 35 56 54 34 65
REMARK Flexibility Score: inf
ROOT
ATOM      1  C   UNL A   1      42.617  22.303  28.362  1.00  0.00     0.023 C 
ENDROOT
BRANCH   1   2
ATOM      2  C   UNL A   1      43.717  23.025  27.583  1.00  0.00     0.116 C 
BRANCH   2   3
ATOM      3  N   UNL A   1      44.622  22.107  26.914  1.00  0.00    -0.356 N 
ATOM      4  C   UNL A   1      45.221  22.196  25.693  1.00  0.00     0.224 C 
ATOM      5  O   UNL A   1      46.022  21.309  25.384  1.00  0.00    -0.275 OA
ATOM      6  H   UNL A   1      44.834  21.291  27.422  1.00  0.00     0.163 HD
BRANCH   4   7
ATOM      7  C   UNL A   1      44.940  23.369  24.771  1.00  0.00     0.137 C 
BRANCH   7   8
ATOM      8  C   UNL A   1      45.859  24.530  25.004  1.00  0.00    -0.017 A 
ATOM      9  C   UNL A   1      44.323  26.136  26.351  1.00  0.00     0.065 C 
ATOM     10  C   UNL A   1      45.610  25.681  25.739  1.00  0.00     0.024 A 
ATOM     11  N   UNL A   1      46.767  26.455  25.740  1.00  0.00    -0.313 N 
ATOM     12  C   UNL A   1      47.158  24.673  24.453  1.00  0.00     0.033 A 
ATOM     13  C   UNL A   1      47.717  25.849  24.920  1.00  0.00     0.053 A 
BRANCH  11  14
ATOM     14  C   UNL A   1      46.933  27.675  26.444  1.00  0.00     0.049 A 
ATOM     15  C   UNL A   1      47.444  27.666  27.748  1.00  0.00     0.027 A 
ATOM     16  C   UNL A   1      46.547  28.874  25.838  1.00  0.00     0.065 A 
ATOM     17  C   UNL A   1      47.590  28.870  28.438  1.00  0.00     0.005 A 
ATOM     18  C   UNL A   1      46.683  30.059  26.548  1.00  0.00     0.125 A 
ATOM     19  C   UNL A   1      47.206  30.070  27.838  1.00  0.00     0.039 A 
ATOM     20  F   UNL A   1      46.293  31.210  25.986  1.00  0.00    -0.207 F 
ENDBRANCH  11  14
BRANCH  13  21
ATOM     21  C   UNL A   1      49.082  26.334  24.679  1.00  0.00    -0.001 A 
ATOM     22  C   UNL A   1      50.152  25.930  25.490  1.00  0.00     0.011 A 
ATOM     23  C   UNL A   1      49.330  27.197  23.602  1.00  0.00     0.011 A 
ATOM     24  C   UNL A   1      51.443  26.418  25.264  1.00  0.00     0.021 A 
ATOM     25  C   UNL A   1      50.617  27.689  23.368  1.00  0.00     0.021 A 
ATOM     26  C   UNL A   1      51.662  27.312  24.212  1.00  0.00     0.067 A 
BRANCH  26  27
ATOM     27  S   UNL A   1      53.304  27.934  23.939  1.00  0.00     0.175 S 
ATOM     28  C   UNL A   1      53.160  28.885  22.449  1.00  0.00     0.163 C 
ATOM     29  O   UNL A   1      53.612  28.821  25.027  1.00  0.00    -0.224 OA
ATOM     30  O   UNL A   1      54.159  26.787  23.635  1.00  0.00    -0.224 OA
ENDBRANCH  26  27
ENDBRANCH  13  21
ENDBRANCH   7   8
ENDBRANCH   4   7
ENDBRANCH   2   3
ENDBRANCH   1   2
BRANCH   1  31
ATOM     31  C   UNL A   1      41.765  21.283  27.578  1.00  0.00     0.023 C 
BRANCH  31  32
ATOM     32  C   UNL A   1      41.280  21.644  26.160  1.00  0.00     0.116 C 
BRANCH  32  33
ATOM     33  N   UNL A   1      39.849  21.709  25.980  1.00  0.00    -0.352 N 
ATOM     34  C   UNL A   1      39.030  22.808  26.197  1.00  0.00     0.251 C 
ATOM     35  H   UNL A   1      39.408  20.885  25.670  1.00  0.00     0.163 HD
ATOM     36  O   UNL A   1      37.825  22.690  25.985  1.00  0.00    -0.269 OA
BRANCH  34  37
ATOM     37  C   UNL A   1      39.570  24.100  26.769  1.00  0.00     0.039 A 
ATOM     38  C   UNL A   1      39.100  24.522  28.002  1.00  0.00     0.014 A 
ATOM     39  C   UNL A   1      40.365  25.020  26.060  1.00  0.00     0.014 A 
ATOM     40  C   UNL A   1      39.473  25.797  28.528  1.00  0.00     0.010 A 
ATOM     41  C   UNL A   1      40.675  26.356  26.570  1.00  0.00     0.010 A 
ATOM     42  C   UNL A   1      40.236  26.806  27.832  1.00  0.00    -0.014 A 
BRANCH  42  43
ATOM     43  C   UNL A   1      39.990  28.338  28.314  1.00  0.00     0.031 A 
ATOM     44  C   UNL A   1      41.377  28.878  28.306  1.00  0.00     0.074 A 
ATOM     45  C   UNL A   1      39.060  29.227  28.859  1.00  0.00     0.049 A 
ATOM     46  N   UNL A   1      42.257  28.296  29.069  1.00  0.00    -0.248 NA
ATOM     47  C   UNL A   1      41.935  29.701  27.236  1.00  0.00     0.031 C 
ATOM     48  C   UNL A   1      37.688  28.950  29.312  1.00  0.00     0.029 A 
ATOM     49  N   UNL A   1      39.117  30.637  29.143  1.00  0.00    -0.354 N 
ATOM     50  C   UNL A   1      43.475  28.835  28.747  1.00  0.00     0.074 A 
ATOM     51  C   UNL A   1      43.240  29.529  27.485  1.00  0.00     0.031 C 
ATOM     52  C   UNL A   1      37.016  30.094  29.641  1.00  0.00     0.029 A 
ATOM     53  C   UNL A   1      37.869  31.273  29.496  1.00  0.00     0.049 A 
ATOM     54  H   UNL A   1      39.962  31.140  29.099  1.00  0.00     0.167 HD
ATOM     55  C   UNL A   1      44.217  29.250  29.814  1.00  0.00     0.031 A 
ATOM     56  C   UNL A   1      37.543  32.612  29.722  1.00  0.00     0.031 A 
ATOM     57  C   UNL A   1      44.037  30.662  30.039  1.00  0.00     0.049 A 
ATOM     58  C   UNL A   1      38.788  33.276  30.116  1.00  0.00     0.074 A 
ATOM     59  C   UNL A   1      44.086  31.745  29.185  1.00  0.00     0.029 A 
ATOM     60  N   UNL A   1      43.274  31.041  31.124  1.00  0.00    -0.354 N 
ATOM     61  N   UNL A   1      39.232  33.201  31.333  1.00  0.00    -0.248 NA
ATOM     62  C   UNL A   1      39.552  34.137  29.222  1.00  0.00     0.031 C 
ATOM     63  C   UNL A   1      42.961  32.525  29.530  1.00  0.00     0.029 A 
ATOM     64  C   UNL A   1      42.529  32.160  30.797  1.00  0.00     0.049 A 
ATOM     65  H   UNL A   1      43.262  30.586  31.997  1.00  0.00     0.167 HD
ATOM     66  C   UNL A   1      40.556  33.464  31.173  1.00  0.00     0.074 A 
ATOM     67  C   UNL A   1      40.636  34.295  29.985  1.00  0.00     0.031 C 
ATOM     68  C   UNL A   1      41.425  32.535  31.650  1.00  0.00     0.031 A 
BRANCH  55  69
ATOM     69  C   UNL A   1      44.331  28.205  30.896  1.00  0.00    -0.014 A 
ATOM     70  C   UNL A   1      45.093  27.058  30.648  1.00  0.00     0.009 A 
ATOM     71  C   UNL A   1      43.537  28.233  32.064  1.00  0.00     0.009 A 
ATOM     72  C   UNL A   1      45.006  25.950  31.501  1.00  0.00     0.001 A 
ATOM     73  C   UNL A   1      43.418  27.114  32.888  1.00  0.00     0.001 A 
ATOM     74  C   UNL A   1      44.149  25.968  32.601  1.00  0.00     0.000 A 
ENDBRANCH  55  69
BRANCH  56  75
ATOM     75  C   UNL A   1      36.374  33.617  29.913  1.00  0.00    -0.014 A 
ATOM     76  C   UNL A   1      35.657  34.104  28.764  1.00  0.00     0.009 A 
ATOM     77  C   UNL A   1      35.706  33.807  31.127  1.00  0.00     0.009 A 
ATOM     78  C   UNL A   1      34.342  34.612  28.804  1.00  0.00     0.001 A 
ATOM     79  C   UNL A   1      34.390  34.351  31.175  1.00  0.00     0.001 A 
ATOM     80  C   UNL A   1      33.694  34.716  30.019  1.00  0.00     0.000 A 
ENDBRANCH  56  75
BRANCH  68  81
ATOM     81  C   UNL A   1      41.062  31.833  32.952  1.00  0.00    -0.014 A 
ATOM     82  C   UNL A   1      41.261  32.355  34.251  1.00  0.00     0.009 A 
ATOM     83  C   UNL A   1      40.538  30.535  32.870  1.00  0.00     0.009 A 
ATOM     84  C   UNL A   1      41.023  31.593  35.402  1.00  0.00     0.001 A 
ATOM     85  C   UNL A   1      40.247  29.791  34.020  1.00  0.00     0.001 A 
ATOM     86  C   UNL A   1      40.510  30.309  35.284  1.00  0.00     0.000 A 
ENDBRANCH  68  81
ENDBRANCH  42  43
ENDBRANCH  34  37
ENDBRANCH  32  33
ENDBRANCH  31  32
ENDBRANCH   1  31
TORSDOF 15
ENDMDL
MODEL 3
REMARK VINA RESULT:     -11.3      4.505      8.486
REMARK SMILES Cc1c(CC(=O)NCCCCNC(=O)c2ccc(-c3c4nc(c(-c5ccccc5)c5ccc([nH]5)c(-c5ccccc5)c5nc(c(-c6ccccc6)c6ccc3[nH]6)C=C5)C=C4)cc2)cc(-c2ccc(S(C)(=O)=O)cc2)n1-c1cccc(F)c1
REMARK SMILES IDX 9 1 8 2 7 3 5 4 6 5 4 7 3 8 1 9 2 10 75 11 63 12 64 13 76 14
REMARK SMILES IDX 77 15 82 16 78 17 80 18 79 19 81 20 65 21 66 22 74 23 67 24
REMARK SMILES IDX 73 25 68 26 69 27 70 28 71 29 72 30 10 31 11 32 12 33 13 34
REMARK SMILES IDX 14 36 15 37 16 38 62 39 17 40 61 41 18 42 19 43 20 44 55 45
REMARK SMILES IDX 21 46 60 47 54 48 56 49 22 50 59 51 53 52 52 53 23 55 45 56
REMARK SMILES IDX 30 57 44 58 31 59 34 60 43 61 57 62 32 63 33 64 42 66 58 67
REMARK SMILES IDX 35 68 24 69 25 70 29 71 26 72 28 73 27 74 46 75 47 76 51 77
REMARK SMILES IDX 48 78 50 79 49 80 36 81 37 82 41 83 38 84 40 85 39 86
REMARK H PARENT 7 6 12 35 56 54 34 65
REMARK Flexibility Score: inf
ROOT
ATOM      1  C   UNL A   1      32.277  28.525  27.231  1.00  0.00     0.023 C 
ENDROOT
BRANCH   1   2
ATOM      2  C   UNL A   1      31.462  27.823  26.145  1.00  0.00     0.116 C 
BRANCH   2   3
ATOM      3  N   UNL A   1      30.487  26.896  26.690  1.00  0.00    -0.356 N 
ATOM      4  C   UNL A   1      29.910  25.796  26.130  1.00  0.00     0.224 C 
ATOM      5  O   UNL A   1      29.161  25.118  26.841  1.00  0.00    -0.275 OA
ATOM      6  H   UNL A   1      30.196  27.094  27.610  1.00  0.00     0.163 HD
BRANCH   4   7
ATOM      7  C   UNL A   1      30.215  25.401  24.696  1.00  0.00     0.137 C 
BRANCH   7   8
ATOM      8  C   UNL A   1      31.333  24.410  24.588  1.00  0.00    -0.017 A 
ATOM      9  C   UNL A   1      33.381  25.979  24.277  1.00  0.00     0.065 C 
ATOM     10  C   UNL A   1      32.693  24.665  24.477  1.00  0.00     0.024 A 
ATOM     11  N   UNL A   1      33.366  23.447  24.470  1.00  0.00    -0.313 N 
ATOM     12  C   UNL A   1      31.179  23.001  24.527  1.00  0.00     0.033 A 
ATOM     13  C   UNL A   1      32.431  22.414  24.470  1.00  0.00     0.053 A 
BRANCH  11  14
ATOM     14  C   UNL A   1      34.776  23.292  24.441  1.00  0.00     0.049 A 
ATOM     15  C   UNL A   1      35.409  22.873  23.264  1.00  0.00     0.027 A 
ATOM     16  C   UNL A   1      35.515  23.523  25.604  1.00  0.00     0.065 A 
ATOM     17  C   UNL A   1      36.795  22.709  23.249  1.00  0.00     0.005 A 
ATOM     18  C   UNL A   1      36.891  23.337  25.574  1.00  0.00     0.125 A 
ATOM     19  C   UNL A   1      37.537  22.939  24.408  1.00  0.00     0.039 A 
ATOM     20  F   UNL A   1      37.605  23.532  26.690  1.00  0.00    -0.207 F 
ENDBRANCH  11  14
BRANCH  13  21
ATOM     21  C   UNL A   1      32.734  20.978  24.496  1.00  0.00    -0.001 A 
ATOM     22  C   UNL A   1      33.252  20.363  25.645  1.00  0.00     0.011 A 
ATOM     23  C   UNL A   1      32.477  20.195  23.362  1.00  0.00     0.011 A 
ATOM     24  C   UNL A   1      33.559  18.999  25.648  1.00  0.00     0.021 A 
ATOM     25  C   UNL A   1      32.780  18.830  23.356  1.00  0.00     0.021 A 
ATOM     26  C   UNL A   1      33.337  18.245  24.493  1.00  0.00     0.067 A 
BRANCH  26  27
ATOM     27  S   UNL A   1      33.739  16.514  24.504  1.00  0.00     0.175 S 
ATOM     28  C   UNL A   1      32.440  15.779  25.465  1.00  0.00     0.163 C 
ATOM     29  O   UNL A   1      33.637  16.042  23.150  1.00  0.00    -0.224 OA
ATOM     30  O   UNL A   1      34.977  16.358  25.267  1.00  0.00    -0.224 OA
ENDBRANCH  26  27
ENDBRANCH  13  21
ENDBRANCH   7   8
ENDBRANCH   4   7
ENDBRANCH   2   3
ENDBRANCH   1   2
BRANCH   1  31
ATOM     31  C   UNL A   1      33.681  29.026  26.834  1.00  0.00     0.023 C 
BRANCH  31  32
ATOM     32  C   UNL A   1      34.279  30.241  27.571  1.00  0.00     0.116 C 
BRANCH  32  33
ATOM     33  N   UNL A   1      33.659  31.515  27.292  1.00  0.00    -0.352 N 
ATOM     34  C   UNL A   1      33.713  32.658  28.077  1.00  0.00     0.251 C 
ATOM     35  H   UNL A   1      33.144  31.579  26.455  1.00  0.00     0.163 HD
ATOM     36  O   UNL A   1      33.130  33.666  27.682  1.00  0.00    -0.269 OA
BRANCH  34  37
ATOM     37  C   UNL A   1      34.387  32.661  29.431  1.00  0.00     0.039 A 
ATOM     38  C   UNL A   1      34.441  33.851  30.137  1.00  0.00     0.014 A 
ATOM     39  C   UNL A   1      35.145  31.595  29.951  1.00  0.00     0.014 A 
ATOM     40  C   UNL A   1      35.180  33.943  31.357  1.00  0.00     0.010 A 
ATOM     41  C   UNL A   1      35.964  31.722  31.156  1.00  0.00     0.010 A 
ATOM     42  C   UNL A   1      36.021  32.910  31.914  1.00  0.00    -0.014 A 
BRANCH  42  43
ATOM     43  C   UNL A   1      37.221  33.419  32.882  1.00  0.00     0.031 A 
ATOM     44  C   UNL A   1      38.360  33.495  31.927  1.00  0.00     0.074 A 
ATOM     45  C   UNL A   1      37.605  33.633  34.208  1.00  0.00     0.049 A 
ATOM     46  N   UNL A   1      38.706  32.403  31.310  1.00  0.00    -0.248 NA
ATOM     47  C   UNL A   1      38.839  34.731  31.311  1.00  0.00     0.031 C 
ATOM     48  C   UNL A   1      36.849  33.341  35.437  1.00  0.00     0.029 A 
ATOM     49  N   UNL A   1      38.797  34.184  34.797  1.00  0.00    -0.354 N 
ATOM     50  C   UNL A   1      39.628  32.761  30.361  1.00  0.00     0.074 A 
ATOM     51  C   UNL A   1      39.508  34.213  30.273  1.00  0.00     0.031 C 
ATOM     52  C   UNL A   1      37.473  33.829  36.551  1.00  0.00     0.029 A 
ATOM     53  C   UNL A   1      38.746  34.464  36.213  1.00  0.00     0.049 A 
ATOM     54  H   UNL A   1      39.605  34.360  34.262  1.00  0.00     0.167 HD
ATOM     55  C   UNL A   1      40.762  32.004  30.351  1.00  0.00     0.031 A 
ATOM     56  C   UNL A   1      39.657  35.087  37.068  1.00  0.00     0.031 A 
ATOM     57  C   UNL A   1      41.806  32.644  31.111  1.00  0.00     0.049 A 
ATOM     58  C   UNL A   1      40.975  34.931  36.447  1.00  0.00     0.074 A 
ATOM     59  C   UNL A   1      42.292  33.936  31.103  1.00  0.00     0.029 A 
ATOM     60  N   UNL A   1      42.117  32.106  32.342  1.00  0.00    -0.354 N 
ATOM     61  N   UNL A   1      41.647  33.827  36.568  1.00  0.00    -0.248 NA
ATOM     62  C   UNL A   1      41.662  36.009  35.749  1.00  0.00     0.031 C 
ATOM     63  C   UNL A   1      42.410  34.283  32.466  1.00  0.00     0.029 A 
ATOM     64  C   UNL A   1      42.419  33.123  33.229  1.00  0.00     0.049 A 
ATOM     65  H   UNL A   1      42.125  31.145  32.557  1.00  0.00     0.167 HD
ATOM     66  C   UNL A   1      42.485  33.882  35.499  1.00  0.00     0.074 A 
ATOM     67  C   UNL A   1      42.666  35.297  35.232  1.00  0.00     0.031 C 
ATOM     68  C   UNL A   1      42.451  32.828  34.643  1.00  0.00     0.031 A 
BRANCH  55  69
ATOM     69  C   UNL A   1      40.483  30.522  30.333  1.00  0.00    -0.014 A 
ATOM     70  C   UNL A   1      39.828  29.972  29.226  1.00  0.00     0.009 A 
ATOM     71  C   UNL A   1      40.663  29.704  31.470  1.00  0.00     0.009 A 
ATOM     72  C   UNL A   1      39.309  28.672  29.282  1.00  0.00     0.001 A 
ATOM     73  C   UNL A   1      40.107  28.426  31.541  1.00  0.00     0.001 A 
ATOM     74  C   UNL A   1      39.423  27.913  30.448  1.00  0.00     0.000 A 
ENDBRANCH  55  69
BRANCH  56  75
ATOM     75  C   UNL A   1      39.857  35.693  38.485  1.00  0.00    -0.014 A 
ATOM     76  C   UNL A   1      40.280  37.062  38.622  1.00  0.00     0.009 A 
ATOM     77  C   UNL A   1      39.301  35.147  39.647  1.00  0.00     0.009 A 
ATOM     78  C   UNL A   1      40.052  37.853  39.767  1.00  0.00     0.001 A 
ATOM     79  C   UNL A   1      39.099  35.934  40.817  1.00  0.00     0.001 A 
ATOM     80  C   UNL A   1      39.436  37.289  40.867  1.00  0.00     0.000 A 
ENDBRANCH  56  75
BRANCH  68  81
ATOM     81  C   UNL A   1      42.261  31.439  35.240  1.00  0.00    -0.014 A 
ATOM     82  C   UNL A   1      43.269  30.666  35.860  1.00  0.00     0.009 A 
ATOM     83  C   UNL A   1      40.997  30.844  35.119  1.00  0.00     0.009 A 
ATOM     84  C   UNL A   1      43.046  29.344  36.266  1.00  0.00     0.001 A 
ATOM     85  C   UNL A   1      40.756  29.543  35.574  1.00  0.00     0.001 A 
ATOM     86  C   UNL A   1      41.784  28.784  36.126  1.00  0.00     0.000 A 
ENDBRANCH  68  81
ENDBRANCH  42  43
ENDBRANCH  34  37
ENDBRANCH  32  33
ENDBRANCH  31  32
ENDBRANCH   1  31
TORSDOF 15
ENDMDL
