MODEL 1
REMARK VINA RESULT:     -10.6      0.000      0.000
REMARK SMILES C[C@H]1[NH2+]CC[C@@H]1C(=O)N[C@@H](CC(=O)NCCCCNC(=O)c1ccc(-c2c3nc(c(-c4ccccc4)c4ccc([nH]4)c(-c4ccccc4)c4nc(c(-c5ccccc5)c5ccc2[nH]5)C=C4)C=C3)cc1)c1cccs1
REMARK SMILES IDX 16 1 15 2 14 3 12 4 13 5 11 7 10 8 9 9 7 10 8 11 6 13 1 14
REMARK SMILES IDX 2 15 3 16 4 17 5 20 70 21 71 22 74 23 72 24 73 25 17 26
REMARK SMILES IDX 18 27 19 28 20 29 21 31 22 32 23 33 69 34 24 35 68 36 25 37
REMARK SMILES IDX 26 38 27 39 62 40 28 41 67 42 61 43 63 44 29 45 66 46 60 47
REMARK SMILES IDX 59 48 30 50 52 51 37 52 51 53 38 54 41 55 50 56 64 57 39 58
REMARK SMILES IDX 40 59 49 61 65 62 42 63 31 64 32 65 36 66 33 67 35 68 34 69
REMARK SMILES IDX 53 70 54 71 58 72 55 73 57 74 56 75 43 76 44 77 48 78 45 79
REMARK SMILES IDX 47 80 46 81
REMARK H PARENT 14 6 9 12 3 18 3 19 19 30 63 49 41 60
REMARK Flexibility Score: inf
ROOT
ATOM      1  C   UNL A   1      33.700  27.312  25.062  1.00  0.00     0.023 C 
ENDROOT
BRANCH   1   2
ATOM      2  C   UNL A   1      33.393  26.160  26.022  1.00  0.00     0.116 C 
BRANCH   2   3
ATOM      3  N   UNL A   1      32.359  25.287  25.495  1.00  0.00    -0.356 N 
ATOM      4  C   UNL A   1      32.427  24.311  24.549  1.00  0.00     0.222 C 
ATOM      5  O   UNL A   1      31.397  23.677  24.305  1.00  0.00    -0.275 OA
ATOM      6  H   UNL A   1      31.466  25.426  25.884  1.00  0.00     0.163 HD
BRANCH   4   7
ATOM      7  C   UNL A   1      33.729  23.970  23.847  1.00  0.00     0.130 C 
BRANCH   7   8
ATOM      8  C   UNL A   1      34.367  22.605  24.153  1.00  0.00     0.131 C 
BRANCH   8   9
ATOM      9  N   UNL A   1      33.510  21.771  24.974  1.00  0.00    -0.348 N 
ATOM     10  C   UNL A   1      32.864  20.600  24.809  1.00  0.00     0.229 C 
ATOM     11  O   UNL A   1      31.814  20.477  25.448  1.00  0.00    -0.275 OA
ATOM     12  H   UNL A   1      33.366  22.154  25.871  1.00  0.00     0.164 HD
BRANCH  10  13
ATOM     13  C   UNL A   1      33.371  19.513  23.872  1.00  0.00     0.142 C 
ATOM     14  C   UNL A   1      32.326  18.162  21.969  1.00  0.00     0.076 C 
ATOM     15  C   UNL A   1      32.167  18.661  23.404  1.00  0.00     0.192 C 
ATOM     16  N   UNL A   1      32.087  17.506  24.329  1.00  0.00    -0.343 N 
ATOM     17  C   UNL A   1      33.225  17.576  25.241  1.00  0.00     0.261 C 
ATOM     18  H   UNL A   1      32.121  16.636  23.799  1.00  0.00     0.346 HD
ATOM     19  H   UNL A   1      31.212  17.532  24.852  1.00  0.00     0.346 HD
ATOM     20  C   UNL A   1      34.238  18.457  24.543  1.00  0.00     0.081 C 
ENDBRANCH  10  13
ENDBRANCH   8   9
BRANCH   8  21
ATOM     21  C   UNL A   1      35.718  22.673  24.836  1.00  0.00     0.027 A 
ATOM     22  C   UNL A   1      36.320  23.771  25.424  1.00  0.00     0.017 A 
ATOM     23  S   UNL A   1      36.767  21.304  24.898  1.00  0.00    -0.147 S 
ATOM     24  C   UNL A   1      37.633  23.487  25.906  1.00  0.00     0.012 A 
ATOM     25  C   UNL A   1      37.996  22.180  25.685  1.00  0.00     0.065 A 
ENDBRANCH   8  21
ENDBRANCH   7   8
ENDBRANCH   4   7
ENDBRANCH   2   3
ENDBRANCH   1   2
BRANCH   1  26
ATOM     26  C   UNL A   1      33.972  28.659  25.708  1.00  0.00     0.023 C 
BRANCH  26  27
ATOM     27  C   UNL A   1      33.668  28.710  27.190  1.00  0.00     0.116 C 
BRANCH  27  28
ATOM     28  N   UNL A   1      33.602  30.060  27.730  1.00  0.00    -0.352 N 
ATOM     29  C   UNL A   1      34.596  30.766  28.373  1.00  0.00     0.251 C 
ATOM     30  H   UNL A   1      32.742  30.526  27.623  1.00  0.00     0.163 HD
ATOM     31  O   UNL A   1      34.389  31.865  28.853  1.00  0.00    -0.269 OA
BRANCH  29  32
ATOM     32  C   UNL A   1      35.921  30.126  28.501  1.00  0.00     0.039 A 
ATOM     33  C   UNL A   1      36.840  30.259  27.459  1.00  0.00     0.014 A 
ATOM     34  C   UNL A   1      36.274  29.487  29.690  1.00  0.00     0.014 A 
ATOM     35  C   UNL A   1      38.143  29.800  27.638  1.00  0.00     0.010 A 
ATOM     36  C   UNL A   1      37.596  29.136  29.908  1.00  0.00     0.010 A 
ATOM     37  C   UNL A   1      38.538  29.266  28.876  1.00  0.00    -0.014 A 
BRANCH  37  38
ATOM     38  C   UNL A   1      39.914  28.768  29.106  1.00  0.00     0.031 A 
ATOM     39  C   UNL A   1      40.922  29.682  29.749  1.00  0.00     0.074 A 
ATOM     40  C   UNL A   1      40.274  27.542  28.682  1.00  0.00     0.049 A 
ATOM     41  N   UNL A   1      42.200  29.492  29.951  1.00  0.00    -0.248 NA
ATOM     42  C   UNL A   1      40.437  31.004  30.183  1.00  0.00     0.031 C 
ATOM     43  C   UNL A   1      39.400  26.582  28.005  1.00  0.00     0.029 A 
ATOM     44  N   UNL A   1      41.481  26.895  28.759  1.00  0.00    -0.354 N 
ATOM     45  C   UNL A   1      42.670  30.678  30.501  1.00  0.00     0.074 A 
ATOM     46  C   UNL A   1      41.561  31.602  30.541  1.00  0.00     0.031 C 
ATOM     47  C   UNL A   1      40.091  25.455  27.761  1.00  0.00     0.029 A 
ATOM     48  C   UNL A   1      41.462  25.627  28.230  1.00  0.00     0.049 A 
ATOM     49  H   UNL A   1      42.285  27.301  29.155  1.00  0.00     0.167 HD
ATOM     50  C   UNL A   1      43.909  30.965  30.961  1.00  0.00     0.031 A 
ATOM     51  C   UNL A   1      42.442  24.710  28.141  1.00  0.00     0.031 A 
ATOM     52  C   UNL A   1      45.000  30.031  30.961  1.00  0.00     0.049 A 
ATOM     53  C   UNL A   1      43.803  25.042  28.686  1.00  0.00     0.074 A 
ATOM     54  C   UNL A   1      46.280  30.198  31.457  1.00  0.00     0.029 A 
ATOM     55  N   UNL A   1      44.926  28.744  30.452  1.00  0.00    -0.354 N 
ATOM     56  N   UNL A   1      44.220  26.149  29.253  1.00  0.00    -0.248 NA
ATOM     57  C   UNL A   1      44.825  23.990  28.596  1.00  0.00     0.031 C 
ATOM     58  C   UNL A   1      46.993  29.017  31.219  1.00  0.00     0.029 A 
ATOM     59  C   UNL A   1      46.141  28.104  30.618  1.00  0.00     0.049 A 
ATOM     60  H   UNL A   1      44.129  28.344  30.035  1.00  0.00     0.167 HD
ATOM     61  C   UNL A   1      45.539  25.916  29.615  1.00  0.00     0.074 A 
ATOM     62  C   UNL A   1      45.849  24.558  29.216  1.00  0.00     0.031 C 
ATOM     63  C   UNL A   1      46.418  26.748  30.226  1.00  0.00     0.031 A 
BRANCH  50  64
ATOM     64  C   UNL A   1      44.135  32.345  31.511  1.00  0.00    -0.014 A 
ATOM     65  C   UNL A   1      43.921  32.629  32.870  1.00  0.00     0.009 A 
ATOM     66  C   UNL A   1      44.577  33.372  30.663  1.00  0.00     0.009 A 
ATOM     67  C   UNL A   1      44.102  33.923  33.359  1.00  0.00     0.001 A 
ATOM     68  C   UNL A   1      44.787  34.659  31.163  1.00  0.00     0.001 A 
ATOM     69  C   UNL A   1      44.540  34.936  32.507  1.00  0.00     0.000 A 
ENDBRANCH  50  64
BRANCH  51  70
ATOM     70  C   UNL A   1      42.169  23.375  27.547  1.00  0.00    -0.014 A 
ATOM     71  C   UNL A   1      41.584  22.362  28.323  1.00  0.00     0.009 A 
ATOM     72  C   UNL A   1      42.504  23.099  26.213  1.00  0.00     0.009 A 
ATOM     73  C   UNL A   1      41.369  21.091  27.784  1.00  0.00     0.001 A 
ATOM     74  C   UNL A   1      42.264  21.835  25.670  1.00  0.00     0.001 A 
ATOM     75  C   UNL A   1      41.708  20.830  26.458  1.00  0.00     0.000 A 
ENDBRANCH  51  70
BRANCH  63  76
ATOM     76  C   UNL A   1      47.776  26.196  30.544  1.00  0.00    -0.014 A 
ATOM     77  C   UNL A   1      48.797  26.170  29.582  1.00  0.00     0.009 A 
ATOM     78  C   UNL A   1      48.049  25.741  31.844  1.00  0.00     0.009 A 
ATOM     79  C   UNL A   1      50.057  25.669  29.910  1.00  0.00     0.001 A 
ATOM     80  C   UNL A   1      49.317  25.266  32.175  1.00  0.00     0.001 A 
ATOM     81  C   UNL A   1      50.318  25.222  31.205  1.00  0.00     0.000 A 
ENDBRANCH  63  76
ENDBRANCH  37  38
ENDBRANCH  29  32
ENDBRANCH  27  28
ENDBRANCH  26  27
ENDBRANCH   1  26
TORSDOF 15
ENDMDL
MODEL 2
REMARK VINA RESULT:     -10.5      1.800      2.256
REMARK SMILES C[C@H]1[NH2+]CC[C@@H]1C(=O)N[C@@H](CC(=O)NCCCCNC(=O)c1ccc(-c2c3nc(c(-c4ccccc4)c4ccc([nH]4)c(-c4ccccc4)c4nc(c(-c5ccccc5)c5ccc2[nH]5)C=C4)C=C3)cc1)c1cccs1
REMARK SMILES IDX 16 1 15 2 14 3 12 4 13 5 11 7 10 8 9 9 7 10 8 11 6 13 1 14
REMARK SMILES IDX 2 15 3 16 4 17 5 20 70 21 71 22 74 23 72 24 73 25 17 26
REMARK SMILES IDX 18 27 19 28 20 29 21 31 22 32 23 33 69 34 24 35 68 36 25 37
REMARK SMILES IDX 26 38 27 39 62 40 28 41 67 42 61 43 63 44 29 45 66 46 60 47
REMARK SMILES IDX 59 48 30 50 52 51 37 52 51 53 38 54 41 55 50 56 64 57 39 58
REMARK SMILES IDX 40 59 49 61 65 62 42 63 31 64 32 65 36 66 33 67 35 68 34 69
REMARK SMILES IDX 53 70 54 71 58 72 55 73 57 74 56 75 43 76 44 77 48 78 45 79
REMARK SMILES IDX 47 80 46 81
REMARK H PARENT 14 6 9 12 3 18 3 19 19 30 63 49 41 60
REMARK Flexibility Score: inf
ROOT
ATOM      1  C   UNL A   1      32.303  28.016  25.253  1.00  0.00     0.023 C 
ENDROOT
BRANCH   1   2
ATOM      2  C   UNL A   1      33.675  27.913  24.582  1.00  0.00     0.116 C 
BRANCH   2   3
ATOM      3  N   UNL A   1      33.725  26.810  23.640  1.00  0.00    -0.356 N 
ATOM      4  C   UNL A   1      34.131  25.522  23.810  1.00  0.00     0.222 C 
ATOM      5  O   UNL A   1      34.035  24.758  22.846  1.00  0.00    -0.275 OA
ATOM      6  H   UNL A   1      33.417  27.030  22.731  1.00  0.00     0.163 HD
BRANCH   4   7
ATOM      7  C   UNL A   1      34.637  25.016  25.149  1.00  0.00     0.130 C 
BRANCH   7   8
ATOM      8  C   UNL A   1      34.770  23.495  25.332  1.00  0.00     0.131 C 
BRANCH   8   9
ATOM      9  N   UNL A   1      33.972  23.005  26.440  1.00  0.00    -0.348 N 
ATOM     10  C   UNL A   1      32.667  23.043  26.776  1.00  0.00     0.229 C 
ATOM     11  O   UNL A   1      32.431  23.055  27.988  1.00  0.00    -0.275 OA
ATOM     12  H   UNL A   1      34.516  22.529  27.109  1.00  0.00     0.164 HD
BRANCH  10  13
ATOM     13  C   UNL A   1      31.559  23.106  25.736  1.00  0.00     0.142 C 
ATOM     14  C   UNL A   1      30.458  24.993  24.406  1.00  0.00     0.076 C 
ATOM     15  C   UNL A   1      30.915  24.513  25.783  1.00  0.00     0.192 C 
ATOM     16  N   UNL A   1      29.746  24.409  26.688  1.00  0.00    -0.343 N 
ATOM     17  C   UNL A   1      29.608  23.012  27.091  1.00  0.00     0.261 C 
ATOM     18  H   UNL A   1      28.903  24.713  26.202  1.00  0.00     0.346 HD
ATOM     19  H   UNL A   1      29.880  25.002  27.507  1.00  0.00     0.346 HD
ATOM     20  C   UNL A   1      30.357  22.221  26.042  1.00  0.00     0.081 C 
ENDBRANCH  10  13
ENDBRANCH   8   9
BRANCH   8  21
ATOM     21  C   UNL A   1      36.187  23.002  25.545  1.00  0.00     0.027 A 
ATOM     22  C   UNL A   1      37.277  23.716  26.008  1.00  0.00     0.017 A 
ATOM     23  S   UNL A   1      36.652  21.391  25.133  1.00  0.00    -0.147 S 
ATOM     24  C   UNL A   1      38.479  22.947  26.010  1.00  0.00     0.012 A 
ATOM     25  C   UNL A   1      38.276  21.664  25.561  1.00  0.00     0.065 A 
ENDBRANCH   8  21
ENDBRANCH   7   8
ENDBRANCH   4   7
ENDBRANCH   2   3
ENDBRANCH   1   2
BRANCH   1  26
ATOM     26  C   UNL A   1      32.312  28.099  26.769  1.00  0.00     0.023 C 
BRANCH  26  27
ATOM     27  C   UNL A   1      33.608  28.612  27.356  1.00  0.00     0.116 C 
BRANCH  27  28
ATOM     28  N   UNL A   1      33.572  30.023  27.719  1.00  0.00    -0.352 N 
ATOM     29  C   UNL A   1      34.588  30.788  28.247  1.00  0.00     0.251 C 
ATOM     30  H   UNL A   1      32.716  30.485  27.567  1.00  0.00     0.163 HD
ATOM     31  O   UNL A   1      34.406  31.943  28.585  1.00  0.00    -0.269 OA
BRANCH  29  32
ATOM     32  C   UNL A   1      35.906  30.149  28.435  1.00  0.00     0.039 A 
ATOM     33  C   UNL A   1      36.852  30.238  27.413  1.00  0.00     0.014 A 
ATOM     34  C   UNL A   1      36.225  29.555  29.656  1.00  0.00     0.014 A 
ATOM     35  C   UNL A   1      38.148  29.781  27.644  1.00  0.00     0.010 A 
ATOM     36  C   UNL A   1      37.539  29.207  29.922  1.00  0.00     0.010 A 
ATOM     37  C   UNL A   1      38.507  29.293  28.911  1.00  0.00    -0.014 A 
BRANCH  37  38
ATOM     38  C   UNL A   1      39.875  28.799  29.196  1.00  0.00     0.031 A 
ATOM     39  C   UNL A   1      40.842  29.703  29.912  1.00  0.00     0.074 A 
ATOM     40  C   UNL A   1      40.265  27.587  28.758  1.00  0.00     0.049 A 
ATOM     41  N   UNL A   1      42.110  29.517  30.173  1.00  0.00    -0.248 NA
ATOM     42  C   UNL A   1      40.324  31.010  30.357  1.00  0.00     0.031 C 
ATOM     43  C   UNL A   1      39.434  26.640  28.013  1.00  0.00     0.029 A 
ATOM     44  N   UNL A   1      41.472  26.948  28.878  1.00  0.00    -0.354 N 
ATOM     45  C   UNL A   1      42.542  30.691  30.776  1.00  0.00     0.074 A 
ATOM     46  C   UNL A   1      41.425  31.605  30.786  1.00  0.00     0.031 C 
ATOM     47  C   UNL A   1      40.146  25.525  27.774  1.00  0.00     0.029 A 
ATOM     48  C   UNL A   1      41.490  25.695  28.315  1.00  0.00     0.049 A 
ATOM     49  H   UNL A   1      42.252  27.349  29.324  1.00  0.00     0.167 HD
ATOM     50  C   UNL A   1      43.755  30.974  31.305  1.00  0.00     0.031 A 
ATOM     51  C   UNL A   1      42.481  24.787  28.250  1.00  0.00     0.031 A 
ATOM     52  C   UNL A   1      44.851  30.048  31.335  1.00  0.00     0.049 A 
ATOM     53  C   UNL A   1      43.811  25.114  28.872  1.00  0.00     0.074 A 
ATOM     54  C   UNL A   1      46.104  30.210  31.898  1.00  0.00     0.029 A 
ATOM     55  N   UNL A   1      44.814  28.774  30.789  1.00  0.00    -0.354 N 
ATOM     56  N   UNL A   1      44.190  26.208  29.487  1.00  0.00    -0.248 NA
ATOM     57  C   UNL A   1      44.845  24.072  28.805  1.00  0.00     0.031 C 
ATOM     58  C   UNL A   1      46.837  29.042  31.665  1.00  0.00     0.029 A 
ATOM     59  C   UNL A   1      46.025  28.139  30.998  1.00  0.00     0.049 A 
ATOM     60  H   UNL A   1      44.042  28.380  30.322  1.00  0.00     0.167 HD
ATOM     61  C   UNL A   1      45.492  25.974  29.909  1.00  0.00     0.074 A 
ATOM     62  C   UNL A   1      45.832  24.629  29.489  1.00  0.00     0.031 C 
ATOM     63  C   UNL A   1      46.332  26.795  30.585  1.00  0.00     0.031 A 
BRANCH  50  64
ATOM     64  C   UNL A   1      43.941  32.340  31.902  1.00  0.00    -0.014 A 
ATOM     65  C   UNL A   1      44.499  33.390  31.153  1.00  0.00     0.009 A 
ATOM     66  C   UNL A   1      43.548  32.584  33.226  1.00  0.00     0.009 A 
ATOM     67  C   UNL A   1      44.697  34.644  31.732  1.00  0.00     0.001 A 
ATOM     68  C   UNL A   1      43.719  33.850  33.793  1.00  0.00     0.001 A 
ATOM     69  C   UNL A   1      44.303  34.874  33.049  1.00  0.00     0.000 A 
ENDBRANCH  50  64
BRANCH  51  70
ATOM     70  C   UNL A   1      42.249  23.466  27.609  1.00  0.00    -0.014 A 
ATOM     71  C   UNL A   1      42.568  23.271  26.256  1.00  0.00     0.009 A 
ATOM     72  C   UNL A   1      41.695  22.402  28.335  1.00  0.00     0.009 A 
ATOM     73  C   UNL A   1      42.306  22.047  25.635  1.00  0.00     0.001 A 
ATOM     74  C   UNL A   1      41.459  21.171  27.719  1.00  0.00     0.001 A 
ATOM     75  C   UNL A   1      41.754  20.998  26.368  1.00  0.00     0.000 A 
ENDBRANCH  51  70
BRANCH  63  76
ATOM     76  C   UNL A   1      47.677  26.245  30.955  1.00  0.00    -0.014 A 
ATOM     77  C   UNL A   1      48.756  26.291  30.059  1.00  0.00     0.009 A 
ATOM     78  C   UNL A   1      47.876  25.718  32.240  1.00  0.00     0.009 A 
ATOM     79  C   UNL A   1      50.002  25.789  30.436  1.00  0.00     0.001 A 
ATOM     80  C   UNL A   1      49.130  25.242  32.623  1.00  0.00     0.001 A 
ATOM     81  C   UNL A   1      50.190  25.270  31.717  1.00  0.00     0.000 A 
ENDBRANCH  63  76
ENDBRANCH  37  38
ENDBRANCH  29  32
ENDBRANCH  27  28
ENDBRANCH  26  27
ENDBRANCH   1  26
TORSDOF 15
ENDMDL
MODEL 3
REMARK VINA RESULT:     -10.5      1.825      2.773
REMARK SMILES C[C@H]1[NH2+]CC[C@@H]1C(=O)N[C@@H](CC(=O)NCCCCNC(=O)c1ccc(-c2c3nc(c(-c4ccccc4)c4ccc([nH]4)c(-c4ccccc4)c4nc(c(-c5ccccc5)c5ccc2[nH]5)C=C4)C=C3)cc1)c1cccs1
REMARK SMILES IDX 16 1 15 2 14 3 12 4 13 5 11 7 10 8 9 9 7 10 8 11 6 13 1 14
REMARK SMILES IDX 2 15 3 16 4 17 5 20 70 21 71 22 74 23 72 24 73 25 17 26
REMARK SMILES IDX 18 27 19 28 20 29 21 31 22 32 23 33 69 34 24 35 68 36 25 37
REMARK SMILES IDX 26 38 27 39 62 40 28 41 67 42 61 43 63 44 29 45 66 46 60 47
REMARK SMILES IDX 59 48 30 50 52 51 37 52 51 53 38 54 41 55 50 56 64 57 39 58
REMARK SMILES IDX 40 59 49 61 65 62 42 63 31 64 32 65 36 66 33 67 35 68 34 69
REMARK SMILES IDX 53 70 54 71 58 72 55 73 57 74 56 75 43 76 44 77 48 78 45 79
REMARK SMILES IDX 47 80 46 81
REMARK H PARENT 14 6 9 12 3 18 3 19 19 30 63 49 41 60
REMARK Flexibility Score: inf
ROOT
ATOM      1  C   UNL A   1      33.923  28.593  24.422  1.00  0.00     0.023 C 
ENDROOT
BRANCH   1   2
ATOM      2  C   UNL A   1      33.302  28.843  23.045  1.00  0.00     0.116 C 
BRANCH   2   3
ATOM      3  N   UNL A   1      33.585  27.755  22.127  1.00  0.00    -0.356 N 
ATOM      4  C   UNL A   1      33.255  26.436  22.192  1.00  0.00     0.222 C 
ATOM      5  O   UNL A   1      33.585  25.715  21.248  1.00  0.00    -0.275 OA
ATOM      6  H   UNL A   1      34.101  28.014  21.330  1.00  0.00     0.163 HD
BRANCH   4   7
ATOM      7  C   UNL A   1      32.461  25.870  23.356  1.00  0.00     0.130 C 
BRANCH   7   8
ATOM      8  C   UNL A   1      33.151  24.823  24.245  1.00  0.00     0.131 C 
BRANCH   8   9
ATOM      9  N   UNL A   1      33.966  23.902  23.477  1.00  0.00    -0.348 N 
ATOM     10  C   UNL A   1      35.179  23.334  23.629  1.00  0.00     0.229 C 
ATOM     11  O   UNL A   1      35.786  23.089  22.582  1.00  0.00    -0.275 OA
ATOM     12  H   UNL A   1      33.526  23.623  22.641  1.00  0.00     0.164 HD
BRANCH  10  13
ATOM     13  C   UNL A   1      35.780  23.049  24.998  1.00  0.00     0.142 C 
ATOM     14  C   UNL A   1      38.152  23.084  25.953  1.00  0.00     0.076 C 
ATOM     15  C   UNL A   1      37.253  22.613  24.810  1.00  0.00     0.192 C 
ATOM     16  N   UNL A   1      37.249  21.131  24.757  1.00  0.00    -0.343 N 
ATOM     17  C   UNL A   1      35.884  20.674  25.002  1.00  0.00     0.261 C 
ATOM     18  H   UNL A   1      37.873  20.758  25.471  1.00  0.00     0.346 HD
ATOM     19  H   UNL A   1      37.572  20.810  23.844  1.00  0.00     0.346 HD
ATOM     20  C   UNL A   1      35.197  21.828  25.698  1.00  0.00     0.081 C 
ENDBRANCH  10  13
ENDBRANCH   8   9
BRANCH   8  21
ATOM     21  C   UNL A   1      32.210  23.991  25.094  1.00  0.00     0.027 A 
ATOM     22  C   UNL A   1      31.732  22.719  24.838  1.00  0.00     0.017 A 
ATOM     23  S   UNL A   1      31.521  24.612  26.550  1.00  0.00    -0.147 S 
ATOM     24  C   UNL A   1      30.800  22.271  25.822  1.00  0.00     0.012 A 
ATOM     25  C   UNL A   1      30.600  23.205  26.810  1.00  0.00     0.065 A 
ENDBRANCH   8  21
ENDBRANCH   7   8
ENDBRANCH   4   7
ENDBRANCH   2   3
ENDBRANCH   1   2
BRANCH   1  26
ATOM     26  C   UNL A   1      33.015  28.839  25.614  1.00  0.00     0.023 C 
BRANCH  26  27
ATOM     27  C   UNL A   1      33.739  28.917  26.940  1.00  0.00     0.116 C 
BRANCH  27  28
ATOM     28  N   UNL A   1      33.639  30.218  27.589  1.00  0.00    -0.352 N 
ATOM     29  C   UNL A   1      34.592  30.863  28.345  1.00  0.00     0.251 C 
ATOM     30  H   UNL A   1      32.785  30.693  27.472  1.00  0.00     0.163 HD
ATOM     31  O   UNL A   1      34.356  31.918  28.904  1.00  0.00    -0.269 OA
BRANCH  29  32
ATOM     32  C   UNL A   1      35.909  30.211  28.495  1.00  0.00     0.039 A 
ATOM     33  C   UNL A   1      36.826  30.290  27.446  1.00  0.00     0.014 A 
ATOM     34  C   UNL A   1      36.257  29.615  29.708  1.00  0.00     0.014 A 
ATOM     35  C   UNL A   1      38.124  29.820  27.641  1.00  0.00     0.010 A 
ATOM     36  C   UNL A   1      37.575  29.255  29.936  1.00  0.00     0.010 A 
ATOM     37  C   UNL A   1      38.515  29.331  28.898  1.00  0.00    -0.014 A 
BRANCH  37  38
ATOM     38  C   UNL A   1      39.885  28.824  29.144  1.00  0.00     0.031 A 
ATOM     39  C   UNL A   1      40.890  29.729  29.804  1.00  0.00     0.074 A 
ATOM     40  C   UNL A   1      40.243  27.597  28.720  1.00  0.00     0.049 A 
ATOM     41  N   UNL A   1      42.164  29.531  30.023  1.00  0.00    -0.248 NA
ATOM     42  C   UNL A   1      40.406  31.052  30.237  1.00  0.00     0.031 C 
ATOM     43  C   UNL A   1      39.372  26.645  28.027  1.00  0.00     0.029 A 
ATOM     44  N   UNL A   1      41.445  26.943  28.810  1.00  0.00    -0.354 N 
ATOM     45  C   UNL A   1      42.634  30.711  30.583  1.00  0.00     0.074 A 
ATOM     46  C   UNL A   1      41.530  31.641  30.612  1.00  0.00     0.031 C 
ATOM     47  C   UNL A   1      40.060  25.515  27.788  1.00  0.00     0.029 A 
ATOM     48  C   UNL A   1      41.425  25.677  28.276  1.00  0.00     0.049 A 
ATOM     49  H   UNL A   1      42.246  27.342  29.218  1.00  0.00     0.167 HD
ATOM     50  C   UNL A   1      43.868  30.989  31.060  1.00  0.00     0.031 A 
ATOM     51  C   UNL A   1      42.401  24.754  28.196  1.00  0.00     0.031 A 
ATOM     52  C   UNL A   1      44.953  30.048  31.071  1.00  0.00     0.049 A 
ATOM     53  C   UNL A   1      43.757  25.076  28.761  1.00  0.00     0.074 A 
ATOM     54  C   UNL A   1      46.227  30.205  31.585  1.00  0.00     0.029 A 
ATOM     55  N   UNL A   1      44.879  28.763  30.556  1.00  0.00    -0.354 N 
ATOM     56  N   UNL A   1      44.172  26.178  29.337  1.00  0.00    -0.248 NA
ATOM     57  C   UNL A   1      44.773  24.018  28.680  1.00  0.00     0.031 C 
ATOM     58  C   UNL A   1      46.936  29.022  31.352  1.00  0.00     0.029 A 
ATOM     59  C   UNL A   1      46.087  28.116  30.735  1.00  0.00     0.049 A 
ATOM     60  H   UNL A   1      44.084  28.370  30.127  1.00  0.00     0.167 HD
ATOM     61  C   UNL A   1      45.485  25.935  29.716  1.00  0.00     0.074 A 
ATOM     62  C   UNL A   1      45.793  24.577  29.315  1.00  0.00     0.031 C 
ATOM     63  C   UNL A   1      46.361  26.759  30.342  1.00  0.00     0.031 A 
BRANCH  50  64
ATOM     64  C   UNL A   1      44.095  32.365  31.619  1.00  0.00    -0.014 A 
ATOM     65  C   UNL A   1      44.573  33.408  30.808  1.00  0.00     0.009 A 
ATOM     66  C   UNL A   1      43.820  32.626  32.969  1.00  0.00     0.009 A 
ATOM     67  C   UNL A   1      44.811  34.672  31.349  1.00  0.00     0.001 A 
ATOM     68  C   UNL A   1      44.030  33.901  33.500  1.00  0.00     0.001 A 
ATOM     69  C   UNL A   1      44.535  34.919  32.693  1.00  0.00     0.000 A 
ENDBRANCH  50  64
BRANCH  51  70
ATOM     70  C   UNL A   1      42.127  23.423  27.593  1.00  0.00    -0.014 A 
ATOM     71  C   UNL A   1      42.455  23.173  26.251  1.00  0.00     0.009 A 
ATOM     72  C   UNL A   1      41.525  22.404  28.346  1.00  0.00     0.009 A 
ATOM     73  C   UNL A   1      42.155  21.940  25.667  1.00  0.00     0.001 A 
ATOM     74  C   UNL A   1      41.251  21.163  27.766  1.00  0.00     0.001 A 
ATOM     75  C   UNL A   1      41.556  20.936  26.425  1.00  0.00     0.000 A 
ENDBRANCH  51  70
BRANCH  63  76
ATOM     76  C   UNL A   1      47.712  26.199  30.676  1.00  0.00    -0.014 A 
ATOM     77  C   UNL A   1      48.743  26.167  29.726  1.00  0.00     0.009 A 
ATOM     78  C   UNL A   1      47.965  25.740  31.978  1.00  0.00     0.009 A 
ATOM     79  C   UNL A   1      49.997  25.657  30.068  1.00  0.00     0.001 A 
ATOM     80  C   UNL A   1      49.226  25.255  32.324  1.00  0.00     0.001 A 
ATOM     81  C   UNL A   1      50.238  25.206  31.366  1.00  0.00     0.000 A 
ENDBRANCH  63  76
ENDBRANCH  37  38
ENDBRANCH  29  32
ENDBRANCH  27  28
ENDBRANCH  26  27
ENDBRANCH   1  26
TORSDOF 15
ENDMDL
