MODEL 1
REMARK VINA RESULT:     -11.2      0.000      0.000
REMARK SMILES C[C@@H]1[C@H](C)CCC[C@@H]1NC(=O)COc1csc(C(=O)NCCCCNC(=O)c2ccc(-c3c4nc(c(-c5ccccc5)c5ccc([nH]5)c(-c5ccccc5)c5nc(c(-c6ccccc6)c6ccc3[nH]6)C=C5)C=C4)cc2)c1
REMARK SMILES IDX 21 1 20 2 18 3 19 4 17 6 14 7 15 8 76 9 16 10 13 11 12 12
REMARK SMILES IDX 10 13 9 14 11 16 8 17 1 18 2 19 3 20 4 21 5 22 7 23 6 24
REMARK SMILES IDX 22 25 23 26 24 27 25 28 26 29 27 31 28 32 29 33 75 34 30 35
REMARK SMILES IDX 74 36 31 37 32 38 33 39 68 40 34 41 73 42 67 43 69 44 35 45
REMARK SMILES IDX 72 46 66 47 65 48 36 50 58 51 43 52 57 53 44 54 47 55 56 56
REMARK SMILES IDX 70 57 45 58 46 59 55 61 71 62 48 63 37 64 38 65 42 66 39 67
REMARK SMILES IDX 41 68 40 69 59 70 60 71 64 72 61 73 63 74 62 75 49 76 50 77
REMARK SMILES IDX 54 78 51 79 53 80 52 81
REMARK H PARENT 20 5 9 15 25 30 69 49 47 60
REMARK Flexibility Score: inf
ROOT
ATOM      1  C   UNL A   1      33.165  29.096  23.400  1.00  0.00     0.116 C 
ENDROOT
BRANCH   1   2
ATOM      2  N   UNL A   1      31.903  29.149  22.693  1.00  0.00    -0.351 N 
ATOM      3  C   UNL A   1      30.969  28.177  22.408  1.00  0.00     0.261 C 
ATOM      4  O   UNL A   1      29.947  28.586  21.852  1.00  0.00    -0.268 OA
ATOM      5  H   UNL A   1      31.668  30.043  22.353  1.00  0.00     0.163 HD
BRANCH   3   6
ATOM      6  C   UNL A   1      31.186  26.779  22.763  1.00  0.00     0.096 A 
ATOM      7  C   UNL A   1      31.080  24.619  23.674  1.00  0.00     0.131 A 
ATOM      8  C   UNL A   1      32.109  24.465  22.778  1.00  0.00     0.112 A 
ATOM      9  C   UNL A   1      30.587  25.952  23.693  1.00  0.00     0.072 A 
ATOM     10  S   UNL A   1      32.438  25.922  21.941  1.00  0.00    -0.135 S 
BRANCH   7  11
ATOM     11  O   UNL A   1      30.502  23.673  24.452  1.00  0.00    -0.483 OA
BRANCH  11  12
ATOM     12  C   UNL A   1      31.354  22.877  25.232  1.00  0.00     0.329 C 
BRANCH  12  13
ATOM     13  C   UNL A   1      31.962  23.371  26.547  1.00  0.00     0.258 C 
ATOM     14  N   UNL A   1      33.149  22.975  27.058  1.00  0.00    -0.350 N 
ATOM     15  H   UNL A   1      33.162  23.094  28.035  1.00  0.00     0.163 HD
ATOM     16  O   UNL A   1      31.289  24.116  27.274  1.00  0.00    -0.271 OA
BRANCH  14  17
ATOM     17  C   UNL A   1      34.429  22.420  26.588  1.00  0.00     0.085 C 
ATOM     18  C   UNL A   1      35.249  24.353  25.102  1.00  0.00     0.010 C 
ATOM     19  C   UNL A   1      35.598  23.352  26.211  1.00  0.00     0.011 C 
ATOM     20  C   UNL A   1      36.845  22.486  25.857  1.00  0.00    -0.009 C 
ATOM     21  C   UNL A   1      38.086  23.328  25.555  1.00  0.00     0.008 C 
ATOM     22  C   UNL A   1      36.559  21.503  24.713  1.00  0.00     0.004 C 
ATOM     23  C   UNL A   1      34.125  21.446  25.430  1.00  0.00     0.025 C 
ATOM     24  C   UNL A   1      35.344  20.632  25.011  1.00  0.00     0.002 C 
ENDBRANCH  14  17
ENDBRANCH  12  13
ENDBRANCH  11  12
ENDBRANCH   7  11
ENDBRANCH   3   6
ENDBRANCH   1   2
BRANCH   1  25
ATOM     25  C   UNL A   1      32.991  29.413  24.886  1.00  0.00     0.023 C 
BRANCH  25  26
ATOM     26  C   UNL A   1      33.544  28.346  25.836  1.00  0.00     0.023 C 
BRANCH  26  27
ATOM     27  C   UNL A   1      33.426  28.670  27.322  1.00  0.00     0.116 C 
BRANCH  27  28
ATOM     28  N   UNL A   1      33.460  30.095  27.608  1.00  0.00    -0.352 N 
ATOM     29  C   UNL A   1      34.502  30.847  28.104  1.00  0.00     0.251 C 
ATOM     30  H   UNL A   1      32.629  30.588  27.425  1.00  0.00     0.163 HD
ATOM     31  O   UNL A   1      34.339  32.026  28.378  1.00  0.00    -0.269 OA
BRANCH  29  32
ATOM     32  C   UNL A   1      35.811  30.202  28.343  1.00  0.00     0.039 A 
ATOM     33  C   UNL A   1      36.764  30.225  27.320  1.00  0.00     0.014 A 
ATOM     34  C   UNL A   1      36.106  29.606  29.571  1.00  0.00     0.014 A 
ATOM     35  C   UNL A   1      38.040  29.712  27.554  1.00  0.00     0.010 A 
ATOM     36  C   UNL A   1      37.397  29.150  29.824  1.00  0.00     0.010 A 
ATOM     37  C   UNL A   1      38.377  29.204  28.820  1.00  0.00    -0.014 A 
BRANCH  37  38
ATOM     38  C   UNL A   1      39.754  28.741  29.120  1.00  0.00     0.031 A 
ATOM     39  C   UNL A   1      40.734  29.661  29.791  1.00  0.00     0.074 A 
ATOM     40  C   UNL A   1      40.143  27.514  28.724  1.00  0.00     0.049 A 
ATOM     41  N   UNL A   1      41.995  29.455  30.077  1.00  0.00    -0.248 NA
ATOM     42  C   UNL A   1      40.240  30.995  30.166  1.00  0.00     0.031 C 
ATOM     43  C   UNL A   1      39.299  26.540  28.026  1.00  0.00     0.029 A 
ATOM     44  N   UNL A   1      41.353  26.880  28.845  1.00  0.00    -0.354 N 
ATOM     45  C   UNL A   1      42.448  30.637  30.649  1.00  0.00     0.074 A 
ATOM     46  C   UNL A   1      41.340  31.568  30.629  1.00  0.00     0.031 C 
ATOM     47  C   UNL A   1      40.012  25.423  27.805  1.00  0.00     0.029 A 
ATOM     48  C   UNL A   1      41.366  25.614  28.311  1.00  0.00     0.049 A 
ATOM     49  H   UNL A   1      42.138  27.291  29.274  1.00  0.00     0.167 HD
ATOM     50  C   UNL A   1      43.670  30.917  31.161  1.00  0.00     0.031 A 
ATOM     51  C   UNL A   1      42.361  24.710  28.235  1.00  0.00     0.031 A 
ATOM     52  C   UNL A   1      44.768  29.989  31.193  1.00  0.00     0.049 A 
ATOM     53  C   UNL A   1      43.709  25.046  28.805  1.00  0.00     0.074 A 
ATOM     54  C   UNL A   1      46.026  30.161  31.744  1.00  0.00     0.029 A 
ATOM     55  N   UNL A   1      44.739  28.715  30.650  1.00  0.00    -0.354 N 
ATOM     56  N   UNL A   1      44.102  26.145  29.401  1.00  0.00    -0.248 NA
ATOM     57  C   UNL A   1      44.748  24.012  28.698  1.00  0.00     0.031 C 
ATOM     58  C   UNL A   1      46.772  29.003  31.498  1.00  0.00     0.029 A 
ATOM     59  C   UNL A   1      45.963  28.095  30.834  1.00  0.00     0.049 A 
ATOM     60  H   UNL A   1      43.962  28.310  30.200  1.00  0.00     0.167 HD
ATOM     61  C   UNL A   1      45.425  25.926  29.761  1.00  0.00     0.074 A 
ATOM     62  C   UNL A   1      45.763  24.586  29.329  1.00  0.00     0.031 C 
ATOM     63  C   UNL A   1      46.283  26.762  30.394  1.00  0.00     0.031 A 
BRANCH  50  64
ATOM     64  C   UNL A   1      43.878  32.295  31.723  1.00  0.00    -0.014 A 
ATOM     65  C   UNL A   1      43.584  32.582  33.066  1.00  0.00     0.009 A 
ATOM     66  C   UNL A   1      44.397  33.312  30.908  1.00  0.00     0.009 A 
ATOM     67  C   UNL A   1      43.767  33.872  33.569  1.00  0.00     0.001 A 
ATOM     68  C   UNL A   1      44.604  34.593  31.421  1.00  0.00     0.001 A 
ATOM     69  C   UNL A   1      44.280  34.875  32.747  1.00  0.00     0.000 A 
ENDBRANCH  50  64
BRANCH  51  70
ATOM     70  C   UNL A   1      42.111  23.384  27.612  1.00  0.00    -0.014 A 
ATOM     71  C   UNL A   1      42.517  23.136  26.292  1.00  0.00     0.009 A 
ATOM     72  C   UNL A   1      41.469  22.365  28.330  1.00  0.00     0.009 A 
ATOM     73  C   UNL A   1      42.263  21.899  25.696  1.00  0.00     0.001 A 
ATOM     74  C   UNL A   1      41.238  21.121  27.739  1.00  0.00     0.001 A 
ATOM     75  C   UNL A   1      41.628  20.892  26.421  1.00  0.00     0.000 A 
ENDBRANCH  51  70
BRANCH  63  76
ATOM     76  C   UNL A   1      47.661  26.238  30.682  1.00  0.00    -0.014 A 
ATOM     77  C   UNL A   1      48.665  26.261  29.702  1.00  0.00     0.009 A 
ATOM     78  C   UNL A   1      47.966  25.750  31.961  1.00  0.00     0.009 A 
ATOM     79  C   UNL A   1      49.943  25.778  29.992  1.00  0.00     0.001 A 
ATOM     80  C   UNL A   1      49.250  25.290  32.255  1.00  0.00     0.001 A 
ATOM     81  C   UNL A   1      50.235  25.297  31.268  1.00  0.00     0.000 A 
ENDBRANCH  63  76
ENDBRANCH  37  38
ENDBRANCH  29  32
ENDBRANCH  27  28
ENDBRANCH  26  27
ENDBRANCH  25  26
ENDBRANCH   1  25
TORSDOF 15
ENDMDL
MODEL 2
REMARK VINA RESULT:     -10.9      2.297      7.637
REMARK SMILES C[C@@H]1[C@H](C)CCC[C@@H]1NC(=O)COc1csc(C(=O)NCCCCNC(=O)c2ccc(-c3c4nc(c(-c5ccccc5)c5ccc([nH]5)c(-c5ccccc5)c5nc(c(-c6ccccc6)c6ccc3[nH]6)C=C5)C=C4)cc2)c1
REMARK SMILES IDX 21 1 20 2 18 3 19 4 17 6 14 7 15 8 76 9 16 10 13 11 12 12
REMARK SMILES IDX 10 13 9 14 11 16 8 17 1 18 2 19 3 20 4 21 5 22 7 23 6 24
REMARK SMILES IDX 22 25 23 26 24 27 25 28 26 29 27 31 28 32 29 33 75 34 30 35
REMARK SMILES IDX 74 36 31 37 32 38 33 39 68 40 34 41 73 42 67 43 69 44 35 45
REMARK SMILES IDX 72 46 66 47 65 48 36 50 58 51 43 52 57 53 44 54 47 55 56 56
REMARK SMILES IDX 70 57 45 58 46 59 55 61 71 62 48 63 37 64 38 65 42 66 39 67
REMARK SMILES IDX 41 68 40 69 59 70 60 71 64 72 61 73 63 74 62 75 49 76 50 77
REMARK SMILES IDX 54 78 51 79 53 80 52 81
REMARK H PARENT 20 5 9 15 25 30 69 49 47 60
REMARK Flexibility Score: inf
ROOT
ATOM      1  C   UNL A   1      36.627  22.243  25.507  1.00  0.00     0.116 C 
ENDROOT
BRANCH   1   2
ATOM      2  N   UNL A   1      35.691  21.872  26.547  1.00  0.00    -0.351 N 
ATOM      3  C   UNL A   1      34.358  21.529  26.502  1.00  0.00     0.261 C 
ATOM      4  O   UNL A   1      33.876  21.179  27.582  1.00  0.00    -0.268 OA
ATOM      5  H   UNL A   1      36.078  21.863  27.453  1.00  0.00     0.163 HD
BRANCH   3   6
ATOM      6  C   UNL A   1      33.600  21.565  25.257  1.00  0.00     0.096 A 
ATOM      7  C   UNL A   1      32.584  22.160  23.226  1.00  0.00     0.131 A 
ATOM      8  C   UNL A   1      32.208  20.843  23.321  1.00  0.00     0.112 A 
ATOM      9  C   UNL A   1      33.340  22.579  24.355  1.00  0.00     0.072 A 
ATOM     10  S   UNL A   1      32.810  20.117  24.750  1.00  0.00    -0.135 S 
BRANCH   7  11
ATOM     11  O   UNL A   1      32.356  23.022  22.208  1.00  0.00    -0.483 OA
BRANCH  11  12
ATOM     12  C   UNL A   1      33.228  24.114  22.085  1.00  0.00     0.329 C 
BRANCH  12  13
ATOM     13  C   UNL A   1      32.794  25.445  21.468  1.00  0.00     0.258 C 
ATOM     14  N   UNL A   1      32.028  26.378  22.076  1.00  0.00    -0.350 N 
ATOM     15  H   UNL A   1      31.561  26.931  21.409  1.00  0.00     0.163 HD
ATOM     16  O   UNL A   1      33.064  25.669  20.279  1.00  0.00    -0.271 OA
BRANCH  14  17
ATOM     17  C   UNL A   1      31.686  26.814  23.441  1.00  0.00     0.085 C 
ATOM     18  C   UNL A   1      33.892  26.290  24.655  1.00  0.00     0.010 C 
ATOM     19  C   UNL A   1      32.782  27.317  24.402  1.00  0.00     0.011 C 
ATOM     20  C   UNL A   1      32.114  27.807  25.722  1.00  0.00    -0.009 C 
ATOM     21  C   UNL A   1      33.117  28.410  26.707  1.00  0.00     0.008 C 
ATOM     22  C   UNL A   1      31.285  26.703  26.393  1.00  0.00     0.004 C 
ATOM     23  C   UNL A   1      30.866  25.688  24.104  1.00  0.00     0.025 C 
ATOM     24  C   UNL A   1      30.256  26.112  25.436  1.00  0.00     0.002 C 
ENDBRANCH  14  17
ENDBRANCH  12  13
ENDBRANCH  11  12
ENDBRANCH   7  11
ENDBRANCH   3   6
ENDBRANCH   1   2
BRANCH   1  25
ATOM     25  C   UNL A   1      36.840  21.105  24.509  1.00  0.00     0.023 C 
BRANCH  25  26
ATOM     26  C   UNL A   1      37.730  19.967  25.019  1.00  0.00     0.023 C 
BRANCH  26  27
ATOM     27  C   UNL A   1      38.985  20.404  25.768  1.00  0.00     0.116 C 
BRANCH  27  28
ATOM     28  N   UNL A   1      40.044  19.408  25.754  1.00  0.00    -0.352 N 
ATOM     29  C   UNL A   1      41.367  19.554  26.106  1.00  0.00     0.251 C 
ATOM     30  H   UNL A   1      39.781  18.509  25.451  1.00  0.00     0.163 HD
ATOM     31  O   UNL A   1      42.155  18.635  25.948  1.00  0.00    -0.269 OA
BRANCH  29  32
ATOM     32  C   UNL A   1      41.834  20.852  26.639  1.00  0.00     0.039 A 
ATOM     33  C   UNL A   1      42.304  21.814  25.739  1.00  0.00     0.014 A 
ATOM     34  C   UNL A   1      41.785  21.128  28.007  1.00  0.00     0.014 A 
ATOM     35  C   UNL A   1      42.658  23.081  26.206  1.00  0.00     0.010 A 
ATOM     36  C   UNL A   1      42.079  22.410  28.463  1.00  0.00     0.010 A 
ATOM     37  C   UNL A   1      42.513  23.399  27.566  1.00  0.00    -0.014 A 
BRANCH  37  38
ATOM     38  C   UNL A   1      42.792  24.767  28.068  1.00  0.00     0.031 A 
ATOM     39  C   UNL A   1      44.185  25.156  28.474  1.00  0.00     0.074 A 
ATOM     40  C   UNL A   1      41.777  25.638  28.223  1.00  0.00     0.049 A 
ATOM     41  N   UNL A   1      44.610  26.281  28.991  1.00  0.00    -0.248 NA
ATOM     42  C   UNL A   1      45.234  24.138  28.300  1.00  0.00     0.031 C 
ATOM     43  C   UNL A   1      40.372  25.370  27.905  1.00  0.00     0.029 A 
ATOM     44  N   UNL A   1      41.771  26.925  28.698  1.00  0.00    -0.354 N 
ATOM     45  C   UNL A   1      45.968  26.101  29.220  1.00  0.00     0.074 A 
ATOM     46  C   UNL A   1      46.287  24.745  28.826  1.00  0.00     0.031 C 
ATOM     47  C   UNL A   1      39.645  26.469  28.170  1.00  0.00     0.029 A 
ATOM     48  C   UNL A   1      40.524  27.501  28.707  1.00  0.00     0.049 A 
ATOM     49  H   UNL A   1      42.582  27.392  29.002  1.00  0.00     0.167 HD
ATOM     50  C   UNL A   1      46.872  26.987  29.698  1.00  0.00     0.031 A 
ATOM     51  C   UNL A   1      40.131  28.725  29.108  1.00  0.00     0.031 A 
ATOM     52  C   UNL A   1      46.560  28.339  30.077  1.00  0.00     0.049 A 
ATOM     53  C   UNL A   1      41.153  29.690  29.639  1.00  0.00     0.074 A 
ATOM     54  C   UNL A   1      47.419  29.332  30.516  1.00  0.00     0.029 A 
ATOM     55  N   UNL A   1      45.288  28.888  30.064  1.00  0.00    -0.354 N 
ATOM     56  N   UNL A   1      42.444  29.525  29.788  1.00  0.00    -0.248 NA
ATOM     57  C   UNL A   1      40.660  31.013  30.050  1.00  0.00     0.031 C 
ATOM     58  C   UNL A   1      46.659  30.470  30.807  1.00  0.00     0.029 A 
ATOM     59  C   UNL A   1      45.334  30.198  30.507  1.00  0.00     0.049 A 
ATOM     60  H   UNL A   1      44.471  28.415  29.782  1.00  0.00     0.167 HD
ATOM     61  C   UNL A   1      42.923  30.730  30.287  1.00  0.00     0.074 A 
ATOM     62  C   UNL A   1      41.786  31.619  30.402  1.00  0.00     0.031 C 
ATOM     63  C   UNL A   1      44.192  31.068  30.619  1.00  0.00     0.031 A 
BRANCH  50  64
ATOM     64  C   UNL A   1      48.290  26.513  29.840  1.00  0.00    -0.014 A 
ATOM     65  C   UNL A   1      48.732  25.886  31.016  1.00  0.00     0.009 A 
ATOM     66  C   UNL A   1      49.191  26.673  28.776  1.00  0.00     0.009 A 
ATOM     67  C   UNL A   1      50.058  25.467  31.139  1.00  0.00     0.001 A 
ATOM     68  C   UNL A   1      50.509  26.228  28.892  1.00  0.00     0.001 A 
ATOM     69  C   UNL A   1      50.945  25.636  30.076  1.00  0.00     0.000 A 
ENDBRANCH  50  64
BRANCH  51  70
ATOM     70  C   UNL A   1      38.703  29.119  28.999  1.00  0.00    -0.014 A 
ATOM     71  C   UNL A   1      38.198  29.622  27.790  1.00  0.00     0.009 A 
ATOM     72  C   UNL A   1      37.840  28.995  30.098  1.00  0.00     0.009 A 
ATOM     73  C   UNL A   1      36.862  30.014  27.690  1.00  0.00     0.001 A 
ATOM     74  C   UNL A   1      36.498  29.366  29.988  1.00  0.00     0.001 A 
ATOM     75  C   UNL A   1      36.013  29.883  28.788  1.00  0.00     0.000 A 
ENDBRANCH  51  70
BRANCH  63  76
ATOM     76  C   UNL A   1      44.420  32.469  31.111  1.00  0.00    -0.014 A 
ATOM     77  C   UNL A   1      44.688  33.518  30.219  1.00  0.00     0.009 A 
ATOM     78  C   UNL A   1      44.331  32.745  32.484  1.00  0.00     0.009 A 
ATOM     79  C   UNL A   1      44.889  34.814  30.696  1.00  0.00     0.001 A 
ATOM     80  C   UNL A   1      44.508  34.047  32.956  1.00  0.00     0.001 A 
ATOM     81  C   UNL A   1      44.795  35.078  32.062  1.00  0.00     0.000 A 
ENDBRANCH  63  76
ENDBRANCH  37  38
ENDBRANCH  29  32
ENDBRANCH  27  28
ENDBRANCH  26  27
ENDBRANCH  25  26
ENDBRANCH   1  25
TORSDOF 15
ENDMDL
MODEL 3
REMARK VINA RESULT:     -10.9      2.680      7.940
REMARK SMILES C[C@@H]1[C@H](C)CCC[C@@H]1NC(=O)COc1csc(C(=O)NCCCCNC(=O)c2ccc(-c3c4nc(c(-c5ccccc5)c5ccc([nH]5)c(-c5ccccc5)c5nc(c(-c6ccccc6)c6ccc3[nH]6)C=C5)C=C4)cc2)c1
REMARK SMILES IDX 21 1 20 2 18 3 19 4 17 6 14 7 15 8 76 9 16 10 13 11 12 12
REMARK SMILES IDX 10 13 9 14 11 16 8 17 1 18 2 19 3 20 4 21 5 22 7 23 6 24
REMARK SMILES IDX 22 25 23 26 24 27 25 28 26 29 27 31 28 32 29 33 75 34 30 35
REMARK SMILES IDX 74 36 31 37 32 38 33 39 68 40 34 41 73 42 67 43 69 44 35 45
REMARK SMILES IDX 72 46 66 47 65 48 36 50 58 51 43 52 57 53 44 54 47 55 56 56
REMARK SMILES IDX 70 57 45 58 46 59 55 61 71 62 48 63 37 64 38 65 42 66 39 67
REMARK SMILES IDX 41 68 40 69 59 70 60 71 64 72 61 73 63 74 62 75 49 76 50 77
REMARK SMILES IDX 54 78 51 79 53 80 52 81
REMARK H PARENT 20 5 9 15 25 30 69 49 47 60
REMARK Flexibility Score: inf
ROOT
ATOM      1  C   UNL A   1      37.178  22.104  25.427  1.00  0.00     0.116 C 
ENDROOT
BRANCH   1   2
ATOM      2  N   UNL A   1      36.230  22.404  26.479  1.00  0.00    -0.351 N 
ATOM      3  C   UNL A   1      34.855  22.485  26.479  1.00  0.00     0.261 C 
ATOM      4  O   UNL A   1      34.347  22.680  27.587  1.00  0.00    -0.268 OA
ATOM      5  H   UNL A   1      36.643  22.584  27.355  1.00  0.00     0.163 HD
BRANCH   3   6
ATOM      6  C   UNL A   1      34.078  22.327  25.255  1.00  0.00     0.096 A 
ATOM      7  C   UNL A   1      33.109  22.549  23.129  1.00  0.00     0.131 A 
ATOM      8  C   UNL A   1      32.544  21.367  23.542  1.00  0.00     0.112 A 
ATOM      9  C   UNL A   1      33.948  23.114  24.128  1.00  0.00     0.072 A 
ATOM     10  S   UNL A   1      33.069  20.934  25.113  1.00  0.00    -0.135 S 
BRANCH   7  11
ATOM     11  O   UNL A   1      32.984  23.158  21.927  1.00  0.00    -0.483 OA
BRANCH  11  12
ATOM     12  C   UNL A   1      33.443  24.481  21.828  1.00  0.00     0.329 C 
BRANCH  12  13
ATOM     13  C   UNL A   1      32.733  25.533  20.973  1.00  0.00     0.258 C 
ATOM     14  N   UNL A   1      31.767  26.373  21.407  1.00  0.00    -0.350 N 
ATOM     15  H   UNL A   1      31.200  26.665  20.657  1.00  0.00     0.163 HD
ATOM     16  O   UNL A   1      32.968  25.572  19.757  1.00  0.00    -0.271 OA
BRANCH  14  17
ATOM     17  C   UNL A   1      31.310  26.981  22.668  1.00  0.00     0.085 C 
ATOM     18  C   UNL A   1      33.574  27.564  23.740  1.00  0.00     0.010 C 
ATOM     19  C   UNL A   1      32.165  28.049  23.378  1.00  0.00     0.011 C 
ATOM     20  C   UNL A   1      31.385  28.583  24.617  1.00  0.00    -0.009 C 
ATOM     21  C   UNL A   1      32.118  29.716  25.338  1.00  0.00     0.008 C 
ATOM     22  C   UNL A   1      31.018  27.459  25.596  1.00  0.00     0.004 C 
ATOM     23  C   UNL A   1      30.960  25.838  23.644  1.00  0.00     0.025 C 
ATOM     24  C   UNL A   1      30.257  26.335  24.902  1.00  0.00     0.002 C 
ENDBRANCH  14  17
ENDBRANCH  12  13
ENDBRANCH  11  12
ENDBRANCH   7  11
ENDBRANCH   3   6
ENDBRANCH   1   2
BRANCH   1  25
ATOM     25  C   UNL A   1      36.861  20.771  24.748  1.00  0.00     0.023 C 
BRANCH  25  26
ATOM     26  C   UNL A   1      37.886  19.663  25.009  1.00  0.00     0.023 C 
BRANCH  26  27
ATOM     27  C   UNL A   1      39.143  20.097  25.755  1.00  0.00     0.116 C 
BRANCH  27  28
ATOM     28  N   UNL A   1      40.161  19.061  25.827  1.00  0.00    -0.352 N 
ATOM     29  C   UNL A   1      41.498  19.189  26.130  1.00  0.00     0.251 C 
ATOM     30  H   UNL A   1      39.854  18.146  25.633  1.00  0.00     0.163 HD
ATOM     31  O   UNL A   1      42.245  18.225  26.057  1.00  0.00    -0.269 OA
BRANCH  29  32
ATOM     32  C   UNL A   1      42.032  20.517  26.503  1.00  0.00     0.039 A 
ATOM     33  C   UNL A   1      42.455  21.377  25.485  1.00  0.00     0.014 A 
ATOM     34  C   UNL A   1      42.090  20.920  27.839  1.00  0.00     0.014 A 
ATOM     35  C   UNL A   1      42.870  22.671  25.803  1.00  0.00     0.010 A 
ATOM     36  C   UNL A   1      42.445  22.229  28.149  1.00  0.00     0.010 A 
ATOM     37  C   UNL A   1      42.833  23.118  27.134  1.00  0.00    -0.014 A 
BRANCH  37  38
ATOM     38  C   UNL A   1      43.178  24.518  27.483  1.00  0.00     0.031 A 
ATOM     39  C   UNL A   1      44.612  24.964  27.496  1.00  0.00     0.074 A 
ATOM     40  C   UNL A   1      42.204  25.369  27.856  1.00  0.00     0.049 A 
ATOM     41  N   UNL A   1      45.112  26.126  27.833  1.00  0.00    -0.248 NA
ATOM     42  C   UNL A   1      45.620  23.966  27.103  1.00  0.00     0.031 C 
ATOM     43  C   UNL A   1      40.776  25.048  27.925  1.00  0.00     0.029 A 
ATOM     44  N   UNL A   1      42.270  26.680  28.257  1.00  0.00    -0.354 N 
ATOM     45  C   UNL A   1      46.489  25.994  27.710  1.00  0.00     0.074 A 
ATOM     46  C   UNL A   1      46.749  24.627  27.310  1.00  0.00     0.031 C 
ATOM     47  C   UNL A   1      40.100  26.141  28.319  1.00  0.00     0.029 A 
ATOM     48  C   UNL A   1      41.046  27.223  28.562  1.00  0.00     0.049 A 
ATOM     49  H   UNL A   1      43.113  27.183  28.319  1.00  0.00     0.167 HD
ATOM     50  C   UNL A   1      47.451  26.928  27.896  1.00  0.00     0.031 A 
ATOM     51  C   UNL A   1      40.723  28.457  28.994  1.00  0.00     0.031 A 
ATOM     52  C   UNL A   1      47.194  28.290  28.281  1.00  0.00     0.049 A 
ATOM     53  C   UNL A   1      41.808  29.475  29.198  1.00  0.00     0.074 A 
ATOM     54  C   UNL A   1      48.097  29.327  28.437  1.00  0.00     0.029 A 
ATOM     55  N   UNL A   1      45.941  28.804  28.573  1.00  0.00    -0.354 N 
ATOM     56  N   UNL A   1      43.099  29.352  29.014  1.00  0.00    -0.248 NA
ATOM     57  C   UNL A   1      41.386  30.805  29.662  1.00  0.00     0.031 C 
ATOM     58  C   UNL A   1      47.394  30.460  28.862  1.00  0.00     0.029 A 
ATOM     59  C   UNL A   1      46.048  30.138  28.928  1.00  0.00     0.049 A 
ATOM     60  H   UNL A   1      45.098  28.295  28.534  1.00  0.00     0.167 HD
ATOM     61  C   UNL A   1      43.643  30.594  29.317  1.00  0.00     0.074 A 
ATOM     62  C   UNL A   1      42.540  31.458  29.681  1.00  0.00     0.031 C 
ATOM     63  C   UNL A   1      44.940  30.983  29.292  1.00  0.00     0.031 A 
BRANCH  50  64
ATOM     64  C   UNL A   1      48.875  26.499  27.688  1.00  0.00    -0.014 A 
ATOM     65  C   UNL A   1      49.660  26.044  28.759  1.00  0.00     0.009 A 
ATOM     66  C   UNL A   1      49.432  26.528  26.400  1.00  0.00     0.009 A 
ATOM     67  C   UNL A   1      50.988  25.665  28.552  1.00  0.00     0.001 A 
ATOM     68  C   UNL A   1      50.752  26.123  26.192  1.00  0.00     0.001 A 
ATOM     69  C   UNL A   1      51.532  25.702  27.268  1.00  0.00     0.000 A 
ENDBRANCH  50  64
BRANCH  51  70
ATOM     70  C   UNL A   1      39.300  28.807  29.241  1.00  0.00    -0.014 A 
ATOM     71  C   UNL A   1      38.736  28.616  30.512  1.00  0.00     0.009 A 
ATOM     72  C   UNL A   1      38.502  29.329  28.213  1.00  0.00     0.009 A 
ATOM     73  C   UNL A   1      37.393  28.922  30.742  1.00  0.00     0.001 A 
ATOM     74  C   UNL A   1      37.165  29.657  28.452  1.00  0.00     0.001 A 
ATOM     75  C   UNL A   1      36.610  29.445  29.713  1.00  0.00     0.000 A 
ENDBRANCH  51  70
BRANCH  63  76
ATOM     76  C   UNL A   1      45.233  32.413  29.644  1.00  0.00    -0.014 A 
ATOM     77  C   UNL A   1      45.539  32.788  30.961  1.00  0.00     0.009 A 
ATOM     78  C   UNL A   1      45.237  33.390  28.637  1.00  0.00     0.009 A 
ATOM     79  C   UNL A   1      45.816  34.122  31.267  1.00  0.00     0.001 A 
ATOM     80  C   UNL A   1      45.540  34.718  28.941  1.00  0.00     0.001 A 
ATOM     81  C   UNL A   1      45.820  35.084  30.257  1.00  0.00     0.000 A 
ENDBRANCH  63  76
ENDBRANCH  37  38
ENDBRANCH  29  32
ENDBRANCH  27  28
ENDBRANCH  26  27
ENDBRANCH  25  26
ENDBRANCH   1  25
TORSDOF 15
ENDMDL
