MODEL 1
REMARK VINA RESULT:     -12.3      0.000      0.000
REMARK SMILES Cc1ccc(S(=O)(=O)Nc2cc(C(=O)NCCCCNC(=O)c3ccc(-c4c5nc(c(-c6ccccc6)c6ccc([nH]6)c(-c6ccccc6)c6nc(c(-c7ccccc7)c7ccc4[nH]7)C=C6)C=C5)cc3)ccc2C)c(Br)c1
REMARK SMILES IDX 17 1 16 2 15 3 13 4 14 5 12 7 10 8 11 9 73 10 72 11 74 12
REMARK SMILES IDX 71 13 9 14 6 16 7 17 8 18 5 19 1 20 2 21 3 22 77 23 4 24
REMARK SMILES IDX 75 25 76 26 18 27 19 28 20 29 21 30 22 32 23 33 24 34 70 35
REMARK SMILES IDX 25 36 69 37 26 38 27 39 28 40 63 41 29 42 68 43 62 44 64 45
REMARK SMILES IDX 30 46 67 47 61 48 60 49 31 51 53 52 38 53 52 54 39 55 42 56
REMARK SMILES IDX 51 57 65 58 40 59 41 60 50 62 66 63 43 64 32 65 33 66 37 67
REMARK SMILES IDX 34 68 36 69 35 70 54 71 55 72 59 73 56 74 58 75 57 76 44 77
REMARK SMILES IDX 45 78 49 79 46 80 48 81 47 82
REMARK H PARENT 15 6 9 15 20 31 64 50 42 61
REMARK Flexibility Score: inf
ROOT
ATOM      1  C   UNL A   1      38.070  23.064  26.276  1.00  0.00     0.023 C 
ENDROOT
BRANCH   1   2
ATOM      2  C   UNL A   1      36.663  22.779  25.727  1.00  0.00     0.116 C 
BRANCH   2   3
ATOM      3  N   UNL A   1      35.659  22.781  26.782  1.00  0.00    -0.352 N 
ATOM      4  C   UNL A   1      34.306  22.548  26.805  1.00  0.00     0.251 C 
ATOM      5  O   UNL A   1      33.748  22.577  27.903  1.00  0.00    -0.269 OA
ATOM      6  H   UNL A   1      36.030  22.995  27.669  1.00  0.00     0.163 HD
BRANCH   4   7
ATOM      7  C   UNL A   1      33.499  22.187  25.605  1.00  0.00     0.041 A 
ATOM      8  C   UNL A   1      32.167  22.746  23.664  1.00  0.00     0.053 A 
ATOM      9  C   UNL A   1      32.669  23.072  24.927  1.00  0.00     0.040 A 
ATOM     10  C   UNL A   1      32.330  21.463  23.122  1.00  0.00    -0.027 A 
ATOM     11  C   UNL A   1      33.047  20.523  23.874  1.00  0.00     0.006 A 
ATOM     12  C   UNL A   1      31.779  21.053  21.784  1.00  0.00     0.046 C 
ATOM     13  C   UNL A   1      33.653  20.893  25.082  1.00  0.00     0.014 A 
BRANCH   8  14
ATOM     14  N   UNL A   1      31.642  23.811  22.892  1.00  0.00    -0.279 N 
ATOM     15  H   UNL A   1      30.729  23.737  22.533  1.00  0.00     0.180 HD
BRANCH  14  16
ATOM     16  S   UNL A   1      32.545  25.217  22.567  1.00  0.00     0.263 S 
ATOM     17  O   UNL A   1      31.819  25.800  21.439  1.00  0.00    -0.201 OA
ATOM     18  O   UNL A   1      33.897  24.758  22.418  1.00  0.00    -0.201 OA
BRANCH  16  19
ATOM     19  C   UNL A   1      32.554  26.455  23.852  1.00  0.00     0.101 A 
ATOM     20  C   UNL A   1      32.584  28.579  27.627  1.00  0.00     0.044 C 
ATOM     21  C   UNL A   1      32.581  27.905  26.286  1.00  0.00    -0.050 A 
ATOM     22  C   UNL A   1      33.706  27.872  25.470  1.00  0.00     0.005 A 
ATOM     23  C   UNL A   1      31.404  27.353  25.788  1.00  0.00     0.020 A 
ATOM     24  C   UNL A   1      33.677  27.179  24.249  1.00  0.00     0.024 A 
ATOM     25  C   UNL A   1      31.377  26.663  24.571  1.00  0.00     0.038 A 
ATOM     26  Br  UNL A   1      29.661  26.252  23.881  1.00  0.00    -0.049 Br
ENDBRANCH  16  19
ENDBRANCH  14  16
ENDBRANCH   8  14
ENDBRANCH   4   7
ENDBRANCH   2   3
ENDBRANCH   1   2
BRANCH   1  27
ATOM     27  C   UNL A   1      39.169  22.174  25.687  1.00  0.00     0.023 C 
BRANCH  27  28
ATOM     28  C   UNL A   1      39.617  21.071  26.634  1.00  0.00     0.116 C 
BRANCH  28  29
ATOM     29  N   UNL A   1      40.629  20.170  26.106  1.00  0.00    -0.352 N 
ATOM     30  C   UNL A   1      41.990  20.359  25.951  1.00  0.00     0.251 C 
ATOM     31  H   UNL A   1      40.293  19.291  25.816  1.00  0.00     0.163 HD
ATOM     32  O   UNL A   1      42.647  19.504  25.362  1.00  0.00    -0.269 OA
BRANCH  30  33
ATOM     33  C   UNL A   1      42.695  21.496  26.607  1.00  0.00     0.039 A 
ATOM     34  C   UNL A   1      42.651  21.573  28.008  1.00  0.00     0.014 A 
ATOM     35  C   UNL A   1      43.207  22.570  25.888  1.00  0.00     0.014 A 
ATOM     36  C   UNL A   1      42.856  22.796  28.644  1.00  0.00     0.010 A 
ATOM     37  C   UNL A   1      43.277  23.808  26.490  1.00  0.00     0.010 A 
ATOM     38  C   UNL A   1      43.036  23.929  27.857  1.00  0.00    -0.014 A 
BRANCH  38  39
ATOM     39  C   UNL A   1      42.869  25.289  28.341  1.00  0.00     0.031 A 
ATOM     40  C   UNL A   1      41.652  26.054  28.018  1.00  0.00     0.074 A 
ATOM     41  C   UNL A   1      43.775  25.793  29.208  1.00  0.00     0.049 A 
ATOM     42  N   UNL A   1      41.586  27.342  28.045  1.00  0.00    -0.248 NA
ATOM     43  C   UNL A   1      40.406  25.422  27.601  1.00  0.00     0.031 C 
ATOM     44  C   UNL A   1      43.627  26.981  30.044  1.00  0.00     0.029 A 
ATOM     45  N   UNL A   1      45.115  25.439  29.364  1.00  0.00    -0.354 N 
ATOM     46  C   UNL A   1      40.257  27.682  27.970  1.00  0.00     0.074 A 
ATOM     47  C   UNL A   1      39.574  26.466  27.597  1.00  0.00     0.031 C 
ATOM     48  C   UNL A   1      44.849  27.435  30.362  1.00  0.00     0.029 A 
ATOM     49  C   UNL A   1      45.811  26.626  29.626  1.00  0.00     0.049 A 
ATOM     50  H   UNL A   1      45.497  24.533  29.300  1.00  0.00     0.167 HD
ATOM     51  C   UNL A   1      39.856  28.915  28.389  1.00  0.00     0.031 A 
ATOM     52  C   UNL A   1      46.829  27.113  28.862  1.00  0.00     0.031 A 
ATOM     53  C   UNL A   1      40.983  29.728  28.848  1.00  0.00     0.049 A 
ATOM     54  C   UNL A   1      46.532  28.517  28.408  1.00  0.00     0.074 A 
ATOM     55  C   UNL A   1      41.450  30.049  30.114  1.00  0.00     0.029 A 
ATOM     56  N   UNL A   1      41.988  30.084  27.954  1.00  0.00    -0.354 N 
ATOM     57  N   UNL A   1      45.318  28.985  28.298  1.00  0.00    -0.248 NA
ATOM     58  C   UNL A   1      47.549  29.504  28.067  1.00  0.00     0.031 C 
ATOM     59  C   UNL A   1      42.766  30.559  29.978  1.00  0.00     0.029 A 
ATOM     60  C   UNL A   1      43.087  30.574  28.631  1.00  0.00     0.049 A 
ATOM     61  H   UNL A   1      41.924  29.999  26.977  1.00  0.00     0.167 HD
ATOM     62  C   UNL A   1      45.373  30.311  27.976  1.00  0.00     0.074 A 
ATOM     63  C   UNL A   1      46.789  30.583  27.799  1.00  0.00     0.031 C 
ATOM     64  C   UNL A   1      44.249  31.082  27.911  1.00  0.00     0.031 A 
BRANCH  51  65
ATOM     65  C   UNL A   1      38.411  29.256  28.671  1.00  0.00    -0.014 A 
ATOM     66  C   UNL A   1      37.580  29.703  27.626  1.00  0.00     0.009 A 
ATOM     67  C   UNL A   1      37.817  29.195  29.943  1.00  0.00     0.009 A 
ATOM     68  C   UNL A   1      36.274  30.159  27.856  1.00  0.00     0.001 A 
ATOM     69  C   UNL A   1      36.528  29.688  30.189  1.00  0.00     0.001 A 
ATOM     70  C   UNL A   1      35.760  30.181  29.145  1.00  0.00     0.000 A 
ENDBRANCH  51  65
BRANCH  52  71
ATOM     71  C   UNL A   1      47.582  26.084  28.096  1.00  0.00    -0.014 A 
ATOM     72  C   UNL A   1      47.412  26.065  26.702  1.00  0.00     0.009 A 
ATOM     73  C   UNL A   1      48.734  25.494  28.631  1.00  0.00     0.009 A 
ATOM     74  C   UNL A   1      48.448  25.664  25.853  1.00  0.00     0.001 A 
ATOM     75  C   UNL A   1      49.757  25.055  27.778  1.00  0.00     0.001 A 
ATOM     76  C   UNL A   1      49.638  25.194  26.395  1.00  0.00     0.000 A 
ENDBRANCH  52  71
BRANCH  64  77
ATOM     77  C   UNL A   1      44.140  32.433  27.254  1.00  0.00    -0.014 A 
ATOM     78  C   UNL A   1      44.203  32.641  25.872  1.00  0.00     0.009 A 
ATOM     79  C   UNL A   1      43.785  33.550  28.047  1.00  0.00     0.009 A 
ATOM     80  C   UNL A   1      43.954  33.901  25.313  1.00  0.00     0.001 A 
ATOM     81  C   UNL A   1      43.490  34.795  27.491  1.00  0.00     0.001 A 
ATOM     82  C   UNL A   1      43.584  34.972  26.120  1.00  0.00     0.000 A 
ENDBRANCH  64  77
ENDBRANCH  38  39
ENDBRANCH  30  33
ENDBRANCH  28  29
ENDBRANCH  27  28
ENDBRANCH   1  27
TORSDOF 14
ENDMDL
MODEL 2
REMARK VINA RESULT:     -12.2      4.537      9.587
REMARK SMILES Cc1ccc(S(=O)(=O)Nc2cc(C(=O)NCCCCNC(=O)c3ccc(-c4c5nc(c(-c6ccccc6)c6ccc([nH]6)c(-c6ccccc6)c6nc(c(-c7ccccc7)c7ccc4[nH]7)C=C6)C=C5)cc3)ccc2C)c(Br)c1
REMARK SMILES IDX 17 1 16 2 15 3 13 4 14 5 12 7 10 8 11 9 73 10 72 11 74 12
REMARK SMILES IDX 71 13 9 14 6 16 7 17 8 18 5 19 1 20 2 21 3 22 77 23 4 24
REMARK SMILES IDX 75 25 76 26 18 27 19 28 20 29 21 30 22 32 23 33 24 34 70 35
REMARK SMILES IDX 25 36 69 37 26 38 27 39 28 40 63 41 29 42 68 43 62 44 64 45
REMARK SMILES IDX 30 46 67 47 61 48 60 49 31 51 53 52 38 53 52 54 39 55 42 56
REMARK SMILES IDX 51 57 65 58 40 59 41 60 50 62 66 63 43 64 32 65 33 66 37 67
REMARK SMILES IDX 34 68 36 69 35 70 54 71 55 72 59 73 56 74 58 75 57 76 44 77
REMARK SMILES IDX 45 78 49 79 46 80 48 81 47 82
REMARK H PARENT 15 6 9 15 20 31 64 50 42 61
REMARK Flexibility Score: inf
ROOT
ATOM      1  C   UNL A   1      34.507  30.834  27.259  1.00  0.00     0.023 C 
ENDROOT
BRANCH   1   2
ATOM      2  C   UNL A   1      34.512  29.334  27.601  1.00  0.00     0.116 C 
BRANCH   2   3
ATOM      3  N   UNL A   1      33.165  28.823  27.815  1.00  0.00    -0.352 N 
ATOM      4  C   UNL A   1      32.391  27.889  27.172  1.00  0.00     0.251 C 
ATOM      5  O   UNL A   1      31.285  27.645  27.656  1.00  0.00    -0.269 OA
ATOM      6  H   UNL A   1      32.714  29.235  28.587  1.00  0.00     0.163 HD
BRANCH   4   7
ATOM      7  C   UNL A   1      32.840  27.104  25.987  1.00  0.00     0.041 A 
ATOM      8  C   UNL A   1      33.724  25.109  24.942  1.00  0.00     0.053 A 
ATOM      9  C   UNL A   1      33.580  25.930  26.063  1.00  0.00     0.040 A 
ATOM     10  C   UNL A   1      33.288  25.522  23.674  1.00  0.00    -0.027 A 
ATOM     11  C   UNL A   1      32.669  26.774  23.573  1.00  0.00     0.006 A 
ATOM     12  C   UNL A   1      33.452  24.691  22.431  1.00  0.00     0.046 C 
ATOM     13  C   UNL A   1      32.416  27.537  24.720  1.00  0.00     0.014 A 
BRANCH   8  14
ATOM     14  N   UNL A   1      34.169  23.784  25.173  1.00  0.00    -0.279 N 
ATOM     15  H   UNL A   1      35.128  23.581  25.090  1.00  0.00     0.180 HD
BRANCH  14  16
ATOM     16  S   UNL A   1      33.093  22.534  25.592  1.00  0.00     0.263 S 
ATOM     17  O   UNL A   1      31.811  23.056  25.123  1.00  0.00    -0.201 OA
ATOM     18  O   UNL A   1      33.329  22.300  26.989  1.00  0.00    -0.201 OA
BRANCH  16  19
ATOM     19  C   UNL A   1      33.339  20.978  24.755  1.00  0.00     0.101 A 
ATOM     20  C   UNL A   1      33.815  16.795  23.735  1.00  0.00     0.044 C 
ATOM     21  C   UNL A   1      33.651  18.259  24.019  1.00  0.00    -0.050 A 
ATOM     22  C   UNL A   1      32.502  18.959  23.670  1.00  0.00     0.005 A 
ATOM     23  C   UNL A   1      34.701  18.979  24.583  1.00  0.00     0.020 A 
ATOM     24  C   UNL A   1      32.366  20.316  24.008  1.00  0.00     0.024 A 
ATOM     25  C   UNL A   1      34.564  20.330  24.920  1.00  0.00     0.038 A 
ATOM     26  Br  UNL A   1      36.159  21.245  25.376  1.00  0.00    -0.049 Br
ENDBRANCH  16  19
ENDBRANCH  14  16
ENDBRANCH   8  14
ENDBRANCH   4   7
ENDBRANCH   2   3
ENDBRANCH   1   2
BRANCH   1  27
ATOM     27  C   UNL A   1      34.381  31.756  28.476  1.00  0.00     0.023 C 
BRANCH  27  28
ATOM     28  C   UNL A   1      34.175  33.215  28.101  1.00  0.00     0.116 C 
BRANCH  28  29
ATOM     29  N   UNL A   1      33.438  34.010  29.071  1.00  0.00    -0.352 N 
ATOM     30  C   UNL A   1      33.751  34.323  30.381  1.00  0.00     0.251 C 
ATOM     31  H   UNL A   1      32.587  34.382  28.744  1.00  0.00     0.163 HD
ATOM     32  O   UNL A   1      32.919  34.910  31.069  1.00  0.00    -0.269 OA
BRANCH  30  33
ATOM     33  C   UNL A   1      35.120  34.098  30.927  1.00  0.00     0.039 A 
ATOM     34  C   UNL A   1      36.209  34.577  30.181  1.00  0.00     0.014 A 
ATOM     35  C   UNL A   1      35.360  33.270  32.017  1.00  0.00     0.014 A 
ATOM     36  C   UNL A   1      37.472  34.018  30.359  1.00  0.00     0.010 A 
ATOM     37  C   UNL A   1      36.569  32.615  32.107  1.00  0.00     0.010 A 
ATOM     38  C   UNL A   1      37.604  32.944  31.234  1.00  0.00    -0.014 A 
BRANCH  38  39
ATOM     39  C   UNL A   1      38.731  32.027  31.230  1.00  0.00     0.031 A 
ATOM     40  C   UNL A   1      38.639  30.732  30.532  1.00  0.00     0.074 A 
ATOM     41  C   UNL A   1      39.910  32.433  31.751  1.00  0.00     0.049 A 
ATOM     42  N   UNL A   1      39.391  29.718  30.800  1.00  0.00    -0.248 NA
ATOM     43  C   UNL A   1      37.659  30.464  29.486  1.00  0.00     0.031 C 
ATOM     44  C   UNL A   1      41.217  31.810  31.561  1.00  0.00     0.029 A 
ATOM     45  N   UNL A   1      40.137  33.393  32.736  1.00  0.00    -0.354 N 
ATOM     46  C   UNL A   1      39.221  28.808  29.784  1.00  0.00     0.074 A 
ATOM     47  C   UNL A   1      38.067  29.271  29.048  1.00  0.00     0.031 C 
ATOM     48  C   UNL A   1      42.011  32.162  32.584  1.00  0.00     0.029 A 
ATOM     49  C   UNL A   1      41.190  32.912  33.524  1.00  0.00     0.049 A 
ATOM     50  H   UNL A   1      39.652  34.242  32.854  1.00  0.00     0.167 HD
ATOM     51  C   UNL A   1      40.169  27.852  29.575  1.00  0.00     0.031 A 
ATOM     52  C   UNL A   1      41.108  32.674  34.864  1.00  0.00     0.031 A 
ATOM     53  C   UNL A   1      41.259  27.945  30.547  1.00  0.00     0.049 A 
ATOM     54  C   UNL A   1      41.497  31.254  35.179  1.00  0.00     0.074 A 
ATOM     55  C   UNL A   1      42.543  28.463  30.467  1.00  0.00     0.029 A 
ATOM     56  N   UNL A   1      40.998  27.745  31.899  1.00  0.00    -0.354 N 
ATOM     57  N   UNL A   1      41.401  30.284  34.311  1.00  0.00    -0.248 NA
ATOM     58  C   UNL A   1      42.037  30.813  36.459  1.00  0.00     0.031 C 
ATOM     59  C   UNL A   1      43.036  28.618  31.787  1.00  0.00     0.029 A 
ATOM     60  C   UNL A   1      42.065  28.169  32.666  1.00  0.00     0.049 A 
ATOM     61  H   UNL A   1      40.170  27.356  32.259  1.00  0.00     0.167 HD
ATOM     62  C   UNL A   1      41.929  29.144  34.848  1.00  0.00     0.074 A 
ATOM     63  C   UNL A   1      42.276  29.511  36.209  1.00  0.00     0.031 C 
ATOM     64  C   UNL A   1      42.064  28.001  34.115  1.00  0.00     0.031 A 
BRANCH  51  65
ATOM     65  C   UNL A   1      40.253  27.044  28.302  1.00  0.00    -0.014 A 
ATOM     66  C   UNL A   1      39.633  25.781  28.231  1.00  0.00     0.009 A 
ATOM     67  C   UNL A   1      40.954  27.448  27.153  1.00  0.00     0.009 A 
ATOM     68  C   UNL A   1      39.792  24.934  27.125  1.00  0.00     0.001 A 
ATOM     69  C   UNL A   1      41.153  26.591  26.061  1.00  0.00     0.001 A 
ATOM     70  C   UNL A   1      40.580  25.328  26.053  1.00  0.00     0.000 A 
ENDBRANCH  51  65
BRANCH  52  71
ATOM     71  C   UNL A   1      40.088  33.484  35.581  1.00  0.00    -0.014 A 
ATOM     72  C   UNL A   1      38.874  32.855  35.901  1.00  0.00     0.009 A 
ATOM     73  C   UNL A   1      40.461  34.617  36.315  1.00  0.00     0.009 A 
ATOM     74  C   UNL A   1      38.157  33.211  37.047  1.00  0.00     0.001 A 
ATOM     75  C   UNL A   1      39.718  34.999  37.442  1.00  0.00     0.001 A 
ATOM     76  C   UNL A   1      38.602  34.261  37.840  1.00  0.00     0.000 A 
ENDBRANCH  52  71
BRANCH  64  77
ATOM     77  C   UNL A   1      42.307  26.620  34.667  1.00  0.00    -0.014 A 
ATOM     78  C   UNL A   1      41.379  25.909  35.437  1.00  0.00     0.009 A 
ATOM     79  C   UNL A   1      43.462  25.915  34.257  1.00  0.00     0.009 A 
ATOM     80  C   UNL A   1      41.607  24.576  35.803  1.00  0.00     0.001 A 
ATOM     81  C   UNL A   1      43.671  24.574  34.579  1.00  0.00     0.001 A 
ATOM     82  C   UNL A   1      42.743  23.905  35.361  1.00  0.00     0.000 A 
ENDBRANCH  64  77
ENDBRANCH  38  39
ENDBRANCH  30  33
ENDBRANCH  28  29
ENDBRANCH  27  28
ENDBRANCH   1  27
TORSDOF 14
ENDMDL
MODEL 3
REMARK VINA RESULT:     -12.1      4.270      9.251
REMARK SMILES Cc1ccc(S(=O)(=O)Nc2cc(C(=O)NCCCCNC(=O)c3ccc(-c4c5nc(c(-c6ccccc6)c6ccc([nH]6)c(-c6ccccc6)c6nc(c(-c7ccccc7)c7ccc4[nH]7)C=C6)C=C5)cc3)ccc2C)c(Br)c1
REMARK SMILES IDX 17 1 16 2 15 3 13 4 14 5 12 7 10 8 11 9 73 10 72 11 74 12
REMARK SMILES IDX 71 13 9 14 6 16 7 17 8 18 5 19 1 20 2 21 3 22 77 23 4 24
REMARK SMILES IDX 75 25 76 26 18 27 19 28 20 29 21 30 22 32 23 33 24 34 70 35
REMARK SMILES IDX 25 36 69 37 26 38 27 39 28 40 63 41 29 42 68 43 62 44 64 45
REMARK SMILES IDX 30 46 67 47 61 48 60 49 31 51 53 52 38 53 52 54 39 55 42 56
REMARK SMILES IDX 51 57 65 58 40 59 41 60 50 62 66 63 43 64 32 65 33 66 37 67
REMARK SMILES IDX 34 68 36 69 35 70 54 71 55 72 59 73 56 74 58 75 57 76 44 77
REMARK SMILES IDX 45 78 49 79 46 80 48 81 47 82
REMARK H PARENT 15 6 9 15 20 31 64 50 42 61
REMARK Flexibility Score: inf
ROOT
ATOM      1  C   UNL A   1      34.510  29.656  27.257  1.00  0.00     0.023 C 
ENDROOT
BRANCH   1   2
ATOM      2  C   UNL A   1      33.852  28.625  26.324  1.00  0.00     0.116 C 
BRANCH   2   3
ATOM      3  N   UNL A   1      34.087  28.936  24.921  1.00  0.00    -0.352 N 
ATOM      4  C   UNL A   1      33.389  28.692  23.765  1.00  0.00     0.251 C 
ATOM      5  O   UNL A   1      33.851  29.151  22.720  1.00  0.00    -0.269 OA
ATOM      6  H   UNL A   1      34.927  29.428  24.770  1.00  0.00     0.163 HD
BRANCH   4   7
ATOM      7  C   UNL A   1      32.078  27.984  23.714  1.00  0.00     0.041 A 
ATOM      8  C   UNL A   1      30.554  26.233  24.398  1.00  0.00     0.053 A 
ATOM      9  C   UNL A   1      31.856  26.714  24.234  1.00  0.00     0.040 A 
ATOM     10  C   UNL A   1      29.449  26.928  23.885  1.00  0.00    -0.027 A 
ATOM     11  C   UNL A   1      29.688  28.143  23.231  1.00  0.00     0.006 A 
ATOM     12  C   UNL A   1      28.033  26.436  24.004  1.00  0.00     0.046 C 
ATOM     13  C   UNL A   1      30.982  28.680  23.179  1.00  0.00     0.014 A 
BRANCH   8  14
ATOM     14  N   UNL A   1      30.390  25.112  25.248  1.00  0.00    -0.279 N 
ATOM     15  H   UNL A   1      29.902  25.222  26.095  1.00  0.00     0.180 HD
BRANCH  14  16
ATOM     16  S   UNL A   1      31.012  23.580  24.847  1.00  0.00     0.263 S 
ATOM     17  O   UNL A   1      30.741  23.499  23.412  1.00  0.00    -0.201 OA
ATOM     18  O   UNL A   1      30.385  22.676  25.770  1.00  0.00    -0.201 OA
BRANCH  16  19
ATOM     19  C   UNL A   1      32.775  23.377  25.037  1.00  0.00     0.101 A 
ATOM     20  C   UNL A   1      37.070  23.305  24.487  1.00  0.00     0.044 C 
ATOM     21  C   UNL A   1      35.593  23.311  24.745  1.00  0.00    -0.050 A 
ATOM     22  C   UNL A   1      34.992  24.226  25.602  1.00  0.00     0.005 A 
ATOM     23  C   UNL A   1      34.785  22.329  24.177  1.00  0.00     0.020 A 
ATOM     24  C   UNL A   1      33.598  24.233  25.769  1.00  0.00     0.024 A 
ATOM     25  C   UNL A   1      33.395  22.338  24.344  1.00  0.00     0.038 A 
ATOM     26  Br  UNL A   1      32.476  20.779  23.786  1.00  0.00    -0.049 Br
ENDBRANCH  16  19
ENDBRANCH  14  16
ENDBRANCH   8  14
ENDBRANCH   4   7
ENDBRANCH   2   3
ENDBRANCH   1   2
BRANCH   1  27
ATOM     27  C   UNL A   1      33.609  30.839  27.624  1.00  0.00     0.023 C 
BRANCH  27  28
ATOM     28  C   UNL A   1      34.348  32.169  27.642  1.00  0.00     0.116 C 
BRANCH  28  29
ATOM     29  N   UNL A   1      33.651  33.259  28.307  1.00  0.00    -0.352 N 
ATOM     30  C   UNL A   1      33.955  33.917  29.485  1.00  0.00     0.251 C 
ATOM     31  H   UNL A   1      32.841  33.577  27.847  1.00  0.00     0.163 HD
ATOM     32  O   UNL A   1      33.155  34.734  29.935  1.00  0.00    -0.269 OA
BRANCH  30  33
ATOM     33  C   UNL A   1      35.287  33.767  30.136  1.00  0.00     0.039 A 
ATOM     34  C   UNL A   1      36.405  34.290  29.467  1.00  0.00     0.014 A 
ATOM     35  C   UNL A   1      35.484  32.966  31.255  1.00  0.00     0.014 A 
ATOM     36  C   UNL A   1      37.677  33.797  29.749  1.00  0.00     0.010 A 
ATOM     37  C   UNL A   1      36.713  32.373  31.447  1.00  0.00     0.010 A 
ATOM     38  C   UNL A   1      37.794  32.742  30.649  1.00  0.00    -0.014 A 
BRANCH  38  39
ATOM     39  C   UNL A   1      38.962  31.882  30.745  1.00  0.00     0.031 A 
ATOM     40  C   UNL A   1      39.010  30.602  30.016  1.00  0.00     0.074 A 
ATOM     41  C   UNL A   1      40.058  32.333  31.395  1.00  0.00     0.049 A 
ATOM     42  N   UNL A   1      39.781  29.621  30.341  1.00  0.00    -0.248 NA
ATOM     43  C   UNL A   1      38.159  30.313  28.868  1.00  0.00     0.031 C 
ATOM     44  C   UNL A   1      41.407  31.780  31.331  1.00  0.00     0.029 A 
ATOM     45  N   UNL A   1      40.130  33.278  32.417  1.00  0.00    -0.354 N 
ATOM     46  C   UNL A   1      39.765  28.729  29.296  1.00  0.00     0.074 A 
ATOM     47  C   UNL A   1      38.672  29.152  28.451  1.00  0.00     0.031 C 
ATOM     48  C   UNL A   1      42.072  32.145  32.439  1.00  0.00     0.029 A 
ATOM     49  C   UNL A   1      41.119  32.830  33.302  1.00  0.00     0.049 A 
ATOM     50  H   UNL A   1      39.592  34.099  32.501  1.00  0.00     0.167 HD
ATOM     51  C   UNL A   1      40.778  27.827  29.168  1.00  0.00     0.031 A 
ATOM     52  C   UNL A   1      40.912  32.555  34.621  1.00  0.00     0.031 A 
ATOM     53  C   UNL A   1      41.755  27.949  30.251  1.00  0.00     0.049 A 
ATOM     54  C   UNL A   1      41.339  31.148  34.947  1.00  0.00     0.074 A 
ATOM     55  C   UNL A   1      43.012  28.532  30.316  1.00  0.00     0.029 A 
ATOM     56  N   UNL A   1      41.366  27.703  31.564  1.00  0.00    -0.354 N 
ATOM     57  N   UNL A   1      41.384  30.196  34.054  1.00  0.00    -0.248 NA
ATOM     58  C   UNL A   1      41.764  30.702  36.268  1.00  0.00     0.031 C 
ATOM     59  C   UNL A   1      43.356  28.678  31.684  1.00  0.00     0.029 A 
ATOM     60  C   UNL A   1      42.324  28.159  32.447  1.00  0.00     0.049 A 
ATOM     61  H   UNL A   1      40.526  27.264  31.826  1.00  0.00     0.167 HD
ATOM     62  C   UNL A   1      41.912  29.071  34.621  1.00  0.00     0.074 A 
ATOM     63  C   UNL A   1      42.095  29.420  36.018  1.00  0.00     0.031 C 
ATOM     64  C   UNL A   1      42.181  27.955  33.884  1.00  0.00     0.031 A 
BRANCH  51  65
ATOM     65  C   UNL A   1      41.036  27.056  27.895  1.00  0.00    -0.014 A 
ATOM     66  C   UNL A   1      40.739  25.681  27.836  1.00  0.00     0.009 A 
ATOM     67  C   UNL A   1      41.600  27.611  26.734  1.00  0.00     0.009 A 
ATOM     68  C   UNL A   1      41.081  24.891  26.729  1.00  0.00     0.001 A 
ATOM     69  C   UNL A   1      41.983  26.822  25.640  1.00  0.00     0.001 A 
ATOM     70  C   UNL A   1      41.734  25.458  25.643  1.00  0.00     0.000 A 
ENDBRANCH  51  65
BRANCH  52  71
ATOM     71  C   UNL A   1      39.782  33.295  35.243  1.00  0.00    -0.014 A 
ATOM     72  C   UNL A   1      38.624  32.562  35.555  1.00  0.00     0.009 A 
ATOM     73  C   UNL A   1      40.002  34.503  35.917  1.00  0.00     0.009 A 
ATOM     74  C   UNL A   1      37.822  32.909  36.646  1.00  0.00     0.001 A 
ATOM     75  C   UNL A   1      39.173  34.871  36.986  1.00  0.00     0.001 A 
ATOM     76  C   UNL A   1      38.121  34.046  37.386  1.00  0.00     0.000 A 
ENDBRANCH  52  71
BRANCH  64  77
ATOM     77  C   UNL A   1      42.436  26.575  34.431  1.00  0.00    -0.014 A 
ATOM     78  C   UNL A   1      41.520  25.856  35.208  1.00  0.00     0.009 A 
ATOM     79  C   UNL A   1      43.592  25.877  34.010  1.00  0.00     0.009 A 
ATOM     80  C   UNL A   1      41.758  24.523  35.568  1.00  0.00     0.001 A 
ATOM     81  C   UNL A   1      43.811  24.536  34.326  1.00  0.00     0.001 A 
ATOM     82  C   UNL A   1      42.894  23.861  35.115  1.00  0.00     0.000 A 
ENDBRANCH  64  77
ENDBRANCH  38  39
ENDBRANCH  30  33
ENDBRANCH  28  29
ENDBRANCH  27  28
ENDBRANCH   1  27
TORSDOF 14
ENDMDL
