MODEL 1
REMARK VINA RESULT:     -10.4      0.000      0.000
REMARK SMILES O=C(NCCCCNC(=O)c1cnc(-c2ccccc2Cl)nc1)c1ccc(-c2c3nc(c(-c4ccccc4)c4ccc([nH]4)c(-c4ccccc4)c4nc(c(-c5ccccc5)c5ccc2[nH]5)C=C4)C=C3)cc1
REMARK SMILES IDX 5 1 4 2 3 3 1 4 2 5 24 7 25 8 71 9 26 10 70 11 27 12 28 13
REMARK SMILES IDX 29 14 64 15 30 16 69 17 63 18 65 19 31 20 68 21 62 22 61 23
REMARK SMILES IDX 32 25 54 26 39 27 53 28 40 29 43 30 52 31 66 32 41 33 42 34
REMARK SMILES IDX 51 36 67 37 44 38 33 39 34 40 38 41 35 42 37 43 36 44 55 45
REMARK SMILES IDX 56 46 60 47 57 48 59 49 58 50 45 51 46 52 50 53 47 54 49 55
REMARK SMILES IDX 48 56 6 57 7 58 8 59 9 60 10 62 11 63 12 64 23 65 13 66
REMARK SMILES IDX 22 67 14 68 15 69 16 70 20 71 17 72 19 73 21 74 18 75
REMARK H PARENT 3 6 65 24 43 35 8 61
REMARK Flexibility Score: inf
ROOT
ATOM      1  C   UNL A   1      32.521  27.845  27.191  1.00  0.00     0.023 C 
ENDROOT
BRANCH   1   2
ATOM      2  C   UNL A   1      33.825  28.631  27.177  1.00  0.00     0.116 C 
BRANCH   2   3
ATOM      3  N   UNL A   1      33.672  29.994  27.657  1.00  0.00    -0.352 N 
ATOM      4  O   UNL A   1      34.246  31.867  28.779  1.00  0.00    -0.269 OA
ATOM      5  C   UNL A   1      34.580  30.776  28.330  1.00  0.00     0.251 C 
ATOM      6  H   UNL A   1      32.801  30.415  27.475  1.00  0.00     0.163 HD
BRANCH   5   7
ATOM      7  C   UNL A   1      35.959  30.285  28.535  1.00  0.00     0.039 A 
ATOM      8  C   UNL A   1      36.921  30.418  27.529  1.00  0.00     0.014 A 
ATOM      9  C   UNL A   1      36.297  29.703  29.759  1.00  0.00     0.014 A 
ATOM     10  C   UNL A   1      38.188  29.875  27.708  1.00  0.00     0.010 A 
ATOM     11  C   UNL A   1      37.591  29.217  29.963  1.00  0.00     0.010 A 
ATOM     12  C   UNL A   1      38.541  29.288  28.933  1.00  0.00    -0.014 A 
BRANCH  12  13
ATOM     13  C   UNL A   1      39.943  28.856  29.154  1.00  0.00     0.031 A 
ATOM     14  C   UNL A   1      40.955  29.766  29.787  1.00  0.00     0.074 A 
ATOM     15  C   UNL A   1      40.290  27.612  28.773  1.00  0.00     0.049 A 
ATOM     16  N   UNL A   1      42.213  29.526  30.057  1.00  0.00    -0.248 NA
ATOM     17  C   UNL A   1      40.505  31.115  30.161  1.00  0.00     0.031 C 
ATOM     18  C   UNL A   1      39.394  26.645  28.131  1.00  0.00     0.029 A 
ATOM     19  N   UNL A   1      41.481  26.941  28.878  1.00  0.00    -0.354 N 
ATOM     20  C   UNL A   1      42.712  30.696  30.613  1.00  0.00     0.074 A 
ATOM     21  C   UNL A   1      41.624  31.652  30.634  1.00  0.00     0.031 C 
ATOM     22  C   UNL A   1      40.057  25.498  27.929  1.00  0.00     0.029 A 
ATOM     23  C   UNL A   1      41.434  25.664  28.376  1.00  0.00     0.049 A 
ATOM     24  H   UNL A   1      42.290  27.337  29.274  1.00  0.00     0.167 HD
ATOM     25  C   UNL A   1      43.964  30.946  31.065  1.00  0.00     0.031 A 
ATOM     26  C   UNL A   1      42.398  24.732  28.266  1.00  0.00     0.031 A 
ATOM     27  C   UNL A   1      45.041  29.990  31.054  1.00  0.00     0.049 A 
ATOM     28  C   UNL A   1      43.779  25.051  28.752  1.00  0.00     0.074 A 
ATOM     29  C   UNL A   1      46.324  30.132  31.553  1.00  0.00     0.029 A 
ATOM     30  N   UNL A   1      44.963  28.720  30.506  1.00  0.00    -0.354 N 
ATOM     31  N   UNL A   1      44.215  26.142  29.332  1.00  0.00    -0.248 NA
ATOM     32  C   UNL A   1      44.801  24.014  28.562  1.00  0.00     0.031 C 
ATOM     33  C   UNL A   1      47.040  28.966  31.262  1.00  0.00     0.029 A 
ATOM     34  C   UNL A   1      46.188  28.082  30.620  1.00  0.00     0.049 A 
ATOM     35  H   UNL A   1      44.158  28.329  30.096  1.00  0.00     0.167 HD
ATOM     36  C   UNL A   1      45.563  25.924  29.577  1.00  0.00     0.074 A 
ATOM     37  C   UNL A   1      45.864  24.585  29.110  1.00  0.00     0.031 C 
ATOM     38  C   UNL A   1      46.472  26.760  30.132  1.00  0.00     0.031 A 
BRANCH  25  39
ATOM     39  C   UNL A   1      44.259  32.319  31.599  1.00  0.00    -0.014 A 
ATOM     40  C   UNL A   1      44.110  32.617  32.962  1.00  0.00     0.009 A 
ATOM     41  C   UNL A   1      44.777  33.300  30.739  1.00  0.00     0.009 A 
ATOM     42  C   UNL A   1      44.465  33.877  33.450  1.00  0.00     0.001 A 
ATOM     43  C   UNL A   1      45.147  34.552  31.233  1.00  0.00     0.001 A 
ATOM     44  C   UNL A   1      44.987  34.841  32.588  1.00  0.00     0.000 A 
ENDBRANCH  25  39
BRANCH  26  45
ATOM     45  C   UNL A   1      42.093  23.425  27.634  1.00  0.00    -0.014 A 
ATOM     46  C   UNL A   1      41.560  22.372  28.388  1.00  0.00     0.009 A 
ATOM     47  C   UNL A   1      42.329  23.231  26.263  1.00  0.00     0.009 A 
ATOM     48  C   UNL A   1      41.288  21.141  27.787  1.00  0.00     0.001 A 
ATOM     49  C   UNL A   1      42.030  22.010  25.659  1.00  0.00     0.001 A 
ATOM     50  C   UNL A   1      41.519  20.963  26.423  1.00  0.00     0.000 A 
ENDBRANCH  26  45
BRANCH  38  51
ATOM     51  C   UNL A   1      47.874  26.244  30.255  1.00  0.00    -0.014 A 
ATOM     52  C   UNL A   1      48.758  26.300  29.165  1.00  0.00     0.009 A 
ATOM     53  C   UNL A   1      48.324  25.714  31.473  1.00  0.00     0.009 A 
ATOM     54  C   UNL A   1      50.058  25.807  29.287  1.00  0.00     0.001 A 
ATOM     55  C   UNL A   1      49.631  25.243  31.598  1.00  0.00     0.001 A 
ATOM     56  C   UNL A   1      50.493  25.282  30.504  1.00  0.00     0.000 A 
ENDBRANCH  38  51
ENDBRANCH  12  13
ENDBRANCH   5   7
ENDBRANCH   2   3
ENDBRANCH   1   2
BRANCH   1  57
ATOM     57  C   UNL A   1      31.409  28.410  26.308  1.00  0.00     0.023 C 
BRANCH  57  58
ATOM     58  C   UNL A   1      31.573  28.145  24.813  1.00  0.00     0.116 C 
BRANCH  58  59
ATOM     59  N   UNL A   1      30.683  27.096  24.334  1.00  0.00    -0.352 N 
ATOM     60  C   UNL A   1      30.965  25.774  24.094  1.00  0.00     0.254 C 
ATOM     61  H   UNL A   1      29.754  27.372  24.158  1.00  0.00     0.163 HD
ATOM     62  O   UNL A   1      30.152  25.038  23.548  1.00  0.00    -0.269 OA
BRANCH  60  63
ATOM     63  C   UNL A   1      32.270  25.251  24.481  1.00  0.00     0.076 A 
ATOM     64  C   UNL A   1      33.357  25.303  23.642  1.00  0.00     0.129 A 
ATOM     65  C   UNL A   1      32.456  24.616  25.683  1.00  0.00     0.129 A 
ATOM     66  N   UNL A   1      34.521  24.678  23.908  1.00  0.00    -0.236 NA
ATOM     67  N   UNL A   1      33.603  23.980  26.002  1.00  0.00    -0.236 NA
ATOM     68  C   UNL A   1      34.581  23.993  25.072  1.00  0.00     0.160 A 
BRANCH  68  69
ATOM     69  C   UNL A   1      35.784  23.190  25.303  1.00  0.00     0.038 A 
ATOM     70  C   UNL A   1      36.982  23.838  25.672  1.00  0.00     0.013 A 
ATOM     71  C   UNL A   1      35.831  21.793  25.129  1.00  0.00     0.052 A 
ATOM     72  C   UNL A   1      38.169  23.128  25.876  1.00  0.00     0.001 A 
ATOM     73  C   UNL A   1      37.021  21.083  25.339  1.00  0.00     0.021 A 
ATOM     74  Cl  UNL A   1      34.474  20.867  24.569  1.00  0.00    -0.084 Cl
ATOM     75  C   UNL A   1      38.185  21.748  25.713  1.00  0.00     0.002 A 
ENDBRANCH  68  69
ENDBRANCH  60  63
ENDBRANCH  58  59
ENDBRANCH  57  58
ENDBRANCH   1  57
TORSDOF 12
ENDMDL
MODEL 2
REMARK VINA RESULT:     -10.4      3.754      8.926
REMARK SMILES O=C(NCCCCNC(=O)c1cnc(-c2ccccc2Cl)nc1)c1ccc(-c2c3nc(c(-c4ccccc4)c4ccc([nH]4)c(-c4ccccc4)c4nc(c(-c5ccccc5)c5ccc2[nH]5)C=C4)C=C3)cc1
REMARK SMILES IDX 5 1 4 2 3 3 1 4 2 5 24 7 25 8 71 9 26 10 70 11 27 12 28 13
REMARK SMILES IDX 29 14 64 15 30 16 69 17 63 18 65 19 31 20 68 21 62 22 61 23
REMARK SMILES IDX 32 25 54 26 39 27 53 28 40 29 43 30 52 31 66 32 41 33 42 34
REMARK SMILES IDX 51 36 67 37 44 38 33 39 34 40 38 41 35 42 37 43 36 44 55 45
REMARK SMILES IDX 56 46 60 47 57 48 59 49 58 50 45 51 46 52 50 53 47 54 49 55
REMARK SMILES IDX 48 56 6 57 7 58 8 59 9 60 10 62 11 63 12 64 23 65 13 66
REMARK SMILES IDX 22 67 14 68 15 69 16 70 20 71 17 72 19 73 21 74 18 75
REMARK H PARENT 3 6 65 24 43 35 8 61
REMARK Flexibility Score: inf
ROOT
ATOM      1  C   UNL A   1      35.149  33.927  28.566  1.00  0.00     0.023 C 
ENDROOT
BRANCH   1   2
ATOM      2  C   UNL A   1      34.685  32.716  29.366  1.00  0.00     0.116 C 
BRANCH   2   3
ATOM      3  N   UNL A   1      34.005  31.724  28.551  1.00  0.00    -0.352 N 
ATOM      4  O   UNL A   1      33.828  29.891  27.245  1.00  0.00    -0.269 OA
ATOM      5  C   UNL A   1      34.504  30.558  28.022  1.00  0.00     0.251 C 
ATOM      6  H   UNL A   1      33.059  31.911  28.352  1.00  0.00     0.163 HD
BRANCH   5   7
ATOM      7  C   UNL A   1      35.872  30.121  28.372  1.00  0.00     0.039 A 
ATOM      8  C   UNL A   1      36.125  29.465  29.580  1.00  0.00     0.014 A 
ATOM      9  C   UNL A   1      36.911  30.355  27.468  1.00  0.00     0.014 A 
ATOM     10  C   UNL A   1      37.429  29.138  29.930  1.00  0.00     0.010 A 
ATOM     11  C   UNL A   1      38.213  29.965  27.791  1.00  0.00     0.010 A 
ATOM     12  C   UNL A   1      38.483  29.366  29.030  1.00  0.00    -0.014 A 
BRANCH  12  13
ATOM     13  C   UNL A   1      39.840  28.869  29.361  1.00  0.00     0.031 A 
ATOM     14  C   UNL A   1      40.329  27.536  28.873  1.00  0.00     0.074 A 
ATOM     15  C   UNL A   1      40.636  29.651  30.113  1.00  0.00     0.049 A 
ATOM     16  N   UNL A   1      41.493  26.971  29.068  1.00  0.00    -0.248 NA
ATOM     17  C   UNL A   1      39.397  26.731  28.069  1.00  0.00     0.031 C 
ATOM     18  C   UNL A   1      40.261  30.960  30.660  1.00  0.00     0.029 A 
ATOM     19  N   UNL A   1      41.925  29.470  30.543  1.00  0.00    -0.354 N 
ATOM     20  C   UNL A   1      41.431  25.739  28.431  1.00  0.00     0.074 A 
ATOM     21  C   UNL A   1      40.108  25.631  27.850  1.00  0.00     0.031 C 
ATOM     22  C   UNL A   1      41.306  31.475  31.322  1.00  0.00     0.029 A 
ATOM     23  C   UNL A   1      42.402  30.516  31.294  1.00  0.00     0.049 A 
ATOM     24  H   UNL A   1      42.457  28.669  30.333  1.00  0.00     0.167 HD
ATOM     25  C   UNL A   1      42.390  24.788  28.340  1.00  0.00     0.031 A 
ATOM     26  C   UNL A   1      43.585  30.679  31.914  1.00  0.00     0.031 A 
ATOM     27  C   UNL A   1      43.708  24.903  28.909  1.00  0.00     0.049 A 
ATOM     28  C   UNL A   1      44.616  29.595  31.815  1.00  0.00     0.074 A 
ATOM     29  C   UNL A   1      44.769  24.020  28.810  1.00  0.00     0.029 A 
ATOM     30  N   UNL A   1      44.140  25.961  29.691  1.00  0.00    -0.354 N 
ATOM     31  N   UNL A   1      44.559  28.464  31.155  1.00  0.00    -0.248 NA
ATOM     32  C   UNL A   1      45.868  29.807  32.551  1.00  0.00     0.031 C 
ATOM     33  C   UNL A   1      45.828  24.519  29.576  1.00  0.00     0.029 A 
ATOM     34  C   UNL A   1      45.440  25.734  30.115  1.00  0.00     0.049 A 
ATOM     35  H   UNL A   1      43.604  26.756  29.915  1.00  0.00     0.167 HD
ATOM     36  C   UNL A   1      45.768  27.829  31.396  1.00  0.00     0.074 A 
ATOM     37  C   UNL A   1      46.549  28.714  32.237  1.00  0.00     0.031 C 
ATOM     38  C   UNL A   1      46.191  26.617  30.966  1.00  0.00     0.031 A 
BRANCH  25  39
ATOM     39  C   UNL A   1      42.055  23.517  27.613  1.00  0.00    -0.014 A 
ATOM     40  C   UNL A   1      42.421  23.328  26.272  1.00  0.00     0.009 A 
ATOM     41  C   UNL A   1      41.446  22.461  28.308  1.00  0.00     0.009 A 
ATOM     42  C   UNL A   1      42.170  22.109  25.637  1.00  0.00     0.001 A 
ATOM     43  C   UNL A   1      41.212  21.238  27.677  1.00  0.00     0.001 A 
ATOM     44  C   UNL A   1      41.570  21.064  26.341  1.00  0.00     0.000 A 
ENDBRANCH  25  39
BRANCH  26  45
ATOM     45  C   UNL A   1      43.838  31.903  32.713  1.00  0.00    -0.014 A 
ATOM     46  C   UNL A   1      43.489  31.958  34.069  1.00  0.00     0.009 A 
ATOM     47  C   UNL A   1      44.440  33.024  32.117  1.00  0.00     0.009 A 
ATOM     48  C   UNL A   1      43.719  33.120  34.809  1.00  0.00     0.001 A 
ATOM     49  C   UNL A   1      44.693  34.173  32.866  1.00  0.00     0.001 A 
ATOM     50  C   UNL A   1      44.324  34.223  34.209  1.00  0.00     0.000 A 
ENDBRANCH  26  45
BRANCH  38  51
ATOM     51  C   UNL A   1      47.558  26.185  31.406  1.00  0.00    -0.014 A 
ATOM     52  C   UNL A   1      47.743  25.539  32.639  1.00  0.00     0.009 A 
ATOM     53  C   UNL A   1      48.666  26.408  30.577  1.00  0.00     0.009 A 
ATOM     54  C   UNL A   1      49.021  25.151  33.045  1.00  0.00     0.001 A 
ATOM     55  C   UNL A   1      49.939  25.999  30.976  1.00  0.00     0.001 A 
ATOM     56  C   UNL A   1      50.117  25.379  32.212  1.00  0.00     0.000 A 
ENDBRANCH  38  51
ENDBRANCH  12  13
ENDBRANCH   5   7
ENDBRANCH   2   3
ENDBRANCH   1   2
BRANCH   1  57
ATOM     57  C   UNL A   1      34.272  35.171  28.698  1.00  0.00     0.023 C 
BRANCH  57  58
ATOM     58  C   UNL A   1      33.022  34.993  29.556  1.00  0.00     0.116 C 
BRANCH  58  59
ATOM     59  N   UNL A   1      32.733  36.167  30.368  1.00  0.00    -0.352 N 
ATOM     60  C   UNL A   1      33.077  36.412  31.675  1.00  0.00     0.254 C 
ATOM     61  H   UNL A   1      32.222  36.881  29.921  1.00  0.00     0.163 HD
ATOM     62  O   UNL A   1      32.637  37.384  32.277  1.00  0.00    -0.269 OA
BRANCH  60  63
ATOM     63  C   UNL A   1      33.968  35.480  32.355  1.00  0.00     0.076 A 
ATOM     64  C   UNL A   1      35.324  35.692  32.437  1.00  0.00     0.129 A 
ATOM     65  C   UNL A   1      33.499  34.307  32.889  1.00  0.00     0.129 A 
ATOM     66  N   UNL A   1      36.184  34.768  32.909  1.00  0.00    -0.236 NA
ATOM     67  N   UNL A   1      34.317  33.351  33.379  1.00  0.00    -0.236 NA
ATOM     68  C   UNL A   1      35.642  33.600  33.323  1.00  0.00     0.160 A 
BRANCH  68  69
ATOM     69  C   UNL A   1      36.576  32.536  33.697  1.00  0.00     0.038 A 
ATOM     70  C   UNL A   1      36.788  31.463  32.805  1.00  0.00     0.013 A 
ATOM     71  C   UNL A   1      37.250  32.492  34.934  1.00  0.00     0.052 A 
ATOM     72  C   UNL A   1      37.644  30.404  33.120  1.00  0.00     0.001 A 
ATOM     73  C   UNL A   1      38.112  31.432  35.245  1.00  0.00     0.021 A 
ATOM     74  Cl  UNL A   1      37.009  33.675  36.180  1.00  0.00    -0.084 Cl
ATOM     75  C   UNL A   1      38.309  30.392  34.340  1.00  0.00     0.002 A 
ENDBRANCH  68  69
ENDBRANCH  60  63
ENDBRANCH  58  59
ENDBRANCH  57  58
ENDBRANCH   1  57
TORSDOF 12
ENDMDL
MODEL 3
REMARK VINA RESULT:     -10.4      2.413      7.584
REMARK SMILES O=C(NCCCCNC(=O)c1cnc(-c2ccccc2Cl)nc1)c1ccc(-c2c3nc(c(-c4ccccc4)c4ccc([nH]4)c(-c4ccccc4)c4nc(c(-c5ccccc5)c5ccc2[nH]5)C=C4)C=C3)cc1
REMARK SMILES IDX 5 1 4 2 3 3 1 4 2 5 24 7 25 8 71 9 26 10 70 11 27 12 28 13
REMARK SMILES IDX 29 14 64 15 30 16 69 17 63 18 65 19 31 20 68 21 62 22 61 23
REMARK SMILES IDX 32 25 54 26 39 27 53 28 40 29 43 30 52 31 66 32 41 33 42 34
REMARK SMILES IDX 51 36 67 37 44 38 33 39 34 40 38 41 35 42 37 43 36 44 55 45
REMARK SMILES IDX 56 46 60 47 57 48 59 49 58 50 45 51 46 52 50 53 47 54 49 55
REMARK SMILES IDX 48 56 6 57 7 58 8 59 9 60 10 62 11 63 12 64 23 65 13 66
REMARK SMILES IDX 22 67 14 68 15 69 16 70 20 71 17 72 19 73 21 74 18 75
REMARK H PARENT 3 6 65 24 43 35 8 61
REMARK Flexibility Score: inf
ROOT
ATOM      1  C   UNL A   1      37.648  19.865  24.887  1.00  0.00     0.023 C 
ENDROOT
BRANCH   1   2
ATOM      2  C   UNL A   1      38.782  20.280  25.816  1.00  0.00     0.116 C 
BRANCH   2   3
ATOM      3  N   UNL A   1      39.913  19.368  25.773  1.00  0.00    -0.352 N 
ATOM      4  O   UNL A   1      42.088  18.769  25.839  1.00  0.00    -0.269 OA
ATOM      5  C   UNL A   1      41.235  19.625  26.048  1.00  0.00     0.251 C 
ATOM      6  H   UNL A   1      39.705  18.443  25.512  1.00  0.00     0.163 HD
BRANCH   5   7
ATOM      7  C   UNL A   1      41.631  20.948  26.575  1.00  0.00     0.039 A 
ATOM      8  C   UNL A   1      42.062  21.960  25.712  1.00  0.00     0.014 A 
ATOM      9  C   UNL A   1      41.549  21.182  27.950  1.00  0.00     0.014 A 
ATOM     10  C   UNL A   1      42.510  23.168  26.233  1.00  0.00     0.010 A 
ATOM     11  C   UNL A   1      41.936  22.421  28.467  1.00  0.00     0.010 A 
ATOM     12  C   UNL A   1      42.432  23.418  27.613  1.00  0.00    -0.014 A 
BRANCH  12  13
ATOM     13  C   UNL A   1      42.770  24.767  28.127  1.00  0.00     0.031 A 
ATOM     14  C   UNL A   1      44.180  25.144  28.477  1.00  0.00     0.074 A 
ATOM     15  C   UNL A   1      41.772  25.659  28.268  1.00  0.00     0.049 A 
ATOM     16  N   UNL A   1      44.633  26.287  28.925  1.00  0.00    -0.248 NA
ATOM     17  C   UNL A   1      45.214  24.111  28.311  1.00  0.00     0.031 C 
ATOM     18  C   UNL A   1      40.359  25.399  27.975  1.00  0.00     0.029 A 
ATOM     19  N   UNL A   1      41.789  26.966  28.683  1.00  0.00    -0.354 N 
ATOM     20  C   UNL A   1      45.997  26.110  29.113  1.00  0.00     0.074 A 
ATOM     21  C   UNL A   1      46.300  24.743  28.741  1.00  0.00     0.031 C 
ATOM     22  C   UNL A   1      39.652  26.517  28.188  1.00  0.00     0.029 A 
ATOM     23  C   UNL A   1      40.548  27.555  28.682  1.00  0.00     0.049 A 
ATOM     24  H   UNL A   1      42.610  27.435  28.954  1.00  0.00     0.167 HD
ATOM     25  C   UNL A   1      46.910  27.007  29.554  1.00  0.00     0.031 A 
ATOM     26  C   UNL A   1      40.167  28.789  29.058  1.00  0.00     0.031 A 
ATOM     27  C   UNL A   1      46.608  28.369  29.912  1.00  0.00     0.049 A 
ATOM     28  C   UNL A   1      41.199  29.748  29.567  1.00  0.00     0.074 A 
ATOM     29  C   UNL A   1      47.480  29.369  30.305  1.00  0.00     0.029 A 
ATOM     30  N   UNL A   1      45.336  28.916  29.931  1.00  0.00    -0.354 N 
ATOM     31  N   UNL A   1      42.494  29.580  29.679  1.00  0.00    -0.248 NA
ATOM     32  C   UNL A   1      40.717  31.063  30.008  1.00  0.00     0.031 C 
ATOM     33  C   UNL A   1      46.729  30.509  30.611  1.00  0.00     0.029 A 
ATOM     34  C   UNL A   1      45.395  30.229  30.367  1.00  0.00     0.049 A 
ATOM     35  H   UNL A   1      44.512  28.442  29.674  1.00  0.00     0.167 HD
ATOM     36  C   UNL A   1      42.982  30.768  30.203  1.00  0.00     0.074 A 
ATOM     37  C   UNL A   1      41.849  31.657  30.358  1.00  0.00     0.031 C 
ATOM     38  C   UNL A   1      44.255  31.090  30.533  1.00  0.00     0.031 A 
BRANCH  25  39
ATOM     39  C   UNL A   1      48.333  26.549  29.700  1.00  0.00    -0.014 A 
ATOM     40  C   UNL A   1      49.273  26.757  28.678  1.00  0.00     0.009 A 
ATOM     41  C   UNL A   1      48.759  25.983  30.912  1.00  0.00     0.009 A 
ATOM     42  C   UNL A   1      50.609  26.394  28.865  1.00  0.00     0.001 A 
ATOM     43  C   UNL A   1      50.098  25.637  31.102  1.00  0.00     0.001 A 
ATOM     44  C   UNL A   1      51.021  25.840  30.077  1.00  0.00     0.000 A 
ENDBRANCH  25  39
BRANCH  26  45
ATOM     45  C   UNL A   1      38.734  29.167  29.001  1.00  0.00    -0.014 A 
ATOM     46  C   UNL A   1      37.917  29.054  30.134  1.00  0.00     0.009 A 
ATOM     47  C   UNL A   1      38.178  29.653  27.806  1.00  0.00     0.009 A 
ATOM     48  C   UNL A   1      36.566  29.401  30.067  1.00  0.00     0.001 A 
ATOM     49  C   UNL A   1      36.835  30.025  27.749  1.00  0.00     0.001 A 
ATOM     50  C   UNL A   1      36.027  29.890  28.877  1.00  0.00     0.000 A 
ENDBRANCH  26  45
BRANCH  38  51
ATOM     51  C   UNL A   1      44.478  32.461  31.099  1.00  0.00    -0.014 A 
ATOM     52  C   UNL A   1      44.439  32.680  32.485  1.00  0.00     0.009 A 
ATOM     53  C   UNL A   1      44.745  33.539  30.243  1.00  0.00     0.009 A 
ATOM     54  C   UNL A   1      44.636  33.962  33.000  1.00  0.00     0.001 A 
ATOM     55  C   UNL A   1      44.964  34.815  30.763  1.00  0.00     0.001 A 
ATOM     56  C   UNL A   1      44.900  35.027  32.139  1.00  0.00     0.000 A 
ENDBRANCH  38  51
ENDBRANCH  12  13
ENDBRANCH   5   7
ENDBRANCH   2   3
ENDBRANCH   1   2
BRANCH   1  57
ATOM     57  C   UNL A   1      36.597  20.942  24.620  1.00  0.00     0.023 C 
BRANCH  57  58
ATOM     58  C   UNL A   1      35.521  21.076  25.695  1.00  0.00     0.116 C 
BRANCH  58  59
ATOM     59  N   UNL A   1      34.340  20.276  25.402  1.00  0.00    -0.352 N 
ATOM     60  C   UNL A   1      33.033  20.683  25.296  1.00  0.00     0.254 C 
ATOM     61  H   UNL A   1      34.500  19.314  25.259  1.00  0.00     0.163 HD
ATOM     62  O   UNL A   1      32.120  19.872  25.191  1.00  0.00    -0.269 OA
BRANCH  60  63
ATOM     63  C   UNL A   1      32.733  22.109  25.333  1.00  0.00     0.076 A 
ATOM     64  C   UNL A   1      32.780  22.896  24.207  1.00  0.00     0.129 A 
ATOM     65  C   UNL A   1      32.457  22.749  26.515  1.00  0.00     0.129 A 
ATOM     66  N   UNL A   1      32.676  24.239  24.245  1.00  0.00    -0.236 NA
ATOM     67  N   UNL A   1      32.336  24.090  26.607  1.00  0.00    -0.236 NA
ATOM     68  C   UNL A   1      32.502  24.792  25.466  1.00  0.00     0.160 A 
BRANCH  68  69
ATOM     69  C   UNL A   1      32.536  26.256  25.537  1.00  0.00     0.038 A 
ATOM     70  C   UNL A   1      33.702  26.893  26.012  1.00  0.00     0.013 A 
ATOM     71  C   UNL A   1      31.441  27.075  25.201  1.00  0.00     0.052 A 
ATOM     72  C   UNL A   1      33.782  28.283  26.131  1.00  0.00     0.001 A 
ATOM     73  C   UNL A   1      31.526  28.469  25.316  1.00  0.00     0.021 A 
ATOM     74  Cl  UNL A   1      29.904  26.439  24.710  1.00  0.00    -0.084 Cl
ATOM     75  C   UNL A   1      32.694  29.071  25.778  1.00  0.00     0.002 A 
ENDBRANCH  68  69
ENDBRANCH  60  63
ENDBRANCH  58  59
ENDBRANCH  57  58
ENDBRANCH   1  57
TORSDOF 12
ENDMDL
