MODEL 1
REMARK VINA RESULT:     -10.5      0.000      0.000
REMARK SMILES COc1cc(Br)c(OC)c(C(=O)NCCC(=O)NCCCCNC(=O)c2ccc(-c3c4nc(c(-c5ccccc5)c5ccc([nH]5)c(-c5ccccc5)c5nc(c(-c6ccccc6)c6ccc3[nH]6)C=C5)C=C4)cc2)c1
REMARK SMILES IDX 19 1 18 2 16 3 17 4 15 6 14 7 13 8 11 9 12 10 10 12 3 13
REMARK SMILES IDX 4 14 74 15 5 16 6 17 7 18 2 19 1 20 8 21 9 22 20 23 21 24
REMARK SMILES IDX 22 25 23 26 24 27 25 29 26 30 27 31 73 32 28 33 72 34 29 35
REMARK SMILES IDX 30 36 31 37 66 38 32 39 71 40 65 41 67 42 33 43 70 44 64 45
REMARK SMILES IDX 63 46 34 48 56 49 41 50 55 51 42 52 45 53 54 54 68 55 43 56
REMARK SMILES IDX 44 57 53 59 69 60 46 61 35 62 36 63 40 64 37 65 39 66 38 67
REMARK SMILES IDX 57 68 58 69 62 70 59 71 61 72 60 73 47 74 48 75 52 76 49 77
REMARK SMILES IDX 51 78 50 79
REMARK H PARENT 18 5 13 11 23 28 67 47 45 58
REMARK Flexibility Score: inf
ROOT
ATOM      1  C   UNL A   1      33.254  30.130  26.458  1.00  0.00     0.116 C 
ENDROOT
BRANCH   1   2
ATOM      2  N   UNL A   1      33.500  29.287  25.305  1.00  0.00    -0.356 N 
ATOM      3  C   UNL A   1      33.516  27.928  25.233  1.00  0.00     0.221 C 
ATOM      4  O   UNL A   1      33.828  27.397  24.166  1.00  0.00    -0.275 OA
ATOM      5  H   UNL A   1      33.680  29.761  24.462  1.00  0.00     0.163 HD
BRANCH   3   6
ATOM      6  C   UNL A   1      33.174  27.093  26.450  1.00  0.00     0.121 C 
BRANCH   6   7
ATOM      7  C   UNL A   1      31.684  26.788  26.515  1.00  0.00     0.126 C 
BRANCH   7   8
ATOM      8  N   UNL A   1      31.358  25.382  26.753  1.00  0.00    -0.351 N 
ATOM      9  C   UNL A   1      31.662  24.155  26.216  1.00  0.00     0.255 C 
ATOM     10  O   UNL A   1      30.996  23.214  26.655  1.00  0.00    -0.269 OA
ATOM     11  H   UNL A   1      30.745  25.288  27.517  1.00  0.00     0.163 HD
BRANCH   9  12
ATOM     12  C   UNL A   1      32.766  23.884  25.246  1.00  0.00     0.086 A 
ATOM     13  C   UNL A   1      33.584  23.926  22.964  1.00  0.00     0.121 A 
ATOM     14  C   UNL A   1      34.890  23.782  23.404  1.00  0.00     0.066 A 
ATOM     15  C   UNL A   1      32.543  24.046  23.875  1.00  0.00     0.064 A 
ATOM     16  C   UNL A   1      35.150  23.625  24.768  1.00  0.00     0.064 A 
ATOM     17  Br  UNL A   1      36.981  23.330  25.194  1.00  0.00    -0.047 Br
ATOM     18  C   UNL A   1      34.093  23.643  25.703  1.00  0.00     0.146 A 
BRANCH  13  19
ATOM     19  O   UNL A   1      33.263  24.010  21.636  1.00  0.00    -0.497 OA
ATOM     20  C   UNL A   1      32.873  25.338  21.279  1.00  0.00     0.278 C 
ENDBRANCH  13  19
BRANCH  18  21
ATOM     21  O   UNL A   1      34.252  23.269  27.015  1.00  0.00    -0.495 OA
ATOM     22  C   UNL A   1      34.229  21.870  27.293  1.00  0.00     0.278 C 
ENDBRANCH  18  21
ENDBRANCH   9  12
ENDBRANCH   7   8
ENDBRANCH   6   7
ENDBRANCH   3   6
ENDBRANCH   1   2
BRANCH   1  23
ATOM     23  C   UNL A   1      31.788  30.549  26.536  1.00  0.00     0.023 C 
BRANCH  23  24
ATOM     24  C   UNL A   1      31.543  32.046  26.681  1.00  0.00     0.023 C 
BRANCH  24  25
ATOM     25  C   UNL A   1      32.700  32.834  27.268  1.00  0.00     0.116 C 
BRANCH  25  26
ATOM     26  N   UNL A   1      32.349  34.192  27.656  1.00  0.00    -0.352 N 
ATOM     27  C   UNL A   1      32.964  35.006  28.580  1.00  0.00     0.251 C 
ATOM     28  H   UNL A   1      31.568  34.579  27.197  1.00  0.00     0.163 HD
ATOM     29  O   UNL A   1      32.505  36.103  28.858  1.00  0.00    -0.269 OA
BRANCH  27  30
ATOM     30  C   UNL A   1      34.168  34.505  29.274  1.00  0.00     0.039 A 
ATOM     31  C   UNL A   1      34.018  33.863  30.504  1.00  0.00     0.014 A 
ATOM     32  C   UNL A   1      35.423  34.600  28.668  1.00  0.00     0.014 A 
ATOM     33  C   UNL A   1      35.119  33.241  31.091  1.00  0.00     0.010 A 
ATOM     34  C   UNL A   1      36.495  33.902  29.207  1.00  0.00     0.010 A 
ATOM     35  C   UNL A   1      36.355  33.216  30.424  1.00  0.00    -0.014 A 
BRANCH  35  36
ATOM     36  C   UNL A   1      37.521  32.490  30.981  1.00  0.00     0.031 A 
ATOM     37  C   UNL A   1      38.174  32.982  32.243  1.00  0.00     0.074 A 
ATOM     38  C   UNL A   1      38.042  31.441  30.314  1.00  0.00     0.049 A 
ATOM     39  N   UNL A   1      39.252  32.544  32.841  1.00  0.00    -0.248 NA
ATOM     40  C   UNL A   1      37.553  34.145  32.900  1.00  0.00     0.031 C 
ATOM     41  C   UNL A   1      37.535  30.897  29.052  1.00  0.00     0.029 A 
ATOM     42  N   UNL A   1      39.124  30.648  30.605  1.00  0.00    -0.354 N 
ATOM     43  C   UNL A   1      39.451  33.391  33.923  1.00  0.00     0.074 A 
ATOM     44  C   UNL A   1      38.416  34.401  33.870  1.00  0.00     0.031 C 
ATOM     45  C   UNL A   1      38.285  29.841  28.695  1.00  0.00     0.029 A 
ATOM     46  C   UNL A   1      39.346  29.658  29.679  1.00  0.00     0.049 A 
ATOM     47  H   UNL A   1      39.687  30.778  31.401  1.00  0.00     0.167 HD
ATOM     48  C   UNL A   1      40.397  33.326  34.889  1.00  0.00     0.031 A 
ATOM     49  C   UNL A   1      40.299  28.710  29.629  1.00  0.00     0.031 A 
ATOM     50  C   UNL A   1      41.406  32.305  34.960  1.00  0.00     0.049 A 
ATOM     51  C   UNL A   1      41.328  28.645  30.724  1.00  0.00     0.074 A 
ATOM     52  C   UNL A   1      42.368  32.110  35.936  1.00  0.00     0.029 A 
ATOM     53  N   UNL A   1      41.579  31.304  34.019  1.00  0.00    -0.354 N 
ATOM     54  N   UNL A   1      41.463  29.415  31.777  1.00  0.00    -0.248 NA
ATOM     55  C   UNL A   1      42.327  27.572  30.628  1.00  0.00     0.031 C 
ATOM     56  C   UNL A   1      43.147  31.010  35.564  1.00  0.00     0.029 A 
ATOM     57  C   UNL A   1      42.642  30.495  34.382  1.00  0.00     0.049 A 
ATOM     58  H   UNL A   1      41.027  31.185  33.212  1.00  0.00     0.167 HD
ATOM     59  C   UNL A   1      42.544  28.905  32.482  1.00  0.00     0.074 A 
ATOM     60  C   UNL A   1      43.020  27.751  31.745  1.00  0.00     0.031 C 
ATOM     61  C   UNL A   1      43.096  29.351  33.636  1.00  0.00     0.031 A 
BRANCH  48  62
ATOM     62  C   UNL A   1      40.374  34.392  35.947  1.00  0.00    -0.014 A 
ATOM     63  C   UNL A   1      41.114  35.576  35.802  1.00  0.00     0.009 A 
ATOM     64  C   UNL A   1      39.590  34.218  37.097  1.00  0.00     0.009 A 
ATOM     65  C   UNL A   1      41.101  36.547  36.804  1.00  0.00     0.001 A 
ATOM     66  C   UNL A   1      39.555  35.203  38.085  1.00  0.00     0.001 A 
ATOM     67  C   UNL A   1      40.318  36.361  37.943  1.00  0.00     0.000 A 
ENDBRANCH  48  62
BRANCH  49  68
ATOM     68  C   UNL A   1      40.315  27.724  28.518  1.00  0.00    -0.014 A 
ATOM     69  C   UNL A   1      39.675  26.483  28.662  1.00  0.00     0.009 A 
ATOM     70  C   UNL A   1      40.973  28.012  27.313  1.00  0.00     0.009 A 
ATOM     71  C   UNL A   1      39.716  25.541  27.632  1.00  0.00     0.001 A 
ATOM     72  C   UNL A   1      40.991  27.078  26.275  1.00  0.00     0.001 A 
ATOM     73  C   UNL A   1      40.370  25.840  26.439  1.00  0.00     0.000 A 
ENDBRANCH  49  68
BRANCH  61  74
ATOM     74  C   UNL A   1      44.252  28.570  34.190  1.00  0.00    -0.014 A 
ATOM     75  C   UNL A   1      45.576  28.906  33.867  1.00  0.00     0.009 A 
ATOM     76  C   UNL A   1      44.012  27.513  35.081  1.00  0.00     0.009 A 
ATOM     77  C   UNL A   1      46.637  28.176  34.404  1.00  0.00     0.001 A 
ATOM     78  C   UNL A   1      45.076  26.803  35.637  1.00  0.00     0.001 A 
ATOM     79  C   UNL A   1      46.387  27.129  35.293  1.00  0.00     0.000 A 
ENDBRANCH  61  74
ENDBRANCH  35  36
ENDBRANCH  27  30
ENDBRANCH  25  26
ENDBRANCH  24  25
ENDBRANCH  23  24
ENDBRANCH   1  23
TORSDOF 16
ENDMDL
MODEL 2
REMARK VINA RESULT:     -10.5      4.348      8.978
REMARK SMILES COc1cc(Br)c(OC)c(C(=O)NCCC(=O)NCCCCNC(=O)c2ccc(-c3c4nc(c(-c5ccccc5)c5ccc([nH]5)c(-c5ccccc5)c5nc(c(-c6ccccc6)c6ccc3[nH]6)C=C5)C=C4)cc2)c1
REMARK SMILES IDX 19 1 18 2 16 3 17 4 15 6 14 7 13 8 11 9 12 10 10 12 3 13
REMARK SMILES IDX 4 14 74 15 5 16 6 17 7 18 2 19 1 20 8 21 9 22 20 23 21 24
REMARK SMILES IDX 22 25 23 26 24 27 25 29 26 30 27 31 73 32 28 33 72 34 29 35
REMARK SMILES IDX 30 36 31 37 66 38 32 39 71 40 65 41 67 42 33 43 70 44 64 45
REMARK SMILES IDX 63 46 34 48 56 49 41 50 55 51 42 52 45 53 54 54 68 55 43 56
REMARK SMILES IDX 44 57 53 59 69 60 46 61 35 62 36 63 40 64 37 65 39 66 38 67
REMARK SMILES IDX 57 68 58 69 62 70 59 71 61 72 60 73 47 74 48 75 52 76 49 77
REMARK SMILES IDX 51 78 50 79
REMARK H PARENT 18 5 13 11 23 28 67 47 45 58
REMARK Flexibility Score: inf
ROOT
ATOM      1  C   UNL A   1      36.298  21.339  25.325  1.00  0.00     0.116 C 
ENDROOT
BRANCH   1   2
ATOM      2  N   UNL A   1      35.445  21.503  26.486  1.00  0.00    -0.356 N 
ATOM      3  C   UNL A   1      34.093  21.370  26.573  1.00  0.00     0.221 C 
ATOM      4  O   UNL A   1      33.543  21.634  27.643  1.00  0.00    -0.275 OA
ATOM      5  H   UNL A   1      35.905  21.744  27.322  1.00  0.00     0.163 HD
BRANCH   3   6
ATOM      6  C   UNL A   1      33.289  20.925  25.369  1.00  0.00     0.121 C 
BRANCH   6   7
ATOM      7  C   UNL A   1      32.382  22.039  24.863  1.00  0.00     0.126 C 
BRANCH   7   8
ATOM      8  N   UNL A   1      31.396  22.512  25.835  1.00  0.00    -0.351 N 
ATOM      9  C   UNL A   1      30.887  23.707  26.280  1.00  0.00     0.255 C 
ATOM     10  O   UNL A   1      30.161  23.628  27.273  1.00  0.00    -0.269 OA
ATOM     11  H   UNL A   1      30.977  21.755  26.306  1.00  0.00     0.163 HD
BRANCH   9  12
ATOM     12  C   UNL A   1      31.071  25.029  25.608  1.00  0.00     0.086 A 
ATOM     13  C   UNL A   1      30.119  26.873  24.352  1.00  0.00     0.121 A 
ATOM     14  C   UNL A   1      31.206  27.675  24.659  1.00  0.00     0.066 A 
ATOM     15  C   UNL A   1      30.019  25.591  24.877  1.00  0.00     0.064 A 
ATOM     16  C   UNL A   1      32.273  27.148  25.393  1.00  0.00     0.064 A 
ATOM     17  Br  UNL A   1      33.733  28.345  25.634  1.00  0.00    -0.047 Br
ATOM     18  C   UNL A   1      32.234  25.814  25.850  1.00  0.00     0.146 A 
BRANCH  13  19
ATOM     19  O   UNL A   1      29.081  27.311  23.575  1.00  0.00    -0.497 OA
ATOM     20  C   UNL A   1      29.426  28.508  22.874  1.00  0.00     0.278 C 
ENDBRANCH  13  19
BRANCH  18  21
ATOM     21  O   UNL A   1      33.332  25.173  26.372  1.00  0.00    -0.495 OA
ATOM     22  C   UNL A   1      34.387  24.862  25.462  1.00  0.00     0.278 C 
ENDBRANCH  18  21
ENDBRANCH   9  12
ENDBRANCH   7   8
ENDBRANCH   6   7
ENDBRANCH   3   6
ENDBRANCH   1   2
BRANCH   1  23
ATOM     23  C   UNL A   1      36.464  19.866  24.964  1.00  0.00     0.023 C 
BRANCH  23  24
ATOM     24  C   UNL A   1      37.898  19.410  24.721  1.00  0.00     0.023 C 
BRANCH  24  25
ATOM     25  C   UNL A   1      38.911  19.896  25.743  1.00  0.00     0.116 C 
BRANCH  25  26
ATOM     26  N   UNL A   1      40.159  19.149  25.733  1.00  0.00    -0.352 N 
ATOM     27  C   UNL A   1      41.415  19.573  26.104  1.00  0.00     0.251 C 
ATOM     28  H   UNL A   1      40.098  18.217  25.421  1.00  0.00     0.163 HD
ATOM     29  O   UNL A   1      42.391  18.851  25.968  1.00  0.00    -0.269 OA
BRANCH  27  30
ATOM     30  C   UNL A   1      41.573  20.946  26.626  1.00  0.00     0.039 A 
ATOM     31  C   UNL A   1      41.484  21.158  28.003  1.00  0.00     0.014 A 
ATOM     32  C   UNL A   1      41.887  21.998  25.762  1.00  0.00     0.014 A 
ATOM     33  C   UNL A   1      41.794  22.414  28.524  1.00  0.00     0.010 A 
ATOM     34  C   UNL A   1      42.283  23.219  26.290  1.00  0.00     0.010 A 
ATOM     35  C   UNL A   1      42.240  23.440  27.676  1.00  0.00    -0.014 A 
BRANCH  35  36
ATOM     36  C   UNL A   1      42.658  24.759  28.209  1.00  0.00     0.031 A 
ATOM     37  C   UNL A   1      41.631  25.836  28.425  1.00  0.00     0.074 A 
ATOM     38  C   UNL A   1      43.964  25.014  28.423  1.00  0.00     0.049 A 
ATOM     39  N   UNL A   1      41.803  27.079  28.798  1.00  0.00    -0.248 NA
ATOM     40  C   UNL A   1      40.229  25.479  28.152  1.00  0.00     0.031 C 
ATOM     41  C   UNL A   1      45.064  24.073  28.202  1.00  0.00     0.029 A 
ATOM     42  N   UNL A   1      44.587  26.154  28.868  1.00  0.00    -0.354 N 
ATOM     43  C   UNL A   1      40.540  27.654  28.775  1.00  0.00     0.074 A 
ATOM     44  C   UNL A   1      39.619  26.644  28.302  1.00  0.00     0.031 C 
ATOM     45  C   UNL A   1      46.222  24.662  28.543  1.00  0.00     0.029 A 
ATOM     46  C   UNL A   1      45.952  26.031  28.967  1.00  0.00     0.049 A 
ATOM     47  H   UNL A   1      44.102  26.980  29.093  1.00  0.00     0.167 HD
ATOM     48  C   UNL A   1      40.172  28.906  29.136  1.00  0.00     0.031 A 
ATOM     49  C   UNL A   1      46.880  26.924  29.357  1.00  0.00     0.031 A 
ATOM     50  C   UNL A   1      41.080  29.900  29.636  1.00  0.00     0.049 A 
ATOM     51  C   UNL A   1      46.445  28.302  29.772  1.00  0.00     0.074 A 
ATOM     52  C   UNL A   1      40.797  31.176  30.093  1.00  0.00     0.029 A 
ATOM     53  N   UNL A   1      42.450  29.727  29.749  1.00  0.00    -0.354 N 
ATOM     54  N   UNL A   1      45.237  28.811  29.807  1.00  0.00    -0.248 NA
ATOM     55  C   UNL A   1      47.501  29.224  30.211  1.00  0.00     0.031 C 
ATOM     56  C   UNL A   1      42.004  31.787  30.449  1.00  0.00     0.029 A 
ATOM     57  C   UNL A   1      43.030  30.877  30.255  1.00  0.00     0.049 A 
ATOM     58  H   UNL A   1      42.939  28.908  29.506  1.00  0.00     0.167 HD
ATOM     59  C   UNL A   1      45.384  30.102  30.296  1.00  0.00     0.074 A 
ATOM     60  C   UNL A   1      46.798  30.293  30.557  1.00  0.00     0.031 C 
ATOM     61  C   UNL A   1      44.437  31.045  30.510  1.00  0.00     0.031 A 
BRANCH  48  62
ATOM     62  C   UNL A   1      38.718  29.261  29.003  1.00  0.00    -0.014 A 
ATOM     63  C   UNL A   1      38.197  29.749  27.794  1.00  0.00     0.009 A 
ATOM     64  C   UNL A   1      37.854  29.088  30.094  1.00  0.00     0.009 A 
ATOM     65  C   UNL A   1      36.849  30.096  27.693  1.00  0.00     0.001 A 
ATOM     66  C   UNL A   1      36.500  29.407  29.983  1.00  0.00     0.001 A 
ATOM     67  C   UNL A   1      36.001  29.921  28.786  1.00  0.00     0.000 A 
ENDBRANCH  48  62
BRANCH  49  68
ATOM     68  C   UNL A   1      48.315  26.539  29.401  1.00  0.00    -0.014 A 
ATOM     69  C   UNL A   1      49.159  26.827  28.317  1.00  0.00     0.009 A 
ATOM     70  C   UNL A   1      48.846  25.876  30.518  1.00  0.00     0.009 A 
ATOM     71  C   UNL A   1      50.499  26.436  28.340  1.00  0.00     0.001 A 
ATOM     72  C   UNL A   1      50.193  25.509  30.549  1.00  0.00     0.001 A 
ATOM     73  C   UNL A   1      51.016  25.781  29.456  1.00  0.00     0.000 A 
ENDBRANCH  49  68
BRANCH  61  74
ATOM     74  C   UNL A   1      44.891  32.355  31.085  1.00  0.00    -0.014 A 
ATOM     75  C   UNL A   1      45.252  33.427  30.253  1.00  0.00     0.009 A 
ATOM     76  C   UNL A   1      44.914  32.531  32.476  1.00  0.00     0.009 A 
ATOM     77  C   UNL A   1      45.658  34.641  30.808  1.00  0.00     0.001 A 
ATOM     78  C   UNL A   1      45.295  33.756  33.027  1.00  0.00     0.001 A 
ATOM     79  C   UNL A   1      45.674  34.807  32.194  1.00  0.00     0.000 A 
ENDBRANCH  61  74
ENDBRANCH  35  36
ENDBRANCH  27  30
ENDBRANCH  25  26
ENDBRANCH  24  25
ENDBRANCH  23  24
ENDBRANCH   1  23
TORSDOF 16
ENDMDL
MODEL 3
REMARK VINA RESULT:     -10.3      1.251      2.023
REMARK SMILES COc1cc(Br)c(OC)c(C(=O)NCCC(=O)NCCCCNC(=O)c2ccc(-c3c4nc(c(-c5ccccc5)c5ccc([nH]5)c(-c5ccccc5)c5nc(c(-c6ccccc6)c6ccc3[nH]6)C=C5)C=C4)cc2)c1
REMARK SMILES IDX 19 1 18 2 16 3 17 4 15 6 14 7 13 8 11 9 12 10 10 12 3 13
REMARK SMILES IDX 4 14 74 15 5 16 6 17 7 18 2 19 1 20 8 21 9 22 20 23 21 24
REMARK SMILES IDX 22 25 23 26 24 27 25 29 26 30 27 31 73 32 28 33 72 34 29 35
REMARK SMILES IDX 30 36 31 37 66 38 32 39 71 40 65 41 67 42 33 43 70 44 64 45
REMARK SMILES IDX 63 46 34 48 56 49 41 50 55 51 42 52 45 53 54 54 68 55 43 56
REMARK SMILES IDX 44 57 53 59 69 60 46 61 35 62 36 63 40 64 37 65 39 66 38 67
REMARK SMILES IDX 57 68 58 69 62 70 59 71 61 72 60 73 47 74 48 75 52 76 49 77
REMARK SMILES IDX 51 78 50 79
REMARK H PARENT 18 5 13 11 23 28 67 47 45 58
REMARK Flexibility Score: inf
ROOT
ATOM      1  C   UNL A   1      32.812  29.908  26.058  1.00  0.00     0.116 C 
ENDROOT
BRANCH   1   2
ATOM      2  N   UNL A   1      33.248  29.469  24.747  1.00  0.00    -0.356 N 
ATOM      3  C   UNL A   1      33.679  28.236  24.363  1.00  0.00     0.221 C 
ATOM      4  O   UNL A   1      34.085  28.087  23.210  1.00  0.00    -0.275 OA
ATOM      5  H   UNL A   1      33.229  30.154  24.041  1.00  0.00     0.163 HD
BRANCH   3   6
ATOM      6  C   UNL A   1      33.674  27.083  25.345  1.00  0.00     0.121 C 
BRANCH   6   7
ATOM      7  C   UNL A   1      32.693  25.998  24.925  1.00  0.00     0.126 C 
BRANCH   7   8
ATOM      8  N   UNL A   1      32.843  25.541  23.543  1.00  0.00    -0.351 N 
ATOM      9  C   UNL A   1      33.480  24.535  22.860  1.00  0.00     0.255 C 
ATOM     10  O   UNL A   1      33.461  24.644  21.632  1.00  0.00    -0.269 OA
ATOM     11  H   UNL A   1      32.343  26.123  22.925  1.00  0.00     0.163 HD
BRANCH   9  12
ATOM     12  C   UNL A   1      34.086  23.317  23.480  1.00  0.00     0.086 A 
ATOM     13  C   UNL A   1      35.968  22.270  24.596  1.00  0.00     0.121 A 
ATOM     14  C   UNL A   1      35.168  21.216  25.007  1.00  0.00     0.066 A 
ATOM     15  C   UNL A   1      35.419  23.342  23.903  1.00  0.00     0.064 A 
ATOM     16  C   UNL A   1      33.829  21.163  24.609  1.00  0.00     0.064 A 
ATOM     17  Br  UNL A   1      32.901  19.598  25.165  1.00  0.00    -0.047 Br
ATOM     18  C   UNL A   1      33.279  22.194  23.818  1.00  0.00     0.146 A 
BRANCH  13  19
ATOM     19  O   UNL A   1      37.301  22.338  24.893  1.00  0.00    -0.497 OA
ATOM     20  C   UNL A   1      37.615  23.534  25.609  1.00  0.00     0.278 C 
ENDBRANCH  13  19
BRANCH  18  21
ATOM     21  O   UNL A   1      32.051  22.091  23.208  1.00  0.00    -0.495 OA
ATOM     22  C   UNL A   1      31.966  21.230  22.073  1.00  0.00     0.278 C 
ENDBRANCH  18  21
ENDBRANCH   9  12
ENDBRANCH   7   8
ENDBRANCH   6   7
ENDBRANCH   3   6
ENDBRANCH   1   2
BRANCH   1  23
ATOM     23  C   UNL A   1      31.619  30.855  25.957  1.00  0.00     0.023 C 
BRANCH  23  24
ATOM     24  C   UNL A   1      31.502  31.881  27.078  1.00  0.00     0.023 C 
BRANCH  24  25
ATOM     25  C   UNL A   1      32.708  32.788  27.249  1.00  0.00     0.116 C 
BRANCH  25  26
ATOM     26  N   UNL A   1      32.367  34.156  27.608  1.00  0.00    -0.352 N 
ATOM     27  C   UNL A   1      32.974  34.978  28.530  1.00  0.00     0.251 C 
ATOM     28  H   UNL A   1      31.600  34.546  27.128  1.00  0.00     0.163 HD
ATOM     29  O   UNL A   1      32.525  36.085  28.781  1.00  0.00    -0.269 OA
BRANCH  27  30
ATOM     30  C   UNL A   1      34.159  34.473  29.255  1.00  0.00     0.039 A 
ATOM     31  C   UNL A   1      33.974  33.829  30.480  1.00  0.00     0.014 A 
ATOM     32  C   UNL A   1      35.429  34.567  28.684  1.00  0.00     0.014 A 
ATOM     33  C   UNL A   1      35.058  33.204  31.096  1.00  0.00     0.010 A 
ATOM     34  C   UNL A   1      36.486  33.866  29.251  1.00  0.00     0.010 A 
ATOM     35  C   UNL A   1      36.311  33.178  30.462  1.00  0.00    -0.014 A 
BRANCH  35  36
ATOM     36  C   UNL A   1      37.461  32.449  31.049  1.00  0.00     0.031 A 
ATOM     37  C   UNL A   1      38.066  32.924  32.341  1.00  0.00     0.074 A 
ATOM     38  C   UNL A   1      38.010  31.413  30.385  1.00  0.00     0.049 A 
ATOM     39  N   UNL A   1      39.124  32.481  32.971  1.00  0.00    -0.248 NA
ATOM     40  C   UNL A   1      37.415  34.073  32.993  1.00  0.00     0.031 C 
ATOM     41  C   UNL A   1      37.551  30.887  29.098  1.00  0.00     0.029 A 
ATOM     42  N   UNL A   1      39.085  30.620  30.702  1.00  0.00    -0.354 N 
ATOM     43  C   UNL A   1      39.279  33.313  34.072  1.00  0.00     0.074 A 
ATOM     44  C   UNL A   1      38.242  34.318  33.998  1.00  0.00     0.031 C 
ATOM     45  C   UNL A   1      38.319  29.840  28.751  1.00  0.00     0.029 A 
ATOM     46  C   UNL A   1      39.345  29.646  29.769  1.00  0.00     0.049 A 
ATOM     47  H   UNL A   1      39.619  30.740  31.520  1.00  0.00     0.167 HD
ATOM     48  C   UNL A   1      40.191  33.236  35.070  1.00  0.00     0.031 A 
ATOM     49  C   UNL A   1      40.304  28.703  29.739  1.00  0.00     0.031 A 
ATOM     50  C   UNL A   1      41.202  32.219  35.162  1.00  0.00     0.049 A 
ATOM     51  C   UNL A   1      41.294  28.625  30.869  1.00  0.00     0.074 A 
ATOM     52  C   UNL A   1      42.129  32.013  36.168  1.00  0.00     0.029 A 
ATOM     53  N   UNL A   1      41.413  31.233  34.212  1.00  0.00    -0.354 N 
ATOM     54  N   UNL A   1      41.387  29.380  31.938  1.00  0.00    -0.248 NA
ATOM     55  C   UNL A   1      42.302  27.559  30.793  1.00  0.00     0.031 C 
ATOM     56  C   UNL A   1      42.927  30.922  35.807  1.00  0.00     0.029 A 
ATOM     57  C   UNL A   1      42.466  30.424  34.599  1.00  0.00     0.049 A 
ATOM     58  H   UNL A   1      40.892  31.125  33.384  1.00  0.00     0.167 HD
ATOM     59  C   UNL A   1      42.445  28.864  32.673  1.00  0.00     0.074 A 
ATOM     60  C   UNL A   1      42.953  27.724  31.935  1.00  0.00     0.031 C 
ATOM     61  C   UNL A   1      42.953  29.294  33.853  1.00  0.00     0.031 A 
BRANCH  48  62
ATOM     62  C   UNL A   1      40.125  34.285  36.143  1.00  0.00    -0.014 A 
ATOM     63  C   UNL A   1      39.350  34.096  37.298  1.00  0.00     0.009 A 
ATOM     64  C   UNL A   1      40.860  35.472  36.005  1.00  0.00     0.009 A 
ATOM     65  C   UNL A   1      39.281  35.090  38.276  1.00  0.00     0.001 A 
ATOM     66  C   UNL A   1      40.813  36.453  36.997  1.00  0.00     0.001 A 
ATOM     67  C   UNL A   1      40.015  36.265  38.126  1.00  0.00     0.000 A 
ENDBRANCH  48  62
BRANCH  49  68
ATOM     68  C   UNL A   1      40.365  27.735  28.614  1.00  0.00    -0.014 A 
ATOM     69  C   UNL A   1      39.709  26.497  28.708  1.00  0.00     0.009 A 
ATOM     70  C   UNL A   1      41.082  28.036  27.446  1.00  0.00     0.009 A 
ATOM     71  C   UNL A   1      39.791  25.571  27.665  1.00  0.00     0.001 A 
ATOM     72  C   UNL A   1      41.141  27.118  26.395  1.00  0.00     0.001 A 
ATOM     73  C   UNL A   1      40.504  25.883  26.509  1.00  0.00     0.000 A 
ENDBRANCH  49  68
BRANCH  61  74
ATOM     74  C   UNL A   1      44.092  28.510  34.435  1.00  0.00    -0.014 A 
ATOM     75  C   UNL A   1      45.425  28.881  34.199  1.00  0.00     0.009 A 
ATOM     76  C   UNL A   1      43.825  27.413  35.268  1.00  0.00     0.009 A 
ATOM     77  C   UNL A   1      46.470  28.147  34.762  1.00  0.00     0.001 A 
ATOM     78  C   UNL A   1      44.872  26.697  35.851  1.00  0.00     0.001 A 
ATOM     79  C   UNL A   1      46.193  27.059  35.591  1.00  0.00     0.000 A 
ENDBRANCH  61  74
ENDBRANCH  35  36
ENDBRANCH  27  30
ENDBRANCH  25  26
ENDBRANCH  24  25
ENDBRANCH  23  24
ENDBRANCH   1  23
TORSDOF 16
ENDMDL
