MODEL 1
REMARK VINA RESULT:     -12.1      0.000      0.000
REMARK SMILES C/C(=N\[NH+]=C1\NC(=O)[C@H](CC(=O)NCCCCNC(=O)c2ccc(-c3c4nc(c(-c5ccccc5)c5ccc([nH]5)c(-c5ccccc5)c5nc(c(-c6ccccc6)c6ccc3[nH]6)C=C5)C=C4)cc2)S1)c1ccc([N+](=O)[O-])cc1
REMARK SMILES IDX 14 1 13 2 11 3 12 4 10 6 9 7 4 8 5 9 6 11 69 12 7 13 8 15
REMARK SMILES IDX 3 16 1 17 2 18 70 19 71 20 78 21 72 22 77 23 73 24 74 25
REMARK SMILES IDX 75 26 76 27 15 28 16 29 17 30 18 31 19 32 20 34 21 35 22 36
REMARK SMILES IDX 68 37 23 38 67 39 24 40 25 41 26 42 61 43 27 44 66 45 60 46
REMARK SMILES IDX 62 47 28 48 65 49 59 50 58 51 29 53 51 54 36 55 50 56 37 57
REMARK SMILES IDX 40 58 49 59 63 60 38 61 39 62 48 64 64 65 41 66 30 67 31 68
REMARK SMILES IDX 35 69 32 70 34 71 33 72 52 73 53 74 57 75 54 76 56 77 55 78
REMARK SMILES IDX 42 79 43 80 47 81 44 82 46 83 45 84
REMARK H PARENT 13 5 4 10 6 14 18 33 62 52 40 63
REMARK Flexibility Score: inf
ROOT
ATOM      1  C   UNL A   1      33.011  30.064  26.325  1.00  0.00     0.116 C 
ENDROOT
BRANCH   1   2
ATOM      2  N   UNL A   1      33.358  29.416  25.071  1.00  0.00    -0.356 N 
ATOM      3  C   UNL A   1      33.724  28.125  24.830  1.00  0.00     0.221 C 
ATOM      4  O   UNL A   1      34.059  27.792  23.696  1.00  0.00    -0.275 OA
ATOM      5  H   UNL A   1      33.325  29.997  24.277  1.00  0.00     0.163 HD
BRANCH   3   6
ATOM      6  C   UNL A   1      33.702  27.126  25.961  1.00  0.00     0.127 C 
BRANCH   6   7
ATOM      7  C   UNL A   1      32.453  26.260  25.944  1.00  0.00     0.183 C 
ATOM      8  N   UNL A   1      31.668  23.358  23.535  1.00  0.00    -0.142 N 
ATOM      9  C   UNL A   1      32.021  24.404  24.203  1.00  0.00     0.337 C 
ATOM     10  H   UNL A   1      31.219  23.419  22.660  1.00  0.00     0.343 HD
ATOM     11  N   UNL A   1      31.522  25.605  23.843  1.00  0.00    -0.202 N 
ATOM     12  S   UNL A   1      32.928  24.515  25.684  1.00  0.00    -0.020 SA
ATOM     13  C   UNL A   1      31.489  26.555  24.815  1.00  0.00     0.322 C 
ATOM     14  H   UNL A   1      31.202  25.782  22.930  1.00  0.00     0.316 HD
ATOM     15  O   UNL A   1      30.701  27.492  24.797  1.00  0.00    -0.246 OA
BRANCH   8  16
ATOM     16  N   UNL A   1      31.967  22.140  24.136  1.00  0.00    -0.090 NA
ATOM     17  C   UNL A   1      31.932  21.263  21.791  1.00  0.00     0.071 C 
ATOM     18  C   UNL A   1      32.128  21.147  23.300  1.00  0.00     0.088 C 
BRANCH  18  19
ATOM     19  C   UNL A   1      32.421  19.788  23.853  1.00  0.00    -0.000 A 
ATOM     20  C   UNL A   1      32.550  18.704  22.970  1.00  0.00     0.017 A 
ATOM     21  C   UNL A   1      32.588  19.578  25.228  1.00  0.00     0.017 A 
ATOM     22  C   UNL A   1      32.848  17.426  23.453  1.00  0.00     0.086 A 
ATOM     23  C   UNL A   1      32.882  18.304  25.720  1.00  0.00     0.086 A 
ATOM     24  C   UNL A   1      33.013  17.232  24.830  1.00  0.00     0.269 A 
BRANCH  24  25
ATOM     25  N   UNL A   1      33.325  15.896  25.350  1.00  0.00     0.062 N 
ATOM     26  O   UNL A   1      32.470  15.333  26.047  1.00  0.00    -0.258 OA
ATOM     27  O   UNL A   1      34.427  15.408  25.057  1.00  0.00    -0.258 OA
ENDBRANCH  24  25
ENDBRANCH  18  19
ENDBRANCH   8  16
ENDBRANCH   6   7
ENDBRANCH   3   6
ENDBRANCH   1   2
BRANCH   1  28
ATOM     28  C   UNL A   1      31.568  30.567  26.322  1.00  0.00     0.023 C 
BRANCH  28  29
ATOM     29  C   UNL A   1      31.423  32.073  26.510  1.00  0.00     0.023 C 
BRANCH  29  30
ATOM     30  C   UNL A   1      32.573  32.717  27.265  1.00  0.00     0.116 C 
BRANCH  30  31
ATOM     31  N   UNL A   1      32.302  34.104  27.616  1.00  0.00    -0.352 N 
ATOM     32  C   UNL A   1      32.932  34.906  28.537  1.00  0.00     0.251 C 
ATOM     33  H   UNL A   1      31.562  34.527  27.122  1.00  0.00     0.163 HD
ATOM     34  O   UNL A   1      32.466  35.993  28.833  1.00  0.00    -0.269 OA
BRANCH  32  35
ATOM     35  C   UNL A   1      34.166  34.418  29.186  1.00  0.00     0.039 A 
ATOM     36  C   UNL A   1      34.064  33.721  30.390  1.00  0.00     0.014 A 
ATOM     37  C   UNL A   1      35.413  34.618  28.585  1.00  0.00     0.014 A 
ATOM     38  C   UNL A   1      35.210  33.166  30.958  1.00  0.00     0.010 A 
ATOM     39  C   UNL A   1      36.535  33.981  29.099  1.00  0.00     0.010 A 
ATOM     40  C   UNL A   1      36.446  33.257  30.295  1.00  0.00    -0.014 A 
BRANCH  40  41
ATOM     41  C   UNL A   1      37.651  32.590  30.843  1.00  0.00     0.031 A 
ATOM     42  C   UNL A   1      38.278  33.083  32.118  1.00  0.00     0.074 A 
ATOM     43  C   UNL A   1      38.208  31.570  30.162  1.00  0.00     0.049 A 
ATOM     44  N   UNL A   1      39.322  32.617  32.756  1.00  0.00    -0.248 NA
ATOM     45  C   UNL A   1      37.673  34.269  32.746  1.00  0.00     0.031 C 
ATOM     46  C   UNL A   1      37.733  31.046  28.879  1.00  0.00     0.029 A 
ATOM     47  N   UNL A   1      39.291  30.784  30.461  1.00  0.00    -0.354 N 
ATOM     48  C   UNL A   1      39.503  33.458  33.846  1.00  0.00     0.074 A 
ATOM     49  C   UNL A   1      38.503  34.498  33.751  1.00  0.00     0.031 C 
ATOM     50  C   UNL A   1      38.489  29.994  28.526  1.00  0.00     0.029 A 
ATOM     51  C   UNL A   1      39.521  29.793  29.537  1.00  0.00     0.049 A 
ATOM     52  H   UNL A   1      39.850  30.916  31.260  1.00  0.00     0.167 HD
ATOM     53  C   UNL A   1      40.402  33.359  34.853  1.00  0.00     0.031 A 
ATOM     54  C   UNL A   1      40.453  28.823  29.514  1.00  0.00     0.031 A 
ATOM     55  C   UNL A   1      41.390  32.318  34.951  1.00  0.00     0.049 A 
ATOM     56  C   UNL A   1      41.430  28.726  30.651  1.00  0.00     0.074 A 
ATOM     57  C   UNL A   1      42.311  32.094  35.959  1.00  0.00     0.029 A 
ATOM     58  N   UNL A   1      41.586  31.327  34.001  1.00  0.00    -0.354 N 
ATOM     59  N   UNL A   1      41.535  29.479  31.719  1.00  0.00    -0.248 NA
ATOM     60  C   UNL A   1      42.405  27.629  30.587  1.00  0.00     0.031 C 
ATOM     61  C   UNL A   1      43.097  30.995  35.594  1.00  0.00     0.029 A 
ATOM     62  C   UNL A   1      42.626  30.500  34.388  1.00  0.00     0.049 A 
ATOM     63  H   UNL A   1      41.062  31.227  33.173  1.00  0.00     0.167 HD
ATOM     64  C   UNL A   1      42.572  28.935  32.465  1.00  0.00     0.074 A 
ATOM     65  C   UNL A   1      43.043  27.773  31.740  1.00  0.00     0.031 C 
ATOM     66  C   UNL A   1      43.089  29.357  33.645  1.00  0.00     0.031 A 
BRANCH  53  67
ATOM     67  C   UNL A   1      40.354  34.412  35.927  1.00  0.00    -0.014 A 
ATOM     68  C   UNL A   1      41.124  35.583  35.832  1.00  0.00     0.009 A 
ATOM     69  C   UNL A   1      39.511  34.243  37.036  1.00  0.00     0.009 A 
ATOM     70  C   UNL A   1      41.080  36.544  36.846  1.00  0.00     0.001 A 
ATOM     71  C   UNL A   1      39.446  35.220  38.032  1.00  0.00     0.001 A 
ATOM     72  C   UNL A   1      40.238  36.363  37.941  1.00  0.00     0.000 A 
ENDBRANCH  53  67
BRANCH  54  73
ATOM     73  C   UNL A   1      40.484  27.844  28.396  1.00  0.00    -0.014 A 
ATOM     74  C   UNL A   1      39.788  26.629  28.495  1.00  0.00     0.009 A 
ATOM     75  C   UNL A   1      41.211  28.116  27.227  1.00  0.00     0.009 A 
ATOM     76  C   UNL A   1      39.845  25.694  27.459  1.00  0.00     0.001 A 
ATOM     77  C   UNL A   1      41.240  27.192  26.180  1.00  0.00     0.001 A 
ATOM     78  C   UNL A   1      40.567  25.978  26.301  1.00  0.00     0.000 A 
ENDBRANCH  54  73
BRANCH  66  79
ATOM     79  C   UNL A   1      44.206  28.537  34.228  1.00  0.00    -0.014 A 
ATOM     80  C   UNL A   1      43.947  27.466  35.096  1.00  0.00     0.009 A 
ATOM     81  C   UNL A   1      45.535  28.840  33.896  1.00  0.00     0.009 A 
ATOM     82  C   UNL A   1      45.002  26.744  35.660  1.00  0.00     0.001 A 
ATOM     83  C   UNL A   1      46.585  28.095  34.434  1.00  0.00     0.001 A 
ATOM     84  C   UNL A   1      46.319  27.057  35.326  1.00  0.00     0.000 A 
ENDBRANCH  66  79
ENDBRANCH  40  41
ENDBRANCH  32  35
ENDBRANCH  30  31
ENDBRANCH  29  30
ENDBRANCH  28  29
ENDBRANCH   1  28
TORSDOF 15
ENDMDL
MODEL 2
REMARK VINA RESULT:     -11.8      5.815      8.852
REMARK SMILES C/C(=N\[NH+]=C1\NC(=O)[C@H](CC(=O)NCCCCNC(=O)c2ccc(-c3c4nc(c(-c5ccccc5)c5ccc([nH]5)c(-c5ccccc5)c5nc(c(-c6ccccc6)c6ccc3[nH]6)C=C5)C=C4)cc2)S1)c1ccc([N+](=O)[O-])cc1
REMARK SMILES IDX 14 1 13 2 11 3 12 4 10 6 9 7 4 8 5 9 6 11 69 12 7 13 8 15
REMARK SMILES IDX 3 16 1 17 2 18 70 19 71 20 78 21 72 22 77 23 73 24 74 25
REMARK SMILES IDX 75 26 76 27 15 28 16 29 17 30 18 31 19 32 20 34 21 35 22 36
REMARK SMILES IDX 68 37 23 38 67 39 24 40 25 41 26 42 61 43 27 44 66 45 60 46
REMARK SMILES IDX 62 47 28 48 65 49 59 50 58 51 29 53 51 54 36 55 50 56 37 57
REMARK SMILES IDX 40 58 49 59 63 60 38 61 39 62 48 64 64 65 41 66 30 67 31 68
REMARK SMILES IDX 35 69 32 70 34 71 33 72 52 73 53 74 57 75 54 76 56 77 55 78
REMARK SMILES IDX 42 79 43 80 47 81 44 82 46 83 45 84
REMARK H PARENT 13 5 4 10 6 14 18 33 62 52 40 63
REMARK Flexibility Score: inf
ROOT
ATOM      1  C   UNL A   1      34.429  35.395  32.955  1.00  0.00     0.116 C 
ENDROOT
BRANCH   1   2
ATOM      2  N   UNL A   1      34.831  35.067  34.313  1.00  0.00    -0.356 N 
ATOM      3  C   UNL A   1      35.480  33.964  34.786  1.00  0.00     0.221 C 
ATOM      4  O   UNL A   1      35.658  33.838  35.995  1.00  0.00    -0.275 OA
ATOM      5  H   UNL A   1      34.602  35.740  34.992  1.00  0.00     0.163 HD
BRANCH   3   6
ATOM      6  C   UNL A   1      35.972  32.921  33.813  1.00  0.00     0.127 C 
BRANCH   6   7
ATOM      7  C   UNL A   1      37.488  32.811  33.800  1.00  0.00     0.183 C 
ATOM      8  N   UNL A   1      39.735  31.330  36.557  1.00  0.00    -0.142 N 
ATOM      9  C   UNL A   1      38.873  31.877  35.768  1.00  0.00     0.337 C 
ATOM     10  H   UNL A   1      40.122  31.807  37.326  1.00  0.00     0.343 HD
ATOM     11  N   UNL A   1      38.698  33.213  35.820  1.00  0.00    -0.202 N 
ATOM     12  S   UNL A   1      37.984  31.176  34.446  1.00  0.00    -0.020 SA
ATOM     13  C   UNL A   1      38.205  33.798  34.697  1.00  0.00     0.322 C 
ATOM     14  H   UNL A   1      38.915  33.734  36.626  1.00  0.00     0.316 HD
ATOM     15  O   UNL A   1      38.402  34.975  34.422  1.00  0.00    -0.246 OA
BRANCH   8  16
ATOM     16  N   UNL A   1      40.081  30.020  36.243  1.00  0.00    -0.090 NA
ATOM     17  C   UNL A   1      42.345  30.992  35.800  1.00  0.00     0.071 C 
ATOM     18  C   UNL A   1      41.336  29.852  35.916  1.00  0.00     0.088 C 
BRANCH  18  19
ATOM     19  C   UNL A   1      41.798  28.482  35.530  1.00  0.00    -0.000 A 
ATOM     20  C   UNL A   1      42.167  28.236  34.199  1.00  0.00     0.017 A 
ATOM     21  C   UNL A   1      41.889  27.449  36.472  1.00  0.00     0.017 A 
ATOM     22  C   UNL A   1      42.627  26.973  33.811  1.00  0.00     0.086 A 
ATOM     23  C   UNL A   1      42.343  26.183  36.093  1.00  0.00     0.086 A 
ATOM     24  C   UNL A   1      42.713  25.950  34.763  1.00  0.00     0.269 A 
BRANCH  24  25
ATOM     25  N   UNL A   1      43.194  24.621  34.370  1.00  0.00     0.062 N 
ATOM     26  O   UNL A   1      44.130  24.562  33.561  1.00  0.00    -0.258 OA
ATOM     27  O   UNL A   1      42.634  23.635  34.874  1.00  0.00    -0.258 OA
ENDBRANCH  24  25
ENDBRANCH  18  19
ENDBRANCH   8  16
ENDBRANCH   6   7
ENDBRANCH   3   6
ENDBRANCH   1   2
BRANCH   1  28
ATOM     28  C   UNL A   1      33.458  36.574  32.922  1.00  0.00     0.023 C 
BRANCH  28  29
ATOM     29  C   UNL A   1      33.038  37.010  31.523  1.00  0.00     0.023 C 
BRANCH  29  30
ATOM     30  C   UNL A   1      33.788  36.307  30.405  1.00  0.00     0.116 C 
BRANCH  30  31
ATOM     31  N   UNL A   1      32.900  35.581  29.508  1.00  0.00    -0.352 N 
ATOM     32  C   UNL A   1      33.153  34.459  28.756  1.00  0.00     0.251 C 
ATOM     33  H   UNL A   1      31.988  35.945  29.431  1.00  0.00     0.163 HD
ATOM     34  O   UNL A   1      32.349  34.078  27.921  1.00  0.00    -0.269 OA
BRANCH  32  35
ATOM     35  C   UNL A   1      34.427  33.737  28.952  1.00  0.00     0.039 A 
ATOM     36  C   UNL A   1      35.466  33.946  28.046  1.00  0.00     0.014 A 
ATOM     37  C   UNL A   1      34.602  32.888  30.050  1.00  0.00     0.014 A 
ATOM     38  C   UNL A   1      36.706  33.353  28.279  1.00  0.00     0.010 A 
ATOM     39  C   UNL A   1      35.863  32.380  30.333  1.00  0.00     0.010 A 
ATOM     40  C   UNL A   1      36.925  32.600  29.445  1.00  0.00    -0.014 A 
BRANCH  40  41
ATOM     41  C   UNL A   1      38.265  32.043  29.749  1.00  0.00     0.031 A 
ATOM     42  C   UNL A   1      39.250  32.837  30.561  1.00  0.00     0.074 A 
ATOM     43  C   UNL A   1      38.607  30.840  29.250  1.00  0.00     0.049 A 
ATOM     44  N   UNL A   1      40.459  32.507  30.939  1.00  0.00    -0.248 NA
ATOM     45  C   UNL A   1      38.839  34.187  30.980  1.00  0.00     0.031 C 
ATOM     46  C   UNL A   1      37.763  30.005  28.392  1.00  0.00     0.029 A 
ATOM     47  N   UNL A   1      39.756  30.105  29.402  1.00  0.00    -0.354 N 
ATOM     48  C   UNL A   1      40.952  33.610  31.626  1.00  0.00     0.074 A 
ATOM     49  C   UNL A   1      39.940  34.640  31.559  1.00  0.00     0.031 C 
ATOM     50  C   UNL A   1      38.402  28.852  28.135  1.00  0.00     0.029 A 
ATOM     51  C   UNL A   1      39.710  28.882  28.778  1.00  0.00     0.049 A 
ATOM     52  H   UNL A   1      40.537  30.424  29.909  1.00  0.00     0.167 HD
ATOM     53  C   UNL A   1      42.131  33.744  32.278  1.00  0.00     0.031 A 
ATOM     54  C   UNL A   1      40.619  27.890  28.740  1.00  0.00     0.031 A 
ATOM     55  C   UNL A   1      43.133  32.715  32.352  1.00  0.00     0.049 A 
ATOM     56  C   UNL A   1      41.912  28.058  29.485  1.00  0.00     0.074 A 
ATOM     57  C   UNL A   1      44.336  32.729  33.035  1.00  0.00     0.029 A 
ATOM     58  N   UNL A   1      43.047  31.486  31.716  1.00  0.00    -0.354 N 
ATOM     59  N   UNL A   1      42.329  29.075  30.200  1.00  0.00    -0.248 NA
ATOM     60  C   UNL A   1      42.852  26.931  29.433  1.00  0.00     0.031 C 
ATOM     61  C   UNL A   1      45.001  31.526  32.771  1.00  0.00     0.029 A 
ATOM     62  C   UNL A   1      44.184  30.740  31.973  1.00  0.00     0.049 A 
ATOM     63  H   UNL A   1      42.288  31.188  31.163  1.00  0.00     0.167 HD
ATOM     64  C   UNL A   1      43.569  28.702  30.702  1.00  0.00     0.074 A 
ATOM     65  C   UNL A   1      43.821  27.355  30.230  1.00  0.00     0.031 C 
ATOM     66  C   UNL A   1      44.423  29.407  31.482  1.00  0.00     0.031 A 
BRANCH  53  67
ATOM     67  C   UNL A   1      42.394  35.059  32.962  1.00  0.00    -0.014 A 
ATOM     68  C   UNL A   1      41.864  35.336  34.233  1.00  0.00     0.009 A 
ATOM     69  C   UNL A   1      43.202  36.023  32.340  1.00  0.00     0.009 A 
ATOM     70  C   UNL A   1      42.105  36.567  34.848  1.00  0.00     0.001 A 
ATOM     71  C   UNL A   1      43.466  37.240  32.970  1.00  0.00     0.001 A 
ATOM     72  C   UNL A   1      42.909  37.515  34.218  1.00  0.00     0.000 A 
ENDBRANCH  53  67
BRANCH  54  73
ATOM     73  C   UNL A   1      40.322  26.635  28.001  1.00  0.00    -0.014 A 
ATOM     74  C   UNL A   1      40.815  26.442  26.701  1.00  0.00     0.009 A 
ATOM     75  C   UNL A   1      39.544  25.626  28.589  1.00  0.00     0.009 A 
ATOM     76  C   UNL A   1      40.508  25.276  25.994  1.00  0.00     0.001 A 
ATOM     77  C   UNL A   1      39.265  24.449  27.890  1.00  0.00     0.001 A 
ATOM     78  C   UNL A   1      39.738  24.280  26.590  1.00  0.00     0.000 A 
ENDBRANCH  54  73
BRANCH  66  79
ATOM     79  C   UNL A   1      45.695  28.719  31.890  1.00  0.00    -0.014 A 
ATOM     80  C   UNL A   1      46.830  28.736  31.065  1.00  0.00     0.009 A 
ATOM     81  C   UNL A   1      45.758  28.052  33.123  1.00  0.00     0.009 A 
ATOM     82  C   UNL A   1      47.989  28.054  31.445  1.00  0.00     0.001 A 
ATOM     83  C   UNL A   1      46.928  27.400  33.515  1.00  0.00     0.001 A 
ATOM     84  C   UNL A   1      48.037  27.390  32.671  1.00  0.00     0.000 A 
ENDBRANCH  66  79
ENDBRANCH  40  41
ENDBRANCH  32  35
ENDBRANCH  30  31
ENDBRANCH  29  30
ENDBRANCH  28  29
ENDBRANCH   1  28
TORSDOF 15
ENDMDL
MODEL 3
REMARK VINA RESULT:     -11.6      0.984      5.939
REMARK SMILES C/C(=N\[NH+]=C1\NC(=O)[C@H](CC(=O)NCCCCNC(=O)c2ccc(-c3c4nc(c(-c5ccccc5)c5ccc([nH]5)c(-c5ccccc5)c5nc(c(-c6ccccc6)c6ccc3[nH]6)C=C5)C=C4)cc2)S1)c1ccc([N+](=O)[O-])cc1
REMARK SMILES IDX 14 1 13 2 11 3 12 4 10 6 9 7 4 8 5 9 6 11 69 12 7 13 8 15
REMARK SMILES IDX 3 16 1 17 2 18 70 19 71 20 78 21 72 22 77 23 73 24 74 25
REMARK SMILES IDX 75 26 76 27 15 28 16 29 17 30 18 31 19 32 20 34 21 35 22 36
REMARK SMILES IDX 68 37 23 38 67 39 24 40 25 41 26 42 61 43 27 44 66 45 60 46
REMARK SMILES IDX 62 47 28 48 65 49 59 50 58 51 29 53 51 54 36 55 50 56 37 57
REMARK SMILES IDX 40 58 49 59 63 60 38 61 39 62 48 64 64 65 41 66 30 67 31 68
REMARK SMILES IDX 35 69 32 70 34 71 33 72 52 73 53 74 57 75 54 76 56 77 55 78
REMARK SMILES IDX 42 79 43 80 47 81 44 82 46 83 45 84
REMARK H PARENT 13 5 4 10 6 14 18 33 62 52 40 63
REMARK Flexibility Score: inf
ROOT
ATOM      1  C   UNL A   1      32.645  29.958  26.123  1.00  0.00     0.116 C 
ENDROOT
BRANCH   1   2
ATOM      2  N   UNL A   1      33.145  29.278  24.941  1.00  0.00    -0.356 N 
ATOM      3  C   UNL A   1      33.602  28.000  24.798  1.00  0.00     0.221 C 
ATOM      4  O   UNL A   1      34.063  27.639  23.718  1.00  0.00    -0.275 OA
ATOM      5  H   UNL A   1      33.158  29.820  24.120  1.00  0.00     0.163 HD
BRANCH   3   6
ATOM      6  C   UNL A   1      33.525  27.053  25.969  1.00  0.00     0.127 C 
BRANCH   6   7
ATOM      7  C   UNL A   1      32.327  26.121  25.882  1.00  0.00     0.183 C 
ATOM      8  N   UNL A   1      31.789  23.255  23.364  1.00  0.00    -0.142 N 
ATOM      9  C   UNL A   1      32.060  24.298  24.074  1.00  0.00     0.337 C 
ATOM     10  H   UNL A   1      31.368  23.318  22.476  1.00  0.00     0.343 HD
ATOM     11  N   UNL A   1      31.509  25.480  23.731  1.00  0.00    -0.202 N 
ATOM     12  S   UNL A   1      32.906  24.413  25.590  1.00  0.00    -0.020 SA
ATOM     13  C   UNL A   1      31.389  26.398  24.727  1.00  0.00     0.322 C 
ATOM     14  H   UNL A   1      31.211  25.668  22.812  1.00  0.00     0.316 HD
ATOM     15  O   UNL A   1      30.551  27.290  24.707  1.00  0.00    -0.246 OA
BRANCH   8  16
ATOM     16  N   UNL A   1      32.133  22.037  23.941  1.00  0.00    -0.090 NA
ATOM     17  C   UNL A   1      31.790  21.135  21.631  1.00  0.00     0.071 C 
ATOM     18  C   UNL A   1      32.168  21.031  23.106  1.00  0.00     0.088 C 
BRANCH  18  19
ATOM     19  C   UNL A   1      32.497  19.672  23.638  1.00  0.00    -0.000 A 
ATOM     20  C   UNL A   1      32.709  19.510  25.016  1.00  0.00     0.017 A 
ATOM     21  C   UNL A   1      32.578  18.556  22.794  1.00  0.00     0.017 A 
ATOM     22  C   UNL A   1      32.993  18.249  25.548  1.00  0.00     0.086 A 
ATOM     23  C   UNL A   1      32.866  17.293  23.317  1.00  0.00     0.086 A 
ATOM     24  C   UNL A   1      33.070  17.143  24.693  1.00  0.00     0.269 A 
BRANCH  24  25
ATOM     25  N   UNL A   1      33.368  15.814  25.238  1.00  0.00     0.062 N 
ATOM     26  O   UNL A   1      32.414  15.058  25.472  1.00  0.00    -0.258 OA
ATOM     27  O   UNL A   1      34.559  15.524  25.430  1.00  0.00    -0.258 OA
ENDBRANCH  24  25
ENDBRANCH  18  19
ENDBRANCH   8  16
ENDBRANCH   6   7
ENDBRANCH   3   6
ENDBRANCH   1   2
BRANCH   1  28
ATOM     28  C   UNL A   1      31.345  30.709  25.838  1.00  0.00     0.023 C 
BRANCH  28  29
ATOM     29  C   UNL A   1      31.234  32.065  26.523  1.00  0.00     0.023 C 
BRANCH  29  30
ATOM     30  C   UNL A   1      32.569  32.672  26.918  1.00  0.00     0.116 C 
BRANCH  30  31
ATOM     31  N   UNL A   1      32.420  33.920  27.652  1.00  0.00    -0.352 N 
ATOM     32  C   UNL A   1      33.177  34.416  28.686  1.00  0.00     0.251 C 
ATOM     33  H   UNL A   1      31.669  34.490  27.366  1.00  0.00     0.163 HD
ATOM     34  O   UNL A   1      32.810  35.399  29.307  1.00  0.00    -0.269 OA
BRANCH  32  35
ATOM     35  C   UNL A   1      34.429  33.722  29.054  1.00  0.00     0.039 A 
ATOM     36  C   UNL A   1      35.619  34.108  28.439  1.00  0.00     0.014 A 
ATOM     37  C   UNL A   1      34.426  32.719  30.028  1.00  0.00     0.014 A 
ATOM     38  C   UNL A   1      36.820  33.534  28.853  1.00  0.00     0.010 A 
ATOM     39  C   UNL A   1      35.630  32.221  30.507  1.00  0.00     0.010 A 
ATOM     40  C   UNL A   1      36.838  32.616  29.918  1.00  0.00    -0.014 A 
BRANCH  40  41
ATOM     41  C   UNL A   1      38.119  32.070  30.426  1.00  0.00     0.031 A 
ATOM     42  C   UNL A   1      38.685  30.802  29.850  1.00  0.00     0.074 A 
ATOM     43  C   UNL A   1      38.745  32.694  31.442  1.00  0.00     0.049 A 
ATOM     44  N   UNL A   1      39.798  30.184  30.157  1.00  0.00    -0.248 NA
ATOM     45  C   UNL A   1      37.888  30.122  28.817  1.00  0.00     0.031 C 
ATOM     46  C   UNL A   1      38.260  33.894  32.130  1.00  0.00     0.029 A 
ATOM     47  N   UNL A   1      39.933  32.411  32.067  1.00  0.00    -0.354 N 
ATOM     48  C   UNL A   1      39.825  29.043  29.365  1.00  0.00     0.074 A 
ATOM     49  C   UNL A   1      38.591  29.019  28.612  1.00  0.00     0.031 C 
ATOM     50  C   UNL A   1      39.166  34.271  33.047  1.00  0.00     0.029 A 
ATOM     51  C   UNL A   1      40.273  33.324  33.035  1.00  0.00     0.049 A 
ATOM     52  H   UNL A   1      40.487  31.630  31.843  1.00  0.00     0.167 HD
ATOM     53  C   UNL A   1      40.801  28.111  29.253  1.00  0.00     0.031 A 
ATOM     54  C   UNL A   1      41.365  33.395  33.819  1.00  0.00     0.031 A 
ATOM     55  C   UNL A   1      42.032  28.142  29.996  1.00  0.00     0.049 A 
ATOM     56  C   UNL A   1      42.441  32.358  33.664  1.00  0.00     0.074 A 
ATOM     57  C   UNL A   1      43.111  27.279  29.916  1.00  0.00     0.029 A 
ATOM     58  N   UNL A   1      42.345  29.087  30.961  1.00  0.00    -0.354 N 
ATOM     59  N   UNL A   1      42.490  31.331  32.851  1.00  0.00    -0.248 NA
ATOM     60  C   UNL A   1      43.623  32.504  34.524  1.00  0.00     0.031 C 
ATOM     61  C   UNL A   1      44.057  27.674  30.868  1.00  0.00     0.029 A 
ATOM     62  C   UNL A   1      43.593  28.818  31.499  1.00  0.00     0.049 A 
ATOM     63  H   UNL A   1      41.766  29.839  31.224  1.00  0.00     0.167 HD
ATOM     64  C   UNL A   1      43.715  30.721  33.084  1.00  0.00     0.074 A 
ATOM     65  C   UNL A   1      44.388  31.511  34.096  1.00  0.00     0.031 C 
ATOM     66  C   UNL A   1      44.239  29.608  32.515  1.00  0.00     0.031 A 
BRANCH  53  67
ATOM     67  C   UNL A   1      40.568  26.980  28.289  1.00  0.00    -0.014 A 
ATOM     68  C   UNL A   1      39.867  25.826  28.677  1.00  0.00     0.009 A 
ATOM     69  C   UNL A   1      41.032  27.078  26.968  1.00  0.00     0.009 A 
ATOM     70  C   UNL A   1      39.673  24.777  27.775  1.00  0.00     0.001 A 
ATOM     71  C   UNL A   1      40.809  26.041  26.060  1.00  0.00     0.001 A 
ATOM     72  C   UNL A   1      40.139  24.889  26.467  1.00  0.00     0.000 A 
ENDBRANCH  53  67
BRANCH  54  73
ATOM     73  C   UNL A   1      41.514  34.508  34.793  1.00  0.00    -0.014 A 
ATOM     74  C   UNL A   1      41.044  34.369  36.108  1.00  0.00     0.009 A 
ATOM     75  C   UNL A   1      42.122  35.714  34.413  1.00  0.00     0.009 A 
ATOM     76  C   UNL A   1      41.153  35.428  37.014  1.00  0.00     0.001 A 
ATOM     77  C   UNL A   1      42.258  36.759  35.330  1.00  0.00     0.001 A 
ATOM     78  C   UNL A   1      41.763  36.619  36.626  1.00  0.00     0.000 A 
ENDBRANCH  54  73
BRANCH  66  79
ATOM     79  C   UNL A   1      45.615  29.201  32.960  1.00  0.00    -0.014 A 
ATOM     80  C   UNL A   1      46.763  29.687  32.316  1.00  0.00     0.009 A 
ATOM     81  C   UNL A   1      45.762  28.324  34.045  1.00  0.00     0.009 A 
ATOM     82  C   UNL A   1      48.032  29.263  32.720  1.00  0.00     0.001 A 
ATOM     83  C   UNL A   1      47.032  27.928  34.468  1.00  0.00     0.001 A 
ATOM     84  C   UNL A   1      48.164  28.387  33.797  1.00  0.00     0.000 A 
ENDBRANCH  66  79
ENDBRANCH  40  41
ENDBRANCH  32  35
ENDBRANCH  30  31
ENDBRANCH  29  30
ENDBRANCH  28  29
ENDBRANCH   1  28
TORSDOF 15
ENDMDL
