MODEL 1
REMARK VINA RESULT:      -9.5      0.000      0.000
REMARK SMILES O=C(C[C@@H]1C(=O)NC(=S)N1c1ccccc1)NCCCCNC(=O)c1ccc(-c2c3nc(c(-c4ccccc4)c4ccc([nH]4)c(-c4ccccc4)c4nc(c(-c5ccccc5)c5ccc2[nH]5)C=C4)C=C3)cc1
REMARK SMILES IDX 19 1 18 2 17 3 1 4 2 5 3 7 4 8 5 9 10 10 6 11 7 12 8 13 9 15
REMARK SMILES IDX 11 16 12 17 16 18 13 19 15 20 14 21 20 22 21 23 22 24 23 25
REMARK SMILES IDX 24 27 25 28 26 29 72 30 27 31 71 32 28 33 29 34 30 35 65 36
REMARK SMILES IDX 31 37 70 38 64 39 66 40 32 41 69 42 63 43 62 44 33 46 55 47
REMARK SMILES IDX 40 48 54 49 41 50 44 51 53 52 67 53 42 54 43 55 52 57 68 58
REMARK SMILES IDX 45 59 34 60 35 61 39 62 36 63 38 64 37 65 56 66 57 67 61 68
REMARK SMILES IDX 58 69 60 70 59 71 46 72 47 73 51 74 48 75 50 76 49 77
REMARK H PARENT 17 6 7 14 22 26 66 45 44 56
REMARK Flexibility Score: inf
ROOT
ATOM      1  C   UNL A   1      46.024  20.876  24.853  1.00  0.00     0.023 C 
ENDROOT
BRANCH   1   2
ATOM      2  C   UNL A   1      45.706  22.273  24.334  1.00  0.00     0.116 C 
BRANCH   2   3
ATOM      3  N   UNL A   1      46.030  23.311  25.292  1.00  0.00    -0.356 N 
ATOM      4  O   UNL A   1      47.394  24.467  23.878  1.00  0.00    -0.275 OA
ATOM      5  C   UNL A   1      46.777  24.402  24.939  1.00  0.00     0.222 C 
ATOM      6  H   UNL A   1      45.705  23.230  26.218  1.00  0.00     0.163 HD
BRANCH   5   7
ATOM      7  C   UNL A   1      46.838  25.548  25.924  1.00  0.00     0.135 C 
BRANCH   7   8
ATOM      8  C   UNL A   1      46.800  26.993  25.417  1.00  0.00     0.188 C 
ATOM      9  C   UNL A   1      48.221  27.558  25.497  1.00  0.00     0.249 C 
ATOM     10  N   UNL A   1      46.055  28.039  26.122  1.00  0.00    -0.306 N 
ATOM     11  O   UNL A   1      49.228  27.064  25.026  1.00  0.00    -0.272 OA
ATOM     12  N   UNL A   1      48.199  28.699  26.233  1.00  0.00    -0.301 N 
ATOM     13  C   UNL A   1      46.938  29.011  26.636  1.00  0.00     0.180 C 
ATOM     14  H   UNL A   1      48.997  29.232  26.450  1.00  0.00     0.172 HD
ATOM     15  S   UNL A   1      46.689  30.288  27.669  1.00  0.00    -0.040 S 
BRANCH  10  16
ATOM     16  C   UNL A   1      44.632  28.134  26.061  1.00  0.00     0.044 A 
ATOM     17  C   UNL A   1      43.874  27.160  25.395  1.00  0.00     0.026 A 
ATOM     18  C   UNL A   1      43.935  29.189  26.660  1.00  0.00     0.026 A 
ATOM     19  C   UNL A   1      42.486  27.276  25.263  1.00  0.00     0.002 A 
ATOM     20  C   UNL A   1      42.551  29.329  26.500  1.00  0.00     0.002 A 
ATOM     21  C   UNL A   1      41.827  28.377  25.793  1.00  0.00     0.000 A 
ENDBRANCH  10  16
ENDBRANCH   7   8
ENDBRANCH   5   7
ENDBRANCH   2   3
ENDBRANCH   1   2
BRANCH   1  22
ATOM     22  C   UNL A   1      44.966  19.819  24.528  1.00  0.00     0.023 C 
BRANCH  22  23
ATOM     23  C   UNL A   1      44.345  19.123  25.735  1.00  0.00     0.116 C 
BRANCH  23  24
ATOM     24  N   UNL A   1      42.948  18.775  25.535  1.00  0.00    -0.352 N 
ATOM     25  C   UNL A   1      41.816  19.474  25.878  1.00  0.00     0.251 C 
ATOM     26  H   UNL A   1      42.790  17.912  25.088  1.00  0.00     0.163 HD
ATOM     27  O   UNL A   1      40.711  18.956  25.752  1.00  0.00    -0.269 OA
BRANCH  25  28
ATOM     28  C   UNL A   1      41.925  20.840  26.439  1.00  0.00     0.039 A 
ATOM     29  C   UNL A   1      41.691  21.024  27.805  1.00  0.00     0.014 A 
ATOM     30  C   UNL A   1      42.252  21.933  25.632  1.00  0.00     0.014 A 
ATOM     31  C   UNL A   1      41.856  22.290  28.374  1.00  0.00     0.010 A 
ATOM     32  C   UNL A   1      42.487  23.178  26.213  1.00  0.00     0.010 A 
ATOM     33  C   UNL A   1      42.295  23.369  27.591  1.00  0.00    -0.014 A 
BRANCH  33  34
ATOM     34  C   UNL A   1      42.570  24.698  28.198  1.00  0.00     0.031 A 
ATOM     35  C   UNL A   1      43.939  25.026  28.729  1.00  0.00     0.074 A 
ATOM     36  C   UNL A   1      41.571  25.593  28.329  1.00  0.00     0.049 A 
ATOM     37  N   UNL A   1      44.352  26.110  29.337  1.00  0.00    -0.248 NA
ATOM     38  C   UNL A   1      44.976  23.992  28.577  1.00  0.00     0.031 C 
ATOM     39  C   UNL A   1      40.188  25.391  27.886  1.00  0.00     0.029 A 
ATOM     40  N   UNL A   1      41.562  26.852  28.875  1.00  0.00    -0.354 N 
ATOM     41  C   UNL A   1      45.684  25.883  29.655  1.00  0.00     0.074 A 
ATOM     42  C   UNL A   1      45.999  24.541  29.215  1.00  0.00     0.031 C 
ATOM     43  C   UNL A   1      39.477  26.499  28.152  1.00  0.00     0.029 A 
ATOM     44  C   UNL A   1      40.336  27.470  28.822  1.00  0.00     0.049 A 
ATOM     45  H   UNL A   1      42.361  27.274  29.269  1.00  0.00     0.167 HD
ATOM     46  C   UNL A   1      46.572  26.720  30.243  1.00  0.00     0.031 A 
ATOM     47  C   UNL A   1      39.943  28.679  29.266  1.00  0.00     0.031 A 
ATOM     48  C   UNL A   1      46.266  28.058  30.674  1.00  0.00     0.049 A 
ATOM     49  C   UNL A   1      40.942  29.577  29.940  1.00  0.00     0.074 A 
ATOM     50  C   UNL A   1      47.115  29.001  31.226  1.00  0.00     0.029 A 
ATOM     51  N   UNL A   1      45.011  28.642  30.605  1.00  0.00    -0.354 N 
ATOM     52  N   UNL A   1      42.216  29.372  30.169  1.00  0.00    -0.248 NA
ATOM     53  C   UNL A   1      40.448  30.880  30.408  1.00  0.00     0.031 C 
ATOM     54  C   UNL A   1      46.361  30.134  31.546  1.00  0.00     0.029 A 
ATOM     55  C   UNL A   1      45.055  29.920  31.134  1.00  0.00     0.049 A 
ATOM     56  H   UNL A   1      44.206  28.211  30.236  1.00  0.00     0.167 HD
ATOM     57  C   UNL A   1      42.682  30.531  30.779  1.00  0.00     0.074 A 
ATOM     58  C   UNL A   1      41.558  31.439  30.870  1.00  0.00     0.031 C 
ATOM     59  C   UNL A   1      43.931  30.816  31.220  1.00  0.00     0.031 A 
BRANCH  46  60
ATOM     60  C   UNL A   1      47.966  26.203  30.470  1.00  0.00    -0.014 A 
ATOM     61  C   UNL A   1      48.370  25.715  31.724  1.00  0.00     0.009 A 
ATOM     62  C   UNL A   1      48.879  26.166  29.404  1.00  0.00     0.009 A 
ATOM     63  C   UNL A   1      49.669  25.237  31.914  1.00  0.00     0.001 A 
ATOM     64  C   UNL A   1      50.167  25.660  29.590  1.00  0.00     0.001 A 
ATOM     65  C   UNL A   1      50.564  25.206  30.846  1.00  0.00     0.000 A 
ENDBRANCH  46  60
BRANCH  47  66
ATOM     66  C   UNL A   1      38.536  29.121  29.079  1.00  0.00    -0.014 A 
ATOM     67  C   UNL A   1      38.122  29.680  27.859  1.00  0.00     0.009 A 
ATOM     68  C   UNL A   1      37.603  29.003  30.121  1.00  0.00     0.009 A 
ATOM     69  C   UNL A   1      36.812  30.135  27.696  1.00  0.00     0.001 A 
ATOM     70  C   UNL A   1      36.285  29.432  29.944  1.00  0.00     0.001 A 
ATOM     71  C   UNL A   1      35.894  30.007  28.737  1.00  0.00     0.000 A 
ENDBRANCH  47  66
BRANCH  59  72
ATOM     72  C   UNL A   1      44.159  32.181  31.808  1.00  0.00    -0.014 A 
ATOM     73  C   UNL A   1      44.481  33.282  30.999  1.00  0.00     0.009 A 
ATOM     74  C   UNL A   1      44.011  32.373  33.191  1.00  0.00     0.009 A 
ATOM     75  C   UNL A   1      44.683  34.541  31.570  1.00  0.00     0.001 A 
ATOM     76  C   UNL A   1      44.183  33.639  33.755  1.00  0.00     0.001 A 
ATOM     77  C   UNL A   1      44.528  34.719  32.945  1.00  0.00     0.000 A 
ENDBRANCH  59  72
ENDBRANCH  33  34
ENDBRANCH  25  28
ENDBRANCH  23  24
ENDBRANCH  22  23
ENDBRANCH   1  22
TORSDOF 13
ENDMDL
MODEL 2
REMARK VINA RESULT:      -9.2      4.133      6.983
REMARK SMILES O=C(C[C@@H]1C(=O)NC(=S)N1c1ccccc1)NCCCCNC(=O)c1ccc(-c2c3nc(c(-c4ccccc4)c4ccc([nH]4)c(-c4ccccc4)c4nc(c(-c5ccccc5)c5ccc2[nH]5)C=C4)C=C3)cc1
REMARK SMILES IDX 19 1 18 2 17 3 1 4 2 5 3 7 4 8 5 9 10 10 6 11 7 12 8 13 9 15
REMARK SMILES IDX 11 16 12 17 16 18 13 19 15 20 14 21 20 22 21 23 22 24 23 25
REMARK SMILES IDX 24 27 25 28 26 29 72 30 27 31 71 32 28 33 29 34 30 35 65 36
REMARK SMILES IDX 31 37 70 38 64 39 66 40 32 41 69 42 63 43 62 44 33 46 55 47
REMARK SMILES IDX 40 48 54 49 41 50 44 51 53 52 67 53 42 54 43 55 52 57 68 58
REMARK SMILES IDX 45 59 34 60 35 61 39 62 36 63 38 64 37 65 56 66 57 67 61 68
REMARK SMILES IDX 58 69 60 70 59 71 46 72 47 73 51 74 48 75 50 76 49 77
REMARK H PARENT 17 6 7 14 22 26 66 45 44 56
REMARK Flexibility Score: inf
ROOT
ATOM      1  C   UNL A   1      36.665  20.627  24.873  1.00  0.00     0.023 C 
ENDROOT
BRANCH   1   2
ATOM      2  C   UNL A   1      36.810  21.898  25.702  1.00  0.00     0.116 C 
BRANCH   2   3
ATOM      3  N   UNL A   1      35.643  22.167  26.518  1.00  0.00    -0.356 N 
ATOM      4  O   UNL A   1      35.209  24.198  25.580  1.00  0.00    -0.275 OA
ATOM      5  C   UNL A   1      34.862  23.270  26.307  1.00  0.00     0.222 C 
ATOM      6  H   UNL A   1      35.407  21.541  27.240  1.00  0.00     0.163 HD
BRANCH   5   7
ATOM      7  C   UNL A   1      33.531  23.325  27.025  1.00  0.00     0.135 C 
BRANCH   7   8
ATOM      8  C   UNL A   1      32.297  23.876  26.305  1.00  0.00     0.188 C 
ATOM      9  C   UNL A   1      31.863  22.846  25.258  1.00  0.00     0.249 C 
ATOM     10  N   UNL A   1      32.361  25.085  25.480  1.00  0.00    -0.306 N 
ATOM     11  O   UNL A   1      31.640  21.665  25.448  1.00  0.00    -0.272 OA
ATOM     12  N   UNL A   1      31.808  23.450  24.043  1.00  0.00    -0.301 N 
ATOM     13  C   UNL A   1      32.111  24.773  24.128  1.00  0.00     0.180 C 
ATOM     14  H   UNL A   1      31.579  22.987  23.206  1.00  0.00     0.172 HD
ATOM     15  S   UNL A   1      32.247  25.684  22.745  1.00  0.00    -0.040 S 
BRANCH  10  16
ATOM     16  C   UNL A   1      32.432  26.392  26.049  1.00  0.00     0.044 A 
ATOM     17  C   UNL A   1      33.606  27.154  25.955  1.00  0.00     0.026 A 
ATOM     18  C   UNL A   1      31.345  26.970  26.715  1.00  0.00     0.026 A 
ATOM     19  C   UNL A   1      33.718  28.406  26.570  1.00  0.00     0.002 A 
ATOM     20  C   UNL A   1      31.463  28.205  27.362  1.00  0.00     0.002 A 
ATOM     21  C   UNL A   1      32.653  28.921  27.298  1.00  0.00     0.000 A 
ENDBRANCH  10  16
ENDBRANCH   7   8
ENDBRANCH   5   7
ENDBRANCH   2   3
ENDBRANCH   1   2
BRANCH   1  22
ATOM     22  C   UNL A   1      37.847  19.660  24.978  1.00  0.00     0.023 C 
BRANCH  22  23
ATOM     23  C   UNL A   1      39.063  20.193  25.728  1.00  0.00     0.116 C 
BRANCH  23  24
ATOM     24  N   UNL A   1      40.166  19.248  25.769  1.00  0.00    -0.352 N 
ATOM     25  C   UNL A   1      41.483  19.455  26.102  1.00  0.00     0.251 C 
ATOM     26  H   UNL A   1      39.936  18.323  25.521  1.00  0.00     0.163 HD
ATOM     27  O   UNL A   1      42.306  18.559  25.946  1.00  0.00    -0.269 OA
BRANCH  25  28
ATOM     28  C   UNL A   1      41.923  20.773  26.614  1.00  0.00     0.039 A 
ATOM     29  C   UNL A   1      42.388  21.725  25.701  1.00  0.00     0.014 A 
ATOM     30  C   UNL A   1      41.883  21.073  27.978  1.00  0.00     0.014 A 
ATOM     31  C   UNL A   1      42.743  23.000  26.148  1.00  0.00     0.010 A 
ATOM     32  C   UNL A   1      42.168  22.367  28.411  1.00  0.00     0.010 A 
ATOM     33  C   UNL A   1      42.598  23.346  27.501  1.00  0.00    -0.014 A 
BRANCH  33  34
ATOM     34  C   UNL A   1      42.877  24.727  27.976  1.00  0.00     0.031 A 
ATOM     35  C   UNL A   1      44.280  25.144  28.325  1.00  0.00     0.074 A 
ATOM     36  C   UNL A   1      41.859  25.592  28.152  1.00  0.00     0.049 A 
ATOM     37  N   UNL A   1      44.707  26.287  28.803  1.00  0.00    -0.248 NA
ATOM     38  C   UNL A   1      45.339  24.140  28.134  1.00  0.00     0.031 C 
ATOM     39  C   UNL A   1      40.447  25.307  27.882  1.00  0.00     0.029 A 
ATOM     40  N   UNL A   1      41.853  26.889  28.602  1.00  0.00    -0.354 N 
ATOM     41  C   UNL A   1      46.075  26.134  28.985  1.00  0.00     0.074 A 
ATOM     42  C   UNL A   1      46.400  24.774  28.612  1.00  0.00     0.031 C 
ATOM     43  C   UNL A   1      39.720  26.405  28.144  1.00  0.00     0.029 A 
ATOM     44  C   UNL A   1      40.602  27.455  28.642  1.00  0.00     0.049 A 
ATOM     45  H   UNL A   1      42.670  27.368  28.873  1.00  0.00     0.167 HD
ATOM     46  C   UNL A   1      46.983  27.045  29.408  1.00  0.00     0.031 A 
ATOM     47  C   UNL A   1      40.206  28.680  29.038  1.00  0.00     0.031 A 
ATOM     48  C   UNL A   1      46.666  28.400  29.772  1.00  0.00     0.049 A 
ATOM     49  C   UNL A   1      41.231  29.663  29.529  1.00  0.00     0.074 A 
ATOM     50  C   UNL A   1      47.527  29.413  30.156  1.00  0.00     0.029 A 
ATOM     51  N   UNL A   1      45.386  28.931  29.802  1.00  0.00    -0.354 N 
ATOM     52  N   UNL A   1      42.530  29.523  29.629  1.00  0.00    -0.248 NA
ATOM     53  C   UNL A   1      40.733  30.979  29.953  1.00  0.00     0.031 C 
ATOM     54  C   UNL A   1      46.762  30.540  30.475  1.00  0.00     0.029 A 
ATOM     55  C   UNL A   1      45.431  30.247  30.229  1.00  0.00     0.049 A 
ATOM     56  H   UNL A   1      44.566  28.444  29.557  1.00  0.00     0.167 HD
ATOM     57  C   UNL A   1      43.007  30.741  30.097  1.00  0.00     0.074 A 
ATOM     58  C   UNL A   1      41.860  31.612  30.247  1.00  0.00     0.031 C 
ATOM     59  C   UNL A   1      44.283  31.105  30.374  1.00  0.00     0.031 A 
BRANCH  46  60
ATOM     60  C   UNL A   1      48.416  26.598  29.515  1.00  0.00    -0.014 A 
ATOM     61  C   UNL A   1      49.332  26.826  28.476  1.00  0.00     0.009 A 
ATOM     62  C   UNL A   1      48.866  25.973  30.690  1.00  0.00     0.009 A 
ATOM     63  C   UNL A   1      50.658  26.405  28.595  1.00  0.00     0.001 A 
ATOM     64  C   UNL A   1      50.199  25.580  30.818  1.00  0.00     0.001 A 
ATOM     65  C   UNL A   1      51.091  25.787  29.767  1.00  0.00     0.000 A 
ENDBRANCH  46  60
BRANCH  47  66
ATOM     66  C   UNL A   1      38.769  29.055  28.978  1.00  0.00    -0.014 A 
ATOM     67  C   UNL A   1      38.208  29.532  27.783  1.00  0.00     0.009 A 
ATOM     68  C   UNL A   1      37.953  28.953  30.116  1.00  0.00     0.009 A 
ATOM     69  C   UNL A   1      36.869  29.925  27.735  1.00  0.00     0.001 A 
ATOM     70  C   UNL A   1      36.606  29.319  30.057  1.00  0.00     0.001 A 
ATOM     71  C   UNL A   1      36.068  29.815  28.871  1.00  0.00     0.000 A 
ENDBRANCH  47  66
BRANCH  59  72
ATOM     72  C   UNL A   1      44.512  32.519  30.832  1.00  0.00    -0.014 A 
ATOM     73  C   UNL A   1      44.536  32.852  32.196  1.00  0.00     0.009 A 
ATOM     74  C   UNL A   1      44.747  33.526  29.882  1.00  0.00     0.009 A 
ATOM     75  C   UNL A   1      44.756  34.173  32.595  1.00  0.00     0.001 A 
ATOM     76  C   UNL A   1      44.998  34.838  30.285  1.00  0.00     0.001 A 
ATOM     77  C   UNL A   1      44.992  35.162  31.641  1.00  0.00     0.000 A 
ENDBRANCH  59  72
ENDBRANCH  33  34
ENDBRANCH  25  28
ENDBRANCH  23  24
ENDBRANCH  22  23
ENDBRANCH   1  22
TORSDOF 13
ENDMDL
MODEL 3
REMARK VINA RESULT:      -9.2      4.745      9.964
REMARK SMILES O=C(C[C@@H]1C(=O)NC(=S)N1c1ccccc1)NCCCCNC(=O)c1ccc(-c2c3nc(c(-c4ccccc4)c4ccc([nH]4)c(-c4ccccc4)c4nc(c(-c5ccccc5)c5ccc2[nH]5)C=C4)C=C3)cc1
REMARK SMILES IDX 19 1 18 2 17 3 1 4 2 5 3 7 4 8 5 9 10 10 6 11 7 12 8 13 9 15
REMARK SMILES IDX 11 16 12 17 16 18 13 19 15 20 14 21 20 22 21 23 22 24 23 25
REMARK SMILES IDX 24 27 25 28 26 29 72 30 27 31 71 32 28 33 29 34 30 35 65 36
REMARK SMILES IDX 31 37 70 38 64 39 66 40 32 41 69 42 63 43 62 44 33 46 55 47
REMARK SMILES IDX 40 48 54 49 41 50 44 51 53 52 67 53 42 54 43 55 52 57 68 58
REMARK SMILES IDX 45 59 34 60 35 61 39 62 36 63 38 64 37 65 56 66 57 67 61 68
REMARK SMILES IDX 58 69 60 70 59 71 46 72 47 73 51 74 48 75 50 76 49 77
REMARK H PARENT 17 6 7 14 22 26 66 45 44 56
REMARK Flexibility Score: inf
ROOT
ATOM      1  C   UNL A   1      34.022  27.116  25.511  1.00  0.00     0.023 C 
ENDROOT
BRANCH   1   2
ATOM      2  C   UNL A   1      33.613  26.680  24.110  1.00  0.00     0.116 C 
BRANCH   2   3
ATOM      3  N   UNL A   1      34.064  25.341  23.788  1.00  0.00    -0.356 N 
ATOM      4  O   UNL A   1      32.008  24.586  23.157  1.00  0.00    -0.275 OA
ATOM      5  C   UNL A   1      33.225  24.420  23.223  1.00  0.00     0.222 C 
ATOM      6  H   UNL A   1      34.997  25.089  23.979  1.00  0.00     0.163 HD
BRANCH   5   7
ATOM      7  C   UNL A   1      33.849  23.152  22.684  1.00  0.00     0.135 C 
BRANCH   7   8
ATOM      8  C   UNL A   1      34.006  21.931  23.595  1.00  0.00     0.188 C 
ATOM      9  C   UNL A   1      32.623  21.302  23.784  1.00  0.00     0.249 C 
ATOM     10  N   UNL A   1      34.435  22.059  24.990  1.00  0.00    -0.306 N 
ATOM     11  O   UNL A   1      31.850  20.968  22.906  1.00  0.00    -0.272 OA
ATOM     12  N   UNL A   1      32.357  21.215  25.112  1.00  0.00    -0.301 N 
ATOM     13  C   UNL A   1      33.398  21.667  25.862  1.00  0.00     0.180 C 
ATOM     14  H   UNL A   1      31.515  20.869  25.486  1.00  0.00     0.172 HD
ATOM     15  S   UNL A   1      33.242  21.788  27.512  1.00  0.00    -0.040 S 
BRANCH  10  16
ATOM     16  C   UNL A   1      35.791  22.320  25.349  1.00  0.00     0.044 A 
ATOM     17  C   UNL A   1      36.171  23.567  25.866  1.00  0.00     0.026 A 
ATOM     18  C   UNL A   1      36.793  21.353  25.209  1.00  0.00     0.026 A 
ATOM     19  C   UNL A   1      37.508  23.864  26.155  1.00  0.00     0.002 A 
ATOM     20  C   UNL A   1      38.136  21.656  25.461  1.00  0.00     0.002 A 
ATOM     21  C   UNL A   1      38.495  22.916  25.926  1.00  0.00     0.000 A 
ENDBRANCH  10  16
ENDBRANCH   7   8
ENDBRANCH   5   7
ENDBRANCH   2   3
ENDBRANCH   1   2
BRANCH   1  22
ATOM     22  C   UNL A   1      33.629  28.550  25.873  1.00  0.00     0.023 C 
BRANCH  22  23
ATOM     23  C   UNL A   1      33.456  28.825  27.363  1.00  0.00     0.116 C 
BRANCH  23  24
ATOM     24  N   UNL A   1      33.516  30.239  27.692  1.00  0.00    -0.352 N 
ATOM     25  C   UNL A   1      34.544  30.964  28.246  1.00  0.00     0.251 C 
ATOM     26  H   UNL A   1      32.702  30.753  27.488  1.00  0.00     0.163 HD
ATOM     27  O   UNL A   1      34.363  32.131  28.580  1.00  0.00    -0.269 OA
BRANCH  25  28
ATOM     28  C   UNL A   1      35.862  30.332  28.477  1.00  0.00     0.039 A 
ATOM     29  C   UNL A   1      36.799  30.336  27.440  1.00  0.00     0.014 A 
ATOM     30  C   UNL A   1      36.178  29.736  29.701  1.00  0.00     0.014 A 
ATOM     31  C   UNL A   1      38.076  29.810  27.653  1.00  0.00     0.010 A 
ATOM     32  C   UNL A   1      37.473  29.278  29.935  1.00  0.00     0.010 A 
ATOM     33  C   UNL A   1      38.437  29.312  28.915  1.00  0.00    -0.014 A 
BRANCH  33  34
ATOM     34  C   UNL A   1      39.820  28.839  29.187  1.00  0.00     0.031 A 
ATOM     35  C   UNL A   1      40.820  29.745  29.853  1.00  0.00     0.074 A 
ATOM     36  C   UNL A   1      40.198  27.610  28.781  1.00  0.00     0.049 A 
ATOM     37  N   UNL A   1      42.082  29.524  30.124  1.00  0.00    -0.248 NA
ATOM     38  C   UNL A   1      40.346  31.082  30.246  1.00  0.00     0.031 C 
ATOM     39  C   UNL A   1      39.338  26.642  28.095  1.00  0.00     0.029 A 
ATOM     40  N   UNL A   1      41.405  26.966  28.883  1.00  0.00    -0.354 N 
ATOM     41  C   UNL A   1      42.556  30.695  30.700  1.00  0.00     0.074 A 
ATOM     42  C   UNL A   1      41.460  31.640  30.698  1.00  0.00     0.031 C 
ATOM     43  C   UNL A   1      40.038  25.518  27.867  1.00  0.00     0.029 A 
ATOM     44  C   UNL A   1      41.404  25.700  28.347  1.00  0.00     0.049 A 
ATOM     45  H   UNL A   1      42.199  27.372  29.301  1.00  0.00     0.167 HD
ATOM     46  C   UNL A   1      43.787  30.958  31.203  1.00  0.00     0.031 A 
ATOM     47  C   UNL A   1      42.391  24.790  28.246  1.00  0.00     0.031 A 
ATOM     48  C   UNL A   1      44.876  30.019  31.216  1.00  0.00     0.049 A 
ATOM     49  C   UNL A   1      43.754  25.116  28.788  1.00  0.00     0.074 A 
ATOM     50  C   UNL A   1      46.141  30.175  31.756  1.00  0.00     0.029 A 
ATOM     51  N   UNL A   1      44.833  28.751  30.658  1.00  0.00    -0.354 N 
ATOM     52  N   UNL A   1      44.165  26.204  29.392  1.00  0.00    -0.248 NA
ATOM     53  C   UNL A   1      44.788  24.083  28.640  1.00  0.00     0.031 C 
ATOM     54  C   UNL A   1      46.882  29.023  31.474  1.00  0.00     0.029 A 
ATOM     55  C   UNL A   1      46.059  28.125  30.813  1.00  0.00     0.049 A 
ATOM     56  H   UNL A   1      44.048  28.354  30.216  1.00  0.00     0.167 HD
ATOM     57  C   UNL A   1      45.494  25.974  29.724  1.00  0.00     0.074 A 
ATOM     58  C   UNL A   1      45.816  24.638  29.267  1.00  0.00     0.031 C 
ATOM     59  C   UNL A   1      46.368  26.795  30.355  1.00  0.00     0.031 A 
BRANCH  46  60
ATOM     60  C   UNL A   1      44.025  32.330  31.771  1.00  0.00    -0.014 A 
ATOM     61  C   UNL A   1      44.507  33.379  30.971  1.00  0.00     0.009 A 
ATOM     62  C   UNL A   1      43.725  32.589  33.119  1.00  0.00     0.009 A 
ATOM     63  C   UNL A   1      44.720  34.647  31.519  1.00  0.00     0.001 A 
ATOM     64  C   UNL A   1      43.910  33.865  33.654  1.00  0.00     0.001 A 
ATOM     65  C   UNL A   1      44.417  34.889  32.857  1.00  0.00     0.000 A 
ENDBRANCH  46  60
BRANCH  47  66
ATOM     66  C   UNL A   1      42.126  23.470  27.615  1.00  0.00    -0.014 A 
ATOM     67  C   UNL A   1      41.564  22.424  28.363  1.00  0.00     0.009 A 
ATOM     68  C   UNL A   1      42.447  23.242  26.267  1.00  0.00     0.009 A 
ATOM     69  C   UNL A   1      41.354  21.170  27.784  1.00  0.00     0.001 A 
ATOM     70  C   UNL A   1      42.208  21.996  25.683  1.00  0.00     0.001 A 
ATOM     71  C   UNL A   1      41.672  20.959  26.443  1.00  0.00     0.000 A 
ENDBRANCH  47  66
BRANCH  59  72
ATOM     72  C   UNL A   1      47.747  26.260  30.623  1.00  0.00    -0.014 A 
ATOM     73  C   UNL A   1      48.749  26.294  29.641  1.00  0.00     0.009 A 
ATOM     74  C   UNL A   1      48.057  25.748  31.893  1.00  0.00     0.009 A 
ATOM     75  C   UNL A   1      50.025  25.794  29.917  1.00  0.00     0.001 A 
ATOM     76  C   UNL A   1      49.340  25.277  32.176  1.00  0.00     0.001 A 
ATOM     77  C   UNL A   1      50.320  25.292  31.185  1.00  0.00     0.000 A 
ENDBRANCH  59  72
ENDBRANCH  33  34
ENDBRANCH  25  28
ENDBRANCH  23  24
ENDBRANCH  22  23
ENDBRANCH   1  22
TORSDOF 13
ENDMDL
