MODEL 1
REMARK VINA RESULT:     -10.6      0.000      0.000
REMARK SMILES CC[C@@](C)(C(=O)NCCCCNC(=O)c1ccc(-c2c3nc(c(-c4ccccc4)c4ccc([nH]4)c(-c4ccccc4)c4nc(c(-c5ccccc5)c5ccc2[nH]5)C=C4)C=C3)cc1)n1nnnc1Cc1cccs1
REMARK SMILES IDX 9 1 8 2 7 3 5 4 6 5 3 7 4 8 2 9 1 10 63 11 64 12 67 13 65 14
REMARK SMILES IDX 66 15 68 16 69 17 70 18 73 19 71 20 72 21 10 22 11 23 12 24
REMARK SMILES IDX 13 25 14 27 15 28 16 29 62 30 17 31 61 32 18 33 19 34 20 35
REMARK SMILES IDX 55 36 21 37 60 38 54 39 56 40 22 41 59 42 53 43 52 44 23 46
REMARK SMILES IDX 45 47 30 48 44 49 31 50 34 51 43 52 57 53 32 54 33 55 42 57
REMARK SMILES IDX 58 58 35 59 24 60 25 61 29 62 26 63 28 64 27 65 46 66 47 67
REMARK SMILES IDX 51 68 48 69 50 70 49 71 36 72 37 73 41 74 38 75 40 76 39 77
REMARK H PARENT 7 6 12 26 56 45 34 56
REMARK Flexibility Score: inf
ROOT
ATOM      1  C   UNL A   1      36.926  21.966  24.322  1.00  0.00     0.023 C 
ENDROOT
BRANCH   1   2
ATOM      2  C   UNL A   1      36.406  22.966  25.347  1.00  0.00     0.116 C 
BRANCH   2   3
ATOM      3  N   UNL A   1      35.643  22.338  26.414  1.00  0.00    -0.354 N 
ATOM      4  C   UNL A   1      34.309  22.337  26.725  1.00  0.00     0.247 C 
ATOM      5  O   UNL A   1      33.972  21.453  27.520  1.00  0.00    -0.272 OA
ATOM      6  H   UNL A   1      36.193  21.808  27.034  1.00  0.00     0.163 HD
BRANCH   4   7
ATOM      7  C   UNL A   1      33.278  23.308  26.070  1.00  0.00     0.142 C 
ATOM      8  C   UNL A   1      33.906  24.708  26.144  1.00  0.00     0.048 C 
BRANCH   7   9
ATOM      9  C   UNL A   1      31.915  23.240  26.837  1.00  0.00     0.037 C 
ATOM     10  C   UNL A   1      30.807  24.124  26.273  1.00  0.00     0.007 C 
ENDBRANCH   7   9
BRANCH   7  11
ATOM     11  N   UNL A   1      33.024  22.850  24.680  1.00  0.00    -0.214 N 
ATOM     12  N   UNL A   1      33.396  23.692  23.679  1.00  0.00    -0.044 NA
ATOM     13  C   UNL A   1      32.644  21.649  24.100  1.00  0.00     0.157 A 
ATOM     14  N   UNL A   1      33.219  23.037  22.549  1.00  0.00    -0.024 NA
ATOM     15  N   UNL A   1      32.773  21.777  22.789  1.00  0.00    -0.113 NA
BRANCH  13  16
ATOM     16  C   UNL A   1      32.213  20.368  24.727  1.00  0.00     0.125 C 
BRANCH  16  17
ATOM     17  C   UNL A   1      33.039  19.192  24.287  1.00  0.00     0.012 A 
ATOM     18  C   UNL A   1      34.286  18.815  24.749  1.00  0.00     0.016 A 
ATOM     19  S   UNL A   1      32.455  18.092  23.110  1.00  0.00    -0.148 S 
ATOM     20  C   UNL A   1      34.766  17.631  24.119  1.00  0.00     0.012 A 
ATOM     21  C   UNL A   1      33.871  17.140  23.197  1.00  0.00     0.065 A 
ENDBRANCH  16  17
ENDBRANCH  13  16
ENDBRANCH   7  11
ENDBRANCH   4   7
ENDBRANCH   2   3
ENDBRANCH   1   2
BRANCH   1  22
ATOM     22  C   UNL A   1      37.558  20.706  24.910  1.00  0.00     0.023 C 
BRANCH  22  23
ATOM     23  C   UNL A   1      38.817  20.928  25.744  1.00  0.00     0.116 C 
BRANCH  23  24
ATOM     24  N   UNL A   1      39.740  19.801  25.716  1.00  0.00    -0.352 N 
ATOM     25  C   UNL A   1      41.076  19.764  26.037  1.00  0.00     0.251 C 
ATOM     26  H   UNL A   1      39.351  18.944  25.424  1.00  0.00     0.163 HD
ATOM     27  O   UNL A   1      41.731  18.740  25.864  1.00  0.00    -0.269 OA
BRANCH  25  28
ATOM     28  C   UNL A   1      41.728  20.983  26.549  1.00  0.00     0.039 A 
ATOM     29  C   UNL A   1      42.324  21.863  25.642  1.00  0.00     0.014 A 
ATOM     30  C   UNL A   1      41.679  21.292  27.911  1.00  0.00     0.014 A 
ATOM     31  C   UNL A   1      42.774  23.108  26.086  1.00  0.00     0.010 A 
ATOM     32  C   UNL A   1      42.069  22.555  28.341  1.00  0.00     0.010 A 
ATOM     33  C   UNL A   1      42.594  23.485  27.427  1.00  0.00    -0.014 A 
BRANCH  33  34
ATOM     34  C   UNL A   1      42.873  24.867  27.888  1.00  0.00     0.031 A 
ATOM     35  C   UNL A   1      44.250  25.245  28.356  1.00  0.00     0.074 A 
ATOM     36  C   UNL A   1      41.856  25.743  28.001  1.00  0.00     0.049 A 
ATOM     37  N   UNL A   1      44.650  26.353  28.924  1.00  0.00    -0.248 NA
ATOM     38  C   UNL A   1      45.309  24.237  28.187  1.00  0.00     0.031 C 
ATOM     39  C   UNL A   1      40.463  25.483  27.629  1.00  0.00     0.029 A 
ATOM     40  N   UNL A   1      41.831  27.026  28.492  1.00  0.00    -0.354 N 
ATOM     41  C   UNL A   1      45.995  26.167  29.208  1.00  0.00     0.074 A 
ATOM     42  C   UNL A   1      46.340  24.830  28.772  1.00  0.00     0.031 C 
ATOM     43  C   UNL A   1      39.723  26.568  27.904  1.00  0.00     0.029 A 
ATOM     44  C   UNL A   1      40.575  27.585  28.509  1.00  0.00     0.049 A 
ATOM     45  H   UNL A   1      42.637  27.500  28.802  1.00  0.00     0.167 HD
ATOM     46  C   UNL A   1      46.866  27.034  29.775  1.00  0.00     0.031 A 
ATOM     47  C   UNL A   1      40.151  28.771  28.983  1.00  0.00     0.031 A 
ATOM     48  C   UNL A   1      46.532  28.371  30.181  1.00  0.00     0.049 A 
ATOM     49  C   UNL A   1      41.141  29.710  29.613  1.00  0.00     0.074 A 
ATOM     50  C   UNL A   1      47.373  29.357  30.669  1.00  0.00     0.029 A 
ATOM     51  N   UNL A   1      45.256  28.908  30.158  1.00  0.00    -0.354 N 
ATOM     52  N   UNL A   1      42.430  29.553  29.786  1.00  0.00    -0.248 NA
ATOM     53  C   UNL A   1      40.616  30.989  30.112  1.00  0.00     0.031 C 
ATOM     54  C   UNL A   1      46.596  30.475  30.988  1.00  0.00     0.029 A 
ATOM     55  C   UNL A   1      45.279  30.198  30.659  1.00  0.00     0.049 A 
ATOM     56  H   UNL A   1      44.451  28.441  29.833  1.00  0.00     0.167 HD
ATOM     57  C   UNL A   1      42.872  30.717  30.399  1.00  0.00     0.074 A 
ATOM     58  C   UNL A   1      41.718  31.580  30.550  1.00  0.00     0.031 C 
ATOM     59  C   UNL A   1      44.123  31.041  30.805  1.00  0.00     0.031 A 
BRANCH  46  60
ATOM     60  C   UNL A   1      48.274  26.565  29.999  1.00  0.00    -0.014 A 
ATOM     61  C   UNL A   1      49.288  26.841  29.069  1.00  0.00     0.009 A 
ATOM     62  C   UNL A   1      48.602  25.898  31.190  1.00  0.00     0.009 A 
ATOM     63  C   UNL A   1      50.602  26.439  29.320  1.00  0.00     0.001 A 
ATOM     64  C   UNL A   1      49.920  25.516  31.446  1.00  0.00     0.001 A 
ATOM     65  C   UNL A   1      50.917  25.782  30.510  1.00  0.00     0.000 A 
ENDBRANCH  46  60
BRANCH  47  66
ATOM     66  C   UNL A   1      38.713  29.136  28.908  1.00  0.00    -0.014 A 
ATOM     67  C   UNL A   1      38.178  29.690  27.736  1.00  0.00     0.009 A 
ATOM     68  C   UNL A   1      37.875  28.956  30.020  1.00  0.00     0.009 A 
ATOM     69  C   UNL A   1      36.838  30.083  27.688  1.00  0.00     0.001 A 
ATOM     70  C   UNL A   1      36.529  29.327  29.959  1.00  0.00     0.001 A 
ATOM     71  C   UNL A   1      36.016  29.899  28.797  1.00  0.00     0.000 A 
ENDBRANCH  47  66
BRANCH  59  72
ATOM     72  C   UNL A   1      44.312  32.390  31.435  1.00  0.00    -0.014 A 
ATOM     73  C   UNL A   1      44.228  32.553  32.827  1.00  0.00     0.009 A 
ATOM     74  C   UNL A   1      44.627  33.497  30.634  1.00  0.00     0.009 A 
ATOM     75  C   UNL A   1      44.434  33.808  33.401  1.00  0.00     0.001 A 
ATOM     76  C   UNL A   1      44.855  34.746  31.214  1.00  0.00     0.001 A 
ATOM     77  C   UNL A   1      44.752  34.901  32.595  1.00  0.00     0.000 A 
ENDBRANCH  59  72
ENDBRANCH  33  34
ENDBRANCH  25  28
ENDBRANCH  23  24
ENDBRANCH  22  23
ENDBRANCH   1  22
TORSDOF 15
ENDMDL
MODEL 2
REMARK VINA RESULT:     -10.4      0.730      6.005
REMARK SMILES CC[C@@](C)(C(=O)NCCCCNC(=O)c1ccc(-c2c3nc(c(-c4ccccc4)c4ccc([nH]4)c(-c4ccccc4)c4nc(c(-c5ccccc5)c5ccc2[nH]5)C=C4)C=C3)cc1)n1nnnc1Cc1cccs1
REMARK SMILES IDX 9 1 8 2 7 3 5 4 6 5 3 7 4 8 2 9 1 10 63 11 64 12 67 13 65 14
REMARK SMILES IDX 66 15 68 16 69 17 70 18 73 19 71 20 72 21 10 22 11 23 12 24
REMARK SMILES IDX 13 25 14 27 15 28 16 29 62 30 17 31 61 32 18 33 19 34 20 35
REMARK SMILES IDX 55 36 21 37 60 38 54 39 56 40 22 41 59 42 53 43 52 44 23 46
REMARK SMILES IDX 45 47 30 48 44 49 31 50 34 51 43 52 57 53 32 54 33 55 42 57
REMARK SMILES IDX 58 58 35 59 24 60 25 61 29 62 26 63 28 64 27 65 46 66 47 67
REMARK SMILES IDX 51 68 48 69 50 70 49 71 36 72 37 73 41 74 38 75 40 76 39 77
REMARK H PARENT 7 6 12 26 56 45 34 56
REMARK Flexibility Score: inf
ROOT
ATOM      1  C   UNL A   1      37.049  22.418  24.320  1.00  0.00     0.023 C 
ENDROOT
BRANCH   1   2
ATOM      2  C   UNL A   1      36.449  23.377  25.341  1.00  0.00     0.116 C 
BRANCH   2   3
ATOM      3  N   UNL A   1      35.731  22.696  26.406  1.00  0.00    -0.354 N 
ATOM      4  C   UNL A   1      34.399  22.579  26.700  1.00  0.00     0.247 C 
ATOM      5  O   UNL A   1      34.132  21.678  27.503  1.00  0.00    -0.272 OA
ATOM      6  H   UNL A   1      36.318  22.226  27.039  1.00  0.00     0.163 HD
BRANCH   4   7
ATOM      7  C   UNL A   1      33.294  23.445  26.020  1.00  0.00     0.142 C 
ATOM      8  C   UNL A   1      33.830  24.885  26.008  1.00  0.00     0.048 C 
BRANCH   7   9
ATOM      9  C   UNL A   1      31.954  23.331  26.821  1.00  0.00     0.037 C 
ATOM     10  C   UNL A   1      30.838  24.262  26.357  1.00  0.00     0.007 C 
ENDBRANCH   7   9
BRANCH   7  11
ATOM     11  N   UNL A   1      33.044  22.899  24.661  1.00  0.00    -0.214 N 
ATOM     12  N   UNL A   1      33.369  23.698  23.610  1.00  0.00    -0.044 NA
ATOM     13  C   UNL A   1      32.707  21.653  24.156  1.00  0.00     0.157 A 
ATOM     14  N   UNL A   1      33.206  22.973  22.522  1.00  0.00    -0.024 NA
ATOM     15  N   UNL A   1      32.815  21.711  22.838  1.00  0.00    -0.113 NA
BRANCH  13  16
ATOM     16  C   UNL A   1      32.336  20.393  24.860  1.00  0.00     0.125 C 
BRANCH  16  17
ATOM     17  C   UNL A   1      33.080  19.192  24.345  1.00  0.00     0.012 A 
ATOM     18  C   UNL A   1      34.305  18.711  24.769  1.00  0.00     0.016 A 
ATOM     19  S   UNL A   1      32.415  18.199  23.117  1.00  0.00    -0.148 S 
ATOM     20  C   UNL A   1      34.701  17.536  24.069  1.00  0.00     0.012 A 
ATOM     21  C   UNL A   1      33.767  17.156  23.133  1.00  0.00     0.065 A 
ENDBRANCH  16  17
ENDBRANCH  13  16
ENDBRANCH   7  11
ENDBRANCH   4   7
ENDBRANCH   2   3
ENDBRANCH   1   2
BRANCH   1  22
ATOM     22  C   UNL A   1      37.548  21.093  24.895  1.00  0.00     0.023 C 
BRANCH  22  23
ATOM     23  C   UNL A   1      38.792  21.184  25.776  1.00  0.00     0.116 C 
BRANCH  23  24
ATOM     24  N   UNL A   1      39.623  19.988  25.734  1.00  0.00    -0.352 N 
ATOM     25  C   UNL A   1      40.943  19.835  26.083  1.00  0.00     0.251 C 
ATOM     26  H   UNL A   1      39.174  19.173  25.409  1.00  0.00     0.163 HD
ATOM     27  O   UNL A   1      41.520  18.768  25.895  1.00  0.00    -0.269 OA
BRANCH  25  28
ATOM     28  C   UNL A   1      41.678  20.984  26.645  1.00  0.00     0.039 A 
ATOM     29  C   UNL A   1      42.312  21.872  25.773  1.00  0.00     0.014 A 
ATOM     30  C   UNL A   1      41.670  21.222  28.022  1.00  0.00     0.014 A 
ATOM     31  C   UNL A   1      42.845  23.063  26.273  1.00  0.00     0.010 A 
ATOM     32  C   UNL A   1      42.145  22.435  28.509  1.00  0.00     0.010 A 
ATOM     33  C   UNL A   1      42.711  23.378  27.634  1.00  0.00    -0.014 A 
BRANCH  33  34
ATOM     34  C   UNL A   1      43.083  24.714  28.161  1.00  0.00     0.031 A 
ATOM     35  C   UNL A   1      42.028  25.759  28.388  1.00  0.00     0.074 A 
ATOM     36  C   UNL A   1      44.385  25.023  28.317  1.00  0.00     0.049 A 
ATOM     37  N   UNL A   1      42.174  27.020  28.705  1.00  0.00    -0.248 NA
ATOM     38  C   UNL A   1      40.628  25.339  28.211  1.00  0.00     0.031 C 
ATOM     39  C   UNL A   1      45.510  24.114  28.080  1.00  0.00     0.029 A 
ATOM     40  N   UNL A   1      44.987  26.203  28.682  1.00  0.00    -0.354 N 
ATOM     41  C   UNL A   1      40.892  27.551  28.735  1.00  0.00     0.074 A 
ATOM     42  C   UNL A   1      39.981  26.484  28.382  1.00  0.00     0.031 C 
ATOM     43  C   UNL A   1      46.660  24.767  28.307  1.00  0.00     0.029 A 
ATOM     44  C   UNL A   1      46.360  26.149  28.662  1.00  0.00     0.049 A 
ATOM     45  H   UNL A   1      44.482  27.009  28.935  1.00  0.00     0.167 HD
ATOM     46  C   UNL A   1      40.509  28.814  29.038  1.00  0.00     0.031 A 
ATOM     47  C   UNL A   1      47.277  27.111  28.878  1.00  0.00     0.031 A 
ATOM     48  C   UNL A   1      41.410  29.867  29.418  1.00  0.00     0.049 A 
ATOM     49  C   UNL A   1      46.821  28.504  29.206  1.00  0.00     0.074 A 
ATOM     50  C   UNL A   1      41.104  31.149  29.842  1.00  0.00     0.029 A 
ATOM     51  N   UNL A   1      42.791  29.765  29.411  1.00  0.00    -0.354 N 
ATOM     52  N   UNL A   1      45.600  28.965  29.323  1.00  0.00    -0.248 NA
ATOM     53  C   UNL A   1      47.870  29.510  29.430  1.00  0.00     0.031 C 
ATOM     54  C   UNL A   1      42.303  31.839  30.044  1.00  0.00     0.029 A 
ATOM     55  C   UNL A   1      43.353  30.973  29.786  1.00  0.00     0.049 A 
ATOM     56  H   UNL A   1      43.298  28.954  29.174  1.00  0.00     0.167 HD
ATOM     57  C   UNL A   1      45.734  30.308  29.650  1.00  0.00     0.074 A 
ATOM     58  C   UNL A   1      47.154  30.583  29.731  1.00  0.00     0.031 C 
ATOM     59  C   UNL A   1      44.767  31.231  29.859  1.00  0.00     0.031 A 
BRANCH  46  60
ATOM     60  C   UNL A   1      39.045  29.137  28.966  1.00  0.00    -0.014 A 
ATOM     61  C   UNL A   1      38.464  29.617  27.782  1.00  0.00     0.009 A 
ATOM     62  C   UNL A   1      38.225  28.891  30.078  1.00  0.00     0.009 A 
ATOM     63  C   UNL A   1      37.091  29.865  27.721  1.00  0.00     0.001 A 
ATOM     64  C   UNL A   1      36.849  29.119  30.007  1.00  0.00     0.001 A 
ATOM     65  C   UNL A   1      36.285  29.610  28.831  1.00  0.00     0.000 A 
ENDBRANCH  46  60
BRANCH  47  66
ATOM     66  C   UNL A   1      48.726  26.802  28.767  1.00  0.00    -0.014 A 
ATOM     67  C   UNL A   1      49.388  26.917  27.536  1.00  0.00     0.009 A 
ATOM     68  C   UNL A   1      49.448  26.364  29.889  1.00  0.00     0.009 A 
ATOM     69  C   UNL A   1      50.737  26.573  27.424  1.00  0.00     0.001 A 
ATOM     70  C   UNL A   1      50.804  26.045  29.778  1.00  0.00     0.001 A 
ATOM     71  C   UNL A   1      51.443  26.140  28.544  1.00  0.00     0.000 A 
ENDBRANCH  47  66
BRANCH  59  72
ATOM     72  C   UNL A   1      45.209  32.621  30.212  1.00  0.00    -0.014 A 
ATOM     73  C   UNL A   1      45.347  33.607  29.223  1.00  0.00     0.009 A 
ATOM     74  C   UNL A   1      45.442  32.960  31.554  1.00  0.00     0.009 A 
ATOM     75  C   UNL A   1      45.733  34.902  29.571  1.00  0.00     0.001 A 
ATOM     76  C   UNL A   1      45.804  34.263  31.900  1.00  0.00     0.001 A 
ATOM     77  C   UNL A   1      45.956  35.230  30.908  1.00  0.00     0.000 A 
ENDBRANCH  59  72
ENDBRANCH  33  34
ENDBRANCH  25  28
ENDBRANCH  23  24
ENDBRANCH  22  23
ENDBRANCH   1  22
TORSDOF 15
ENDMDL
MODEL 3
REMARK VINA RESULT:     -10.4      2.130      3.503
REMARK SMILES CC[C@@](C)(C(=O)NCCCCNC(=O)c1ccc(-c2c3nc(c(-c4ccccc4)c4ccc([nH]4)c(-c4ccccc4)c4nc(c(-c5ccccc5)c5ccc2[nH]5)C=C4)C=C3)cc1)n1nnnc1Cc1cccs1
REMARK SMILES IDX 9 1 8 2 7 3 5 4 6 5 3 7 4 8 2 9 1 10 63 11 64 12 67 13 65 14
REMARK SMILES IDX 66 15 68 16 69 17 70 18 73 19 71 20 72 21 10 22 11 23 12 24
REMARK SMILES IDX 13 25 14 27 15 28 16 29 62 30 17 31 61 32 18 33 19 34 20 35
REMARK SMILES IDX 55 36 21 37 60 38 54 39 56 40 22 41 59 42 53 43 52 44 23 46
REMARK SMILES IDX 45 47 30 48 44 49 31 50 34 51 43 52 57 53 32 54 33 55 42 57
REMARK SMILES IDX 58 58 35 59 24 60 25 61 29 62 26 63 28 64 27 65 46 66 47 67
REMARK SMILES IDX 51 68 48 69 50 70 49 71 36 72 37 73 41 74 38 75 40 76 39 77
REMARK H PARENT 7 6 12 26 56 45 34 56
REMARK Flexibility Score: inf
ROOT
ATOM      1  C   UNL A   1      36.817  22.903  24.441  1.00  0.00     0.023 C 
ENDROOT
BRANCH   1   2
ATOM      2  C   UNL A   1      35.666  22.978  23.446  1.00  0.00     0.116 C 
BRANCH   2   3
ATOM      3  N   UNL A   1      34.401  22.537  24.009  1.00  0.00    -0.354 N 
ATOM      4  C   UNL A   1      33.239  23.197  24.313  1.00  0.00     0.247 C 
ATOM      5  O   UNL A   1      32.266  22.458  24.493  1.00  0.00    -0.272 OA
ATOM      6  H   UNL A   1      34.372  21.575  24.210  1.00  0.00     0.163 HD
BRANCH   4   7
ATOM      7  C   UNL A   1      33.124  24.753  24.346  1.00  0.00     0.142 C 
ATOM      8  C   UNL A   1      34.192  25.238  25.338  1.00  0.00     0.048 C 
BRANCH   7   9
ATOM      9  C   UNL A   1      31.684  25.174  24.789  1.00  0.00     0.037 C 
ATOM     10  C   UNL A   1      31.603  25.904  26.126  1.00  0.00     0.007 C 
ENDBRANCH   7   9
BRANCH   7  11
ATOM     11  N   UNL A   1      33.328  25.264  22.966  1.00  0.00    -0.214 N 
ATOM     12  N   UNL A   1      33.024  24.417  21.946  1.00  0.00    -0.044 NA
ATOM     13  C   UNL A   1      33.599  26.507  22.414  1.00  0.00     0.157 A 
ATOM     14  N   UNL A   1      33.137  25.113  20.832  1.00  0.00    -0.024 NA
ATOM     15  N   UNL A   1      33.474  26.401  21.101  1.00  0.00    -0.113 NA
BRANCH  13  16
ATOM     16  C   UNL A   1      33.923  27.805  23.072  1.00  0.00     0.125 C 
BRANCH  16  17
ATOM     17  C   UNL A   1      32.712  28.493  23.639  1.00  0.00     0.012 A 
ATOM     18  C   UNL A   1      32.630  29.234  24.802  1.00  0.00     0.016 A 
ATOM     19  S   UNL A   1      31.210  28.462  22.815  1.00  0.00    -0.148 S 
ATOM     20  C   UNL A   1      31.325  29.759  25.023  1.00  0.00     0.012 A 
ATOM     21  C   UNL A   1      30.451  29.404  24.021  1.00  0.00     0.065 A 
ENDBRANCH  16  17
ENDBRANCH  13  16
ENDBRANCH   7  11
ENDBRANCH   4   7
ENDBRANCH   2   3
ENDBRANCH   1   2
BRANCH   1  22
ATOM     22  C   UNL A   1      37.433  21.516  24.614  1.00  0.00     0.023 C 
BRANCH  22  23
ATOM     23  C   UNL A   1      38.371  21.357  25.809  1.00  0.00     0.116 C 
BRANCH  23  24
ATOM     24  N   UNL A   1      39.245  20.195  25.712  1.00  0.00    -0.352 N 
ATOM     25  C   UNL A   1      40.580  20.084  26.016  1.00  0.00     0.251 C 
ATOM     26  H   UNL A   1      38.817  19.371  25.380  1.00  0.00     0.163 HD
ATOM     27  O   UNL A   1      41.190  19.044  25.783  1.00  0.00    -0.269 OA
BRANCH  25  28
ATOM     28  C   UNL A   1      41.288  21.246  26.586  1.00  0.00     0.039 A 
ATOM     29  C   UNL A   1      41.957  22.118  25.723  1.00  0.00     0.014 A 
ATOM     30  C   UNL A   1      41.221  21.513  27.955  1.00  0.00     0.014 A 
ATOM     31  C   UNL A   1      42.467  23.319  26.220  1.00  0.00     0.010 A 
ATOM     32  C   UNL A   1      41.673  22.736  28.437  1.00  0.00     0.010 A 
ATOM     33  C   UNL A   1      42.274  23.663  27.568  1.00  0.00    -0.014 A 
BRANCH  33  34
ATOM     34  C   UNL A   1      42.621  25.010  28.083  1.00  0.00     0.031 A 
ATOM     35  C   UNL A   1      44.011  25.299  28.571  1.00  0.00     0.074 A 
ATOM     36  C   UNL A   1      41.649  25.933  28.223  1.00  0.00     0.049 A 
ATOM     37  N   UNL A   1      44.463  26.364  29.183  1.00  0.00    -0.248 NA
ATOM     38  C   UNL A   1      45.018  24.245  28.370  1.00  0.00     0.031 C 
ATOM     39  C   UNL A   1      40.247  25.759  27.834  1.00  0.00     0.029 A 
ATOM     40  N   UNL A   1      41.686  27.197  28.762  1.00  0.00    -0.354 N 
ATOM     41  C   UNL A   1      45.796  26.097  29.467  1.00  0.00     0.074 A 
ATOM     42  C   UNL A   1      46.075  24.762  28.982  1.00  0.00     0.031 C 
ATOM     43  C   UNL A   1      39.561  26.870  28.146  1.00  0.00     0.029 A 
ATOM     44  C   UNL A   1      40.461  27.818  28.793  1.00  0.00     0.049 A 
ATOM     45  H   UNL A   1      42.513  27.616  29.093  1.00  0.00     0.167 HD
ATOM     46  C   UNL A   1      46.706  26.896  30.070  1.00  0.00     0.031 A 
ATOM     47  C   UNL A   1      40.095  29.006  29.310  1.00  0.00     0.031 A 
ATOM     48  C   UNL A   1      46.438  28.233  30.525  1.00  0.00     0.049 A 
ATOM     49  C   UNL A   1      41.126  29.869  29.979  1.00  0.00     0.074 A 
ATOM     50  C   UNL A   1      47.325  29.156  31.054  1.00  0.00     0.029 A 
ATOM     51  N   UNL A   1      45.191  28.836  30.515  1.00  0.00    -0.354 N 
ATOM     52  N   UNL A   1      42.405  29.638  30.153  1.00  0.00    -0.248 NA
ATOM     53  C   UNL A   1      40.664  31.153  30.524  1.00  0.00     0.031 C 
ATOM     54  C   UNL A   1      46.604  30.299  31.410  1.00  0.00     0.029 A 
ATOM     55  C   UNL A   1      45.277  30.103  31.064  1.00  0.00     0.049 A 
ATOM     56  H   UNL A   1      44.366  28.424  30.169  1.00  0.00     0.167 HD
ATOM     57  C   UNL A   1      42.902  30.755  30.812  1.00  0.00     0.074 A 
ATOM     58  C   UNL A   1      41.793  31.669  30.990  1.00  0.00     0.031 C 
ATOM     59  C   UNL A   1      44.164  30.999  31.236  1.00  0.00     0.031 A 
BRANCH  46  60
ATOM     60  C   UNL A   1      48.086  26.348  30.284  1.00  0.00    -0.014 A 
ATOM     61  C   UNL A   1      48.448  25.742  31.496  1.00  0.00     0.009 A 
ATOM     62  C   UNL A   1      49.015  26.377  29.231  1.00  0.00     0.009 A 
ATOM     63  C   UNL A   1      49.722  25.193  31.658  1.00  0.00     0.001 A 
ATOM     64  C   UNL A   1      50.280  25.809  29.388  1.00  0.00     0.001 A 
ATOM     65  C   UNL A   1      50.634  25.222  30.602  1.00  0.00     0.000 A 
ENDBRANCH  46  60
BRANCH  47  66
ATOM     66  C   UNL A   1      38.677  29.447  29.241  1.00  0.00    -0.014 A 
ATOM     67  C   UNL A   1      37.812  29.237  30.325  1.00  0.00     0.009 A 
ATOM     68  C   UNL A   1      38.178  30.058  28.079  1.00  0.00     0.009 A 
ATOM     69  C   UNL A   1      36.467  29.602  30.236  1.00  0.00     0.001 A 
ATOM     70  C   UNL A   1      36.838  30.446  28.005  1.00  0.00     0.001 A 
ATOM     71  C   UNL A   1      35.982  30.208  29.078  1.00  0.00     0.000 A 
ENDBRANCH  47  66
BRANCH  59  72
ATOM     72  C   UNL A   1      44.418  32.311  31.918  1.00  0.00    -0.014 A 
ATOM     73  C   UNL A   1      44.726  33.462  31.176  1.00  0.00     0.009 A 
ATOM     74  C   UNL A   1      44.299  32.408  33.313  1.00  0.00     0.009 A 
ATOM     75  C   UNL A   1      44.933  34.681  31.822  1.00  0.00     0.001 A 
ATOM     76  C   UNL A   1      44.484  33.635  33.953  1.00  0.00     0.001 A 
ATOM     77  C   UNL A   1      44.807  34.767  33.208  1.00  0.00     0.000 A 
ENDBRANCH  59  72
ENDBRANCH  33  34
ENDBRANCH  25  28
ENDBRANCH  23  24
ENDBRANCH  22  23
ENDBRANCH   1  22
TORSDOF 15
ENDMDL
