MODEL 1
REMARK VINA RESULT:     -11.6      0.000      0.000
REMARK SMILES C[C@H](NC(=O)c1cccc(NC(=O)c2ccccc2C(=O)NCCCCNC(=O)c2ccc(-c3c4nc(c(-c5ccccc5)c5ccc([nH]5)c(-c5ccccc5)c5nc(c(-c6ccccc6)c6ccc3[nH]6)C=C5)C=C4)cc2)c1)c1ccccc1
REMARK SMILES IDX 23 1 22 2 20 3 21 4 19 6 14 7 15 8 16 9 18 10 17 11 12 12
REMARK SMILES IDX 11 13 13 15 10 16 6 17 7 18 78 19 8 20 9 21 4 22 3 23 5 25
REMARK SMILES IDX 2 26 1 27 79 28 80 29 84 30 81 31 83 32 82 33 24 34 25 35
REMARK SMILES IDX 26 36 27 37 28 38 29 40 30 41 31 42 77 43 32 44 76 45 33 46
REMARK SMILES IDX 34 47 35 48 70 49 36 50 75 51 69 52 71 53 37 54 74 55 68 56
REMARK SMILES IDX 67 57 38 59 60 60 45 61 59 62 46 63 49 64 58 65 72 66 47 67
REMARK SMILES IDX 48 68 57 70 73 71 50 72 39 73 40 74 44 75 41 76 43 77 42 78
REMARK SMILES IDX 61 79 62 80 66 81 63 82 65 83 64 84 51 85 52 86 56 87 53 88
REMARK SMILES IDX 55 89 54 90
REMARK H PARENT 22 5 11 14 3 24 27 39 71 58 49 69
REMARK Flexibility Score: inf
ROOT
ATOM      1  C   UNL A   1      31.102  28.091  27.416  1.00  0.00     0.116 C 
ENDROOT
BRANCH   1   2
ATOM      2  N   UNL A   1      31.783  26.833  27.170  1.00  0.00    -0.352 N 
ATOM      3  C   UNL A   1      32.399  26.351  26.041  1.00  0.00     0.252 C 
ATOM      4  O   UNL A   1      32.882  25.219  26.091  1.00  0.00    -0.269 OA
ATOM      5  H   UNL A   1      31.806  26.223  27.943  1.00  0.00     0.163 HD
BRANCH   3   6
ATOM      6  C   UNL A   1      32.451  27.091  24.750  1.00  0.00     0.052 A 
ATOM      7  C   UNL A   1      31.504  27.025  23.719  1.00  0.00     0.052 A 
ATOM      8  C   UNL A   1      31.696  27.755  22.530  1.00  0.00     0.014 A 
ATOM      9  C   UNL A   1      32.770  28.634  22.404  1.00  0.00     0.001 A 
ATOM     10  C   UNL A   1      33.508  28.015  24.619  1.00  0.00     0.014 A 
ATOM     11  C   UNL A   1      33.660  28.786  23.460  1.00  0.00     0.001 A 
BRANCH   7  12
ATOM     12  C   UNL A   1      30.250  26.258  23.785  1.00  0.00     0.256 C 
ATOM     13  N   UNL A   1      30.190  24.920  23.477  1.00  0.00    -0.322 N 
ATOM     14  H   UNL A   1      29.277  24.575  23.347  1.00  0.00     0.170 HD
ATOM     15  O   UNL A   1      29.217  26.869  24.058  1.00  0.00    -0.269 OA
BRANCH  13  16
ATOM     16  C   UNL A   1      31.199  23.956  23.313  1.00  0.00     0.042 A 
ATOM     17  C   UNL A   1      32.206  21.919  24.119  1.00  0.00     0.041 A 
ATOM     18  C   UNL A   1      33.133  21.937  23.076  1.00  0.00     0.014 A 
ATOM     19  C   UNL A   1      31.251  22.927  24.256  1.00  0.00     0.040 A 
ATOM     20  C   UNL A   1      33.106  22.984  22.162  1.00  0.00     0.003 A 
ATOM     21  C   UNL A   1      32.152  23.997  22.290  1.00  0.00     0.026 A 
BRANCH  17  22
ATOM     22  C   UNL A   1      32.324  20.876  25.141  1.00  0.00     0.251 C 
ATOM     23  N   UNL A   1      32.993  21.128  26.302  1.00  0.00    -0.346 N 
ATOM     24  H   UNL A   1      32.926  20.418  26.980  1.00  0.00     0.164 HD
ATOM     25  O   UNL A   1      31.788  19.787  24.947  1.00  0.00    -0.269 OA
BRANCH  23  26
ATOM     26  C   UNL A   1      33.793  22.283  26.698  1.00  0.00     0.109 C 
ATOM     27  C   UNL A   1      34.061  22.198  28.205  1.00  0.00     0.036 C 
BRANCH  26  28
ATOM     28  C   UNL A   1      35.136  22.322  25.980  1.00  0.00    -0.026 A 
ATOM     29  C   UNL A   1      35.805  21.118  25.696  1.00  0.00     0.006 A 
ATOM     30  C   UNL A   1      35.658  23.513  25.455  1.00  0.00     0.006 A 
ATOM     31  C   UNL A   1      36.928  21.103  24.863  1.00  0.00     0.000 A 
ATOM     32  C   UNL A   1      36.763  23.490  24.609  1.00  0.00     0.000 A 
ATOM     33  C   UNL A   1      37.398  22.288  24.310  1.00  0.00     0.000 A 
ENDBRANCH  26  28
ENDBRANCH  23  26
ENDBRANCH  17  22
ENDBRANCH  13  16
ENDBRANCH   7  12
ENDBRANCH   3   6
ENDBRANCH   1   2
BRANCH   1  34
ATOM     34  C   UNL A   1      32.042  29.275  27.642  1.00  0.00     0.023 C 
BRANCH  34  35
ATOM     35  C   UNL A   1      31.796  30.510  26.763  1.00  0.00     0.023 C 
BRANCH  35  36
ATOM     36  C   UNL A   1      32.895  31.577  26.735  1.00  0.00     0.116 C 
BRANCH  36  37
ATOM     37  N   UNL A   1      32.444  32.885  27.186  1.00  0.00    -0.352 N 
ATOM     38  C   UNL A   1      33.013  33.765  28.080  1.00  0.00     0.251 C 
ATOM     39  H   UNL A   1      31.595  33.189  26.790  1.00  0.00     0.163 HD
ATOM     40  O   UNL A   1      32.401  34.777  28.417  1.00  0.00    -0.269 OA
BRANCH  38  41
ATOM     41  C   UNL A   1      34.344  33.500  28.673  1.00  0.00     0.039 A 
ATOM     42  C   UNL A   1      34.428  32.844  29.904  1.00  0.00     0.014 A 
ATOM     43  C   UNL A   1      35.514  33.921  28.049  1.00  0.00     0.014 A 
ATOM     44  C   UNL A   1      35.680  32.496  30.436  1.00  0.00     0.010 A 
ATOM     45  C   UNL A   1      36.757  33.528  28.565  1.00  0.00     0.010 A 
ATOM     46  C   UNL A   1      36.868  32.751  29.729  1.00  0.00    -0.014 A 
BRANCH  46  47
ATOM     47  C   UNL A   1      38.179  32.129  30.134  1.00  0.00     0.031 A 
ATOM     48  C   UNL A   1      39.160  32.811  31.069  1.00  0.00     0.074 A 
ATOM     49  C   UNL A   1      38.580  30.971  29.556  1.00  0.00     0.049 A 
ATOM     50  N   UNL A   1      40.359  32.417  31.438  1.00  0.00    -0.248 NA
ATOM     51  C   UNL A   1      38.779  34.122  31.614  1.00  0.00     0.031 C 
ATOM     52  C   UNL A   1      37.851  30.231  28.521  1.00  0.00     0.029 A 
ATOM     53  N   UNL A   1      39.710  30.208  29.757  1.00  0.00    -0.354 N 
ATOM     54  C   UNL A   1      40.893  33.455  32.194  1.00  0.00     0.074 A 
ATOM     55  C   UNL A   1      39.904  34.512  32.199  1.00  0.00     0.031 C 
ATOM     56  C   UNL A   1      38.509  29.097  28.235  1.00  0.00     0.029 A 
ATOM     57  C   UNL A   1      39.732  29.040  29.028  1.00  0.00     0.049 A 
ATOM     58  H   UNL A   1      40.436  30.474  30.366  1.00  0.00     0.167 HD
ATOM     59  C   UNL A   1      42.079  33.525  32.850  1.00  0.00     0.031 A 
ATOM     60  C   UNL A   1      40.616  28.023  28.995  1.00  0.00     0.031 A 
ATOM     61  C   UNL A   1      43.035  32.454  32.956  1.00  0.00     0.049 A 
ATOM     62  C   UNL A   1      41.847  28.056  29.853  1.00  0.00     0.074 A 
ATOM     63  C   UNL A   1      44.181  32.399  33.737  1.00  0.00     0.029 A 
ATOM     64  N   UNL A   1      42.958  31.248  32.284  1.00  0.00    -0.354 N 
ATOM     65  N   UNL A   1      42.268  28.998  30.658  1.00  0.00    -0.248 NA
ATOM     66  C   UNL A   1      42.720  26.870  29.808  1.00  0.00     0.031 C 
ATOM     67  C   UNL A   1      44.810  31.169  33.517  1.00  0.00     0.029 A 
ATOM     68  C   UNL A   1      44.035  30.446  32.628  1.00  0.00     0.049 A 
ATOM     69  H   UNL A   1      42.243  30.997  31.656  1.00  0.00     0.167 HD
ATOM     70  C   UNL A   1      43.435  28.509  31.232  1.00  0.00     0.074 A 
ATOM     71  C   UNL A   1      43.650  27.182  30.700  1.00  0.00     0.031 C 
ATOM     72  C   UNL A   1      44.253  29.119  32.121  1.00  0.00     0.031 A 
BRANCH  59  73
ATOM     73  C   UNL A   1      42.414  34.810  33.561  1.00  0.00    -0.014 A 
ATOM     74  C   UNL A   1      43.097  35.846  32.906  1.00  0.00     0.009 A 
ATOM     75  C   UNL A   1      41.963  35.018  34.875  1.00  0.00     0.009 A 
ATOM     76  C   UNL A   1      43.356  37.050  33.565  1.00  0.00     0.001 A 
ATOM     77  C   UNL A   1      42.197  36.234  35.520  1.00  0.00     0.001 A 
ATOM     78  C   UNL A   1      42.901  37.245  34.869  1.00  0.00     0.000 A 
ENDBRANCH  59  73
BRANCH  60  79
ATOM     79  C   UNL A   1      40.349  26.832  28.148  1.00  0.00    -0.014 A 
ATOM     80  C   UNL A   1      40.895  26.753  26.856  1.00  0.00     0.009 A 
ATOM     81  C   UNL A   1      39.521  25.797  28.603  1.00  0.00     0.009 A 
ATOM     82  C   UNL A   1      40.587  25.676  26.023  1.00  0.00     0.001 A 
ATOM     83  C   UNL A   1      39.237  24.707  27.776  1.00  0.00     0.001 A 
ATOM     84  C   UNL A   1      39.760  24.654  26.485  1.00  0.00     0.000 A 
ENDBRANCH  60  79
BRANCH  72  85
ATOM     85  C   UNL A   1      45.440  28.344  32.620  1.00  0.00    -0.014 A 
ATOM     86  C   UNL A   1      46.687  28.427  31.983  1.00  0.00     0.009 A 
ATOM     87  C   UNL A   1      45.316  27.546  33.769  1.00  0.00     0.009 A 
ATOM     88  C   UNL A   1      47.778  27.702  32.467  1.00  0.00     0.001 A 
ATOM     89  C   UNL A   1      46.414  26.841  34.265  1.00  0.00     0.001 A 
ATOM     90  C   UNL A   1      47.642  26.913  33.609  1.00  0.00     0.000 A 
ENDBRANCH  72  85
ENDBRANCH  46  47
ENDBRANCH  38  41
ENDBRANCH  36  37
ENDBRANCH  35  36
ENDBRANCH  34  35
ENDBRANCH   1  34
TORSDOF 16
ENDMDL
MODEL 2
REMARK VINA RESULT:     -11.5      1.767      2.787
REMARK SMILES C[C@H](NC(=O)c1cccc(NC(=O)c2ccccc2C(=O)NCCCCNC(=O)c2ccc(-c3c4nc(c(-c5ccccc5)c5ccc([nH]5)c(-c5ccccc5)c5nc(c(-c6ccccc6)c6ccc3[nH]6)C=C5)C=C4)cc2)c1)c1ccccc1
REMARK SMILES IDX 23 1 22 2 20 3 21 4 19 6 14 7 15 8 16 9 18 10 17 11 12 12
REMARK SMILES IDX 11 13 13 15 10 16 6 17 7 18 78 19 8 20 9 21 4 22 3 23 5 25
REMARK SMILES IDX 2 26 1 27 79 28 80 29 84 30 81 31 83 32 82 33 24 34 25 35
REMARK SMILES IDX 26 36 27 37 28 38 29 40 30 41 31 42 77 43 32 44 76 45 33 46
REMARK SMILES IDX 34 47 35 48 70 49 36 50 75 51 69 52 71 53 37 54 74 55 68 56
REMARK SMILES IDX 67 57 38 59 60 60 45 61 59 62 46 63 49 64 58 65 72 66 47 67
REMARK SMILES IDX 48 68 57 70 73 71 50 72 39 73 40 74 44 75 41 76 43 77 42 78
REMARK SMILES IDX 61 79 62 80 66 81 63 82 65 83 64 84 51 85 52 86 56 87 53 88
REMARK SMILES IDX 55 89 54 90
REMARK H PARENT 22 5 11 14 3 24 27 39 71 58 49 69
REMARK Flexibility Score: inf
ROOT
ATOM      1  C   UNL A   1      32.991  28.691  25.913  1.00  0.00     0.116 C 
ENDROOT
BRANCH   1   2
ATOM      2  N   UNL A   1      32.908  29.184  24.550  1.00  0.00    -0.352 N 
ATOM      3  C   UNL A   1      32.292  28.657  23.440  1.00  0.00     0.252 C 
ATOM      4  O   UNL A   1      32.401  29.272  22.378  1.00  0.00    -0.269 OA
ATOM      5  H   UNL A   1      33.370  30.039  24.395  1.00  0.00     0.163 HD
BRANCH   3   6
ATOM      6  C   UNL A   1      31.566  27.357  23.439  1.00  0.00     0.052 A 
ATOM      7  C   UNL A   1      32.037  26.146  22.912  1.00  0.00     0.052 A 
ATOM      8  C   UNL A   1      31.228  24.994  22.946  1.00  0.00     0.014 A 
ATOM      9  C   UNL A   1      29.997  25.012  23.598  1.00  0.00     0.001 A 
ATOM     10  C   UNL A   1      30.337  27.344  24.128  1.00  0.00     0.014 A 
ATOM     11  C   UNL A   1      29.564  26.180  24.215  1.00  0.00     0.001 A 
BRANCH   7  12
ATOM     12  C   UNL A   1      33.377  25.952  22.334  1.00  0.00     0.256 C 
ATOM     13  N   UNL A   1      34.397  25.351  23.031  1.00  0.00    -0.322 N 
ATOM     14  H   UNL A   1      35.287  25.473  22.630  1.00  0.00     0.170 HD
ATOM     15  O   UNL A   1      33.591  26.413  21.212  1.00  0.00    -0.269 OA
BRANCH  13  16
ATOM     16  C   UNL A   1      34.397  24.594  24.214  1.00  0.00     0.042 A 
ATOM     17  C   UNL A   1      35.199  22.633  25.367  1.00  0.00     0.041 A 
ATOM     18  C   UNL A   1      34.523  23.010  26.528  1.00  0.00     0.014 A 
ATOM     19  C   UNL A   1      35.129  23.404  24.206  1.00  0.00     0.040 A 
ATOM     20  C   UNL A   1      33.760  24.172  26.522  1.00  0.00     0.003 A 
ATOM     21  C   UNL A   1      33.687  24.953  25.364  1.00  0.00     0.026 A 
BRANCH  17  22
ATOM     22  C   UNL A   1      35.898  21.346  25.351  1.00  0.00     0.251 C 
ATOM     23  N   UNL A   1      35.204  20.192  25.145  1.00  0.00    -0.346 N 
ATOM     24  H   UNL A   1      35.760  19.388  25.034  1.00  0.00     0.164 HD
ATOM     25  O   UNL A   1      37.119  21.328  25.499  1.00  0.00    -0.269 OA
BRANCH  23  26
ATOM     26  C   UNL A   1      33.765  19.959  25.063  1.00  0.00     0.109 C 
ATOM     27  C   UNL A   1      33.214  20.728  23.857  1.00  0.00     0.036 C 
BRANCH  26  28
ATOM     28  C   UNL A   1      33.435  18.483  24.874  1.00  0.00    -0.026 A 
ATOM     29  C   UNL A   1      34.058  17.760  23.840  1.00  0.00     0.006 A 
ATOM     30  C   UNL A   1      32.644  17.780  25.794  1.00  0.00     0.006 A 
ATOM     31  C   UNL A   1      33.938  16.370  23.768  1.00  0.00     0.000 A 
ATOM     32  C   UNL A   1      32.545  16.394  25.729  1.00  0.00     0.000 A 
ATOM     33  C   UNL A   1      33.192  15.686  24.720  1.00  0.00     0.000 A 
ENDBRANCH  26  28
ENDBRANCH  23  26
ENDBRANCH  17  22
ENDBRANCH  13  16
ENDBRANCH   7  12
ENDBRANCH   3   6
ENDBRANCH   1   2
BRANCH   1  34
ATOM     34  C   UNL A   1      31.979  29.323  26.868  1.00  0.00     0.023 C 
BRANCH  34  35
ATOM     35  C   UNL A   1      31.785  30.840  26.739  1.00  0.00     0.023 C 
BRANCH  35  36
ATOM     36  C   UNL A   1      32.967  31.732  27.132  1.00  0.00     0.116 C 
BRANCH  36  37
ATOM     37  N   UNL A   1      32.570  33.068  27.552  1.00  0.00    -0.352 N 
ATOM     38  C   UNL A   1      33.182  33.950  28.416  1.00  0.00     0.251 C 
ATOM     39  H   UNL A   1      31.730  33.394  27.155  1.00  0.00     0.163 HD
ATOM     40  O   UNL A   1      32.612  34.993  28.731  1.00  0.00    -0.269 OA
BRANCH  38  41
ATOM     41  C   UNL A   1      34.508  33.650  29.004  1.00  0.00     0.039 A 
ATOM     42  C   UNL A   1      34.581  32.938  30.204  1.00  0.00     0.014 A 
ATOM     43  C   UNL A   1      35.684  34.093  28.407  1.00  0.00     0.014 A 
ATOM     44  C   UNL A   1      35.828  32.558  30.726  1.00  0.00     0.010 A 
ATOM     45  C   UNL A   1      36.921  33.669  28.911  1.00  0.00     0.010 A 
ATOM     46  C   UNL A   1      37.022  32.839  30.039  1.00  0.00    -0.014 A 
BRANCH  46  47
ATOM     47  C   UNL A   1      38.326  32.191  30.422  1.00  0.00     0.031 A 
ATOM     48  C   UNL A   1      39.312  32.832  31.381  1.00  0.00     0.074 A 
ATOM     49  C   UNL A   1      38.717  31.051  29.804  1.00  0.00     0.049 A 
ATOM     50  N   UNL A   1      40.507  32.414  31.737  1.00  0.00    -0.248 NA
ATOM     51  C   UNL A   1      38.943  34.125  31.972  1.00  0.00     0.031 C 
ATOM     52  C   UNL A   1      37.983  30.355  28.743  1.00  0.00     0.029 A 
ATOM     53  N   UNL A   1      39.841  30.271  29.978  1.00  0.00    -0.354 N 
ATOM     54  C   UNL A   1      41.050  33.420  32.530  1.00  0.00     0.074 A 
ATOM     55  C   UNL A   1      40.070  34.484  32.572  1.00  0.00     0.031 C 
ATOM     56  C   UNL A   1      38.632  29.226  28.418  1.00  0.00     0.029 A 
ATOM     57  C   UNL A   1      39.853  29.130  29.209  1.00  0.00     0.049 A 
ATOM     58  H   UNL A   1      40.569  30.509  30.597  1.00  0.00     0.167 HD
ATOM     59  C   UNL A   1      42.236  33.456  33.189  1.00  0.00     0.031 A 
ATOM     60  C   UNL A   1      40.728  28.108  29.140  1.00  0.00     0.031 A 
ATOM     61  C   UNL A   1      43.182  32.373  33.258  1.00  0.00     0.049 A 
ATOM     62  C   UNL A   1      41.960  28.099  30.000  1.00  0.00     0.074 A 
ATOM     63  C   UNL A   1      44.327  32.281  34.037  1.00  0.00     0.029 A 
ATOM     64  N   UNL A   1      43.096  31.193  32.543  1.00  0.00    -0.354 N 
ATOM     65  N   UNL A   1      42.387  29.008  30.838  1.00  0.00    -0.248 NA
ATOM     66  C   UNL A   1      42.822  26.908  29.913  1.00  0.00     0.031 C 
ATOM     67  C   UNL A   1      44.945  31.054  33.774  1.00  0.00     0.029 A 
ATOM     68  C   UNL A   1      44.165  30.370  32.859  1.00  0.00     0.049 A 
ATOM     69  H   UNL A   1      42.379  30.970  31.906  1.00  0.00     0.167 HD
ATOM     70  C   UNL A   1      43.549  28.489  31.395  1.00  0.00     0.074 A 
ATOM     71  C   UNL A   1      43.754  27.180  30.816  1.00  0.00     0.031 C 
ATOM     72  C   UNL A   1      44.372  29.059  32.306  1.00  0.00     0.031 A 
BRANCH  59  73
ATOM     73  C   UNL A   1      42.582  34.712  33.945  1.00  0.00    -0.014 A 
ATOM     74  C   UNL A   1      42.239  34.865  35.296  1.00  0.00     0.009 A 
ATOM     75  C   UNL A   1      43.337  35.717  33.318  1.00  0.00     0.009 A 
ATOM     76  C   UNL A   1      42.612  36.015  35.995  1.00  0.00     0.001 A 
ATOM     77  C   UNL A   1      43.733  36.853  34.028  1.00  0.00     0.001 A 
ATOM     78  C   UNL A   1      43.363  37.005  35.363  1.00  0.00     0.000 A 
ENDBRANCH  59  73
BRANCH  60  79
ATOM     79  C   UNL A   1      40.452  26.950  28.251  1.00  0.00    -0.014 A 
ATOM     80  C   UNL A   1      40.973  26.927  26.946  1.00  0.00     0.009 A 
ATOM     81  C   UNL A   1      39.640  25.891  28.680  1.00  0.00     0.009 A 
ATOM     82  C   UNL A   1      40.655  25.882  26.077  1.00  0.00     0.001 A 
ATOM     83  C   UNL A   1      39.346  24.834  27.816  1.00  0.00     0.001 A 
ATOM     84  C   UNL A   1      39.843  24.836  26.513  1.00  0.00     0.000 A 
ENDBRANCH  60  79
BRANCH  72  85
ATOM     85  C   UNL A   1      45.552  28.257  32.778  1.00  0.00    -0.014 A 
ATOM     86  C   UNL A   1      45.452  27.387  33.874  1.00  0.00     0.009 A 
ATOM     87  C   UNL A   1      46.773  28.349  32.093  1.00  0.00     0.009 A 
ATOM     88  C   UNL A   1      46.560  26.648  34.293  1.00  0.00     0.001 A 
ATOM     89  C   UNL A   1      47.873  27.592  32.499  1.00  0.00     0.001 A 
ATOM     90  C   UNL A   1      47.768  26.747  33.603  1.00  0.00     0.000 A 
ENDBRANCH  72  85
ENDBRANCH  46  47
ENDBRANCH  38  41
ENDBRANCH  36  37
ENDBRANCH  35  36
ENDBRANCH  34  35
ENDBRANCH   1  34
TORSDOF 16
ENDMDL
MODEL 3
REMARK VINA RESULT:     -11.2      3.503      7.220
REMARK SMILES C[C@H](NC(=O)c1cccc(NC(=O)c2ccccc2C(=O)NCCCCNC(=O)c2ccc(-c3c4nc(c(-c5ccccc5)c5ccc([nH]5)c(-c5ccccc5)c5nc(c(-c6ccccc6)c6ccc3[nH]6)C=C5)C=C4)cc2)c1)c1ccccc1
REMARK SMILES IDX 23 1 22 2 20 3 21 4 19 6 14 7 15 8 16 9 18 10 17 11 12 12
REMARK SMILES IDX 11 13 13 15 10 16 6 17 7 18 78 19 8 20 9 21 4 22 3 23 5 25
REMARK SMILES IDX 2 26 1 27 79 28 80 29 84 30 81 31 83 32 82 33 24 34 25 35
REMARK SMILES IDX 26 36 27 37 28 38 29 40 30 41 31 42 77 43 32 44 76 45 33 46
REMARK SMILES IDX 34 47 35 48 70 49 36 50 75 51 69 52 71 53 37 54 74 55 68 56
REMARK SMILES IDX 67 57 38 59 60 60 45 61 59 62 46 63 49 64 58 65 72 66 47 67
REMARK SMILES IDX 48 68 57 70 73 71 50 72 39 73 40 74 44 75 41 76 43 77 42 78
REMARK SMILES IDX 61 79 62 80 66 81 63 82 65 83 64 84 51 85 52 86 56 87 53 88
REMARK SMILES IDX 55 89 54 90
REMARK H PARENT 22 5 11 14 3 24 27 39 71 58 49 69
REMARK Flexibility Score: inf
ROOT
ATOM      1  C   UNL A   1      32.091  30.562  25.733  1.00  0.00     0.116 C 
ENDROOT
BRANCH   1   2
ATOM      2  N   UNL A   1      32.970  29.788  24.875  1.00  0.00    -0.352 N 
ATOM      3  C   UNL A   1      32.863  28.502  24.405  1.00  0.00     0.252 C 
ATOM      4  O   UNL A   1      33.780  28.069  23.705  1.00  0.00    -0.269 OA
ATOM      5  H   UNL A   1      33.779  30.266  24.582  1.00  0.00     0.163 HD
BRANCH   3   6
ATOM      6  C   UNL A   1      31.739  27.588  24.751  1.00  0.00     0.052 A 
ATOM      7  C   UNL A   1      30.694  27.202  23.900  1.00  0.00     0.052 A 
ATOM      8  C   UNL A   1      29.672  26.355  24.370  1.00  0.00     0.014 A 
ATOM      9  C   UNL A   1      29.740  25.803  25.648  1.00  0.00     0.001 A 
ATOM     10  C   UNL A   1      31.811  26.988  26.024  1.00  0.00     0.014 A 
ATOM     11  C   UNL A   1      30.826  26.097  26.465  1.00  0.00     0.001 A 
BRANCH   7  12
ATOM     12  C   UNL A   1      30.584  27.588  22.484  1.00  0.00     0.256 C 
ATOM     13  N   UNL A   1      31.272  26.936  21.490  1.00  0.00    -0.322 N 
ATOM     14  H   UNL A   1      31.288  27.414  20.629  1.00  0.00     0.170 HD
ATOM     15  O   UNL A   1      29.901  28.575  22.210  1.00  0.00    -0.269 OA
BRANCH  13  16
ATOM     16  C   UNL A   1      31.958  25.711  21.480  1.00  0.00     0.042 A 
ATOM     17  C   UNL A   1      32.562  23.716  22.693  1.00  0.00     0.041 A 
ATOM     18  C   UNL A   1      33.247  23.220  21.583  1.00  0.00     0.014 A 
ATOM     19  C   UNL A   1      31.933  24.961  22.658  1.00  0.00     0.040 A 
ATOM     20  C   UNL A   1      33.308  23.986  20.425  1.00  0.00     0.003 A 
ATOM     21  C   UNL A   1      32.678  25.233  20.380  1.00  0.00     0.026 A 
BRANCH  17  22
ATOM     22  C   UNL A   1      32.610  22.953  23.943  1.00  0.00     0.251 C 
ATOM     23  N   UNL A   1      33.650  23.121  24.808  1.00  0.00    -0.346 N 
ATOM     24  H   UNL A   1      33.548  22.661  25.672  1.00  0.00     0.164 HD
ATOM     25  O   UNL A   1      31.688  22.185  24.209  1.00  0.00    -0.269 OA
BRANCH  23  26
ATOM     26  C   UNL A   1      34.891  23.875  24.657  1.00  0.00     0.109 C 
ATOM     27  C   UNL A   1      34.805  25.136  25.524  1.00  0.00     0.036 C 
BRANCH  26  28
ATOM     28  C   UNL A   1      36.106  23.073  25.108  1.00  0.00    -0.026 A 
ATOM     29  C   UNL A   1      36.316  21.783  24.588  1.00  0.00     0.006 A 
ATOM     30  C   UNL A   1      37.108  23.639  25.908  1.00  0.00     0.006 A 
ATOM     31  C   UNL A   1      37.517  21.107  24.818  1.00  0.00     0.000 A 
ATOM     32  C   UNL A   1      38.310  22.970  26.116  1.00  0.00     0.000 A 
ATOM     33  C   UNL A   1      38.519  21.707  25.571  1.00  0.00     0.000 A 
ENDBRANCH  26  28
ENDBRANCH  23  26
ENDBRANCH  17  22
ENDBRANCH  13  16
ENDBRANCH   7  12
ENDBRANCH   3   6
ENDBRANCH   1   2
BRANCH   1  34
ATOM     34  C   UNL A   1      32.460  30.507  27.215  1.00  0.00     0.023 C 
BRANCH  34  35
ATOM     35  C   UNL A   1      33.896  30.072  27.539  1.00  0.00     0.023 C 
BRANCH  35  36
ATOM     36  C   UNL A   1      34.901  31.178  27.875  1.00  0.00     0.116 C 
BRANCH  36  37
ATOM     37  N   UNL A   1      35.014  31.445  29.302  1.00  0.00    -0.352 N 
ATOM     38  C   UNL A   1      35.953  31.021  30.217  1.00  0.00     0.251 C 
ATOM     39  H   UNL A   1      34.305  32.020  29.672  1.00  0.00     0.163 HD
ATOM     40  O   UNL A   1      35.796  31.264  31.411  1.00  0.00    -0.269 OA
BRANCH  38  41
ATOM     41  C   UNL A   1      37.140  30.244  29.791  1.00  0.00     0.039 A 
ATOM     42  C   UNL A   1      37.637  30.407  28.496  1.00  0.00     0.014 A 
ATOM     43  C   UNL A   1      37.752  29.328  30.641  1.00  0.00     0.014 A 
ATOM     44  C   UNL A   1      38.818  29.755  28.104  1.00  0.00     0.010 A 
ATOM     45  C   UNL A   1      38.954  28.719  30.257  1.00  0.00     0.010 A 
ATOM     46  C   UNL A   1      39.550  28.969  29.011  1.00  0.00    -0.014 A 
BRANCH  46  47
ATOM     47  C   UNL A   1      40.953  28.511  28.707  1.00  0.00     0.031 A 
ATOM     48  C   UNL A   1      41.279  27.098  28.261  1.00  0.00     0.074 A 
ATOM     49  C   UNL A   1      41.998  29.337  28.955  1.00  0.00     0.049 A 
ATOM     50  N   UNL A   1      42.455  26.553  28.040  1.00  0.00    -0.248 NA
ATOM     51  C   UNL A   1      40.159  26.162  28.095  1.00  0.00     0.031 C 
ATOM     52  C   UNL A   1      41.909  30.684  29.527  1.00  0.00     0.029 A 
ATOM     53  N   UNL A   1      43.351  29.163  28.759  1.00  0.00    -0.354 N 
ATOM     54  C   UNL A   1      42.217  25.208  27.780  1.00  0.00     0.074 A 
ATOM     55  C   UNL A   1      40.789  25.010  27.909  1.00  0.00     0.031 C 
ATOM     56  C   UNL A   1      43.132  31.234  29.566  1.00  0.00     0.029 A 
ATOM     57  C   UNL A   1      44.107  30.272  29.066  1.00  0.00     0.049 A 
ATOM     58  H   UNL A   1      43.742  28.322  28.428  1.00  0.00     0.167 HD
ATOM     59  C   UNL A   1      43.090  24.226  27.439  1.00  0.00     0.031 A 
ATOM     60  C   UNL A   1      45.428  30.511  28.954  1.00  0.00     0.031 A 
ATOM     61  C   UNL A   1      44.497  24.411  27.196  1.00  0.00     0.049 A 
ATOM     62  C   UNL A   1      46.353  29.454  28.423  1.00  0.00     0.074 A 
ATOM     63  C   UNL A   1      45.409  23.496  26.692  1.00  0.00     0.029 A 
ATOM     64  N   UNL A   1      45.196  25.583  27.418  1.00  0.00    -0.354 N 
ATOM     65  N   UNL A   1      46.082  28.225  28.065  1.00  0.00    -0.248 NA
ATOM     66  C   UNL A   1      47.769  29.827  28.267  1.00  0.00     0.031 C 
ATOM     67  C   UNL A   1      46.666  24.107  26.633  1.00  0.00     0.029 A 
ATOM     68  C   UNL A   1      46.526  25.414  27.066  1.00  0.00     0.049 A 
ATOM     69  H   UNL A   1      44.806  26.414  27.773  1.00  0.00     0.167 HD
ATOM     70  C   UNL A   1      47.283  27.690  27.618  1.00  0.00     0.074 A 
ATOM     71  C   UNL A   1      48.283  28.728  27.732  1.00  0.00     0.031 C 
ATOM     72  C   UNL A   1      47.527  26.441  27.157  1.00  0.00     0.031 A 
BRANCH  59  73
ATOM     73  C   UNL A   1      42.545  22.833  27.260  1.00  0.00    -0.014 A 
ATOM     74  C   UNL A   1      41.847  22.187  28.290  1.00  0.00     0.009 A 
ATOM     75  C   UNL A   1      42.658  22.196  26.013  1.00  0.00     0.009 A 
ATOM     76  C   UNL A   1      41.306  20.915  28.090  1.00  0.00     0.001 A 
ATOM     77  C   UNL A   1      42.090  20.937  25.806  1.00  0.00     0.001 A 
ATOM     78  C   UNL A   1      41.423  20.294  26.847  1.00  0.00     0.000 A 
ENDBRANCH  59  73
BRANCH  60  79
ATOM     79  C   UNL A   1      45.975  31.848  29.304  1.00  0.00    -0.014 A 
ATOM     80  C   UNL A   1      46.475  32.086  30.595  1.00  0.00     0.009 A 
ATOM     81  C   UNL A   1      45.961  32.896  28.374  1.00  0.00     0.009 A 
ATOM     82  C   UNL A   1      46.918  33.359  30.958  1.00  0.00     0.001 A 
ATOM     83  C   UNL A   1      46.430  34.163  28.733  1.00  0.00     0.001 A 
ATOM     84  C   UNL A   1      46.897  34.395  30.026  1.00  0.00     0.000 A 
ENDBRANCH  60  79
BRANCH  72  85
ATOM     85  C   UNL A   1      48.922  26.129  26.692  1.00  0.00    -0.014 A 
ATOM     86  C   UNL A   1      49.356  26.471  25.402  1.00  0.00     0.009 A 
ATOM     87  C   UNL A   1      49.826  25.514  27.572  1.00  0.00     0.009 A 
ATOM     88  C   UNL A   1      50.658  26.176  24.993  1.00  0.00     0.001 A 
ATOM     89  C   UNL A   1      51.134  25.242  27.169  1.00  0.00     0.001 A 
ATOM     90  C   UNL A   1      51.547  25.566  25.877  1.00  0.00     0.000 A 
ENDBRANCH  72  85
ENDBRANCH  46  47
ENDBRANCH  38  41
ENDBRANCH  36  37
ENDBRANCH  35  36
ENDBRANCH  34  35
ENDBRANCH   1  34
TORSDOF 16
ENDMDL
