MODEL 1
REMARK VINA RESULT:     -12.0      0.000      0.000
REMARK SMILES Cc1ccc(C)c([C@@H](C)[C@](C)(O)C(=O)NCCCCNC(=O)c2ccc(-c3c4nc(c(-c5ccccc5)c5ccc([nH]5)c(-c5ccccc5)c5nc(c(-c6ccccc6)c6ccc3[nH]6)C=C5)C=C4)cc2)c1
REMARK SMILES IDX 17 1 16 2 15 3 13 4 14 5 10 7 11 8 8 9 9 10 7 11 1 12 2 13
REMARK SMILES IDX 3 14 71 15 4 16 5 17 6 18 12 19 18 21 19 22 20 23 21 24
REMARK SMILES IDX 22 26 23 27 24 28 70 29 25 30 69 31 26 32 27 33 28 34 63 35
REMARK SMILES IDX 29 36 68 37 62 38 64 39 30 40 67 41 61 42 60 43 31 45 53 46
REMARK SMILES IDX 38 47 52 48 39 49 42 50 51 51 65 52 40 53 41 54 50 56 66 57
REMARK SMILES IDX 43 58 32 59 33 60 37 61 34 62 36 63 35 64 54 65 55 66 59 67
REMARK SMILES IDX 56 68 58 69 57 70 44 71 45 72 49 73 46 74 48 75 47 76
REMARK H PARENT 15 6 12 20 20 25 64 44 42 55
REMARK Flexibility Score: inf
ROOT
ATOM      1  C   UNL A   1      32.392  22.754  26.521  1.00  0.00     0.023 C 
ENDROOT
BRANCH   1   2
ATOM      2  C   UNL A   1      31.612  24.007  26.922  1.00  0.00     0.116 C 
BRANCH   2   3
ATOM      3  N   UNL A   1      30.879  24.639  25.840  1.00  0.00    -0.354 N 
ATOM      4  C   UNL A   1      30.890  25.924  25.366  1.00  0.00     0.252 C 
ATOM      5  O   UNL A   1      30.224  26.111  24.335  1.00  0.00    -0.272 OA
ATOM      6  H   UNL A   1      30.265  24.038  25.361  1.00  0.00     0.163 HD
BRANCH   4   7
ATOM      7  C   UNL A   1      31.692  27.115  26.039  1.00  0.00     0.146 C 
ATOM      8  C   UNL A   1      31.108  28.426  25.478  1.00  0.00     0.053 C 
BRANCH   7   9
ATOM      9  C   UNL A   1      33.269  27.046  25.920  1.00  0.00     0.057 C 
ATOM     10  C   UNL A   1      34.111  28.185  26.501  1.00  0.00     0.016 C 
BRANCH   9  11
ATOM     11  C   UNL A   1      33.770  26.629  24.550  1.00  0.00    -0.039 A 
ATOM     12  C   UNL A   1      34.221  23.104  23.371  1.00  0.00     0.044 C 
ATOM     13  C   UNL A   1      34.041  24.586  23.302  1.00  0.00    -0.051 A 
ATOM     14  C   UNL A   1      33.654  25.271  22.147  1.00  0.00     0.004 A 
ATOM     15  C   UNL A   1      34.174  25.293  24.481  1.00  0.00     0.007 A 
ATOM     16  C   UNL A   1      33.510  26.657  22.164  1.00  0.00     0.004 A 
ATOM     17  C   UNL A   1      33.585  27.364  23.368  1.00  0.00    -0.048 A 
ATOM     18  C   UNL A   1      33.493  28.859  23.319  1.00  0.00     0.044 C 
ENDBRANCH   9  11
ENDBRANCH   7   9
BRANCH   7  19
ATOM     19  O   UNL A   1      31.366  27.129  27.448  1.00  0.00    -0.380 OA
ATOM     20  H   UNL A   1      30.658  27.771  27.609  1.00  0.00     0.212 HD
ENDBRANCH   7  19
ENDBRANCH   4   7
ENDBRANCH   2   3
ENDBRANCH   1   2
BRANCH   1  21
ATOM     21  C   UNL A   1      33.513  22.306  27.473  1.00  0.00     0.023 C 
BRANCH  21  22
ATOM     22  C   UNL A   1      34.957  22.377  26.962  1.00  0.00     0.116 C 
BRANCH  22  23
ATOM     23  N   UNL A   1      35.394  21.260  26.128  1.00  0.00    -0.352 N 
ATOM     24  C   UNL A   1      36.604  21.018  25.475  1.00  0.00     0.251 C 
ATOM     25  H   UNL A   1      34.718  20.553  26.005  1.00  0.00     0.163 HD
ATOM     26  O   UNL A   1      36.727  20.032  24.778  1.00  0.00    -0.269 OA
BRANCH  24  27
ATOM     27  C   UNL A   1      37.785  21.901  25.712  1.00  0.00     0.039 A 
ATOM     28  C   UNL A   1      39.017  21.324  26.074  1.00  0.00     0.014 A 
ATOM     29  C   UNL A   1      37.646  23.276  25.760  1.00  0.00     0.014 A 
ATOM     30  C   UNL A   1      40.012  22.101  26.699  1.00  0.00     0.010 A 
ATOM     31  C   UNL A   1      38.589  24.021  26.452  1.00  0.00     0.010 A 
ATOM     32  C   UNL A   1      39.752  23.440  26.991  1.00  0.00    -0.014 A 
BRANCH  32  33
ATOM     33  C   UNL A   1      40.670  24.332  27.726  1.00  0.00     0.031 A 
ATOM     34  C   UNL A   1      40.100  25.667  27.996  1.00  0.00     0.074 A 
ATOM     35  C   UNL A   1      41.868  24.074  28.302  1.00  0.00     0.049 A 
ATOM     36  N   UNL A   1      40.355  26.712  27.283  1.00  0.00    -0.248 NA
ATOM     37  C   UNL A   1      39.086  25.873  29.037  1.00  0.00     0.031 C 
ATOM     38  C   UNL A   1      42.697  22.879  28.266  1.00  0.00     0.029 A 
ATOM     39  N   UNL A   1      42.546  24.848  29.212  1.00  0.00    -0.354 N 
ATOM     40  C   UNL A   1      39.700  27.750  27.912  1.00  0.00     0.074 A 
ATOM     41  C   UNL A   1      38.731  27.133  28.785  1.00  0.00     0.031 C 
ATOM     42  C   UNL A   1      43.543  22.853  29.323  1.00  0.00     0.029 A 
ATOM     43  C   UNL A   1      43.482  24.146  29.966  1.00  0.00     0.049 A 
ATOM     44  H   UNL A   1      42.385  25.813  29.320  1.00  0.00     0.167 HD
ATOM     45  C   UNL A   1      40.212  29.010  27.913  1.00  0.00     0.031 A 
ATOM     46  C   UNL A   1      44.282  24.615  30.951  1.00  0.00     0.031 A 
ATOM     47  C   UNL A   1      41.379  29.119  27.063  1.00  0.00     0.049 A 
ATOM     48  C   UNL A   1      44.573  26.018  30.612  1.00  0.00     0.074 A 
ATOM     49  C   UNL A   1      41.666  28.843  25.738  1.00  0.00     0.029 A 
ATOM     50  N   UNL A   1      42.599  29.211  27.694  1.00  0.00    -0.354 N 
ATOM     51  N   UNL A   1      45.278  26.354  29.570  1.00  0.00    -0.248 NA
ATOM     52  C   UNL A   1      43.749  27.073  31.175  1.00  0.00     0.031 C 
ATOM     53  C   UNL A   1      43.006  28.348  25.735  1.00  0.00     0.029 A 
ATOM     54  C   UNL A   1      43.484  28.391  27.044  1.00  0.00     0.049 A 
ATOM     55  H   UNL A   1      42.800  29.769  28.480  1.00  0.00     0.167 HD
ATOM     56  C   UNL A   1      44.609  27.451  29.054  1.00  0.00     0.074 A 
ATOM     57  C   UNL A   1      43.799  27.945  30.163  1.00  0.00     0.031 C 
ATOM     58  C   UNL A   1      44.550  27.664  27.704  1.00  0.00     0.031 A 
BRANCH  45  59
ATOM     59  C   UNL A   1      39.915  30.033  28.977  1.00  0.00    -0.014 A 
ATOM     60  C   UNL A   1      38.742  30.796  28.860  1.00  0.00     0.009 A 
ATOM     61  C   UNL A   1      40.831  30.434  29.969  1.00  0.00     0.009 A 
ATOM     62  C   UNL A   1      38.520  31.919  29.662  1.00  0.00     0.001 A 
ATOM     63  C   UNL A   1      40.589  31.521  30.810  1.00  0.00     0.001 A 
ATOM     64  C   UNL A   1      39.442  32.279  30.641  1.00  0.00     0.000 A 
ENDBRANCH  45  59
BRANCH  46  65
ATOM     65  C   UNL A   1      44.685  23.985  32.222  1.00  0.00    -0.014 A 
ATOM     66  C   UNL A   1      45.767  24.463  32.976  1.00  0.00     0.009 A 
ATOM     67  C   UNL A   1      43.813  23.074  32.841  1.00  0.00     0.009 A 
ATOM     68  C   UNL A   1      45.951  24.059  34.307  1.00  0.00     0.001 A 
ATOM     69  C   UNL A   1      43.993  22.672  34.170  1.00  0.00     0.001 A 
ATOM     70  C   UNL A   1      45.060  23.172  34.907  1.00  0.00     0.000 A 
ENDBRANCH  46  65
BRANCH  58  71
ATOM     71  C   UNL A   1      45.476  26.854  26.821  1.00  0.00    -0.014 A 
ATOM     72  C   UNL A   1      45.172  25.554  26.381  1.00  0.00     0.009 A 
ATOM     73  C   UNL A   1      46.632  27.464  26.315  1.00  0.00     0.009 A 
ATOM     74  C   UNL A   1      46.013  24.870  25.495  1.00  0.00     0.001 A 
ATOM     75  C   UNL A   1      47.464  26.792  25.413  1.00  0.00     0.001 A 
ATOM     76  C   UNL A   1      47.159  25.493  25.008  1.00  0.00     0.000 A 
ENDBRANCH  58  71
ENDBRANCH  32  33
ENDBRANCH  24  27
ENDBRANCH  22  23
ENDBRANCH  21  22
ENDBRANCH   1  21
TORSDOF 14
ENDMDL
MODEL 2
REMARK VINA RESULT:     -11.6      2.889      6.504
REMARK SMILES Cc1ccc(C)c([C@@H](C)[C@](C)(O)C(=O)NCCCCNC(=O)c2ccc(-c3c4nc(c(-c5ccccc5)c5ccc([nH]5)c(-c5ccccc5)c5nc(c(-c6ccccc6)c6ccc3[nH]6)C=C5)C=C4)cc2)c1
REMARK SMILES IDX 17 1 16 2 15 3 13 4 14 5 10 7 11 8 8 9 9 10 7 11 1 12 2 13
REMARK SMILES IDX 3 14 71 15 4 16 5 17 6 18 12 19 18 21 19 22 20 23 21 24
REMARK SMILES IDX 22 26 23 27 24 28 70 29 25 30 69 31 26 32 27 33 28 34 63 35
REMARK SMILES IDX 29 36 68 37 62 38 64 39 30 40 67 41 61 42 60 43 31 45 53 46
REMARK SMILES IDX 38 47 52 48 39 49 42 50 51 51 65 52 40 53 41 54 50 56 66 57
REMARK SMILES IDX 43 58 32 59 33 60 37 61 34 62 36 63 35 64 54 65 55 66 59 67
REMARK SMILES IDX 56 68 58 69 57 70 44 71 45 72 49 73 46 74 48 75 47 76
REMARK H PARENT 15 6 12 20 20 25 64 44 42 55
REMARK Flexibility Score: inf
ROOT
ATOM      1  C   UNL A   1      35.521  21.149  24.919  1.00  0.00     0.023 C 
ENDROOT
BRANCH   1   2
ATOM      2  C   UNL A   1      34.067  20.971  25.362  1.00  0.00     0.116 C 
BRANCH   2   3
ATOM      3  N   UNL A   1      33.789  21.397  26.721  1.00  0.00    -0.354 N 
ATOM      4  C   UNL A   1      32.953  22.362  27.217  1.00  0.00     0.252 C 
ATOM      5  O   UNL A   1      32.859  22.392  28.454  1.00  0.00    -0.272 OA
ATOM      6  H   UNL A   1      34.291  20.906  27.410  1.00  0.00     0.163 HD
BRANCH   4   7
ATOM      7  C   UNL A   1      32.132  23.376  26.317  1.00  0.00     0.146 C 
ATOM      8  C   UNL A   1      31.067  22.553  25.566  1.00  0.00     0.053 C 
BRANCH   7   9
ATOM      9  C   UNL A   1      32.984  24.299  25.354  1.00  0.00     0.057 C 
ATOM     10  C   UNL A   1      33.792  25.454  25.952  1.00  0.00     0.016 C 
BRANCH   9  11
ATOM     11  C   UNL A   1      32.252  24.727  24.096  1.00  0.00    -0.039 A 
ATOM     12  C   UNL A   1      30.260  27.871  23.693  1.00  0.00     0.044 C 
ATOM     13  C   UNL A   1      31.046  26.660  23.311  1.00  0.00    -0.051 A 
ATOM     14  C   UNL A   1      31.600  26.457  22.045  1.00  0.00     0.004 A 
ATOM     15  C   UNL A   1      31.315  25.742  24.308  1.00  0.00     0.007 A 
ATOM     16  C   UNL A   1      32.320  25.297  21.765  1.00  0.00     0.004 A 
ATOM     17  C   UNL A   1      32.643  24.399  22.787  1.00  0.00    -0.048 A 
ATOM     18  C   UNL A   1      33.357  23.134  22.421  1.00  0.00     0.044 C 
ENDBRANCH   9  11
ENDBRANCH   7   9
BRANCH   7  19
ATOM     19  O   UNL A   1      31.384  24.247  27.198  1.00  0.00    -0.380 OA
ATOM     20  H   UNL A   1      31.939  24.999  27.455  1.00  0.00     0.212 HD
ENDBRANCH   7  19
ENDBRANCH   4   7
ENDBRANCH   2   3
ENDBRANCH   1   2
BRANCH   1  21
ATOM     21  C   UNL A   1      36.297  22.314  25.555  1.00  0.00     0.023 C 
BRANCH  21  22
ATOM     22  C   UNL A   1      37.799  22.415  25.264  1.00  0.00     0.116 C 
BRANCH  22  23
ATOM     23  N   UNL A   1      38.674  21.649  26.149  1.00  0.00    -0.352 N 
ATOM     24  C   UNL A   1      39.756  22.042  26.938  1.00  0.00     0.251 C 
ATOM     25  H   UNL A   1      38.463  20.687  26.198  1.00  0.00     0.163 HD
ATOM     26  O   UNL A   1      40.383  21.209  27.560  1.00  0.00    -0.269 OA
BRANCH  24  27
ATOM     27  C   UNL A   1      40.084  23.488  27.113  1.00  0.00     0.039 A 
ATOM     28  C   UNL A   1      41.378  23.859  27.524  1.00  0.00     0.014 A 
ATOM     29  C   UNL A   1      39.094  24.453  27.057  1.00  0.00     0.014 A 
ATOM     30  C   UNL A   1      41.611  25.126  28.093  1.00  0.00     0.010 A 
ATOM     31  C   UNL A   1      39.303  25.666  27.695  1.00  0.00     0.010 A 
ATOM     32  C   UNL A   1      40.539  25.999  28.281  1.00  0.00    -0.014 A 
BRANCH  32  33
ATOM     33  C   UNL A   1      40.632  27.310  28.951  1.00  0.00     0.031 A 
ATOM     34  C   UNL A   1      41.545  28.252  28.274  1.00  0.00     0.074 A 
ATOM     35  C   UNL A   1      39.918  27.820  29.982  1.00  0.00     0.049 A 
ATOM     36  N   UNL A   1      42.763  28.463  28.648  1.00  0.00    -0.248 NA
ATOM     37  C   UNL A   1      41.165  28.929  27.028  1.00  0.00     0.031 C 
ATOM     38  C   UNL A   1      38.928  27.195  30.848  1.00  0.00     0.029 A 
ATOM     39  N   UNL A   1      39.840  29.132  30.383  1.00  0.00    -0.354 N 
ATOM     40  C   UNL A   1      43.232  29.456  27.814  1.00  0.00     0.074 A 
ATOM     41  C   UNL A   1      42.329  29.487  26.690  1.00  0.00     0.031 C 
ATOM     42  C   UNL A   1      38.128  28.132  31.411  1.00  0.00     0.029 A 
ATOM     43  C   UNL A   1      38.709  29.427  31.137  1.00  0.00     0.049 A 
ATOM     44  H   UNL A   1      40.525  29.802  30.158  1.00  0.00     0.167 HD
ATOM     45  C   UNL A   1      44.125  30.383  28.254  1.00  0.00     0.031 A 
ATOM     46  C   UNL A   1      38.336  30.622  31.651  1.00  0.00     0.031 A 
ATOM     47  C   UNL A   1      44.603  30.082  29.586  1.00  0.00     0.049 A 
ATOM     48  C   UNL A   1      39.582  31.347  31.953  1.00  0.00     0.074 A 
ATOM     49  C   UNL A   1      45.202  28.997  30.200  1.00  0.00     0.029 A 
ATOM     50  N   UNL A   1      44.117  30.864  30.610  1.00  0.00    -0.354 N 
ATOM     51  N   UNL A   1      40.413  30.954  32.876  1.00  0.00    -0.248 NA
ATOM     52  C   UNL A   1      40.128  32.266  30.971  1.00  0.00     0.031 C 
ATOM     53  C   UNL A   1      44.660  28.960  31.521  1.00  0.00     0.029 A 
ATOM     54  C   UNL A   1      43.797  30.046  31.663  1.00  0.00     0.049 A 
ATOM     55  H   UNL A   1      44.015  31.843  30.589  1.00  0.00     0.167 HD
ATOM     56  C   UNL A   1      41.660  31.145  32.305  1.00  0.00     0.074 A 
ATOM     57  C   UNL A   1      41.430  32.103  31.227  1.00  0.00     0.031 C 
ATOM     58  C   UNL A   1      42.690  30.285  32.567  1.00  0.00     0.031 A 
BRANCH  45  59
ATOM     59  C   UNL A   1      44.261  31.761  27.661  1.00  0.00    -0.014 A 
ATOM     60  C   UNL A   1      45.272  31.981  26.712  1.00  0.00     0.009 A 
ATOM     61  C   UNL A   1      43.588  32.901  28.142  1.00  0.00     0.009 A 
ATOM     62  C   UNL A   1      45.617  33.273  26.302  1.00  0.00     0.001 A 
ATOM     63  C   UNL A   1      43.890  34.187  27.694  1.00  0.00     0.001 A 
ATOM     64  C   UNL A   1      44.922  34.376  26.790  1.00  0.00     0.000 A 
ENDBRANCH  45  59
BRANCH  46  65
ATOM     65  C   UNL A   1      36.996  31.228  31.760  1.00  0.00    -0.014 A 
ATOM     66  C   UNL A   1      36.526  31.775  32.962  1.00  0.00     0.009 A 
ATOM     67  C   UNL A   1      36.281  31.524  30.587  1.00  0.00     0.009 A 
ATOM     68  C   UNL A   1      35.395  32.606  32.981  1.00  0.00     0.001 A 
ATOM     69  C   UNL A   1      35.155  32.356  30.604  1.00  0.00     0.001 A 
ATOM     70  C   UNL A   1      34.716  32.904  31.802  1.00  0.00     0.000 A 
ENDBRANCH  46  65
BRANCH  58  71
ATOM     71  C   UNL A   1      42.521  29.312  33.716  1.00  0.00    -0.014 A 
ATOM     72  C   UNL A   1      42.898  29.613  35.036  1.00  0.00     0.009 A 
ATOM     73  C   UNL A   1      41.848  28.104  33.486  1.00  0.00     0.009 A 
ATOM     74  C   UNL A   1      42.646  28.722  36.086  1.00  0.00     0.001 A 
ATOM     75  C   UNL A   1      41.576  27.220  34.535  1.00  0.00     0.001 A 
ATOM     76  C   UNL A   1      41.981  27.526  35.834  1.00  0.00     0.000 A 
ENDBRANCH  58  71
ENDBRANCH  32  33
ENDBRANCH  24  27
ENDBRANCH  22  23
ENDBRANCH  21  22
ENDBRANCH   1  21
TORSDOF 14
ENDMDL
MODEL 3
REMARK VINA RESULT:     -11.3      3.217      8.673
REMARK SMILES Cc1ccc(C)c([C@@H](C)[C@](C)(O)C(=O)NCCCCNC(=O)c2ccc(-c3c4nc(c(-c5ccccc5)c5ccc([nH]5)c(-c5ccccc5)c5nc(c(-c6ccccc6)c6ccc3[nH]6)C=C5)C=C4)cc2)c1
REMARK SMILES IDX 17 1 16 2 15 3 13 4 14 5 10 7 11 8 8 9 9 10 7 11 1 12 2 13
REMARK SMILES IDX 3 14 71 15 4 16 5 17 6 18 12 19 18 21 19 22 20 23 21 24
REMARK SMILES IDX 22 26 23 27 24 28 70 29 25 30 69 31 26 32 27 33 28 34 63 35
REMARK SMILES IDX 29 36 68 37 62 38 64 39 30 40 67 41 61 42 60 43 31 45 53 46
REMARK SMILES IDX 38 47 52 48 39 49 42 50 51 51 65 52 40 53 41 54 50 56 66 57
REMARK SMILES IDX 43 58 32 59 33 60 37 61 34 62 36 63 35 64 54 65 55 66 59 67
REMARK SMILES IDX 56 68 58 69 57 70 44 71 45 72 49 73 46 74 48 75 47 76
REMARK H PARENT 15 6 12 20 20 25 64 44 42 55
REMARK Flexibility Score: inf
ROOT
ATOM      1  C   UNL A   1      33.580  26.761  24.669  1.00  0.00     0.023 C 
ENDROOT
BRANCH   1   2
ATOM      2  C   UNL A   1      33.775  25.594  25.640  1.00  0.00     0.116 C 
BRANCH   2   3
ATOM      3  N   UNL A   1      32.569  25.165  26.323  1.00  0.00    -0.354 N 
ATOM      4  C   UNL A   1      32.016  23.924  26.495  1.00  0.00     0.252 C 
ATOM      5  O   UNL A   1      31.026  23.887  27.243  1.00  0.00    -0.272 OA
ATOM      6  H   UNL A   1      32.056  25.896  26.738  1.00  0.00     0.163 HD
BRANCH   4   7
ATOM      7  C   UNL A   1      32.573  22.600  25.821  1.00  0.00     0.146 C 
ATOM      8  C   UNL A   1      31.371  21.657  25.618  1.00  0.00     0.053 C 
BRANCH   7   9
ATOM      9  C   UNL A   1      33.783  21.900  26.562  1.00  0.00     0.057 C 
ATOM     10  C   UNL A   1      34.111  22.305  28.002  1.00  0.00     0.016 C 
BRANCH   9  11
ATOM     11  C   UNL A   1      35.039  21.780  25.721  1.00  0.00    -0.039 A 
ATOM     12  C   UNL A   1      38.143  23.834  26.127  1.00  0.00     0.044 C 
ATOM     13  C   UNL A   1      37.267  22.697  25.711  1.00  0.00    -0.051 A 
ATOM     14  C   UNL A   1      37.750  21.452  25.300  1.00  0.00     0.004 A 
ATOM     15  C   UNL A   1      35.904  22.872  25.839  1.00  0.00     0.007 A 
ATOM     16  C   UNL A   1      36.866  20.441  24.924  1.00  0.00     0.004 A 
ATOM     17  C   UNL A   1      35.489  20.597  25.112  1.00  0.00    -0.048 A 
ATOM     18  C   UNL A   1      34.580  19.509  24.626  1.00  0.00     0.044 C 
ENDBRANCH   9  11
ENDBRANCH   7   9
BRANCH   7  19
ATOM     19  O   UNL A   1      33.020  22.936  24.487  1.00  0.00    -0.380 OA
ATOM     20  H   UNL A   1      33.097  23.899  24.405  1.00  0.00     0.212 HD
ENDBRANCH   7  19
ENDBRANCH   4   7
ENDBRANCH   2   3
ENDBRANCH   1   2
BRANCH   1  21
ATOM     21  C   UNL A   1      32.656  27.898  25.135  1.00  0.00     0.023 C 
BRANCH  21  22
ATOM     22  C   UNL A   1      33.036  29.332  24.745  1.00  0.00     0.116 C 
BRANCH  22  23
ATOM     23  N   UNL A   1      32.065  30.367  25.094  1.00  0.00    -0.352 N 
ATOM     24  C   UNL A   1      31.965  31.194  26.214  1.00  0.00     0.251 C 
ATOM     25  H   UNL A   1      31.357  30.505  24.422  1.00  0.00     0.163 HD
ATOM     26  O   UNL A   1      31.025  31.954  26.320  1.00  0.00    -0.269 OA
BRANCH  24  27
ATOM     27  C   UNL A   1      33.058  31.233  27.230  1.00  0.00     0.039 A 
ATOM     28  C   UNL A   1      33.589  32.475  27.627  1.00  0.00     0.014 A 
ATOM     29  C   UNL A   1      33.680  30.070  27.650  1.00  0.00     0.014 A 
ATOM     30  C   UNL A   1      34.856  32.547  28.237  1.00  0.00     0.010 A 
ATOM     31  C   UNL A   1      34.963  30.148  28.171  1.00  0.00     0.010 A 
ATOM     32  C   UNL A   1      35.600  31.379  28.411  1.00  0.00    -0.014 A 
BRANCH  32  33
ATOM     33  C   UNL A   1      36.974  31.332  28.946  1.00  0.00     0.031 A 
ATOM     34  C   UNL A   1      37.659  30.049  28.694  1.00  0.00     0.074 A 
ATOM     35  C   UNL A   1      37.736  32.310  29.492  1.00  0.00     0.049 A 
ATOM     36  N   UNL A   1      37.753  29.103  29.568  1.00  0.00    -0.248 NA
ATOM     37  C   UNL A   1      38.177  29.703  27.365  1.00  0.00     0.031 C 
ATOM     38  C   UNL A   1      37.402  33.680  29.852  1.00  0.00     0.029 A 
ATOM     39  N   UNL A   1      39.092  32.294  29.710  1.00  0.00    -0.354 N 
ATOM     40  C   UNL A   1      38.525  28.131  28.968  1.00  0.00     0.074 A 
ATOM     41  C   UNL A   1      38.505  28.425  27.557  1.00  0.00     0.031 C 
ATOM     42  C   UNL A   1      38.518  34.443  29.911  1.00  0.00     0.029 A 
ATOM     43  C   UNL A   1      39.659  33.559  29.835  1.00  0.00     0.049 A 
ATOM     44  H   UNL A   1      39.615  31.463  29.774  1.00  0.00     0.167 HD
ATOM     45  C   UNL A   1      39.375  27.357  29.696  1.00  0.00     0.031 A 
ATOM     46  C   UNL A   1      40.961  33.875  30.027  1.00  0.00     0.031 A 
ATOM     47  C   UNL A   1      39.224  27.581  31.118  1.00  0.00     0.049 A 
ATOM     48  C   UNL A   1      41.542  32.772  30.811  1.00  0.00     0.074 A 
ATOM     49  C   UNL A   1      38.176  27.538  32.020  1.00  0.00     0.029 A 
ATOM     50  N   UNL A   1      40.218  28.301  31.741  1.00  0.00    -0.354 N 
ATOM     51  N   UNL A   1      41.186  32.524  32.039  1.00  0.00    -0.248 NA
ATOM     52  C   UNL A   1      42.208  31.682  30.121  1.00  0.00     0.031 C 
ATOM     53  C   UNL A   1      38.424  28.599  32.943  1.00  0.00     0.029 A 
ATOM     54  C   UNL A   1      39.630  29.204  32.589  1.00  0.00     0.049 A 
ATOM     55  H   UNL A   1      41.186  28.188  31.600  1.00  0.00     0.167 HD
ATOM     56  C   UNL A   1      41.107  31.143  32.092  1.00  0.00     0.074 A 
ATOM     57  C   UNL A   1      41.905  30.684  30.958  1.00  0.00     0.031 C 
ATOM     58  C   UNL A   1      40.162  30.524  32.862  1.00  0.00     0.031 A 
BRANCH  45  59
ATOM     59  C   UNL A   1      40.609  26.707  29.128  1.00  0.00    -0.014 A 
ATOM     60  C   UNL A   1      41.796  27.455  29.083  1.00  0.00     0.009 A 
ATOM     61  C   UNL A   1      40.611  25.477  28.442  1.00  0.00     0.009 A 
ATOM     62  C   UNL A   1      42.907  27.014  28.356  1.00  0.00     0.001 A 
ATOM     63  C   UNL A   1      41.736  25.007  27.762  1.00  0.00     0.001 A 
ATOM     64  C   UNL A   1      42.878  25.788  27.700  1.00  0.00     0.000 A 
ENDBRANCH  45  59
BRANCH  46  65
ATOM     65  C   UNL A   1      41.759  34.979  29.462  1.00  0.00    -0.014 A 
ATOM     66  C   UNL A   1      41.330  35.705  28.341  1.00  0.00     0.009 A 
ATOM     67  C   UNL A   1      42.824  35.508  30.211  1.00  0.00     0.009 A 
ATOM     68  C   UNL A   1      41.932  36.926  28.001  1.00  0.00     0.001 A 
ATOM     69  C   UNL A   1      43.423  36.728  29.874  1.00  0.00     0.001 A 
ATOM     70  C   UNL A   1      42.970  37.442  28.772  1.00  0.00     0.000 A 
ENDBRANCH  46  65
BRANCH  58  71
ATOM     71  C   UNL A   1      39.417  31.367  33.876  1.00  0.00    -0.014 A 
ATOM     72  C   UNL A   1      38.274  32.120  33.555  1.00  0.00     0.009 A 
ATOM     73  C   UNL A   1      39.802  31.303  35.223  1.00  0.00     0.009 A 
ATOM     74  C   UNL A   1      37.562  32.817  34.538  1.00  0.00     0.001 A 
ATOM     75  C   UNL A   1      39.081  31.981  36.211  1.00  0.00     0.001 A 
ATOM     76  C   UNL A   1      37.965  32.743  35.868  1.00  0.00     0.000 A 
ENDBRANCH  58  71
ENDBRANCH  32  33
ENDBRANCH  24  27
ENDBRANCH  22  23
ENDBRANCH  21  22
ENDBRANCH   1  21
TORSDOF 14
ENDMDL
