MODEL 1
REMARK VINA RESULT:     -10.3      0.000      0.000
REMARK SMILES O=C(C[C@H]1CN(C(=O)c2sccc2Br)CCO1)NCCCCNC(=O)c1ccc(-c2c3nc(c(-c4ccccc4)c4ccc([nH]4)c(-c4ccccc4)c4nc(c(-c5ccccc5)c5ccc2[nH]5)C=C4)C=C3)cc1
REMARK SMILES IDX 20 1 19 2 18 3 1 4 2 5 3 7 4 8 5 9 17 10 6 11 16 12 15 13
REMARK SMILES IDX 7 14 8 15 9 16 10 17 13 18 11 19 12 20 14 21 21 22 22 23
REMARK SMILES IDX 23 24 24 25 25 27 26 28 27 29 73 30 28 31 72 32 29 33 30 34
REMARK SMILES IDX 31 35 66 36 32 37 71 38 65 39 67 40 33 41 70 42 64 43 63 44
REMARK SMILES IDX 34 46 56 47 41 48 55 49 42 50 45 51 54 52 68 53 43 54 44 55
REMARK SMILES IDX 53 57 69 58 46 59 35 60 36 61 40 62 37 63 39 64 38 65 57 66
REMARK SMILES IDX 58 67 62 68 59 69 61 70 60 71 47 72 48 73 52 74 49 75 51 76
REMARK SMILES IDX 50 77
REMARK H PARENT 18 6 23 26 67 45 45 56
REMARK Flexibility Score: inf
ROOT
ATOM      1  C   UNL A   1      32.661  29.337  24.895  1.00  0.00     0.023 C 
ENDROOT
BRANCH   1   2
ATOM      2  C   UNL A   1      33.112  28.621  23.625  1.00  0.00     0.116 C 
BRANCH   2   3
ATOM      3  N   UNL A   1      32.971  27.180  23.681  1.00  0.00    -0.356 N 
ATOM      4  O   UNL A   1      33.945  26.837  21.649  1.00  0.00    -0.275 OA
ATOM      5  C   UNL A   1      33.492  26.381  22.699  1.00  0.00     0.222 C 
ATOM      6  H   UNL A   1      32.493  26.770  24.437  1.00  0.00     0.163 HD
BRANCH   5   7
ATOM      7  C   UNL A   1      33.476  24.884  22.929  1.00  0.00     0.133 C 
BRANCH   7   8
ATOM      8  C   UNL A   1      32.200  24.062  22.691  1.00  0.00     0.147 C 
ATOM      9  C   UNL A   1      32.515  22.541  22.635  1.00  0.00     0.152 C 
ATOM     10  O   UNL A   1      31.136  24.331  23.624  1.00  0.00    -0.374 OA
ATOM     11  N   UNL A   1      32.760  22.028  23.990  1.00  0.00    -0.333 N 
ATOM     12  C   UNL A   1      31.397  23.827  24.948  1.00  0.00     0.182 C 
ATOM     13  C   UNL A   1      31.687  22.329  24.933  1.00  0.00     0.148 C 
BRANCH  11  14
ATOM     14  C   UNL A   1      33.927  21.423  24.437  1.00  0.00     0.265 C 
ATOM     15  O   UNL A   1      34.050  20.183  24.414  1.00  0.00    -0.268 OA
BRANCH  14  16
ATOM     16  C   UNL A   1      35.010  22.266  24.876  1.00  0.00     0.106 A 
ATOM     17  S   UNL A   1      36.288  22.577  23.770  1.00  0.00    -0.137 S 
ATOM     18  C   UNL A   1      35.280  22.817  26.107  1.00  0.00     0.041 A 
ATOM     19  C   UNL A   1      37.181  23.443  24.945  1.00  0.00     0.067 A 
ATOM     20  C   UNL A   1      36.514  23.519  26.149  1.00  0.00     0.028 A 
ATOM     21  Br  UNL A   1      34.201  22.697  27.652  1.00  0.00    -0.049 Br
ENDBRANCH  14  16
ENDBRANCH  11  14
ENDBRANCH   7   8
ENDBRANCH   5   7
ENDBRANCH   2   3
ENDBRANCH   1   2
BRANCH   1  22
ATOM     22  C   UNL A   1      32.529  28.442  26.128  1.00  0.00     0.023 C 
BRANCH  22  23
ATOM     23  C   UNL A   1      33.540  28.703  27.239  1.00  0.00     0.116 C 
BRANCH  23  24
ATOM     24  N   UNL A   1      33.552  30.086  27.694  1.00  0.00    -0.352 N 
ATOM     25  C   UNL A   1      34.563  30.788  28.294  1.00  0.00     0.251 C 
ATOM     26  H   UNL A   1      32.717  30.587  27.550  1.00  0.00     0.163 HD
ATOM     27  O   UNL A   1      34.358  31.936  28.709  1.00  0.00    -0.269 OA
BRANCH  25  28
ATOM     28  C   UNL A   1      35.891  30.174  28.486  1.00  0.00     0.039 A 
ATOM     29  C   UNL A   1      36.809  30.209  27.431  1.00  0.00     0.014 A 
ATOM     30  C   UNL A   1      36.241  29.572  29.698  1.00  0.00     0.014 A 
ATOM     31  C   UNL A   1      38.099  29.707  27.614  1.00  0.00     0.010 A 
ATOM     32  C   UNL A   1      37.545  29.126  29.900  1.00  0.00     0.010 A 
ATOM     33  C   UNL A   1      38.488  29.194  28.863  1.00  0.00    -0.014 A 
BRANCH  33  34
ATOM     34  C   UNL A   1      39.879  28.736  29.106  1.00  0.00     0.031 A 
ATOM     35  C   UNL A   1      40.889  29.666  29.715  1.00  0.00     0.074 A 
ATOM     36  C   UNL A   1      40.253  27.503  28.713  1.00  0.00     0.049 A 
ATOM     37  N   UNL A   1      42.165  29.469  29.935  1.00  0.00    -0.248 NA
ATOM     38  C   UNL A   1      40.408  30.999  30.111  1.00  0.00     0.031 C 
ATOM     39  C   UNL A   1      39.381  26.513  28.074  1.00  0.00     0.029 A 
ATOM     40  N   UNL A   1      41.470  26.874  28.786  1.00  0.00    -0.354 N 
ATOM     41  C   UNL A   1      42.643  30.657  30.474  1.00  0.00     0.074 A 
ATOM     42  C   UNL A   1      41.529  31.582  30.513  1.00  0.00     0.031 C 
ATOM     43  C   UNL A   1      40.088  25.397  27.832  1.00  0.00     0.029 A 
ATOM     44  C   UNL A   1      41.466  25.603  28.266  1.00  0.00     0.049 A 
ATOM     45  H   UNL A   1      42.271  27.294  29.177  1.00  0.00     0.167 HD
ATOM     46  C   UNL A   1      43.889  30.948  30.913  1.00  0.00     0.031 A 
ATOM     47  C   UNL A   1      42.461  24.705  28.143  1.00  0.00     0.031 A 
ATOM     48  C   UNL A   1      44.995  30.029  30.892  1.00  0.00     0.049 A 
ATOM     49  C   UNL A   1      43.836  25.053  28.638  1.00  0.00     0.074 A 
ATOM     50  C   UNL A   1      46.283  30.218  31.365  1.00  0.00     0.029 A 
ATOM     51  N   UNL A   1      44.944  28.745  30.373  1.00  0.00    -0.354 N 
ATOM     52  N   UNL A   1      44.257  26.161  29.196  1.00  0.00    -0.248 NA
ATOM     53  C   UNL A   1      44.872  24.019  28.495  1.00  0.00     0.031 C 
ATOM     54  C   UNL A   1      47.021  29.060  31.098  1.00  0.00     0.029 A 
ATOM     55  C   UNL A   1      46.181  28.137  30.499  1.00  0.00     0.049 A 
ATOM     56  H   UNL A   1      44.146  28.329  29.975  1.00  0.00     0.167 HD
ATOM     57  C   UNL A   1      45.597  25.950  29.492  1.00  0.00     0.074 A 
ATOM     58  C   UNL A   1      45.916  24.604  29.064  1.00  0.00     0.031 C 
ATOM     59  C   UNL A   1      46.483  26.798  30.068  1.00  0.00     0.031 A 
BRANCH  46  60
ATOM     60  C   UNL A   1      44.124  32.331  31.455  1.00  0.00    -0.014 A 
ATOM     61  C   UNL A   1      43.953  32.612  32.820  1.00  0.00     0.009 A 
ATOM     62  C   UNL A   1      44.551  33.355  30.597  1.00  0.00     0.009 A 
ATOM     63  C   UNL A   1      44.174  33.901  33.308  1.00  0.00     0.001 A 
ATOM     64  C   UNL A   1      44.795  34.638  31.092  1.00  0.00     0.001 A 
ATOM     65  C   UNL A   1      44.598  34.911  32.445  1.00  0.00     0.000 A 
ENDBRANCH  46  60
BRANCH  47  66
ATOM     66  C   UNL A   1      42.192  23.377  27.536  1.00  0.00    -0.014 A 
ATOM     67  C   UNL A   1      41.660  22.337  28.313  1.00  0.00     0.009 A 
ATOM     68  C   UNL A   1      42.469  23.141  26.181  1.00  0.00     0.009 A 
ATOM     69  C   UNL A   1      41.435  21.078  27.750  1.00  0.00     0.001 A 
ATOM     70  C   UNL A   1      42.219  21.890  25.615  1.00  0.00     0.001 A 
ATOM     71  C   UNL A   1      41.710  20.857  26.401  1.00  0.00     0.000 A 
ENDBRANCH  47  66
BRANCH  59  72
ATOM     72  C   UNL A   1      47.874  26.281  30.297  1.00  0.00    -0.014 A 
ATOM     73  C   UNL A   1      48.840  26.319  29.279  1.00  0.00     0.009 A 
ATOM     74  C   UNL A   1      48.233  25.786  31.561  1.00  0.00     0.009 A 
ATOM     75  C   UNL A   1      50.131  25.842  29.515  1.00  0.00     0.001 A 
ATOM     76  C   UNL A   1      49.530  25.332  31.800  1.00  0.00     0.001 A 
ATOM     77  C   UNL A   1      50.475  25.353  30.775  1.00  0.00     0.000 A 
ENDBRANCH  59  72
ENDBRANCH  33  34
ENDBRANCH  25  28
ENDBRANCH  23  24
ENDBRANCH  22  23
ENDBRANCH   1  22
TORSDOF 14
ENDMDL
MODEL 2
REMARK VINA RESULT:     -10.3      3.499      5.021
REMARK SMILES O=C(C[C@H]1CN(C(=O)c2sccc2Br)CCO1)NCCCCNC(=O)c1ccc(-c2c3nc(c(-c4ccccc4)c4ccc([nH]4)c(-c4ccccc4)c4nc(c(-c5ccccc5)c5ccc2[nH]5)C=C4)C=C3)cc1
REMARK SMILES IDX 20 1 19 2 18 3 1 4 2 5 3 7 4 8 5 9 17 10 6 11 16 12 15 13
REMARK SMILES IDX 7 14 8 15 9 16 10 17 13 18 11 19 12 20 14 21 21 22 22 23
REMARK SMILES IDX 23 24 24 25 25 27 26 28 27 29 73 30 28 31 72 32 29 33 30 34
REMARK SMILES IDX 31 35 66 36 32 37 71 38 65 39 67 40 33 41 70 42 64 43 63 44
REMARK SMILES IDX 34 46 56 47 41 48 55 49 42 50 45 51 54 52 68 53 43 54 44 55
REMARK SMILES IDX 53 57 69 58 46 59 35 60 36 61 40 62 37 63 39 64 38 65 57 66
REMARK SMILES IDX 58 67 62 68 59 69 61 70 60 71 47 72 48 73 52 74 49 75 51 76
REMARK SMILES IDX 50 77
REMARK H PARENT 18 6 23 26 67 45 45 56
REMARK Flexibility Score: inf
ROOT
ATOM      1  C   UNL A   1      31.439  30.803  25.956  1.00  0.00     0.023 C 
ENDROOT
BRANCH   1   2
ATOM      2  C   UNL A   1      32.445  29.953  26.728  1.00  0.00     0.116 C 
BRANCH   2   3
ATOM      3  N   UNL A   1      32.563  28.594  26.240  1.00  0.00    -0.356 N 
ATOM      4  O   UNL A   1      31.285  27.707  27.907  1.00  0.00    -0.275 OA
ATOM      5  C   UNL A   1      31.882  27.568  26.839  1.00  0.00     0.222 C 
ATOM      6  H   UNL A   1      33.141  28.407  25.466  1.00  0.00     0.163 HD
BRANCH   5   7
ATOM      7  C   UNL A   1      31.900  26.218  26.152  1.00  0.00     0.133 C 
BRANCH   7   8
ATOM      8  C   UNL A   1      30.592  25.516  25.757  1.00  0.00     0.147 C 
ATOM      9  C   UNL A   1      30.729  24.809  24.380  1.00  0.00     0.152 C 
ATOM     10  O   UNL A   1      30.080  24.607  26.752  1.00  0.00    -0.374 OA
ATOM     11  N   UNL A   1      31.512  23.574  24.524  1.00  0.00    -0.333 N 
ATOM     12  C   UNL A   1      30.864  23.405  26.883  1.00  0.00     0.182 C 
ATOM     13  C   UNL A   1      30.999  22.672  25.552  1.00  0.00     0.148 C 
BRANCH  11  14
ATOM     14  C   UNL A   1      32.704  23.281  23.876  1.00  0.00     0.265 C 
ATOM     15  O   UNL A   1      32.796  23.381  22.638  1.00  0.00    -0.268 OA
BRANCH  14  16
ATOM     16  C   UNL A   1      33.844  22.911  24.675  1.00  0.00     0.106 A 
ATOM     17  S   UNL A   1      34.891  24.163  25.214  1.00  0.00    -0.137 S 
ATOM     18  C   UNL A   1      34.336  21.675  25.025  1.00  0.00     0.041 A 
ATOM     19  C   UNL A   1      35.982  23.042  25.907  1.00  0.00     0.067 A 
ATOM     20  C   UNL A   1      35.551  21.741  25.757  1.00  0.00     0.028 A 
ATOM     21  Br  UNL A   1      33.564  20.001  24.611  1.00  0.00    -0.049 Br
ENDBRANCH  14  16
ENDBRANCH  11  14
ENDBRANCH   7   8
ENDBRANCH   5   7
ENDBRANCH   2   3
ENDBRANCH   1   2
BRANCH   1  22
ATOM     22  C   UNL A   1      31.238  32.218  26.500  1.00  0.00     0.023 C 
BRANCH  22  23
ATOM     23  C   UNL A   1      32.430  32.812  27.242  1.00  0.00     0.116 C 
BRANCH  23  24
ATOM     24  N   UNL A   1      32.233  34.201  27.630  1.00  0.00    -0.352 N 
ATOM     25  C   UNL A   1      32.935  34.953  28.534  1.00  0.00     0.251 C 
ATOM     26  H   UNL A   1      31.491  34.665  27.181  1.00  0.00     0.163 HD
ATOM     27  O   UNL A   1      32.557  36.097  28.814  1.00  0.00    -0.269 OA
BRANCH  25  28
ATOM     28  C   UNL A   1      34.124  34.395  29.209  1.00  0.00     0.039 A 
ATOM     29  C   UNL A   1      33.959  33.747  30.438  1.00  0.00     0.014 A 
ATOM     30  C   UNL A   1      35.395  34.499  28.637  1.00  0.00     0.014 A 
ATOM     31  C   UNL A   1      35.055  33.141  31.056  1.00  0.00     0.010 A 
ATOM     32  C   UNL A   1      36.475  33.843  29.224  1.00  0.00     0.010 A 
ATOM     33  C   UNL A   1      36.314  33.153  30.435  1.00  0.00    -0.014 A 
BRANCH  33  34
ATOM     34  C   UNL A   1      37.471  32.440  31.032  1.00  0.00     0.031 A 
ATOM     35  C   UNL A   1      38.088  32.930  32.311  1.00  0.00     0.074 A 
ATOM     36  C   UNL A   1      38.013  31.390  30.386  1.00  0.00     0.049 A 
ATOM     37  N   UNL A   1      39.145  32.484  32.942  1.00  0.00    -0.248 NA
ATOM     38  C   UNL A   1      37.446  34.087  32.956  1.00  0.00     0.031 C 
ATOM     39  C   UNL A   1      37.535  30.835  29.116  1.00  0.00     0.029 A 
ATOM     40  N   UNL A   1      39.093  30.605  30.704  1.00  0.00    -0.354 N 
ATOM     41  C   UNL A   1      39.307  33.315  34.044  1.00  0.00     0.074 A 
ATOM     42  C   UNL A   1      38.263  34.316  33.975  1.00  0.00     0.031 C 
ATOM     43  C   UNL A   1      38.307  29.790  28.776  1.00  0.00     0.029 A 
ATOM     44  C   UNL A   1      39.351  29.622  29.781  1.00  0.00     0.049 A 
ATOM     45  H   UNL A   1      39.631  30.735  31.519  1.00  0.00     0.167 HD
ATOM     46  C   UNL A   1      40.228  33.243  35.033  1.00  0.00     0.031 A 
ATOM     47  C   UNL A   1      40.324  28.693  29.743  1.00  0.00     0.031 A 
ATOM     48  C   UNL A   1      41.257  32.241  35.115  1.00  0.00     0.049 A 
ATOM     49  C   UNL A   1      41.335  28.634  30.852  1.00  0.00     0.074 A 
ATOM     50  C   UNL A   1      42.203  32.058  36.110  1.00  0.00     0.029 A 
ATOM     51  N   UNL A   1      41.472  31.252  34.170  1.00  0.00    -0.354 N 
ATOM     52  N   UNL A   1      41.439  29.394  31.915  1.00  0.00    -0.248 NA
ATOM     53  C   UNL A   1      42.357  27.581  30.762  1.00  0.00     0.031 C 
ATOM     54  C   UNL A   1      43.016  30.978  35.745  1.00  0.00     0.029 A 
ATOM     55  C   UNL A   1      42.547  30.465  34.547  1.00  0.00     0.049 A 
ATOM     56  H   UNL A   1      40.940  31.128  33.350  1.00  0.00     0.167 HD
ATOM     57  C   UNL A   1      42.521  28.897  32.630  1.00  0.00     0.074 A 
ATOM     58  C   UNL A   1      43.032  27.763  31.888  1.00  0.00     0.031 C 
ATOM     59  C   UNL A   1      43.043  29.341  33.799  1.00  0.00     0.031 A 
BRANCH  46  60
ATOM     60  C   UNL A   1      40.164  34.288  36.110  1.00  0.00    -0.014 A 
ATOM     61  C   UNL A   1      40.877  35.493  35.993  1.00  0.00     0.009 A 
ATOM     62  C   UNL A   1      39.358  34.081  37.239  1.00  0.00     0.009 A 
ATOM     63  C   UNL A   1      40.809  36.454  37.002  1.00  0.00     0.001 A 
ATOM     64  C   UNL A   1      39.272  35.056  38.236  1.00  0.00     0.001 A 
ATOM     65  C   UNL A   1      40.005  36.237  38.121  1.00  0.00     0.000 A 
ENDBRANCH  46  60
BRANCH  47  66
ATOM     66  C   UNL A   1      40.383  27.726  28.618  1.00  0.00    -0.014 A 
ATOM     67  C   UNL A   1      39.719  26.493  28.705  1.00  0.00     0.009 A 
ATOM     68  C   UNL A   1      41.107  28.027  27.454  1.00  0.00     0.009 A 
ATOM     69  C   UNL A   1      39.800  25.571  27.659  1.00  0.00     0.001 A 
ATOM     70  C   UNL A   1      41.165  27.114  26.400  1.00  0.00     0.001 A 
ATOM     71  C   UNL A   1      40.518  25.884  26.506  1.00  0.00     0.000 A 
ENDBRANCH  47  66
BRANCH  59  72
ATOM     72  C   UNL A   1      44.208  28.580  34.361  1.00  0.00    -0.014 A 
ATOM     73  C   UNL A   1      45.530  28.946  34.060  1.00  0.00     0.009 A 
ATOM     74  C   UNL A   1      43.980  27.504  35.234  1.00  0.00     0.009 A 
ATOM     75  C   UNL A   1      46.599  28.230  34.601  1.00  0.00     0.001 A 
ATOM     76  C   UNL A   1      45.051  26.806  35.791  1.00  0.00     0.001 A 
ATOM     77  C   UNL A   1      46.359  27.165  35.469  1.00  0.00     0.000 A 
ENDBRANCH  59  72
ENDBRANCH  33  34
ENDBRANCH  25  28
ENDBRANCH  23  24
ENDBRANCH  22  23
ENDBRANCH   1  22
TORSDOF 14
ENDMDL
MODEL 3
REMARK VINA RESULT:     -10.2      1.970      7.341
REMARK SMILES O=C(C[C@H]1CN(C(=O)c2sccc2Br)CCO1)NCCCCNC(=O)c1ccc(-c2c3nc(c(-c4ccccc4)c4ccc([nH]4)c(-c4ccccc4)c4nc(c(-c5ccccc5)c5ccc2[nH]5)C=C4)C=C3)cc1
REMARK SMILES IDX 20 1 19 2 18 3 1 4 2 5 3 7 4 8 5 9 17 10 6 11 16 12 15 13
REMARK SMILES IDX 7 14 8 15 9 16 10 17 13 18 11 19 12 20 14 21 21 22 22 23
REMARK SMILES IDX 23 24 24 25 25 27 26 28 27 29 73 30 28 31 72 32 29 33 30 34
REMARK SMILES IDX 31 35 66 36 32 37 71 38 65 39 67 40 33 41 70 42 64 43 63 44
REMARK SMILES IDX 34 46 56 47 41 48 55 49 42 50 45 51 54 52 68 53 43 54 44 55
REMARK SMILES IDX 53 57 69 58 46 59 35 60 36 61 40 62 37 63 39 64 38 65 57 66
REMARK SMILES IDX 58 67 62 68 59 69 61 70 60 71 47 72 48 73 52 74 49 75 51 76
REMARK SMILES IDX 50 77
REMARK H PARENT 18 6 23 26 67 45 45 56
REMARK Flexibility Score: inf
ROOT
ATOM      1  C   UNL A   1      36.521  20.618  24.998  1.00  0.00     0.023 C 
ENDROOT
BRANCH   1   2
ATOM      2  C   UNL A   1      36.579  21.971  24.293  1.00  0.00     0.116 C 
BRANCH   2   3
ATOM      3  N   UNL A   1      35.425  22.810  24.538  1.00  0.00    -0.356 N 
ATOM      4  O   UNL A   1      36.477  24.087  26.107  1.00  0.00    -0.275 OA
ATOM      5  C   UNL A   1      35.499  23.884  25.386  1.00  0.00     0.222 C 
ATOM      6  H   UNL A   1      34.574  22.606  24.088  1.00  0.00     0.163 HD
BRANCH   5   7
ATOM      7  C   UNL A   1      34.313  24.824  25.436  1.00  0.00     0.133 C 
BRANCH   7   8
ATOM      8  C   UNL A   1      34.142  25.933  24.387  1.00  0.00     0.147 C 
ATOM      9  C   UNL A   1      33.313  25.432  23.171  1.00  0.00     0.152 C 
ATOM     10  O   UNL A   1      33.598  27.163  24.905  1.00  0.00    -0.374 OA
ATOM     11  N   UNL A   1      31.890  25.357  23.529  1.00  0.00    -0.333 N 
ATOM     12  C   UNL A   1      32.204  27.068  25.256  1.00  0.00     0.182 C 
ATOM     13  C   UNL A   1      31.357  26.601  24.076  1.00  0.00     0.148 C 
BRANCH  11  14
ATOM     14  C   UNL A   1      31.098  24.216  23.499  1.00  0.00     0.265 C 
ATOM     15  O   UNL A   1      29.936  24.261  23.053  1.00  0.00    -0.268 OA
BRANCH  14  16
ATOM     16  C   UNL A   1      31.673  22.973  23.947  1.00  0.00     0.106 A 
ATOM     17  S   UNL A   1      32.296  21.900  22.759  1.00  0.00    -0.137 S 
ATOM     18  C   UNL A   1      31.731  22.408  25.200  1.00  0.00     0.041 A 
ATOM     19  C   UNL A   1      32.638  20.699  23.929  1.00  0.00     0.067 A 
ATOM     20  C   UNL A   1      32.309  21.110  25.203  1.00  0.00     0.028 A 
ATOM     21  Br  UNL A   1      31.119  23.181  26.811  1.00  0.00    -0.049 Br
ENDBRANCH  14  16
ENDBRANCH  11  14
ENDBRANCH   7   8
ENDBRANCH   5   7
ENDBRANCH   2   3
ENDBRANCH   1   2
BRANCH   1  22
ATOM     22  C   UNL A   1      37.790  19.772  24.878  1.00  0.00     0.023 C 
BRANCH  22  23
ATOM     23  C   UNL A   1      38.984  20.261  25.689  1.00  0.00     0.116 C 
BRANCH  23  24
ATOM     24  N   UNL A   1      40.078  19.302  25.739  1.00  0.00    -0.352 N 
ATOM     25  C   UNL A   1      41.380  19.496  26.117  1.00  0.00     0.251 C 
ATOM     26  H   UNL A   1      39.850  18.385  25.463  1.00  0.00     0.163 HD
ATOM     27  O   UNL A   1      42.203  18.579  25.997  1.00  0.00    -0.269 OA
BRANCH  25  28
ATOM     28  C   UNL A   1      41.822  20.805  26.634  1.00  0.00     0.039 A 
ATOM     29  C   UNL A   1      42.278  21.769  25.728  1.00  0.00     0.014 A 
ATOM     30  C   UNL A   1      41.783  21.093  28.001  1.00  0.00     0.014 A 
ATOM     31  C   UNL A   1      42.625  23.042  26.183  1.00  0.00     0.010 A 
ATOM     32  C   UNL A   1      42.073  22.381  28.447  1.00  0.00     0.010 A 
ATOM     33  C   UNL A   1      42.490  23.369  27.542  1.00  0.00    -0.014 A 
BRANCH  33  34
ATOM     34  C   UNL A   1      42.770  24.742  28.034  1.00  0.00     0.031 A 
ATOM     35  C   UNL A   1      44.161  25.133  28.444  1.00  0.00     0.074 A 
ATOM     36  C   UNL A   1      41.757  25.618  28.176  1.00  0.00     0.049 A 
ATOM     37  N   UNL A   1      44.582  26.259  28.965  1.00  0.00    -0.248 NA
ATOM     38  C   UNL A   1      45.214  24.121  28.266  1.00  0.00     0.031 C 
ATOM     39  C   UNL A   1      40.353  25.354  27.851  1.00  0.00     0.029 A 
ATOM     40  N   UNL A   1      41.752  26.909  28.643  1.00  0.00    -0.354 N 
ATOM     41  C   UNL A   1      45.941  26.083  29.195  1.00  0.00     0.074 A 
ATOM     42  C   UNL A   1      46.266  24.730  28.793  1.00  0.00     0.031 C 
ATOM     43  C   UNL A   1      39.628  26.455  28.110  1.00  0.00     0.029 A 
ATOM     44  C   UNL A   1      40.506  27.488  28.650  1.00  0.00     0.049 A 
ATOM     45  H   UNL A   1      42.565  27.377  28.943  1.00  0.00     0.167 HD
ATOM     46  C   UNL A   1      46.841  26.970  29.679  1.00  0.00     0.031 A 
ATOM     47  C   UNL A   1      40.112  28.710  29.053  1.00  0.00     0.031 A 
ATOM     48  C   UNL A   1      46.527  28.320  30.064  1.00  0.00     0.049 A 
ATOM     49  C   UNL A   1      41.131  29.676  29.588  1.00  0.00     0.074 A 
ATOM     50  C   UNL A   1      47.385  29.309  30.516  1.00  0.00     0.029 A 
ATOM     51  N   UNL A   1      45.257  28.872  30.039  1.00  0.00    -0.354 N 
ATOM     52  N   UNL A   1      42.421  29.512  29.746  1.00  0.00    -0.248 NA
ATOM     53  C   UNL A   1      40.638  31.002  29.989  1.00  0.00     0.031 C 
ATOM     54  C   UNL A   1      46.625  30.449  30.800  1.00  0.00     0.029 A 
ATOM     55  C   UNL A   1      45.304  30.182  30.483  1.00  0.00     0.049 A 
ATOM     56  H   UNL A   1      44.442  28.402  29.747  1.00  0.00     0.167 HD
ATOM     57  C   UNL A   1      42.897  30.718  30.243  1.00  0.00     0.074 A 
ATOM     58  C   UNL A   1      41.761  31.609  30.345  1.00  0.00     0.031 C 
ATOM     59  C   UNL A   1      44.165  31.056  30.581  1.00  0.00     0.031 A 
BRANCH  46  60
ATOM     60  C   UNL A   1      48.261  26.501  29.824  1.00  0.00    -0.014 A 
ATOM     61  C   UNL A   1      48.712  25.918  31.020  1.00  0.00     0.009 A 
ATOM     62  C   UNL A   1      49.149  26.613  28.744  1.00  0.00     0.009 A 
ATOM     63  C   UNL A   1      50.034  25.487  31.140  1.00  0.00     0.001 A 
ATOM     64  C   UNL A   1      50.465  26.158  28.859  1.00  0.00     0.001 A 
ATOM     65  C   UNL A   1      50.908  25.604  30.060  1.00  0.00     0.000 A 
ENDBRANCH  46  60
BRANCH  47  66
ATOM     66  C   UNL A   1      38.683  29.100  28.953  1.00  0.00    -0.014 A 
ATOM     67  C   UNL A   1      37.841  29.003  30.070  1.00  0.00     0.009 A 
ATOM     68  C   UNL A   1      38.153  29.566  27.740  1.00  0.00     0.009 A 
ATOM     69  C   UNL A   1      36.490  29.341  29.969  1.00  0.00     0.001 A 
ATOM     70  C   UNL A   1      36.808  29.927  27.648  1.00  0.00     0.001 A 
ATOM     71  C   UNL A   1      35.975  29.807  28.760  1.00  0.00     0.000 A 
ENDBRANCH  47  66
BRANCH  59  72
ATOM     72  C   UNL A   1      44.393  32.459  31.065  1.00  0.00    -0.014 A 
ATOM     73  C   UNL A   1      44.341  32.773  32.432  1.00  0.00     0.009 A 
ATOM     74  C   UNL A   1      44.702  33.471  30.143  1.00  0.00     0.009 A 
ATOM     75  C   UNL A   1      44.565  34.082  32.862  1.00  0.00     0.001 A 
ATOM     76  C   UNL A   1      44.948  34.773  30.578  1.00  0.00     0.001 A 
ATOM     77  C   UNL A   1      44.872  35.079  31.936  1.00  0.00     0.000 A 
ENDBRANCH  59  72
ENDBRANCH  33  34
ENDBRANCH  25  28
ENDBRANCH  23  24
ENDBRANCH  22  23
ENDBRANCH   1  22
TORSDOF 14
ENDMDL
