MODEL 1
REMARK VINA RESULT:      -7.9      0.000      0.000
REMARK SMILES CCOc1cc2nccc(Nc3ccc(C(=O)NCCCCNC(=O)c4ccc(-c5c6nc(c(-c7ccccc7)c7ccc([nH]7)c(-c7ccccc7)c7nc(c(-c8ccccc8)c8ccc5[nH]8)C=C7)C=C6)cc4)cc3)c2cc1OCC
REMARK SMILES IDX 19 1 18 2 16 3 17 4 15 6 12 7 13 8 75 9 14 10 74 11 11 12
REMARK SMILES IDX 10 14 4 15 5 16 78 17 6 18 77 19 7 20 76 21 8 22 9 23 3 24
REMARK SMILES IDX 2 25 1 26 79 27 80 28 81 29 20 30 21 31 22 32 23 33 24 34
REMARK SMILES IDX 25 36 26 37 27 38 73 39 28 40 72 41 29 42 30 43 31 44 66 45
REMARK SMILES IDX 32 46 71 47 65 48 67 49 33 50 70 51 64 52 63 53 34 55 56 56
REMARK SMILES IDX 41 57 55 58 42 59 45 60 54 61 68 62 43 63 44 64 53 66 69 67
REMARK SMILES IDX 46 68 35 69 36 70 40 71 37 72 39 73 38 74 57 75 58 76 62 77
REMARK SMILES IDX 59 78 61 79 60 80 47 81 48 82 52 83 49 84 51 85 50 86
REMARK H PARENT 18 5 11 13 23 35 67 54 45 65
REMARK Flexibility Score: inf
ROOT
ATOM      1  C   UNL A   1      43.623  20.787  25.714  1.00  0.00     0.116 C 
ENDROOT
BRANCH   1   2
ATOM      2  N   UNL A   1      43.772  22.053  25.028  1.00  0.00    -0.352 N 
ATOM      3  C   UNL A   1      43.972  23.323  25.504  1.00  0.00     0.251 C 
ATOM      4  O   UNL A   1      44.036  24.240  24.686  1.00  0.00    -0.269 OA
ATOM      5  H   UNL A   1      43.722  21.992  24.047  1.00  0.00     0.163 HD
BRANCH   3   6
ATOM      6  C   UNL A   1      44.197  23.615  26.946  1.00  0.00     0.039 A 
ATOM      7  C   UNL A   1      44.391  24.305  29.671  1.00  0.00     0.038 A 
ATOM      8  C   UNL A   1      43.166  23.918  29.119  1.00  0.00     0.027 A 
ATOM      9  C   UNL A   1      45.525  24.300  28.862  1.00  0.00     0.027 A 
ATOM     10  C   UNL A   1      43.066  23.586  27.769  1.00  0.00     0.016 A 
ATOM     11  C   UNL A   1      45.436  23.909  27.521  1.00  0.00     0.016 A 
BRANCH   7  12
ATOM     12  N   UNL A   1      44.432  24.714  31.005  1.00  0.00    -0.355 N 
ATOM     13  H   UNL A   1      43.827  24.211  31.598  1.00  0.00     0.167 HD
BRANCH  12  14
ATOM     14  C   UNL A   1      45.181  25.716  31.664  1.00  0.00     0.050 A 
ATOM     15  C   UNL A   1      43.456  29.522  32.261  1.00  0.00     0.163 A 
ATOM     16  C   UNL A   1      44.806  29.286  32.559  1.00  0.00     0.079 A 
ATOM     17  C   UNL A   1      42.650  28.461  31.855  1.00  0.00     0.161 A 
ATOM     18  C   UNL A   1      45.381  28.021  32.421  1.00  0.00     0.076 A 
ATOM     19  C   UNL A   1      43.219  27.209  31.669  1.00  0.00     0.063 A 
ATOM     20  N   UNL A   1      46.675  27.830  32.735  1.00  0.00    -0.256 NA
ATOM     21  C   UNL A   1      44.582  26.973  31.915  1.00  0.00     0.028 A 
ATOM     22  C   UNL A   1      47.201  26.596  32.558  1.00  0.00     0.114 A 
ATOM     23  C   UNL A   1      46.504  25.519  32.041  1.00  0.00     0.047 A 
BRANCH  15  24
ATOM     24  O   UNL A   1      42.930  30.782  32.222  1.00  0.00    -0.490 OA
BRANCH  24  25
ATOM     25  C   UNL A   1      43.379  31.669  33.248  1.00  0.00     0.226 C 
ATOM     26  C   UNL A   1      42.153  32.424  33.746  1.00  0.00     0.049 C 
ENDBRANCH  24  25
ENDBRANCH  15  24
BRANCH  17  27
ATOM     27  O   UNL A   1      41.313  28.491  31.575  1.00  0.00    -0.490 OA
BRANCH  27  28
ATOM     28  C   UNL A   1      40.416  28.599  32.680  1.00  0.00     0.226 C 
ATOM     29  C   UNL A   1      39.056  27.953  32.448  1.00  0.00     0.049 C 
ENDBRANCH  27  28
ENDBRANCH  17  27
ENDBRANCH  12  14
ENDBRANCH   7  12
ENDBRANCH   3   6
ENDBRANCH   1   2
BRANCH   1  30
ATOM     30  C   UNL A   1      42.153  20.364  25.712  1.00  0.00     0.023 C 
BRANCH  30  31
ATOM     31  C   UNL A   1      41.559  20.206  27.113  1.00  0.00     0.023 C 
BRANCH  31  32
ATOM     32  C   UNL A   1      40.676  21.365  27.558  1.00  0.00     0.116 C 
BRANCH  32  33
ATOM     33  N   UNL A   1      39.551  21.602  26.668  1.00  0.00    -0.352 N 
ATOM     34  C   UNL A   1      38.970  22.799  26.330  1.00  0.00     0.251 C 
ATOM     35  H   UNL A   1      39.156  20.801  26.252  1.00  0.00     0.163 HD
ATOM     36  O   UNL A   1      37.950  22.830  25.651  1.00  0.00    -0.269 OA
BRANCH  34  37
ATOM     37  C   UNL A   1      39.569  24.049  26.836  1.00  0.00     0.039 A 
ATOM     38  C   UNL A   1      40.245  24.880  25.941  1.00  0.00     0.014 A 
ATOM     39  C   UNL A   1      39.417  24.417  28.176  1.00  0.00     0.014 A 
ATOM     40  C   UNL A   1      40.716  26.118  26.379  1.00  0.00     0.010 A 
ATOM     41  C   UNL A   1      39.823  25.680  28.590  1.00  0.00     0.010 A 
ATOM     42  C   UNL A   1      40.476  26.542  27.696  1.00  0.00    -0.014 A 
BRANCH  42  43
ATOM     43  C   UNL A   1      40.897  27.887  28.157  1.00  0.00     0.031 A 
ATOM     44  C   UNL A   1      42.355  28.249  28.192  1.00  0.00     0.074 A 
ATOM     45  C   UNL A   1      39.972  28.757  28.606  1.00  0.00     0.049 A 
ATOM     46  N   UNL A   1      42.921  29.352  28.611  1.00  0.00    -0.248 NA
ATOM     47  C   UNL A   1      43.304  27.229  27.716  1.00  0.00     0.031 C 
ATOM     48  C   UNL A   1      38.529  28.508  28.663  1.00  0.00     0.029 A 
ATOM     49  N   UNL A   1      40.110  30.028  29.104  1.00  0.00    -0.354 N 
ATOM     50  C   UNL A   1      44.288  29.152  28.466  1.00  0.00     0.074 A 
ATOM     51  C   UNL A   1      44.469  27.806  27.969  1.00  0.00     0.031 C 
ATOM     52  C   UNL A   1      37.914  29.601  29.142  1.00  0.00     0.029 A 
ATOM     53  C   UNL A   1      38.918  30.611  29.462  1.00  0.00     0.049 A 
ATOM     54  H   UNL A   1      40.979  30.478  29.198  1.00  0.00     0.167 HD
ATOM     55  C   UNL A   1      45.300  30.018  28.706  1.00  0.00     0.031 A 
ATOM     56  C   UNL A   1      38.664  31.822  29.991  1.00  0.00     0.031 A 
ATOM     57  C   UNL A   1      45.119  31.359  29.191  1.00  0.00     0.049 A 
ATOM     58  C   UNL A   1      39.807  32.760  30.259  1.00  0.00     0.074 A 
ATOM     59  C   UNL A   1      46.077  32.333  29.412  1.00  0.00     0.029 A 
ATOM     60  N   UNL A   1      43.896  31.915  29.533  1.00  0.00    -0.354 N 
ATOM     61  N   UNL A   1      41.089  32.581  30.049  1.00  0.00    -0.248 NA
ATOM     62  C   UNL A   1      39.466  34.072  30.828  1.00  0.00     0.031 C 
ATOM     63  C   UNL A   1      45.439  33.462  29.935  1.00  0.00     0.029 A 
ATOM     64  C   UNL A   1      44.077  33.211  29.985  1.00  0.00     0.049 A 
ATOM     65  H   UNL A   1      43.028  31.457  29.464  1.00  0.00     0.167 HD
ATOM     66  C   UNL A   1      41.703  33.768  30.432  1.00  0.00     0.074 A 
ATOM     67  C   UNL A   1      40.652  34.661  30.872  1.00  0.00     0.031 C 
ATOM     68  C   UNL A   1      43.020  34.087  30.419  1.00  0.00     0.031 A 
BRANCH  55  69
ATOM     69  C   UNL A   1      46.700  29.532  28.449  1.00  0.00    -0.014 A 
ATOM     70  C   UNL A   1      47.288  29.647  27.179  1.00  0.00     0.009 A 
ATOM     71  C   UNL A   1      47.451  28.981  29.498  1.00  0.00     0.009 A 
ATOM     72  C   UNL A   1      48.586  29.184  26.956  1.00  0.00     0.001 A 
ATOM     73  C   UNL A   1      48.761  28.548  29.279  1.00  0.00     0.001 A 
ATOM     74  C   UNL A   1      49.323  28.641  28.007  1.00  0.00     0.000 A 
ENDBRANCH  55  69
BRANCH  56  75
ATOM     75  C   UNL A   1      37.265  32.226  30.288  1.00  0.00    -0.014 A 
ATOM     76  C   UNL A   1      36.693  31.940  31.538  1.00  0.00     0.009 A 
ATOM     77  C   UNL A   1      36.492  32.891  29.324  1.00  0.00     0.009 A 
ATOM     78  C   UNL A   1      35.366  32.286  31.804  1.00  0.00     0.001 A 
ATOM     79  C   UNL A   1      35.175  33.262  29.604  1.00  0.00     0.001 A 
ATOM     80  C   UNL A   1      34.610  32.950  30.840  1.00  0.00     0.000 A 
ENDBRANCH  56  75
BRANCH  68  81
ATOM     81  C   UNL A   1      43.394  35.474  30.859  1.00  0.00    -0.014 A 
ATOM     82  C   UNL A   1      43.673  35.762  32.204  1.00  0.00     0.009 A 
ATOM     83  C   UNL A   1      43.509  36.497  29.905  1.00  0.00     0.009 A 
ATOM     84  C   UNL A   1      44.028  37.056  32.588  1.00  0.00     0.001 A 
ATOM     85  C   UNL A   1      43.893  37.783  30.288  1.00  0.00     0.001 A 
ATOM     86  C   UNL A   1      44.143  38.063  31.630  1.00  0.00     0.000 A 
ENDBRANCH  68  81
ENDBRANCH  42  43
ENDBRANCH  34  37
ENDBRANCH  32  33
ENDBRANCH  31  32
ENDBRANCH  30  31
ENDBRANCH   1  30
TORSDOF 17
ENDMDL
MODEL 2
REMARK VINA RESULT:      -7.6      5.344     12.123
REMARK SMILES CCOc1cc2nccc(Nc3ccc(C(=O)NCCCCNC(=O)c4ccc(-c5c6nc(c(-c7ccccc7)c7ccc([nH]7)c(-c7ccccc7)c7nc(c(-c8ccccc8)c8ccc5[nH]8)C=C7)C=C6)cc4)cc3)c2cc1OCC
REMARK SMILES IDX 19 1 18 2 16 3 17 4 15 6 12 7 13 8 75 9 14 10 74 11 11 12
REMARK SMILES IDX 10 14 4 15 5 16 78 17 6 18 77 19 7 20 76 21 8 22 9 23 3 24
REMARK SMILES IDX 2 25 1 26 79 27 80 28 81 29 20 30 21 31 22 32 23 33 24 34
REMARK SMILES IDX 25 36 26 37 27 38 73 39 28 40 72 41 29 42 30 43 31 44 66 45
REMARK SMILES IDX 32 46 71 47 65 48 67 49 33 50 70 51 64 52 63 53 34 55 56 56
REMARK SMILES IDX 41 57 55 58 42 59 45 60 54 61 68 62 43 63 44 64 53 66 69 67
REMARK SMILES IDX 46 68 35 69 36 70 40 71 37 72 39 73 38 74 57 75 58 76 62 77
REMARK SMILES IDX 59 78 61 79 60 80 47 81 48 82 52 83 49 84 51 85 50 86
REMARK H PARENT 18 5 11 13 23 35 67 54 45 65
REMARK Flexibility Score: inf
ROOT
ATOM      1  C   UNL A   1      35.213  33.157  29.251  1.00  0.00     0.116 C 
ENDROOT
BRANCH   1   2
ATOM      2  N   UNL A   1      36.225  32.318  28.643  1.00  0.00    -0.352 N 
ATOM      3  C   UNL A   1      36.125  31.148  27.935  1.00  0.00     0.251 C 
ATOM      4  O   UNL A   1      37.168  30.620  27.549  1.00  0.00    -0.269 OA
ATOM      5  H   UNL A   1      37.146  32.646  28.757  1.00  0.00     0.163 HD
BRANCH   3   6
ATOM      6  C   UNL A   1      34.819  30.550  27.550  1.00  0.00     0.039 A 
ATOM      7  C   UNL A   1      32.477  29.277  26.634  1.00  0.00     0.038 A 
ATOM      8  C   UNL A   1      33.667  28.558  26.787  1.00  0.00     0.027 A 
ATOM      9  C   UNL A   1      32.456  30.625  26.984  1.00  0.00     0.027 A 
ATOM     10  C   UNL A   1      34.828  29.189  27.231  1.00  0.00     0.016 A 
ATOM     11  C   UNL A   1      33.606  31.244  27.486  1.00  0.00     0.016 A 
BRANCH   7  12
ATOM     12  N   UNL A   1      31.360  28.628  26.105  1.00  0.00    -0.355 N 
ATOM     13  H   UNL A   1      30.662  28.425  26.768  1.00  0.00     0.167 HD
BRANCH  12  14
ATOM     14  C   UNL A   1      31.045  28.210  24.791  1.00  0.00     0.050 A 
ATOM     15  C   UNL A   1      31.048  24.088  23.884  1.00  0.00     0.163 A 
ATOM     16  C   UNL A   1      30.898  25.049  22.874  1.00  0.00     0.079 A 
ATOM     17  C   UNL A   1      31.098  24.496  25.215  1.00  0.00     0.161 A 
ATOM     18  C   UNL A   1      30.839  26.416  23.160  1.00  0.00     0.076 A 
ATOM     19  C   UNL A   1      31.087  25.852  25.509  1.00  0.00     0.063 A 
ATOM     20  N   UNL A   1      30.676  27.307  22.165  1.00  0.00    -0.256 NA
ATOM     21  C   UNL A   1      30.989  26.826  24.501  1.00  0.00     0.028 A 
ATOM     22  C   UNL A   1      30.654  28.622  22.483  1.00  0.00     0.114 A 
ATOM     23  C   UNL A   1      30.824  29.118  23.762  1.00  0.00     0.047 A 
BRANCH  15  24
ATOM     24  O   UNL A   1      31.283  22.772  23.604  1.00  0.00    -0.490 OA
BRANCH  24  25
ATOM     25  C   UNL A   1      32.651  22.424  23.382  1.00  0.00     0.226 C 
ATOM     26  C   UNL A   1      32.798  20.953  23.750  1.00  0.00     0.049 C 
ENDBRANCH  24  25
ENDBRANCH  15  24
BRANCH  17  27
ATOM     27  O   UNL A   1      31.187  23.705  26.324  1.00  0.00    -0.490 OA
BRANCH  27  28
ATOM     28  C   UNL A   1      32.450  23.651  26.989  1.00  0.00     0.226 C 
ATOM     29  C   UNL A   1      32.958  22.239  27.250  1.00  0.00     0.049 C 
ENDBRANCH  27  28
ENDBRANCH  17  27
ENDBRANCH  12  14
ENDBRANCH   7  12
ENDBRANCH   3   6
ENDBRANCH   1   2
BRANCH   1  30
ATOM     30  C   UNL A   1      35.229  34.544  28.604  1.00  0.00     0.023 C 
BRANCH  30  31
ATOM     31  C   UNL A   1      33.993  35.385  28.929  1.00  0.00     0.023 C 
BRANCH  31  32
ATOM     32  C   UNL A   1      33.017  34.725  29.895  1.00  0.00     0.116 C 
BRANCH  32  33
ATOM     33  N   UNL A   1      32.461  35.651  30.869  1.00  0.00    -0.352 N 
ATOM     34  C   UNL A   1      32.863  35.866  32.164  1.00  0.00     0.251 C 
ATOM     35  H   UNL A   1      31.700  36.194  30.561  1.00  0.00     0.163 HD
ATOM     36  O   UNL A   1      32.222  36.602  32.905  1.00  0.00    -0.269 OA
BRANCH  34  37
ATOM     37  C   UNL A   1      34.058  35.160  32.666  1.00  0.00     0.039 A 
ATOM     38  C   UNL A   1      33.894  33.919  33.285  1.00  0.00     0.014 A 
ATOM     39  C   UNL A   1      35.333  35.701  32.480  1.00  0.00     0.014 A 
ATOM     40  C   UNL A   1      35.020  33.187  33.661  1.00  0.00     0.010 A 
ATOM     41  C   UNL A   1      36.453  34.939  32.790  1.00  0.00     0.010 A 
ATOM     42  C   UNL A   1      36.308  33.676  33.383  1.00  0.00    -0.014 A 
BRANCH  42  43
ATOM     43  C   UNL A   1      37.515  32.877  33.701  1.00  0.00     0.031 A 
ATOM     44  C   UNL A   1      38.307  33.171  34.945  1.00  0.00     0.074 A 
ATOM     45  C   UNL A   1      37.936  31.933  32.838  1.00  0.00     0.049 A 
ATOM     46  N   UNL A   1      39.417  32.619  35.365  1.00  0.00    -0.248 NA
ATOM     47  C   UNL A   1      37.798  34.242  35.818  1.00  0.00     0.031 C 
ATOM     48  C   UNL A   1      37.279  31.583  31.576  1.00  0.00     0.029 A 
ATOM     49  N   UNL A   1      39.022  31.096  32.890  1.00  0.00    -0.354 N 
ATOM     50  C   UNL A   1      39.746  33.286  36.538  1.00  0.00     0.074 A 
ATOM     51  C   UNL A   1      38.750  34.315  36.737  1.00  0.00     0.031 C 
ATOM     52  C   UNL A   1      37.960  30.586  30.989  1.00  0.00     0.029 A 
ATOM     53  C   UNL A   1      39.120  30.253  31.809  1.00  0.00     0.049 A 
ATOM     54  H   UNL A   1      39.669  31.100  33.631  1.00  0.00     0.167 HD
ATOM     55  C   UNL A   1      40.775  33.049  37.386  1.00  0.00     0.031 A 
ATOM     56  C   UNL A   1      40.043  29.321  31.511  1.00  0.00     0.031 A 
ATOM     57  C   UNL A   1      41.761  32.020  37.194  1.00  0.00     0.049 A 
ATOM     58  C   UNL A   1      41.182  29.086  32.464  1.00  0.00     0.074 A 
ATOM     59  C   UNL A   1      42.808  31.664  38.024  1.00  0.00     0.029 A 
ATOM     60  N   UNL A   1      41.820  31.182  36.091  1.00  0.00    -0.354 N 
ATOM     61  N   UNL A   1      41.440  29.677  33.605  1.00  0.00    -0.248 NA
ATOM     62  C   UNL A   1      42.152  28.046  32.089  1.00  0.00     0.031 C 
ATOM     63  C   UNL A   1      43.533  30.643  37.399  1.00  0.00     0.029 A 
ATOM     64  C   UNL A   1      42.901  30.325  36.208  1.00  0.00     0.049 A 
ATOM     65  H   UNL A   1      41.188  31.194  35.336  1.00  0.00     0.167 HD
ATOM     66  C   UNL A   1      42.583  29.061  34.099  1.00  0.00     0.074 A 
ATOM     67  C   UNL A   1      42.959  28.043  33.141  1.00  0.00     0.031 C 
ATOM     68  C   UNL A   1      43.261  29.317  35.245  1.00  0.00     0.031 A 
BRANCH  55  69
ATOM     69  C   UNL A   1      40.887  33.929  38.600  1.00  0.00    -0.014 A 
ATOM     70  C   UNL A   1      40.267  33.580  39.811  1.00  0.00     0.009 A 
ATOM     71  C   UNL A   1      41.646  35.108  38.540  1.00  0.00     0.009 A 
ATOM     72  C   UNL A   1      40.375  34.412  40.927  1.00  0.00     0.001 A 
ATOM     73  C   UNL A   1      41.777  35.923  39.668  1.00  0.00     0.001 A 
ATOM     74  C   UNL A   1      41.134  35.579  40.855  1.00  0.00     0.000 A 
ENDBRANCH  55  69
BRANCH  56  75
ATOM     75  C   UNL A   1      39.921  28.523  30.263  1.00  0.00    -0.014 A 
ATOM     76  C   UNL A   1      39.245  27.293  30.269  1.00  0.00     0.009 A 
ATOM     77  C   UNL A   1      40.487  28.981  29.063  1.00  0.00     0.009 A 
ATOM     78  C   UNL A   1      39.164  26.525  29.105  1.00  0.00     0.001 A 
ATOM     79  C   UNL A   1      40.379  28.225  27.894  1.00  0.00     0.001 A 
ATOM     80  C   UNL A   1      39.726  26.993  27.918  1.00  0.00     0.000 A 
ENDBRANCH  56  75
BRANCH  68  81
ATOM     81  C   UNL A   1      44.456  28.457  35.543  1.00  0.00    -0.014 A 
ATOM     82  C   UNL A   1      44.342  27.293  36.319  1.00  0.00     0.009 A 
ATOM     83  C   UNL A   1      45.706  28.795  35.002  1.00  0.00     0.009 A 
ATOM     84  C   UNL A   1      45.465  26.504  36.575  1.00  0.00     0.001 A 
ATOM     85  C   UNL A   1      46.821  27.989  35.236  1.00  0.00     0.001 A 
ATOM     86  C   UNL A   1      46.701  26.850  36.029  1.00  0.00     0.000 A 
ENDBRANCH  68  81
ENDBRANCH  42  43
ENDBRANCH  34  37
ENDBRANCH  32  33
ENDBRANCH  31  32
ENDBRANCH  30  31
ENDBRANCH   1  30
TORSDOF 17
ENDMDL
MODEL 3
REMARK VINA RESULT:      -7.5      4.438      8.218
REMARK SMILES CCOc1cc2nccc(Nc3ccc(C(=O)NCCCCNC(=O)c4ccc(-c5c6nc(c(-c7ccccc7)c7ccc([nH]7)c(-c7ccccc7)c7nc(c(-c8ccccc8)c8ccc5[nH]8)C=C7)C=C6)cc4)cc3)c2cc1OCC
REMARK SMILES IDX 19 1 18 2 16 3 17 4 15 6 12 7 13 8 75 9 14 10 74 11 11 12
REMARK SMILES IDX 10 14 4 15 5 16 78 17 6 18 77 19 7 20 76 21 8 22 9 23 3 24
REMARK SMILES IDX 2 25 1 26 79 27 80 28 81 29 20 30 21 31 22 32 23 33 24 34
REMARK SMILES IDX 25 36 26 37 27 38 73 39 28 40 72 41 29 42 30 43 31 44 66 45
REMARK SMILES IDX 32 46 71 47 65 48 67 49 33 50 70 51 64 52 63 53 34 55 56 56
REMARK SMILES IDX 41 57 55 58 42 59 45 60 54 61 68 62 43 63 44 64 53 66 69 67
REMARK SMILES IDX 46 68 35 69 36 70 40 71 37 72 39 73 38 74 57 75 58 76 62 77
REMARK SMILES IDX 59 78 61 79 60 80 47 81 48 82 52 83 49 84 51 85 50 86
REMARK H PARENT 18 5 11 13 23 35 67 54 45 65
REMARK Flexibility Score: inf
ROOT
ATOM      1  C   UNL A   1      38.641  22.745  26.138  1.00  0.00     0.116 C 
ENDROOT
BRANCH   1   2
ATOM      2  N   UNL A   1      37.840  21.637  25.661  1.00  0.00    -0.352 N 
ATOM      3  C   UNL A   1      36.507  21.551  25.352  1.00  0.00     0.251 C 
ATOM      4  O   UNL A   1      36.071  20.459  24.989  1.00  0.00    -0.269 OA
ATOM      5  H   UNL A   1      38.340  20.799  25.537  1.00  0.00     0.163 HD
BRANCH   3   6
ATOM      6  C   UNL A   1      35.603  22.732  25.357  1.00  0.00     0.039 A 
ATOM      7  C   UNL A   1      33.696  24.805  25.453  1.00  0.00     0.038 A 
ATOM      8  C   UNL A   1      33.766  23.852  26.475  1.00  0.00     0.027 A 
ATOM      9  C   UNL A   1      34.614  24.739  24.408  1.00  0.00     0.027 A 
ATOM     10  C   UNL A   1      34.702  22.821  26.423  1.00  0.00     0.016 A 
ATOM     11  C   UNL A   1      35.592  23.739  24.387  1.00  0.00     0.016 A 
BRANCH   7  12
ATOM     12  N   UNL A   1      32.687  25.769  25.498  1.00  0.00    -0.355 N 
ATOM     13  H   UNL A   1      31.792  25.424  25.279  1.00  0.00     0.167 HD
BRANCH  12  14
ATOM     14  C   UNL A   1      32.714  27.150  25.801  1.00  0.00     0.050 A 
ATOM     15  C   UNL A   1      30.085  29.758  23.775  1.00  0.00     0.163 A 
ATOM     16  C   UNL A   1      31.087  30.256  24.620  1.00  0.00     0.079 A 
ATOM     17  C   UNL A   1      29.893  28.381  23.679  1.00  0.00     0.161 A 
ATOM     18  C   UNL A   1      31.931  29.409  25.342  1.00  0.00     0.076 A 
ATOM     19  C   UNL A   1      30.754  27.528  24.356  1.00  0.00     0.063 A 
ATOM     20  N   UNL A   1      32.868  29.925  26.157  1.00  0.00    -0.256 NA
ATOM     21  C   UNL A   1      31.794  28.016  25.164  1.00  0.00     0.028 A 
ATOM     22  C   UNL A   1      33.684  29.069  26.815  1.00  0.00     0.114 A 
ATOM     23  C   UNL A   1      33.644  27.694  26.680  1.00  0.00     0.047 A 
BRANCH  15  24
ATOM     24  O   UNL A   1      29.376  30.567  22.934  1.00  0.00    -0.490 OA
BRANCH  24  25
ATOM     25  C   UNL A   1      28.515  31.514  23.569  1.00  0.00     0.226 C 
ATOM     26  C   UNL A   1      28.779  32.862  22.909  1.00  0.00     0.049 C 
ENDBRANCH  24  25
ENDBRANCH  15  24
BRANCH  17  27
ATOM     27  O   UNL A   1      28.941  27.722  22.955  1.00  0.00    -0.490 OA
BRANCH  27  28
ATOM     28  C   UNL A   1      27.761  27.311  23.646  1.00  0.00     0.226 C 
ATOM     29  C   UNL A   1      26.591  28.277  23.515  1.00  0.00     0.049 C 
ENDBRANCH  27  28
ENDBRANCH  17  27
ENDBRANCH  12  14
ENDBRANCH   7  12
ENDBRANCH   3   6
ENDBRANCH   1   2
BRANCH   1  30
ATOM     30  C   UNL A   1      39.927  22.219  26.781  1.00  0.00     0.023 C 
BRANCH  30  31
ATOM     31  C   UNL A   1      40.210  20.747  26.471  1.00  0.00     0.023 C 
BRANCH  31  32
ATOM     32  C   UNL A   1      41.532  20.230  27.023  1.00  0.00     0.116 C 
BRANCH  32  33
ATOM     33  N   UNL A   1      42.458  19.804  25.986  1.00  0.00    -0.352 N 
ATOM     34  C   UNL A   1      43.438  20.539  25.366  1.00  0.00     0.251 C 
ATOM     35  H   UNL A   1      42.372  18.869  25.690  1.00  0.00     0.163 HD
ATOM     36  O   UNL A   1      44.068  20.073  24.424  1.00  0.00    -0.269 OA
BRANCH  34  37
ATOM     37  C   UNL A   1      43.691  21.919  25.824  1.00  0.00     0.039 A 
ATOM     38  C   UNL A   1      43.444  22.974  24.944  1.00  0.00     0.014 A 
ATOM     39  C   UNL A   1      44.121  22.166  27.131  1.00  0.00     0.014 A 
ATOM     40  C   UNL A   1      43.568  24.287  25.398  1.00  0.00     0.010 A 
ATOM     41  C   UNL A   1      44.174  23.473  27.600  1.00  0.00     0.010 A 
ATOM     42  C   UNL A   1      43.898  24.545  26.739  1.00  0.00    -0.014 A 
BRANCH  42  43
ATOM     43  C   UNL A   1      43.956  25.932  27.261  1.00  0.00     0.031 A 
ATOM     44  C   UNL A   1      45.280  26.626  27.413  1.00  0.00     0.074 A 
ATOM     45  C   UNL A   1      42.822  26.541  27.659  1.00  0.00     0.049 A 
ATOM     46  N   UNL A   1      45.537  27.813  27.898  1.00  0.00    -0.248 NA
ATOM     47  C   UNL A   1      46.474  25.878  26.985  1.00  0.00     0.031 C 
ATOM     48  C   UNL A   1      41.479  25.956  27.604  1.00  0.00     0.029 A 
ATOM     49  N   UNL A   1      42.620  27.787  28.196  1.00  0.00    -0.354 N 
ATOM     50  C   UNL A   1      46.919  27.947  27.850  1.00  0.00     0.074 A 
ATOM     51  C   UNL A   1      47.449  26.703  27.337  1.00  0.00     0.031 C 
ATOM     52  C   UNL A   1      40.592  26.854  28.061  1.00  0.00     0.029 A 
ATOM     53  C   UNL A   1      41.302  28.058  28.478  1.00  0.00     0.049 A 
ATOM     54  H   UNL A   1      43.349  28.425  28.364  1.00  0.00     0.167 HD
ATOM     55  C   UNL A   1      47.678  29.016  28.184  1.00  0.00     0.031 A 
ATOM     56  C   UNL A   1      40.733  29.152  29.015  1.00  0.00     0.031 A 
ATOM     57  C   UNL A   1      47.151  30.257  28.686  1.00  0.00     0.049 A 
ATOM     58  C   UNL A   1      41.600  30.322  29.388  1.00  0.00     0.074 A 
ATOM     59  C   UNL A   1      47.833  31.419  29.000  1.00  0.00     0.029 A 
ATOM     60  N   UNL A   1      45.811  30.494  28.949  1.00  0.00    -0.354 N 
ATOM     61  N   UNL A   1      42.898  30.459  29.270  1.00  0.00    -0.248 NA
ATOM     62  C   UNL A   1      40.918  31.493  29.960  1.00  0.00     0.031 C 
ATOM     63  C   UNL A   1      46.911  32.345  29.500  1.00  0.00     0.029 A 
ATOM     64  C   UNL A   1      45.648  31.778  29.443  1.00  0.00     0.049 A 
ATOM     65  H   UNL A   1      45.083  29.848  28.805  1.00  0.00     0.167 HD
ATOM     66  C   UNL A   1      43.185  31.740  29.725  1.00  0.00     0.074 A 
ATOM     67  C   UNL A   1      41.925  32.343  30.106  1.00  0.00     0.031 C 
ATOM     68  C   UNL A   1      44.386  32.362  29.817  1.00  0.00     0.031 A 
BRANCH  55  69
ATOM     69  C   UNL A   1      49.167  28.886  28.022  1.00  0.00    -0.014 A 
ATOM     70  C   UNL A   1      49.976  28.423  29.072  1.00  0.00     0.009 A 
ATOM     71  C   UNL A   1      49.766  29.201  26.792  1.00  0.00     0.009 A 
ATOM     72  C   UNL A   1      51.358  28.315  28.907  1.00  0.00     0.001 A 
ATOM     73  C   UNL A   1      51.145  29.062  26.620  1.00  0.00     0.001 A 
ATOM     74  C   UNL A   1      51.940  28.629  27.679  1.00  0.00     0.000 A 
ENDBRANCH  55  69
BRANCH  56  75
ATOM     75  C   UNL A   1      39.261  29.204  29.216  1.00  0.00    -0.014 A 
ATOM     76  C   UNL A   1      38.413  29.583  28.164  1.00  0.00     0.009 A 
ATOM     77  C   UNL A   1      38.698  28.885  30.462  1.00  0.00     0.009 A 
ATOM     78  C   UNL A   1      37.033  29.669  28.364  1.00  0.00     0.001 A 
ATOM     79  C   UNL A   1      37.316  28.943  30.650  1.00  0.00     0.001 A 
ATOM     80  C   UNL A   1      36.485  29.345  29.604  1.00  0.00     0.000 A 
ENDBRANCH  56  75
BRANCH  68  81
ATOM     81  C   UNL A   1      44.390  33.779  30.316  1.00  0.00    -0.014 A 
ATOM     82  C   UNL A   1      44.681  34.080  31.656  1.00  0.00     0.009 A 
ATOM     83  C   UNL A   1      44.138  34.830  29.421  1.00  0.00     0.009 A 
ATOM     84  C   UNL A   1      44.687  35.405  32.094  1.00  0.00     0.001 A 
ATOM     85  C   UNL A   1      44.174  36.155  29.856  1.00  0.00     0.001 A 
ATOM     86  C   UNL A   1      44.439  36.441  31.194  1.00  0.00     0.000 A 
ENDBRANCH  68  81
ENDBRANCH  42  43
ENDBRANCH  34  37
ENDBRANCH  32  33
ENDBRANCH  31  32
ENDBRANCH  30  31
ENDBRANCH   1  30
TORSDOF 17
ENDMDL
