MODEL 1
REMARK VINA RESULT:     -12.5      0.000      0.000
REMARK SMILES O=C(Cn1nc(-c2ccc(Br)cc2)ccc1=O)N[C@H](C(=O)NCCCCNC(=O)c1ccc(-c2c3nc(c(-c4ccccc4)c4ccc([nH]4)c(-c4ccccc4)c4nc(c(-c5ccccc5)c5ccc2[nH]5)C=C4)C=C3)cc1)c1ccccc1
REMARK SMILES IDX 23 1 22 2 20 3 21 4 19 6 18 7 1 8 2 9 3 11 4 12 5 13 16 14
REMARK SMILES IDX 6 15 15 16 17 17 14 18 7 19 8 20 13 21 9 22 12 23 10 24
REMARK SMILES IDX 11 25 78 26 79 27 83 28 80 29 82 30 81 31 24 32 25 33 26 34
REMARK SMILES IDX 27 35 28 36 29 38 30 39 31 40 77 41 32 42 76 43 33 44 34 45
REMARK SMILES IDX 35 46 70 47 36 48 75 49 69 50 71 51 37 52 74 53 68 54 67 55
REMARK SMILES IDX 38 57 60 58 45 59 59 60 46 61 49 62 58 63 72 64 47 65 48 66
REMARK SMILES IDX 57 68 73 69 50 70 39 71 40 72 44 73 41 74 43 75 42 76 61 77
REMARK SMILES IDX 62 78 66 79 63 80 65 81 64 82 51 83 52 84 56 85 53 86 55 87
REMARK SMILES IDX 54 88
REMARK H PARENT 22 5 18 10 27 37 71 56 49 67
REMARK Flexibility Score: inf
ROOT
ATOM      1  C   UNL A   1      31.838  28.458  26.150  1.00  0.00     0.116 C 
ENDROOT
BRANCH   1   2
ATOM      2  N   UNL A   1      32.644  28.640  24.961  1.00  0.00    -0.354 N 
ATOM      3  C   UNL A   1      32.256  28.671  23.638  1.00  0.00     0.247 C 
ATOM      4  O   UNL A   1      33.178  28.830  22.832  1.00  0.00    -0.272 OA
ATOM      5  H   UNL A   1      33.608  28.760  25.120  1.00  0.00     0.163 HD
BRANCH   3   6
ATOM      6  C   UNL A   1      30.789  28.278  23.242  1.00  0.00     0.202 C 
BRANCH   6   7
ATOM      7  N   UNL A   1      30.422  26.956  23.754  1.00  0.00    -0.339 N 
ATOM      8  O   UNL A   1      31.642  25.717  22.249  1.00  0.00    -0.273 OA
ATOM      9  C   UNL A   1      30.856  25.771  23.188  1.00  0.00     0.242 C 
ATOM     10  H   UNL A   1      29.834  26.906  24.543  1.00  0.00     0.164 HD
BRANCH   9  11
ATOM     11  C   UNL A   1      30.210  24.533  23.814  1.00  0.00     0.248 C 
BRANCH  11  12
ATOM     12  N   UNL A   1      31.147  23.874  24.703  1.00  0.00    -0.220 N 
ATOM     13  N   UNL A   1      31.745  22.736  24.211  1.00  0.00    -0.169 NA
ATOM     14  C   UNL A   1      31.328  24.358  25.989  1.00  0.00     0.267 A 
ATOM     15  C   UNL A   1      32.451  22.031  25.037  1.00  0.00     0.091 A 
ATOM     16  C   UNL A   1      32.198  23.546  26.866  1.00  0.00     0.075 A 
ATOM     17  O   UNL A   1      30.837  25.392  26.432  1.00  0.00    -0.268 OA
ATOM     18  C   UNL A   1      32.738  22.406  26.435  1.00  0.00     0.036 A 
BRANCH  15  19
ATOM     19  C   UNL A   1      32.978  20.733  24.566  1.00  0.00     0.002 A 
ATOM     20  C   UNL A   1      32.159  19.908  23.788  1.00  0.00     0.011 A 
ATOM     21  C   UNL A   1      34.213  20.271  25.035  1.00  0.00     0.011 A 
ATOM     22  C   UNL A   1      32.580  18.616  23.471  1.00  0.00     0.016 A 
ATOM     23  C   UNL A   1      34.625  18.974  24.725  1.00  0.00     0.016 A 
ATOM     24  C   UNL A   1      33.806  18.152  23.950  1.00  0.00     0.018 A 
ATOM     25  Br  UNL A   1      34.346  16.380  23.576  1.00  0.00    -0.051 Br
ENDBRANCH  15  19
ENDBRANCH  11  12
ENDBRANCH   9  11
ENDBRANCH   6   7
BRANCH   6  26
ATOM     26  C   UNL A   1      29.683  29.330  23.381  1.00  0.00    -0.016 A 
ATOM     27  C   UNL A   1      28.385  29.086  22.888  1.00  0.00     0.006 A 
ATOM     28  C   UNL A   1      29.946  30.630  23.849  1.00  0.00     0.006 A 
ATOM     29  C   UNL A   1      27.396  30.077  22.899  1.00  0.00     0.000 A 
ATOM     30  C   UNL A   1      28.955  31.619  23.872  1.00  0.00     0.000 A 
ATOM     31  C   UNL A   1      27.680  31.342  23.395  1.00  0.00     0.000 A 
ENDBRANCH   6  26
ENDBRANCH   3   6
ENDBRANCH   1   2
BRANCH   1  32
ATOM     32  C   UNL A   1      32.111  29.479  27.250  1.00  0.00     0.023 C 
BRANCH  32  33
ATOM     33  C   UNL A   1      31.948  30.944  26.845  1.00  0.00     0.023 C 
BRANCH  33  34
ATOM     34  C   UNL A   1      33.067  31.887  27.277  1.00  0.00     0.116 C 
BRANCH  34  35
ATOM     35  N   UNL A   1      32.606  33.232  27.593  1.00  0.00    -0.352 N 
ATOM     36  C   UNL A   1      33.178  34.187  28.407  1.00  0.00     0.251 C 
ATOM     37  H   UNL A   1      31.761  33.500  27.163  1.00  0.00     0.163 HD
ATOM     38  O   UNL A   1      32.586  35.238  28.636  1.00  0.00    -0.269 OA
BRANCH  36  39
ATOM     39  C   UNL A   1      34.479  33.915  29.059  1.00  0.00     0.039 A 
ATOM     40  C   UNL A   1      35.669  34.379  28.499  1.00  0.00     0.014 A 
ATOM     41  C   UNL A   1      34.511  33.121  30.210  1.00  0.00     0.014 A 
ATOM     42  C   UNL A   1      36.881  33.864  28.945  1.00  0.00     0.010 A 
ATOM     43  C   UNL A   1      35.738  32.682  30.718  1.00  0.00     0.010 A 
ATOM     44  C   UNL A   1      36.931  32.985  30.042  1.00  0.00    -0.014 A 
BRANCH  44  45
ATOM     45  C   UNL A   1      38.229  32.360  30.415  1.00  0.00     0.031 A 
ATOM     46  C   UNL A   1      39.051  32.911  31.555  1.00  0.00     0.074 A 
ATOM     47  C   UNL A   1      38.628  31.234  29.791  1.00  0.00     0.049 A 
ATOM     48  N   UNL A   1      40.159  32.438  32.073  1.00  0.00    -0.248 NA
ATOM     49  C   UNL A   1      38.576  34.147  32.197  1.00  0.00     0.031 C 
ATOM     50  C   UNL A   1      37.916  30.588  28.687  1.00  0.00     0.029 A 
ATOM     51  N   UNL A   1      39.700  30.410  30.025  1.00  0.00    -0.354 N 
ATOM     52  C   UNL A   1      40.518  33.325  33.081  1.00  0.00     0.074 A 
ATOM     53  C   UNL A   1      39.532  34.381  33.086  1.00  0.00     0.031 C 
ATOM     54  C   UNL A   1      38.525  29.431  28.392  1.00  0.00     0.029 A 
ATOM     55  C   UNL A   1      39.704  29.281  29.241  1.00  0.00     0.049 A 
ATOM     56  H   UNL A   1      40.399  30.608  30.689  1.00  0.00     0.167 HD
ATOM     57  C   UNL A   1      41.567  33.261  33.937  1.00  0.00     0.031 A 
ATOM     58  C   UNL A   1      40.551  28.235  29.206  1.00  0.00     0.031 A 
ATOM     59  C   UNL A   1      42.540  32.202  33.952  1.00  0.00     0.049 A 
ATOM     60  C   UNL A   1      41.717  28.197  30.151  1.00  0.00     0.074 A 
ATOM     61  C   UNL A   1      43.631  32.051  34.792  1.00  0.00     0.029 A 
ATOM     62  N   UNL A   1      42.536  31.110  33.101  1.00  0.00    -0.354 N 
ATOM     63  N   UNL A   1      42.039  29.046  31.096  1.00  0.00    -0.248 NA
ATOM     64  C   UNL A   1      42.637  27.056  30.028  1.00  0.00     0.031 C 
ATOM     65  C   UNL A   1      44.314  30.892  34.416  1.00  0.00     0.029 A 
ATOM     66  C   UNL A   1      43.615  30.290  33.383  1.00  0.00     0.049 A 
ATOM     67  H   UNL A   1      41.867  30.941  32.398  1.00  0.00     0.167 HD
ATOM     68  C   UNL A   1      43.185  28.535  31.689  1.00  0.00     0.074 A 
ATOM     69  C   UNL A   1      43.496  27.295  31.011  1.00  0.00     0.031 C 
ATOM     70  C   UNL A   1      43.915  29.056  32.706  1.00  0.00     0.031 A 
BRANCH  57  71
ATOM     71  C   UNL A   1      41.733  34.373  34.935  1.00  0.00    -0.014 A 
ATOM     72  C   UNL A   1      41.108  34.282  36.190  1.00  0.00     0.009 A 
ATOM     73  C   UNL A   1      42.425  35.548  34.605  1.00  0.00     0.009 A 
ATOM     74  C   UNL A   1      41.163  35.349  37.089  1.00  0.00     0.001 A 
ATOM     75  C   UNL A   1      42.501  36.603  35.518  1.00  0.00     0.001 A 
ATOM     76  C   UNL A   1      41.863  36.506  36.754  1.00  0.00     0.000 A 
ENDBRANCH  57  71
BRANCH  58  77
ATOM     77  C   UNL A   1      40.301  27.128  28.247  1.00  0.00    -0.014 A 
ATOM     78  C   UNL A   1      39.541  26.011  28.632  1.00  0.00     0.009 A 
ATOM     79  C   UNL A   1      40.864  27.157  26.964  1.00  0.00     0.009 A 
ATOM     80  C   UNL A   1      39.373  24.934  27.760  1.00  0.00     0.001 A 
ATOM     81  C   UNL A   1      40.670  26.090  26.082  1.00  0.00     0.001 A 
ATOM     82  C   UNL A   1      39.934  24.976  26.485  1.00  0.00     0.000 A 
ENDBRANCH  58  77
BRANCH  70  83
ATOM     83  C   UNL A   1      45.116  28.286  33.176  1.00  0.00    -0.014 A 
ATOM     84  C   UNL A   1      44.984  27.364  34.225  1.00  0.00     0.009 A 
ATOM     85  C   UNL A   1      46.392  28.549  32.655  1.00  0.00     0.009 A 
ATOM     86  C   UNL A   1      46.108  26.728  34.755  1.00  0.00     0.001 A 
ATOM     87  C   UNL A   1      47.512  27.892  33.170  1.00  0.00     0.001 A 
ATOM     88  C   UNL A   1      47.370  26.990  34.225  1.00  0.00     0.000 A 
ENDBRANCH  70  83
ENDBRANCH  44  45
ENDBRANCH  36  39
ENDBRANCH  34  35
ENDBRANCH  33  34
ENDBRANCH  32  33
ENDBRANCH   1  32
TORSDOF 16
ENDMDL
MODEL 2
REMARK VINA RESULT:     -12.5      2.062      6.063
REMARK SMILES O=C(Cn1nc(-c2ccc(Br)cc2)ccc1=O)N[C@H](C(=O)NCCCCNC(=O)c1ccc(-c2c3nc(c(-c4ccccc4)c4ccc([nH]4)c(-c4ccccc4)c4nc(c(-c5ccccc5)c5ccc2[nH]5)C=C4)C=C3)cc1)c1ccccc1
REMARK SMILES IDX 23 1 22 2 20 3 21 4 19 6 18 7 1 8 2 9 3 11 4 12 5 13 16 14
REMARK SMILES IDX 6 15 15 16 17 17 14 18 7 19 8 20 13 21 9 22 12 23 10 24
REMARK SMILES IDX 11 25 78 26 79 27 83 28 80 29 82 30 81 31 24 32 25 33 26 34
REMARK SMILES IDX 27 35 28 36 29 38 30 39 31 40 77 41 32 42 76 43 33 44 34 45
REMARK SMILES IDX 35 46 70 47 36 48 75 49 69 50 71 51 37 52 74 53 68 54 67 55
REMARK SMILES IDX 38 57 60 58 45 59 59 60 46 61 49 62 58 63 72 64 47 65 48 66
REMARK SMILES IDX 57 68 73 69 50 70 39 71 40 72 44 73 41 74 43 75 42 76 61 77
REMARK SMILES IDX 62 78 66 79 63 80 65 81 64 82 51 83 52 84 56 85 53 86 55 87
REMARK SMILES IDX 54 88
REMARK H PARENT 22 5 18 10 27 37 71 56 49 67
REMARK Flexibility Score: inf
ROOT
ATOM      1  C   UNL A   1      31.795  29.577  25.268  1.00  0.00     0.116 C 
ENDROOT
BRANCH   1   2
ATOM      2  N   UNL A   1      32.975  29.477  24.435  1.00  0.00    -0.354 N 
ATOM      3  C   UNL A   1      33.110  28.944  23.170  1.00  0.00     0.247 C 
ATOM      4  O   UNL A   1      34.256  28.986  22.710  1.00  0.00    -0.272 OA
ATOM      5  H   UNL A   1      33.800  29.843  24.828  1.00  0.00     0.163 HD
BRANCH   3   6
ATOM      6  C   UNL A   1      31.925  28.140  22.528  1.00  0.00     0.202 C 
BRANCH   6   7
ATOM      7  N   UNL A   1      31.976  26.720  22.881  1.00  0.00    -0.339 N 
ATOM      8  O   UNL A   1      33.448  26.069  21.239  1.00  0.00    -0.273 OA
ATOM      9  C   UNL A   1      32.714  25.785  22.179  1.00  0.00     0.242 C 
ATOM     10  H   UNL A   1      31.457  26.413  23.660  1.00  0.00     0.164 HD
BRANCH   9  11
ATOM     11  C   UNL A   1      32.478  24.350  22.656  1.00  0.00     0.248 C 
BRANCH  11  12
ATOM     12  N   UNL A   1      32.989  24.179  24.002  1.00  0.00    -0.220 N 
ATOM     13  N   UNL A   1      34.321  23.847  24.103  1.00  0.00    -0.169 NA
ATOM     14  C   UNL A   1      32.124  24.275  25.081  1.00  0.00     0.267 A 
ATOM     15  C   UNL A   1      34.764  23.519  25.275  1.00  0.00     0.091 A 
ATOM     16  C   UNL A   1      32.704  23.953  26.402  1.00  0.00     0.075 A 
ATOM     17  O   UNL A   1      30.945  24.609  25.014  1.00  0.00    -0.268 OA
ATOM     18  C   UNL A   1      33.975  23.567  26.520  1.00  0.00     0.036 A 
BRANCH  15  19
ATOM     19  C   UNL A   1      36.151  23.020  25.376  1.00  0.00     0.002 A 
ATOM     20  C   UNL A   1      36.427  21.696  25.016  1.00  0.00     0.011 A 
ATOM     21  C   UNL A   1      37.135  23.811  25.982  1.00  0.00     0.011 A 
ATOM     22  C   UNL A   1      37.694  21.163  25.256  1.00  0.00     0.016 A 
ATOM     23  C   UNL A   1      38.397  23.270  26.231  1.00  0.00     0.016 A 
ATOM     24  C   UNL A   1      38.669  21.949  25.872  1.00  0.00     0.018 A 
ATOM     25  Br  UNL A   1      40.363  21.206  26.257  1.00  0.00    -0.051 Br
ENDBRANCH  15  19
ENDBRANCH  11  12
ENDBRANCH   9  11
ENDBRANCH   6   7
BRANCH   6  26
ATOM     26  C   UNL A   1      30.518  28.745  22.572  1.00  0.00    -0.016 A 
ATOM     27  C   UNL A   1      29.437  28.026  23.122  1.00  0.00     0.006 A 
ATOM     28  C   UNL A   1      30.207  29.957  21.929  1.00  0.00     0.006 A 
ATOM     29  C   UNL A   1      28.125  28.511  23.065  1.00  0.00     0.000 A 
ATOM     30  C   UNL A   1      28.897  30.450  21.882  1.00  0.00     0.000 A 
ATOM     31  C   UNL A   1      27.856  29.726  22.449  1.00  0.00     0.000 A 
ENDBRANCH   6  26
ENDBRANCH   3   6
ENDBRANCH   1   2
BRANCH   1  32
ATOM     32  C   UNL A   1      32.049  30.205  26.634  1.00  0.00     0.023 C 
BRANCH  32  33
ATOM     33  C   UNL A   1      31.728  31.695  26.746  1.00  0.00     0.023 C 
BRANCH  33  34
ATOM     34  C   UNL A   1      32.818  32.573  27.354  1.00  0.00     0.116 C 
BRANCH  34  35
ATOM     35  N   UNL A   1      32.404  33.953  27.567  1.00  0.00    -0.352 N 
ATOM     36  C   UNL A   1      32.898  34.891  28.449  1.00  0.00     0.251 C 
ATOM     37  H   UNL A   1      31.663  34.263  26.998  1.00  0.00     0.163 HD
ATOM     38  O   UNL A   1      32.350  35.983  28.559  1.00  0.00    -0.269 OA
BRANCH  36  39
ATOM     39  C   UNL A   1      34.052  34.553  29.313  1.00  0.00     0.039 A 
ATOM     40  C   UNL A   1      35.352  34.575  28.809  1.00  0.00     0.014 A 
ATOM     41  C   UNL A   1      33.819  34.138  30.628  1.00  0.00     0.014 A 
ATOM     42  C   UNL A   1      36.375  33.968  29.530  1.00  0.00     0.010 A 
ATOM     43  C   UNL A   1      34.871  33.618  31.390  1.00  0.00     0.010 A 
ATOM     44  C   UNL A   1      36.143  33.455  30.818  1.00  0.00    -0.014 A 
BRANCH  44  45
ATOM     45  C   UNL A   1      37.228  32.708  31.510  1.00  0.00     0.031 A 
ATOM     46  C   UNL A   1      37.945  31.573  30.820  1.00  0.00     0.074 A 
ATOM     47  C   UNL A   1      37.639  33.111  32.728  1.00  0.00     0.049 A 
ATOM     48  N   UNL A   1      38.972  30.873  31.239  1.00  0.00    -0.248 NA
ATOM     49  C   UNL A   1      37.452  31.166  29.494  1.00  0.00     0.031 C 
ATOM     50  C   UNL A   1      37.045  34.206  33.496  1.00  0.00     0.029 A 
ATOM     51  N   UNL A   1      38.679  32.680  33.513  1.00  0.00    -0.354 N 
ATOM     52  C   UNL A   1      39.231  29.940  30.242  1.00  0.00     0.074 A 
ATOM     53  C   UNL A   1      38.239  30.138  29.211  1.00  0.00     0.031 C 
ATOM     54  C   UNL A   1      37.774  34.412  34.602  1.00  0.00     0.029 A 
ATOM     55  C   UNL A   1      38.850  33.426  34.654  1.00  0.00     0.049 A 
ATOM     56  H   UNL A   1      39.248  31.910  33.282  1.00  0.00     0.167 HD
ATOM     57  C   UNL A   1      40.215  29.010  30.182  1.00  0.00     0.031 A 
ATOM     58  C   UNL A   1      39.770  33.340  35.634  1.00  0.00     0.031 A 
ATOM     59  C   UNL A   1      41.219  28.823  31.195  1.00  0.00     0.049 A 
ATOM     60  C   UNL A   1      40.838  32.288  35.555  1.00  0.00     0.074 A 
ATOM     61  C   UNL A   1      42.260  27.910  31.212  1.00  0.00     0.029 A 
ATOM     62  N   UNL A   1      41.317  29.564  32.361  1.00  0.00    -0.354 N 
ATOM     63  N   UNL A   1      41.064  31.415  34.604  1.00  0.00    -0.248 NA
ATOM     64  C   UNL A   1      41.780  32.210  36.681  1.00  0.00     0.031 C 
ATOM     65  C   UNL A   1      42.960  28.068  32.411  1.00  0.00     0.029 A 
ATOM     66  C   UNL A   1      42.391  29.118  33.112  1.00  0.00     0.049 A 
ATOM     67  H   UNL A   1      40.713  30.298  32.618  1.00  0.00     0.167 HD
ATOM     68  C   UNL A   1      42.181  30.696  35.009  1.00  0.00     0.074 A 
ATOM     69  C   UNL A   1      42.598  31.244  36.282  1.00  0.00     0.031 C 
ATOM     70  C   UNL A   1      42.800  29.670  34.376  1.00  0.00     0.031 A 
BRANCH  57  71
ATOM     71  C   UNL A   1      40.260  28.106  28.982  1.00  0.00    -0.014 A 
ATOM     72  C   UNL A   1      39.638  26.848  29.033  1.00  0.00     0.009 A 
ATOM     73  C   UNL A   1      40.995  28.453  27.838  1.00  0.00     0.009 A 
ATOM     74  C   UNL A   1      39.758  25.953  27.969  1.00  0.00     0.001 A 
ATOM     75  C   UNL A   1      41.090  27.566  26.763  1.00  0.00     0.001 A 
ATOM     76  C   UNL A   1      40.480  26.314  26.833  1.00  0.00     0.000 A 
ENDBRANCH  57  71
BRANCH  58  77
ATOM     77  C   UNL A   1      39.721  34.304  36.763  1.00  0.00    -0.014 A 
ATOM     78  C   UNL A   1      40.378  35.542  36.672  1.00  0.00     0.009 A 
ATOM     79  C   UNL A   1      39.065  33.971  37.957  1.00  0.00     0.009 A 
ATOM     80  C   UNL A   1      40.402  36.414  37.762  1.00  0.00     0.001 A 
ATOM     81  C   UNL A   1      39.065  34.859  39.036  1.00  0.00     0.001 A 
ATOM     82  C   UNL A   1      39.743  36.074  38.941  1.00  0.00     0.000 A 
ENDBRANCH  58  77
BRANCH  70  83
ATOM     83  C   UNL A   1      44.013  29.071  35.029  1.00  0.00    -0.014 A 
ATOM     84  C   UNL A   1      45.290  29.547  34.694  1.00  0.00     0.009 A 
ATOM     85  C   UNL A   1      43.900  27.970  35.891  1.00  0.00     0.009 A 
ATOM     86  C   UNL A   1      46.433  28.925  35.198  1.00  0.00     0.001 A 
ATOM     87  C   UNL A   1      45.046  27.365  36.415  1.00  0.00     0.001 A 
ATOM     88  C   UNL A   1      46.310  27.837  36.060  1.00  0.00     0.000 A 
ENDBRANCH  70  83
ENDBRANCH  44  45
ENDBRANCH  36  39
ENDBRANCH  34  35
ENDBRANCH  33  34
ENDBRANCH  32  33
ENDBRANCH   1  32
TORSDOF 16
ENDMDL
MODEL 3
REMARK VINA RESULT:     -12.4      3.028      6.773
REMARK SMILES O=C(Cn1nc(-c2ccc(Br)cc2)ccc1=O)N[C@H](C(=O)NCCCCNC(=O)c1ccc(-c2c3nc(c(-c4ccccc4)c4ccc([nH]4)c(-c4ccccc4)c4nc(c(-c5ccccc5)c5ccc2[nH]5)C=C4)C=C3)cc1)c1ccccc1
REMARK SMILES IDX 23 1 22 2 20 3 21 4 19 6 18 7 1 8 2 9 3 11 4 12 5 13 16 14
REMARK SMILES IDX 6 15 15 16 17 17 14 18 7 19 8 20 13 21 9 22 12 23 10 24
REMARK SMILES IDX 11 25 78 26 79 27 83 28 80 29 82 30 81 31 24 32 25 33 26 34
REMARK SMILES IDX 27 35 28 36 29 38 30 39 31 40 77 41 32 42 76 43 33 44 34 45
REMARK SMILES IDX 35 46 70 47 36 48 75 49 69 50 71 51 37 52 74 53 68 54 67 55
REMARK SMILES IDX 38 57 60 58 45 59 59 60 46 61 49 62 58 63 72 64 47 65 48 66
REMARK SMILES IDX 57 68 73 69 50 70 39 71 40 72 44 73 41 74 43 75 42 76 61 77
REMARK SMILES IDX 62 78 66 79 63 80 65 81 64 82 51 83 52 84 56 85 53 86 55 87
REMARK SMILES IDX 54 88
REMARK H PARENT 22 5 18 10 27 37 71 56 49 67
REMARK Flexibility Score: inf
ROOT
ATOM      1  C   UNL A   1      31.956  29.809  24.973  1.00  0.00     0.116 C 
ENDROOT
BRANCH   1   2
ATOM      2  N   UNL A   1      32.842  29.307  23.944  1.00  0.00    -0.354 N 
ATOM      3  C   UNL A   1      32.543  28.575  22.814  1.00  0.00     0.247 C 
ATOM      4  O   UNL A   1      33.520  28.273  22.120  1.00  0.00    -0.272 OA
ATOM      5  H   UNL A   1      33.795  29.521  24.068  1.00  0.00     0.163 HD
BRANCH   3   6
ATOM      6  C   UNL A   1      31.101  27.989  22.618  1.00  0.00     0.202 C 
BRANCH   6   7
ATOM      7  N   UNL A   1      30.866  26.821  23.469  1.00  0.00    -0.339 N 
ATOM      8  O   UNL A   1      31.686  25.239  22.015  1.00  0.00    -0.273 OA
ATOM      9  C   UNL A   1      31.150  25.525  23.079  1.00  0.00     0.242 C 
ATOM     10  H   UNL A   1      30.486  26.964  24.366  1.00  0.00     0.164 HD
BRANCH   9  11
ATOM     11  C   UNL A   1      30.673  24.475  24.086  1.00  0.00     0.248 C 
BRANCH  11  12
ATOM     12  N   UNL A   1      31.806  23.889  24.774  1.00  0.00    -0.220 N 
ATOM     13  N   UNL A   1      32.210  22.653  24.323  1.00  0.00    -0.169 NA
ATOM     14  C   UNL A   1      32.357  24.541  25.866  1.00  0.00     0.267 A 
ATOM     15  C   UNL A   1      33.103  22.028  25.023  1.00  0.00     0.091 A 
ATOM     16  C   UNL A   1      33.419  23.806  26.586  1.00  0.00     0.075 A 
ATOM     17  O   UNL A   1      32.038  25.660  26.257  1.00  0.00    -0.268 OA
ATOM     18  C   UNL A   1      33.785  22.581  26.209  1.00  0.00     0.036 A 
BRANCH  15  19
ATOM     19  C   UNL A   1      33.441  20.642  24.637  1.00  0.00     0.002 A 
ATOM     20  C   UNL A   1      32.426  19.796  24.180  1.00  0.00     0.011 A 
ATOM     21  C   UNL A   1      34.724  20.142  24.887  1.00  0.00     0.011 A 
ATOM     22  C   UNL A   1      32.695  18.443  23.965  1.00  0.00     0.016 A 
ATOM     23  C   UNL A   1      34.988  18.787  24.681  1.00  0.00     0.016 A 
ATOM     24  C   UNL A   1      33.972  17.944  24.227  1.00  0.00     0.018 A 
ATOM     25  Br  UNL A   1      34.320  16.101  23.998  1.00  0.00    -0.051 Br
ENDBRANCH  15  19
ENDBRANCH  11  12
ENDBRANCH   9  11
ENDBRANCH   6   7
BRANCH   6  26
ATOM     26  C   UNL A   1      29.917  28.961  22.551  1.00  0.00    -0.016 A 
ATOM     27  C   UNL A   1      28.678  28.635  23.140  1.00  0.00     0.006 A 
ATOM     28  C   UNL A   1      29.956  30.131  21.771  1.00  0.00     0.006 A 
ATOM     29  C   UNL A   1      27.553  29.454  22.988  1.00  0.00     0.000 A 
ATOM     30  C   UNL A   1      28.835  30.958  21.628  1.00  0.00     0.000 A 
ATOM     31  C   UNL A   1      27.633  30.619  22.236  1.00  0.00     0.000 A 
ENDBRANCH   6  26
ENDBRANCH   3   6
ENDBRANCH   1   2
BRANCH   1  32
ATOM     32  C   UNL A   1      31.769  28.859  26.151  1.00  0.00     0.023 C 
BRANCH  32  33
ATOM     33  C   UNL A   1      32.551  29.212  27.416  1.00  0.00     0.023 C 
BRANCH  33  34
ATOM     34  C   UNL A   1      33.806  30.056  27.215  1.00  0.00     0.116 C 
BRANCH  34  35
ATOM     35  N   UNL A   1      33.983  31.088  28.229  1.00  0.00    -0.352 N 
ATOM     36  C   UNL A   1      35.039  31.299  29.090  1.00  0.00     0.251 C 
ATOM     37  H   UNL A   1      33.240  31.728  28.312  1.00  0.00     0.163 HD
ATOM     38  O   UNL A   1      34.966  32.168  29.954  1.00  0.00    -0.269 OA
BRANCH  36  39
ATOM     39  C   UNL A   1      36.236  30.431  29.014  1.00  0.00     0.039 A 
ATOM     40  C   UNL A   1      36.711  29.769  30.145  1.00  0.00     0.014 A 
ATOM     41  C   UNL A   1      36.933  30.338  27.805  1.00  0.00     0.014 A 
ATOM     42  C   UNL A   1      37.988  29.217  30.129  1.00  0.00     0.010 A 
ATOM     43  C   UNL A   1      38.175  29.695  27.766  1.00  0.00     0.010 A 
ATOM     44  C   UNL A   1      38.750  29.198  28.947  1.00  0.00    -0.014 A 
BRANCH  44  45
ATOM     45  C   UNL A   1      40.154  28.709  28.995  1.00  0.00     0.031 A 
ATOM     46  C   UNL A   1      40.493  27.295  28.589  1.00  0.00     0.074 A 
ATOM     47  C   UNL A   1      41.145  29.565  29.312  1.00  0.00     0.049 A 
ATOM     48  N   UNL A   1      41.672  26.730  28.484  1.00  0.00    -0.248 NA
ATOM     49  C   UNL A   1      39.374  26.398  28.260  1.00  0.00     0.031 C 
ATOM     50  C   UNL A   1      40.955  30.963  29.704  1.00  0.00     0.029 A 
ATOM     51  N   UNL A   1      42.508  29.401  29.310  1.00  0.00    -0.354 N 
ATOM     52  C   UNL A   1      41.433  25.416  28.098  1.00  0.00     0.074 A 
ATOM     53  C   UNL A   1      39.999  25.255  28.016  1.00  0.00     0.031 C 
ATOM     54  C   UNL A   1      42.154  31.549  29.829  1.00  0.00     0.029 A 
ATOM     55  C   UNL A   1      43.198  30.557  29.587  1.00  0.00     0.049 A 
ATOM     56  H   UNL A   1      42.949  28.540  29.129  1.00  0.00     0.167 HD
ATOM     57  C   UNL A   1      42.325  24.435  27.822  1.00  0.00     0.031 A 
ATOM     58  C   UNL A   1      44.521  30.803  29.637  1.00  0.00     0.031 A 
ATOM     59  C   UNL A   1      43.754  24.595  27.880  1.00  0.00     0.049 A 
ATOM     60  C   UNL A   1      45.491  29.694  29.346  1.00  0.00     0.074 A 
ATOM     61  C   UNL A   1      44.734  23.656  27.608  1.00  0.00     0.029 A 
ATOM     62  N   UNL A   1      44.406  25.767  28.223  1.00  0.00    -0.354 N 
ATOM     63  N   UNL A   1      45.243  28.459  28.984  1.00  0.00    -0.248 NA
ATOM     64  C   UNL A   1      46.921  30.010  29.470  1.00  0.00     0.031 C 
ATOM     65  C   UNL A   1      45.980  24.247  27.832  1.00  0.00     0.029 A 
ATOM     66  C   UNL A   1      45.776  25.571  28.185  1.00  0.00     0.049 A 
ATOM     67  H   UNL A   1      43.963  26.615  28.459  1.00  0.00     0.167 HD
ATOM     68  C   UNL A   1      46.484  27.857  28.820  1.00  0.00     0.074 A 
ATOM     69  C   UNL A   1      47.483  28.865  29.106  1.00  0.00     0.031 C 
ATOM     70  C   UNL A   1      46.763  26.579  28.467  1.00  0.00     0.031 A 
BRANCH  57  71
ATOM     71  C   UNL A   1      41.792  23.083  27.436  1.00  0.00    -0.014 A 
ATOM     72  C   UNL A   1      41.552  22.119  28.428  1.00  0.00     0.009 A 
ATOM     73  C   UNL A   1      41.617  22.729  26.089  1.00  0.00     0.009 A 
ATOM     74  C   UNL A   1      41.157  20.826  28.081  1.00  0.00     0.001 A 
ATOM     75  C   UNL A   1      41.195  21.442  25.746  1.00  0.00     0.001 A 
ATOM     76  C   UNL A   1      40.975  20.490  26.741  1.00  0.00     0.000 A 
ENDBRANCH  57  71
BRANCH  58  77
ATOM     77  C   UNL A   1      44.994  32.175  29.955  1.00  0.00    -0.014 A 
ATOM     78  C   UNL A   1      45.203  32.566  31.288  1.00  0.00     0.009 A 
ATOM     79  C   UNL A   1      45.188  33.116  28.934  1.00  0.00     0.009 A 
ATOM     80  C   UNL A   1      45.569  33.878  31.593  1.00  0.00     0.001 A 
ATOM     81  C   UNL A   1      45.583  34.421  29.240  1.00  0.00     0.001 A 
ATOM     82  C   UNL A   1      45.762  34.803  30.569  1.00  0.00     0.000 A 
ENDBRANCH  58  77
BRANCH  70  83
ATOM     83  C   UNL A   1      48.207  26.183  28.343  1.00  0.00    -0.014 A 
ATOM     84  C   UNL A   1      48.780  26.032  27.071  1.00  0.00     0.009 A 
ATOM     85  C   UNL A   1      48.967  25.858  29.477  1.00  0.00     0.009 A 
ATOM     86  C   UNL A   1      50.082  25.550  26.933  1.00  0.00     0.001 A 
ATOM     87  C   UNL A   1      50.279  25.400  29.337  1.00  0.00     0.001 A 
ATOM     88  C   UNL A   1      50.832  25.238  28.066  1.00  0.00     0.000 A 
ENDBRANCH  70  83
ENDBRANCH  44  45
ENDBRANCH  36  39
ENDBRANCH  34  35
ENDBRANCH  33  34
ENDBRANCH  32  33
ENDBRANCH   1  32
TORSDOF 16
ENDMDL
