MODEL 1
REMARK VINA RESULT:     -11.3      0.000      0.000
REMARK SMILES C[C@H](NC(=O)c1c(C(=O)NCCCCNC(=O)c2ccc(-c3c4nc(c(-c5ccccc5)c5ccc([nH]5)c(-c5ccccc5)c5nc(c(-c6ccccc6)c6ccc3[nH]6)C=C5)C=C4)cc2)cnn1C)[C@]12C[C@H]3C[C@H](C[C@H](C3)C1)C2
REMARK SMILES IDX 12 1 11 2 10 3 8 4 9 5 7 7 6 8 68 9 66 10 67 11 69 12 4 13
REMARK SMILES IDX 3 14 5 16 2 17 1 18 70 19 71 20 78 21 79 22 72 23 76 24
REMARK SMILES IDX 74 25 73 26 77 27 75 28 13 29 14 30 15 31 16 32 17 34 18 35
REMARK SMILES IDX 19 36 65 37 20 38 64 39 21 40 22 41 23 42 58 43 24 44 63 45
REMARK SMILES IDX 57 46 59 47 25 48 62 49 56 50 55 51 26 53 48 54 33 55 47 56
REMARK SMILES IDX 34 57 37 58 46 59 60 60 35 61 36 62 45 64 61 65 38 66 27 67
REMARK SMILES IDX 28 68 32 69 29 70 31 71 30 72 49 73 50 74 54 75 51 76 53 77
REMARK SMILES IDX 52 78 39 79 40 80 44 81 41 82 43 83 42 84
REMARK H PARENT 10 6 3 15 15 33 59 52 37 63
REMARK Flexibility Score: inf
ROOT
ATOM      1  C   UNL A   1      38.036  22.692  25.785  1.00  0.00     0.023 C 
ENDROOT
BRANCH   1   2
ATOM      2  C   UNL A   1      36.607  23.199  25.620  1.00  0.00     0.116 C 
BRANCH   2   3
ATOM      3  N   UNL A   1      35.743  22.970  26.749  1.00  0.00    -0.352 N 
ATOM      4  C   UNL A   1      34.645  22.162  26.903  1.00  0.00     0.255 C 
ATOM      5  O   UNL A   1      34.104  22.209  28.011  1.00  0.00    -0.269 OA
ATOM      6  H   UNL A   1      35.982  23.485  27.553  1.00  0.00     0.163 HD
BRANCH   4   7
ATOM      7  C   UNL A   1      34.066  21.337  25.848  1.00  0.00     0.090 A 
ATOM      8  C   UNL A   1      32.850  21.337  25.161  1.00  0.00     0.138 A 
ATOM      9  N   UNL A   1      32.981  20.386  24.175  1.00  0.00    -0.262 N 
ATOM     10  C   UNL A   1      34.791  20.282  25.228  1.00  0.00     0.149 A 
ATOM     11  N   UNL A   1      34.115  19.673  24.256  1.00  0.00    -0.180 NA
ATOM     12  C   UNL A   1      32.090  20.116  23.069  1.00  0.00     0.174 C 
BRANCH   8  13
ATOM     13  C   UNL A   1      31.720  22.202  25.282  1.00  0.00     0.270 C 
ATOM     14  N   UNL A   1      31.799  23.487  24.803  1.00  0.00    -0.348 N 
ATOM     15  H   UNL A   1      30.932  23.954  24.788  1.00  0.00     0.164 HD
ATOM     16  O   UNL A   1      30.644  21.827  25.740  1.00  0.00    -0.267 OA
BRANCH  14  17
ATOM     17  C   UNL A   1      32.920  24.310  24.305  1.00  0.00     0.085 C 
ATOM     18  C   UNL A   1      33.095  24.215  22.780  1.00  0.00     0.031 C 
BRANCH  17  19
ATOM     19  C   UNL A   1      32.788  25.805  24.797  1.00  0.00    -0.009 C 
ATOM     20  C   UNL A   1      32.798  26.784  23.583  1.00  0.00     0.012 C 
ATOM     21  C   UNL A   1      33.986  26.213  25.710  1.00  0.00     0.012 C 
ATOM     22  C   UNL A   1      31.472  26.043  25.593  1.00  0.00     0.012 C 
ATOM     23  C   UNL A   1      32.680  28.249  24.040  1.00  0.00    -0.010 C 
ATOM     24  C   UNL A   1      33.866  27.674  26.176  1.00  0.00    -0.010 C 
ATOM     25  C   UNL A   1      31.358  27.508  26.051  1.00  0.00    -0.010 C 
ATOM     26  C   UNL A   1      31.367  28.428  24.819  1.00  0.00     0.007 C 
ATOM     27  C   UNL A   1      33.865  28.597  24.950  1.00  0.00     0.007 C 
ATOM     28  C   UNL A   1      32.551  27.854  26.953  1.00  0.00     0.007 C 
ENDBRANCH  17  19
ENDBRANCH  14  17
ENDBRANCH   8  13
ENDBRANCH   4   7
ENDBRANCH   2   3
ENDBRANCH   1   2
BRANCH   1  29
ATOM     29  C   UNL A   1      38.389  21.386  25.078  1.00  0.00     0.023 C 
BRANCH  29  30
ATOM     30  C   UNL A   1      38.481  20.134  25.946  1.00  0.00     0.116 C 
BRANCH  30  31
ATOM     31  N   UNL A   1      39.697  19.366  25.742  1.00  0.00    -0.352 N 
ATOM     32  C   UNL A   1      41.018  19.668  25.960  1.00  0.00     0.251 C 
ATOM     33  H   UNL A   1      39.547  18.463  25.380  1.00  0.00     0.163 HD
ATOM     34  O   UNL A   1      41.877  18.861  25.613  1.00  0.00    -0.269 OA
BRANCH  32  35
ATOM     35  C   UNL A   1      41.439  20.955  26.564  1.00  0.00     0.039 A 
ATOM     36  C   UNL A   1      41.996  21.925  25.721  1.00  0.00     0.014 A 
ATOM     37  C   UNL A   1      41.344  21.211  27.933  1.00  0.00     0.014 A 
ATOM     38  C   UNL A   1      42.375  23.169  26.231  1.00  0.00     0.010 A 
ATOM     39  C   UNL A   1      41.655  22.478  28.432  1.00  0.00     0.010 A 
ATOM     40  C   UNL A   1      42.166  23.472  27.586  1.00  0.00    -0.014 A 
BRANCH  40  41
ATOM     41  C   UNL A   1      42.461  24.825  28.123  1.00  0.00     0.031 A 
ATOM     42  C   UNL A   1      43.852  25.186  28.565  1.00  0.00     0.074 A 
ATOM     43  C   UNL A   1      41.462  25.714  28.277  1.00  0.00     0.049 A 
ATOM     44  N   UNL A   1      44.269  26.275  29.161  1.00  0.00    -0.248 NA
ATOM     45  C   UNL A   1      44.904  24.184  28.336  1.00  0.00     0.031 C 
ATOM     46  C   UNL A   1      40.056  25.483  27.938  1.00  0.00     0.029 A 
ATOM     47  N   UNL A   1      41.479  26.995  28.768  1.00  0.00    -0.354 N 
ATOM     48  C   UNL A   1      45.615  26.066  29.430  1.00  0.00     0.074 A 
ATOM     49  C   UNL A   1      45.947  24.750  28.924  1.00  0.00     0.031 C 
ATOM     50  C   UNL A   1      39.351  26.594  28.206  1.00  0.00     0.029 A 
ATOM     51  C   UNL A   1      40.248  27.604  28.756  1.00  0.00     0.049 A 
ATOM     52  H   UNL A   1      42.295  27.435  29.098  1.00  0.00     0.167 HD
ATOM     53  C   UNL A   1      46.495  26.890  30.047  1.00  0.00     0.031 A 
ATOM     54  C   UNL A   1      39.881  28.839  29.142  1.00  0.00     0.031 A 
ATOM     55  C   UNL A   1      46.193  28.218  30.504  1.00  0.00     0.049 A 
ATOM     56  C   UNL A   1      40.906  29.783  29.695  1.00  0.00     0.074 A 
ATOM     57  C   UNL A   1      47.031  29.133  31.120  1.00  0.00     0.029 A 
ATOM     58  N   UNL A   1      44.960  28.833  30.370  1.00  0.00    -0.354 N 
ATOM     59  N   UNL A   1      42.173  29.567  29.943  1.00  0.00    -0.248 NA
ATOM     60  C   UNL A   1      40.449  31.145  30.009  1.00  0.00     0.031 C 
ATOM     61  C   UNL A   1      46.304  30.308  31.350  1.00  0.00     0.029 A 
ATOM     62  C   UNL A   1      45.019  30.122  30.868  1.00  0.00     0.049 A 
ATOM     63  H   UNL A   1      44.160  28.414  29.976  1.00  0.00     0.167 HD
ATOM     64  C   UNL A   1      42.669  30.765  30.433  1.00  0.00     0.074 A 
ATOM     65  C   UNL A   1      41.571  31.710  30.438  1.00  0.00     0.031 C 
ATOM     66  C   UNL A   1      43.925  31.054  30.848  1.00  0.00     0.031 A 
BRANCH  53  67
ATOM     67  C   UNL A   1      47.876  26.356  30.276  1.00  0.00    -0.014 A 
ATOM     68  C   UNL A   1      48.846  26.399  29.264  1.00  0.00     0.009 A 
ATOM     69  C   UNL A   1      48.211  25.809  31.525  1.00  0.00     0.009 A 
ATOM     70  C   UNL A   1      50.121  25.878  29.490  1.00  0.00     0.001 A 
ATOM     71  C   UNL A   1      49.491  25.303  31.752  1.00  0.00     0.001 A 
ATOM     72  C   UNL A   1      50.442  25.332  30.733  1.00  0.00     0.000 A 
ENDBRANCH  53  67
BRANCH  54  73
ATOM     73  C   UNL A   1      38.473  29.267  28.983  1.00  0.00    -0.014 A 
ATOM     74  C   UNL A   1      37.594  29.211  30.076  1.00  0.00     0.009 A 
ATOM     75  C   UNL A   1      38.006  29.742  27.750  1.00  0.00     0.009 A 
ATOM     76  C   UNL A   1      36.265  29.612  29.931  1.00  0.00     0.001 A 
ATOM     77  C   UNL A   1      36.679  30.152  27.611  1.00  0.00     0.001 A 
ATOM     78  C   UNL A   1      35.809  30.082  28.700  1.00  0.00     0.000 A 
ENDBRANCH  54  73
BRANCH  66  79
ATOM     79  C   UNL A   1      44.181  32.454  31.309  1.00  0.00    -0.014 A 
ATOM     80  C   UNL A   1      44.600  33.442  30.405  1.00  0.00     0.009 A 
ATOM     81  C   UNL A   1      43.980  32.793  32.655  1.00  0.00     0.009 A 
ATOM     82  C   UNL A   1      44.833  34.745  30.849  1.00  0.00     0.001 A 
ATOM     83  C   UNL A   1      44.207  34.098  33.092  1.00  0.00     0.001 A 
ATOM     84  C   UNL A   1      44.636  35.071  32.190  1.00  0.00     0.000 A 
ENDBRANCH  66  79
ENDBRANCH  40  41
ENDBRANCH  32  35
ENDBRANCH  30  31
ENDBRANCH  29  30
ENDBRANCH   1  29
TORSDOF 14
ENDMDL
MODEL 2
REMARK VINA RESULT:     -11.2      0.495      5.796
REMARK SMILES C[C@H](NC(=O)c1c(C(=O)NCCCCNC(=O)c2ccc(-c3c4nc(c(-c5ccccc5)c5ccc([nH]5)c(-c5ccccc5)c5nc(c(-c6ccccc6)c6ccc3[nH]6)C=C5)C=C4)cc2)cnn1C)[C@]12C[C@H]3C[C@H](C[C@H](C3)C1)C2
REMARK SMILES IDX 12 1 11 2 10 3 8 4 9 5 7 7 6 8 68 9 66 10 67 11 69 12 4 13
REMARK SMILES IDX 3 14 5 16 2 17 1 18 70 19 71 20 78 21 79 22 72 23 76 24
REMARK SMILES IDX 74 25 73 26 77 27 75 28 13 29 14 30 15 31 16 32 17 34 18 35
REMARK SMILES IDX 19 36 65 37 20 38 64 39 21 40 22 41 23 42 58 43 24 44 63 45
REMARK SMILES IDX 57 46 59 47 25 48 62 49 56 50 55 51 26 53 48 54 33 55 47 56
REMARK SMILES IDX 34 57 37 58 46 59 60 60 35 61 36 62 45 64 61 65 38 66 27 67
REMARK SMILES IDX 28 68 32 69 29 70 31 71 30 72 49 73 50 74 54 75 51 76 53 77
REMARK SMILES IDX 52 78 39 79 40 80 44 81 41 82 43 83 42 84
REMARK H PARENT 10 6 3 15 15 33 59 52 37 63
REMARK Flexibility Score: inf
ROOT
ATOM      1  C   UNL A   1      38.014  22.851  25.756  1.00  0.00     0.023 C 
ENDROOT
BRANCH   1   2
ATOM      2  C   UNL A   1      36.602  23.397  25.579  1.00  0.00     0.116 C 
BRANCH   2   3
ATOM      3  N   UNL A   1      35.732  23.226  26.713  1.00  0.00    -0.352 N 
ATOM      4  C   UNL A   1      34.642  22.416  26.908  1.00  0.00     0.255 C 
ATOM      5  O   UNL A   1      34.093  22.522  28.008  1.00  0.00    -0.269 OA
ATOM      6  H   UNL A   1      35.959  23.790  27.487  1.00  0.00     0.163 HD
BRANCH   4   7
ATOM      7  C   UNL A   1      34.080  21.522  25.900  1.00  0.00     0.090 A 
ATOM      8  C   UNL A   1      32.867  21.464  25.211  1.00  0.00     0.138 A 
ATOM      9  N   UNL A   1      33.016  20.461  24.282  1.00  0.00    -0.262 N 
ATOM     10  C   UNL A   1      34.824  20.446  25.344  1.00  0.00     0.149 A 
ATOM     11  N   UNL A   1      34.161  19.771  24.407  1.00  0.00    -0.180 NA
ATOM     12  C   UNL A   1      32.133  20.114  23.191  1.00  0.00     0.174 C 
BRANCH   8  13
ATOM     13  C   UNL A   1      31.722  22.317  25.280  1.00  0.00     0.270 C 
ATOM     14  N   UNL A   1      31.772  23.561  24.701  1.00  0.00    -0.348 N 
ATOM     15  H   UNL A   1      30.897  24.011  24.661  1.00  0.00     0.164 HD
ATOM     16  O   UNL A   1      30.659  21.960  25.780  1.00  0.00    -0.267 OA
BRANCH  14  17
ATOM     17  C   UNL A   1      32.873  24.362  24.126  1.00  0.00     0.085 C 
ATOM     18  C   UNL A   1      32.956  24.242  22.594  1.00  0.00     0.031 C 
BRANCH  17  19
ATOM     19  C   UNL A   1      32.787  25.866  24.600  1.00  0.00    -0.009 C 
ATOM     20  C   UNL A   1      31.314  26.373  24.553  1.00  0.00     0.012 C 
ATOM     21  C   UNL A   1      33.614  26.805  23.666  1.00  0.00     0.012 C 
ATOM     22  C   UNL A   1      33.311  26.050  26.053  1.00  0.00     0.012 C 
ATOM     23  C   UNL A   1      31.209  27.841  25.002  1.00  0.00    -0.010 C 
ATOM     24  C   UNL A   1      33.517  28.273  24.118  1.00  0.00    -0.010 C 
ATOM     25  C   UNL A   1      33.207  27.519  26.499  1.00  0.00    -0.010 C 
ATOM     26  C   UNL A   1      31.737  27.965  26.440  1.00  0.00     0.007 C 
ATOM     27  C   UNL A   1      32.051  28.721  24.070  1.00  0.00     0.007 C 
ATOM     28  C   UNL A   1      34.044  28.396  25.558  1.00  0.00     0.007 C 
ENDBRANCH  17  19
ENDBRANCH  14  17
ENDBRANCH   8  13
ENDBRANCH   4   7
ENDBRANCH   2   3
ENDBRANCH   1   2
BRANCH   1  29
ATOM     29  C   UNL A   1      38.324  21.512  25.090  1.00  0.00     0.023 C 
BRANCH  29  30
ATOM     30  C   UNL A   1      38.439  20.296  26.005  1.00  0.00     0.116 C 
BRANCH  30  31
ATOM     31  N   UNL A   1      39.610  19.477  25.746  1.00  0.00    -0.352 N 
ATOM     32  C   UNL A   1      40.949  19.706  25.944  1.00  0.00     0.251 C 
ATOM     33  H   UNL A   1      39.407  18.595  25.359  1.00  0.00     0.163 HD
ATOM     34  O   UNL A   1      41.759  18.869  25.550  1.00  0.00    -0.269 OA
BRANCH  32  35
ATOM     35  C   UNL A   1      41.447  20.949  26.579  1.00  0.00     0.039 A 
ATOM     36  C   UNL A   1      41.940  21.961  25.746  1.00  0.00     0.014 A 
ATOM     37  C   UNL A   1      41.484  21.124  27.963  1.00  0.00     0.014 A 
ATOM     38  C   UNL A   1      42.387  23.167  26.290  1.00  0.00     0.010 A 
ATOM     39  C   UNL A   1      41.863  22.355  28.505  1.00  0.00     0.010 A 
ATOM     40  C   UNL A   1      42.310  23.392  27.673  1.00  0.00    -0.014 A 
BRANCH  40  41
ATOM     41  C   UNL A   1      42.678  24.706  28.258  1.00  0.00     0.031 A 
ATOM     42  C   UNL A   1      41.630  25.752  28.512  1.00  0.00     0.074 A 
ATOM     43  C   UNL A   1      43.973  24.988  28.500  1.00  0.00     0.049 A 
ATOM     44  N   UNL A   1      41.782  26.991  28.910  1.00  0.00    -0.248 NA
ATOM     45  C   UNL A   1      40.232  25.368  28.261  1.00  0.00     0.031 C 
ATOM     46  C   UNL A   1      45.101  24.088  28.255  1.00  0.00     0.029 A 
ATOM     47  N   UNL A   1      44.556  26.123  29.005  1.00  0.00    -0.354 N 
ATOM     48  C   UNL A   1      40.511  27.550  28.899  1.00  0.00     0.074 A 
ATOM     49  C   UNL A   1      39.598  26.514  28.465  1.00  0.00     0.031 C 
ATOM     50  C   UNL A   1      46.238  24.695  28.635  1.00  0.00     0.029 A 
ATOM     51  C   UNL A   1      45.921  26.031  29.125  1.00  0.00     0.049 A 
ATOM     52  H   UNL A   1      44.046  26.926  29.256  1.00  0.00     0.167 HD
ATOM     53  C   UNL A   1      40.137  28.812  29.216  1.00  0.00     0.031 A 
ATOM     54  C   UNL A   1      46.819  26.922  29.583  1.00  0.00     0.031 A 
ATOM     55  C   UNL A   1      41.024  29.834  29.700  1.00  0.00     0.049 A 
ATOM     56  C   UNL A   1      46.360  28.266  30.059  1.00  0.00     0.074 A 
ATOM     57  C   UNL A   1      40.726  31.136  30.067  1.00  0.00     0.029 A 
ATOM     58  N   UNL A   1      42.380  29.660  29.911  1.00  0.00    -0.354 N 
ATOM     59  N   UNL A   1      45.154  28.777  30.039  1.00  0.00    -0.248 NA
ATOM     60  C   UNL A   1      47.386  29.152  30.630  1.00  0.00     0.031 C 
ATOM     61  C   UNL A   1      41.906  31.747  30.510  1.00  0.00     0.029 A 
ATOM     62  C   UNL A   1      42.931  30.820  30.425  1.00  0.00     0.049 A 
ATOM     63  H   UNL A   1      42.879  28.831  29.723  1.00  0.00     0.167 HD
ATOM     64  C   UNL A   1      45.273  30.039  30.603  1.00  0.00     0.074 A 
ATOM     65  C   UNL A   1      46.664  30.214  30.966  1.00  0.00     0.031 C 
ATOM     66  C   UNL A   1      44.310  30.971  30.797  1.00  0.00     0.031 A 
BRANCH  53  67
ATOM     67  C   UNL A   1      38.691  29.157  29.026  1.00  0.00    -0.014 A 
ATOM     68  C   UNL A   1      37.776  29.044  30.083  1.00  0.00     0.009 A 
ATOM     69  C   UNL A   1      38.243  29.609  27.775  1.00  0.00     0.009 A 
ATOM     70  C   UNL A   1      36.429  29.351  29.881  1.00  0.00     0.001 A 
ATOM     71  C   UNL A   1      36.899  29.929  27.581  1.00  0.00     0.001 A 
ATOM     72  C   UNL A   1      35.993  29.793  28.632  1.00  0.00     0.000 A 
ENDBRANCH  53  67
BRANCH  54  73
ATOM     73  C   UNL A   1      48.251  26.551  29.646  1.00  0.00    -0.014 A 
ATOM     74  C   UNL A   1      49.105  26.861  28.577  1.00  0.00     0.009 A 
ATOM     75  C   UNL A   1      48.770  25.899  30.773  1.00  0.00     0.009 A 
ATOM     76  C   UNL A   1      50.455  26.512  28.629  1.00  0.00     0.001 A 
ATOM     77  C   UNL A   1      50.124  25.561  30.827  1.00  0.00     0.001 A 
ATOM     78  C   UNL A   1      50.963  25.864  29.754  1.00  0.00     0.000 A 
ENDBRANCH  54  73
BRANCH  66  79
ATOM     79  C   UNL A   1      44.728  32.247  31.459  1.00  0.00    -0.014 A 
ATOM     80  C   UNL A   1      45.171  33.339  30.697  1.00  0.00     0.009 A 
ATOM     81  C   UNL A   1      44.658  32.365  32.854  1.00  0.00     0.009 A 
ATOM     82  C   UNL A   1      45.555  34.524  31.327  1.00  0.00     0.001 A 
ATOM     83  C   UNL A   1      45.036  33.553  33.480  1.00  0.00     0.001 A 
ATOM     84  C   UNL A   1      45.488  34.629  32.716  1.00  0.00     0.000 A 
ENDBRANCH  66  79
ENDBRANCH  40  41
ENDBRANCH  32  35
ENDBRANCH  30  31
ENDBRANCH  29  30
ENDBRANCH   1  29
TORSDOF 14
ENDMDL
MODEL 3
REMARK VINA RESULT:     -11.2      3.341      8.474
REMARK SMILES C[C@H](NC(=O)c1c(C(=O)NCCCCNC(=O)c2ccc(-c3c4nc(c(-c5ccccc5)c5ccc([nH]5)c(-c5ccccc5)c5nc(c(-c6ccccc6)c6ccc3[nH]6)C=C5)C=C4)cc2)cnn1C)[C@]12C[C@H]3C[C@H](C[C@H](C3)C1)C2
REMARK SMILES IDX 12 1 11 2 10 3 8 4 9 5 7 7 6 8 68 9 66 10 67 11 69 12 4 13
REMARK SMILES IDX 3 14 5 16 2 17 1 18 70 19 71 20 78 21 79 22 72 23 76 24
REMARK SMILES IDX 74 25 73 26 77 27 75 28 13 29 14 30 15 31 16 32 17 34 18 35
REMARK SMILES IDX 19 36 65 37 20 38 64 39 21 40 22 41 23 42 58 43 24 44 63 45
REMARK SMILES IDX 57 46 59 47 25 48 62 49 56 50 55 51 26 53 48 54 33 55 47 56
REMARK SMILES IDX 34 57 37 58 46 59 60 60 35 61 36 62 45 64 61 65 38 66 27 67
REMARK SMILES IDX 28 68 32 69 29 70 31 71 30 72 49 73 50 74 54 75 51 76 53 77
REMARK SMILES IDX 52 78 39 79 40 80 44 81 41 82 43 83 42 84
REMARK H PARENT 10 6 3 15 15 33 59 52 37 63
REMARK Flexibility Score: inf
ROOT
ATOM      1  C   UNL A   1      34.047  30.151  27.138  1.00  0.00     0.023 C 
ENDROOT
BRANCH   1   2
ATOM      2  C   UNL A   1      33.790  28.885  26.328  1.00  0.00     0.116 C 
BRANCH   2   3
ATOM      3  N   UNL A   1      34.223  28.937  24.956  1.00  0.00    -0.352 N 
ATOM      4  C   UNL A   1      33.519  28.909  23.779  1.00  0.00     0.255 C 
ATOM      5  O   UNL A   1      34.201  28.951  22.752  1.00  0.00    -0.269 OA
ATOM      6  H   UNL A   1      35.199  29.005  24.841  1.00  0.00     0.163 HD
BRANCH   4   7
ATOM      7  C   UNL A   1      32.070  28.766  23.681  1.00  0.00     0.090 A 
ATOM      8  C   UNL A   1      31.215  27.803  23.141  1.00  0.00     0.138 A 
ATOM      9  N   UNL A   1      29.945  28.185  23.508  1.00  0.00    -0.262 N 
ATOM     10  C   UNL A   1      31.176  29.705  24.264  1.00  0.00     0.149 A 
ATOM     11  N   UNL A   1      29.893  29.383  24.111  1.00  0.00    -0.180 NA
ATOM     12  C   UNL A   1      28.713  27.443  23.371  1.00  0.00     0.174 C 
BRANCH   8  13
ATOM     13  C   UNL A   1      31.510  26.575  22.472  1.00  0.00     0.270 C 
ATOM     14  N   UNL A   1      31.832  25.464  23.213  1.00  0.00    -0.348 N 
ATOM     15  H   UNL A   1      31.865  24.635  22.682  1.00  0.00     0.164 HD
ATOM     16  O   UNL A   1      31.424  26.446  21.254  1.00  0.00    -0.267 OA
BRANCH  14  17
ATOM     17  C   UNL A   1      32.138  25.260  24.643  1.00  0.00     0.085 C 
ATOM     18  C   UNL A   1      30.907  24.827  25.458  1.00  0.00     0.031 C 
BRANCH  17  19
ATOM     19  C   UNL A   1      33.352  24.266  24.828  1.00  0.00    -0.009 C 
ATOM     20  C   UNL A   1      34.608  25.026  25.351  1.00  0.00     0.012 C 
ATOM     21  C   UNL A   1      33.759  23.608  23.472  1.00  0.00     0.012 C 
ATOM     22  C   UNL A   1      33.026  23.128  25.837  1.00  0.00     0.012 C 
ATOM     23  C   UNL A   1      35.807  24.079  25.528  1.00  0.00    -0.010 C 
ATOM     24  C   UNL A   1      34.952  22.652  23.648  1.00  0.00    -0.010 C 
ATOM     25  C   UNL A   1      34.225  22.180  26.011  1.00  0.00    -0.010 C 
ATOM     26  C   UNL A   1      35.432  22.977  26.532  1.00  0.00     0.007 C 
ATOM     27  C   UNL A   1      36.158  23.441  24.178  1.00  0.00     0.007 C 
ATOM     28  C   UNL A   1      34.578  21.552  24.655  1.00  0.00     0.007 C 
ENDBRANCH  17  19
ENDBRANCH  14  17
ENDBRANCH   8  13
ENDBRANCH   4   7
ENDBRANCH   2   3
ENDBRANCH   1   2
BRANCH   1  29
ATOM     29  C   UNL A   1      32.832  31.012  27.474  1.00  0.00     0.023 C 
BRANCH  29  30
ATOM     30  C   UNL A   1      32.599  32.247  26.608  1.00  0.00     0.116 C 
BRANCH  30  31
ATOM     31  N   UNL A   1      32.337  33.456  27.370  1.00  0.00    -0.352 N 
ATOM     32  C   UNL A   1      33.054  34.094  28.351  1.00  0.00     0.251 C 
ATOM     33  H   UNL A   1      31.489  33.901  27.140  1.00  0.00     0.163 HD
ATOM     34  O   UNL A   1      32.559  35.071  28.908  1.00  0.00    -0.269 OA
BRANCH  32  35
ATOM     35  C   UNL A   1      34.388  33.613  28.785  1.00  0.00     0.039 A 
ATOM     36  C   UNL A   1      34.479  32.952  30.016  1.00  0.00     0.014 A 
ATOM     37  C   UNL A   1      35.547  33.837  28.041  1.00  0.00     0.014 A 
ATOM     38  C   UNL A   1      35.704  32.446  30.455  1.00  0.00     0.010 A 
ATOM     39  C   UNL A   1      36.759  33.271  28.444  1.00  0.00     0.010 A 
ATOM     40  C   UNL A   1      36.848  32.562  29.651  1.00  0.00    -0.014 A 
BRANCH  40  41
ATOM     41  C   UNL A   1      38.134  31.937  30.051  1.00  0.00     0.031 A 
ATOM     42  C   UNL A   1      39.067  32.642  30.995  1.00  0.00     0.074 A 
ATOM     43  C   UNL A   1      38.498  30.758  29.512  1.00  0.00     0.049 A 
ATOM     44  N   UNL A   1      40.277  32.301  31.365  1.00  0.00    -0.248 NA
ATOM     45  C   UNL A   1      38.594  33.908  31.575  1.00  0.00     0.031 C 
ATOM     46  C   UNL A   1      37.715  29.985  28.545  1.00  0.00     0.029 A 
ATOM     47  N   UNL A   1      39.630  30.005  29.701  1.00  0.00    -0.354 N 
ATOM     48  C   UNL A   1      40.730  33.336  32.172  1.00  0.00     0.074 A 
ATOM     49  C   UNL A   1      39.663  34.313  32.246  1.00  0.00     0.031 C 
ATOM     50  C   UNL A   1      38.378  28.855  28.247  1.00  0.00     0.029 A 
ATOM     51  C   UNL A   1      39.639  28.837  28.980  1.00  0.00     0.049 A 
ATOM     52  H   UNL A   1      40.366  30.277  30.296  1.00  0.00     0.167 HD
ATOM     53  C   UNL A   1      41.927  33.467  32.791  1.00  0.00     0.031 A 
ATOM     54  C   UNL A   1      40.557  27.856  28.917  1.00  0.00     0.031 A 
ATOM     55  C   UNL A   1      42.973  32.481  32.771  1.00  0.00     0.049 A 
ATOM     56  C   UNL A   1      41.816  27.961  29.723  1.00  0.00     0.074 A 
ATOM     57  C   UNL A   1      44.211  32.521  33.391  1.00  0.00     0.029 A 
ATOM     58  N   UNL A   1      42.892  31.264  32.118  1.00  0.00    -0.354 N 
ATOM     59  N   UNL A   1      42.228  28.948  30.479  1.00  0.00    -0.248 NA
ATOM     60  C   UNL A   1      42.731  26.810  29.675  1.00  0.00     0.031 C 
ATOM     61  C   UNL A   1      44.876  31.318  33.118  1.00  0.00     0.029 A 
ATOM     62  C   UNL A   1      44.045  30.533  32.336  1.00  0.00     0.049 A 
ATOM     63  H   UNL A   1      42.125  30.963  31.577  1.00  0.00     0.167 HD
ATOM     64  C   UNL A   1      43.443  28.535  31.005  1.00  0.00     0.074 A 
ATOM     65  C   UNL A   1      43.699  27.205  30.492  1.00  0.00     0.031 C 
ATOM     66  C   UNL A   1      44.276  29.206  31.836  1.00  0.00     0.031 A 
BRANCH  53  67
ATOM     67  C   UNL A   1      42.169  34.745  33.534  1.00  0.00    -0.014 A 
ATOM     68  C   UNL A   1      41.741  34.903  34.861  1.00  0.00     0.009 A 
ATOM     69  C   UNL A   1      42.841  35.801  32.899  1.00  0.00     0.009 A 
ATOM     70  C   UNL A   1      41.958  36.109  35.529  1.00  0.00     0.001 A 
ATOM     71  C   UNL A   1      43.069  36.999  33.576  1.00  0.00     0.001 A 
ATOM     72  C   UNL A   1      42.621  37.155  34.887  1.00  0.00     0.000 A 
ENDBRANCH  53  67
BRANCH  54  73
ATOM     73  C   UNL A   1      40.299  26.664  28.078  1.00  0.00    -0.014 A 
ATOM     74  C   UNL A   1      40.856  26.575  26.793  1.00  0.00     0.009 A 
ATOM     75  C   UNL A   1      39.509  25.611  28.559  1.00  0.00     0.009 A 
ATOM     76  C   UNL A   1      40.614  25.454  25.997  1.00  0.00     0.001 A 
ATOM     77  C   UNL A   1      39.278  24.487  27.764  1.00  0.00     0.001 A 
ATOM     78  C   UNL A   1      39.827  24.412  26.484  1.00  0.00     0.000 A 
ENDBRANCH  54  73
BRANCH  66  79
ATOM     79  C   UNL A   1      45.522  28.495  32.265  1.00  0.00    -0.014 A 
ATOM     80  C   UNL A   1      46.706  28.611  31.522  1.00  0.00     0.009 A 
ATOM     81  C   UNL A   1      45.515  27.720  33.433  1.00  0.00     0.009 A 
ATOM     82  C   UNL A   1      47.860  27.945  31.933  1.00  0.00     0.001 A 
ATOM     83  C   UNL A   1      46.674  27.061  33.845  1.00  0.00     0.001 A 
ATOM     84  C   UNL A   1      47.843  27.171  33.094  1.00  0.00     0.000 A 
ENDBRANCH  66  79
ENDBRANCH  40  41
ENDBRANCH  32  35
ENDBRANCH  30  31
ENDBRANCH  29  30
ENDBRANCH   1  29
TORSDOF 14
ENDMDL
