MODEL 1
REMARK VINA RESULT:     -11.8      0.000      0.000
REMARK SMILES O=C(NCCCCNC(=O)c1cccc(Nc2ccnc3ccc(Cl)cc23)c1)c1ccc(-c2c3nc(c(-c4ccccc4)c4ccc([nH]4)c(-c4ccccc4)c4nc(c(-c5ccccc5)c5ccc2[nH]5)C=C4)C=C3)cc1
REMARK SMILES IDX 5 1 4 2 3 3 1 4 2 5 29 7 30 8 76 9 31 10 75 11 32 12 33 13
REMARK SMILES IDX 34 14 69 15 35 16 74 17 68 18 70 19 36 20 73 21 67 22 66 23
REMARK SMILES IDX 37 25 59 26 44 27 58 28 45 29 48 30 57 31 71 32 46 33 47 34
REMARK SMILES IDX 56 36 72 37 49 38 38 39 39 40 43 41 40 42 42 43 41 44 60 45
REMARK SMILES IDX 61 46 65 47 62 48 64 49 63 50 50 51 51 52 55 53 52 54 54 55
REMARK SMILES IDX 53 56 6 57 7 58 8 59 9 60 10 62 11 63 12 64 28 65 13 66
REMARK SMILES IDX 15 67 14 68 16 69 17 71 18 72 27 73 19 74 21 75 26 76 20 77
REMARK SMILES IDX 22 78 24 79 23 80 25 81
REMARK H PARENT 3 6 70 24 48 35 8 61 16 70
REMARK Flexibility Score: inf
ROOT
ATOM      1  C   UNL A   1      33.647  28.243  25.758  1.00  0.00     0.023 C 
ENDROOT
BRANCH   1   2
ATOM      2  C   UNL A   1      33.573  28.476  27.262  1.00  0.00     0.116 C 
BRANCH   2   3
ATOM      3  N   UNL A   1      33.504  29.880  27.639  1.00  0.00    -0.352 N 
ATOM      4  O   UNL A   1      34.186  31.841  28.520  1.00  0.00    -0.269 OA
ATOM      5  C   UNL A   1      34.472  30.692  28.186  1.00  0.00     0.251 C 
ATOM      6  H   UNL A   1      32.634  30.313  27.480  1.00  0.00     0.163 HD
BRANCH   5   7
ATOM      7  C   UNL A   1      35.846  30.187  28.412  1.00  0.00     0.039 A 
ATOM      8  C   UNL A   1      36.231  29.660  29.646  1.00  0.00     0.014 A 
ATOM      9  C   UNL A   1      36.770  30.227  27.360  1.00  0.00     0.014 A 
ATOM     10  C   UNL A   1      37.563  29.328  29.876  1.00  0.00     0.010 A 
ATOM     11  C   UNL A   1      38.089  29.807  27.566  1.00  0.00     0.010 A 
ATOM     12  C   UNL A   1      38.507  29.386  28.837  1.00  0.00    -0.014 A 
BRANCH  12  13
ATOM     13  C   UNL A   1      39.903  28.943  29.093  1.00  0.00     0.031 A 
ATOM     14  C   UNL A   1      40.889  29.827  29.809  1.00  0.00     0.074 A 
ATOM     15  C   UNL A   1      40.274  27.708  28.702  1.00  0.00     0.049 A 
ATOM     16  N   UNL A   1      42.132  29.573  30.140  1.00  0.00    -0.248 NA
ATOM     17  C   UNL A   1      40.427  31.167  30.199  1.00  0.00     0.031 C 
ATOM     18  C   UNL A   1      39.414  26.754  27.997  1.00  0.00     0.029 A 
ATOM     19  N   UNL A   1      41.458  27.033  28.857  1.00  0.00    -0.354 N 
ATOM     20  C   UNL A   1      42.604  30.723  30.764  1.00  0.00     0.074 A 
ATOM     21  C   UNL A   1      41.522  31.686  30.740  1.00  0.00     0.031 C 
ATOM     22  C   UNL A   1      40.080  25.603  27.826  1.00  0.00     0.029 A 
ATOM     23  C   UNL A   1      41.433  25.758  28.346  1.00  0.00     0.049 A 
ATOM     24  H   UNL A   1      42.250  27.425  29.291  1.00  0.00     0.167 HD
ATOM     25  C   UNL A   1      43.821  30.952  31.313  1.00  0.00     0.031 A 
ATOM     26  C   UNL A   1      42.394  24.818  28.284  1.00  0.00     0.031 A 
ATOM     27  C   UNL A   1      44.900  29.996  31.329  1.00  0.00     0.049 A 
ATOM     28  C   UNL A   1      43.749  25.119  28.854  1.00  0.00     0.074 A 
ATOM     29  C   UNL A   1      46.163  30.130  31.884  1.00  0.00     0.029 A 
ATOM     30  N   UNL A   1      44.849  28.734  30.759  1.00  0.00    -0.354 N 
ATOM     31  N   UNL A   1      44.163  26.198  29.473  1.00  0.00    -0.248 NA
ATOM     32  C   UNL A   1      44.769  24.071  28.717  1.00  0.00     0.031 C 
ATOM     33  C   UNL A   1      46.893  28.972  31.599  1.00  0.00     0.029 A 
ATOM     34  C   UNL A   1      46.065  28.090  30.923  1.00  0.00     0.049 A 
ATOM     35  H   UNL A   1      44.063  28.351  30.305  1.00  0.00     0.167 HD
ATOM     36  C   UNL A   1      45.485  25.950  29.819  1.00  0.00     0.074 A 
ATOM     37  C   UNL A   1      45.795  24.611  29.359  1.00  0.00     0.031 C 
ATOM     38  C   UNL A   1      46.364  26.760  30.457  1.00  0.00     0.031 A 
BRANCH  25  39
ATOM     39  C   UNL A   1      44.068  32.306  31.924  1.00  0.00    -0.014 A 
ATOM     40  C   UNL A   1      43.813  32.553  33.282  1.00  0.00     0.009 A 
ATOM     41  C   UNL A   1      44.615  33.335  31.141  1.00  0.00     0.009 A 
ATOM     42  C   UNL A   1      44.070  33.811  33.835  1.00  0.00     0.001 A 
ATOM     43  C   UNL A   1      44.897  34.583  31.702  1.00  0.00     0.001 A 
ATOM     44  C   UNL A   1      44.615  34.822  33.046  1.00  0.00     0.000 A 
ENDBRANCH  25  39
BRANCH  26  45
ATOM     45  C   UNL A   1      42.110  23.510  27.639  1.00  0.00    -0.014 A 
ATOM     46  C   UNL A   1      41.512  22.469  28.363  1.00  0.00     0.009 A 
ATOM     47  C   UNL A   1      42.437  23.299  26.290  1.00  0.00     0.009 A 
ATOM     48  C   UNL A   1      41.270  21.234  27.755  1.00  0.00     0.001 A 
ATOM     49  C   UNL A   1      42.161  22.076  25.676  1.00  0.00     0.001 A 
ATOM     50  C   UNL A   1      41.589  21.042  26.412  1.00  0.00     0.000 A 
ENDBRANCH  26  45
BRANCH  38  51
ATOM     51  C   UNL A   1      47.733  26.205  30.725  1.00  0.00    -0.014 A 
ATOM     52  C   UNL A   1      48.070  25.667  31.978  1.00  0.00     0.009 A 
ATOM     53  C   UNL A   1      48.694  26.201  29.703  1.00  0.00     0.009 A 
ATOM     54  C   UNL A   1      49.356  25.171  32.210  1.00  0.00     0.001 A 
ATOM     55  C   UNL A   1      49.967  25.677  29.928  1.00  0.00     0.001 A 
ATOM     56  C   UNL A   1      50.300  25.173  31.184  1.00  0.00     0.000 A 
ENDBRANCH  38  51
ENDBRANCH  12  13
ENDBRANCH   5   7
ENDBRANCH   2   3
ENDBRANCH   1   2
BRANCH   1  57
ATOM     57  C   UNL A   1      33.161  29.384  24.863  1.00  0.00     0.023 C 
BRANCH  57  58
ATOM     58  C   UNL A   1      31.651  29.612  24.797  1.00  0.00     0.116 C 
BRANCH  58  59
ATOM     59  N   UNL A   1      31.080  29.535  23.462  1.00  0.00    -0.352 N 
ATOM     60  C   UNL A   1      30.497  28.445  22.855  1.00  0.00     0.251 C 
ATOM     61  H   UNL A   1      31.116  30.362  22.928  1.00  0.00     0.163 HD
ATOM     62  O   UNL A   1      29.798  28.575  21.857  1.00  0.00    -0.269 OA
BRANCH  60  63
ATOM     63  C   UNL A   1      30.810  27.096  23.360  1.00  0.00     0.041 A 
ATOM     64  C   UNL A   1      29.998  26.620  24.395  1.00  0.00     0.014 A 
ATOM     65  C   UNL A   1      31.854  26.318  22.826  1.00  0.00     0.039 A 
ATOM     66  C   UNL A   1      30.189  25.335  24.875  1.00  0.00     0.003 A 
ATOM     67  C   UNL A   1      32.044  25.014  23.304  1.00  0.00     0.039 A 
ATOM     68  C   UNL A   1      31.190  24.541  24.321  1.00  0.00     0.026 A 
BRANCH  67  69
ATOM     69  N   UNL A   1      32.930  24.097  22.690  1.00  0.00    -0.355 N 
ATOM     70  H   UNL A   1      33.392  24.379  21.868  1.00  0.00     0.167 HD
BRANCH  69  71
ATOM     71  C   UNL A   1      33.190  22.794  23.193  1.00  0.00     0.050 A 
ATOM     72  C   UNL A   1      32.241  21.801  22.915  1.00  0.00     0.047 A 
ATOM     73  C   UNL A   1      34.292  22.468  24.031  1.00  0.00     0.025 A 
ATOM     74  C   UNL A   1      32.363  20.566  23.504  1.00  0.00     0.114 A 
ATOM     75  C   UNL A   1      34.359  21.129  24.496  1.00  0.00     0.072 A 
ATOM     76  C   UNL A   1      35.290  23.375  24.477  1.00  0.00     0.033 A 
ATOM     77  N   UNL A   1      33.412  20.213  24.262  1.00  0.00    -0.256 NA
ATOM     78  C   UNL A   1      35.437  20.715  25.259  1.00  0.00     0.030 A 
ATOM     79  C   UNL A   1      36.338  22.935  25.294  1.00  0.00     0.041 A 
ATOM     80  C   UNL A   1      36.437  21.599  25.655  1.00  0.00     0.023 A 
ATOM     81  Cl  UNL A   1      37.508  24.051  25.884  1.00  0.00    -0.084 Cl
ENDBRANCH  69  71
ENDBRANCH  67  69
ENDBRANCH  60  63
ENDBRANCH  58  59
ENDBRANCH  57  58
ENDBRANCH   1  57
TORSDOF 13
ENDMDL
MODEL 2
REMARK VINA RESULT:     -11.7      0.833      5.972
REMARK SMILES O=C(NCCCCNC(=O)c1cccc(Nc2ccnc3ccc(Cl)cc23)c1)c1ccc(-c2c3nc(c(-c4ccccc4)c4ccc([nH]4)c(-c4ccccc4)c4nc(c(-c5ccccc5)c5ccc2[nH]5)C=C4)C=C3)cc1
REMARK SMILES IDX 5 1 4 2 3 3 1 4 2 5 29 7 30 8 76 9 31 10 75 11 32 12 33 13
REMARK SMILES IDX 34 14 69 15 35 16 74 17 68 18 70 19 36 20 73 21 67 22 66 23
REMARK SMILES IDX 37 25 59 26 44 27 58 28 45 29 48 30 57 31 71 32 46 33 47 34
REMARK SMILES IDX 56 36 72 37 49 38 38 39 39 40 43 41 40 42 42 43 41 44 60 45
REMARK SMILES IDX 61 46 65 47 62 48 64 49 63 50 50 51 51 52 55 53 52 54 54 55
REMARK SMILES IDX 53 56 6 57 7 58 8 59 9 60 10 62 11 63 12 64 28 65 13 66
REMARK SMILES IDX 15 67 14 68 16 69 17 71 18 72 27 73 19 74 21 75 26 76 20 77
REMARK SMILES IDX 22 78 24 79 23 80 25 81
REMARK H PARENT 3 6 70 24 48 35 8 61 16 70
REMARK Flexibility Score: inf
ROOT
ATOM      1  C   UNL A   1      33.746  28.662  25.874  1.00  0.00     0.023 C 
ENDROOT
BRANCH   1   2
ATOM      2  C   UNL A   1      33.699  28.735  27.396  1.00  0.00     0.116 C 
BRANCH   2   3
ATOM      3  N   UNL A   1      33.665  30.091  27.921  1.00  0.00    -0.352 N 
ATOM      4  O   UNL A   1      34.404  31.935  28.990  1.00  0.00    -0.269 OA
ATOM      5  C   UNL A   1      34.660  30.824  28.529  1.00  0.00     0.251 C 
ATOM      6  H   UNL A   1      32.801  30.553  27.830  1.00  0.00     0.163 HD
BRANCH   5   7
ATOM      7  C   UNL A   1      36.029  30.275  28.667  1.00  0.00     0.039 A 
ATOM      8  C   UNL A   1      36.446  29.658  29.848  1.00  0.00     0.014 A 
ATOM      9  C   UNL A   1      36.914  30.365  27.586  1.00  0.00     0.014 A 
ATOM     10  C   UNL A   1      37.778  29.282  30.003  1.00  0.00     0.010 A 
ATOM     11  C   UNL A   1      38.229  29.904  27.712  1.00  0.00     0.010 A 
ATOM     12  C   UNL A   1      38.683  29.389  28.935  1.00  0.00    -0.014 A 
BRANCH  12  13
ATOM     13  C   UNL A   1      40.076  28.899  29.107  1.00  0.00     0.031 A 
ATOM     14  C   UNL A   1      40.476  27.507  28.698  1.00  0.00     0.074 A 
ATOM     15  C   UNL A   1      41.002  29.740  29.611  1.00  0.00     0.049 A 
ATOM     16  N   UNL A   1      41.658  26.942  28.751  1.00  0.00    -0.248 NA
ATOM     17  C   UNL A   1      39.418  26.635  28.167  1.00  0.00     0.031 C 
ATOM     18  C   UNL A   1      40.742  31.114  30.048  1.00  0.00     0.029 A 
ATOM     19  N   UNL A   1      42.347  29.575  29.822  1.00  0.00    -0.354 N 
ATOM     20  C   UNL A   1      41.484  25.647  28.273  1.00  0.00     0.074 A 
ATOM     21  C   UNL A   1      40.077  25.501  27.963  1.00  0.00     0.031 C 
ATOM     22  C   UNL A   1      41.896  31.681  30.426  1.00  0.00     0.029 A 
ATOM     23  C   UNL A   1      42.964  30.694  30.324  1.00  0.00     0.049 A 
ATOM     24  H   UNL A   1      42.823  28.734  29.633  1.00  0.00     0.167 HD
ATOM     25  C   UNL A   1      42.412  24.674  28.101  1.00  0.00     0.031 A 
ATOM     26  C   UNL A   1      44.245  30.904  30.681  1.00  0.00     0.031 A 
ATOM     27  C   UNL A   1      43.810  24.817  28.419  1.00  0.00     0.049 A 
ATOM     28  C   UNL A   1      45.239  29.791  30.529  1.00  0.00     0.074 A 
ATOM     29  C   UNL A   1      44.830  23.893  28.257  1.00  0.00     0.029 A 
ATOM     30  N   UNL A   1      44.386  25.951  28.970  1.00  0.00    -0.354 N 
ATOM     31  N   UNL A   1      45.062  28.588  30.041  1.00  0.00    -0.248 NA
ATOM     32  C   UNL A   1      46.611  30.067  30.977  1.00  0.00     0.031 C 
ATOM     33  C   UNL A   1      46.010  24.448  28.764  1.00  0.00     0.029 A 
ATOM     34  C   UNL A   1      45.739  25.741  29.182  1.00  0.00     0.049 A 
ATOM     35  H   UNL A   1      43.903  26.784  29.181  1.00  0.00     0.167 HD
ATOM     36  C   UNL A   1      46.304  27.970  30.103  1.00  0.00     0.074 A 
ATOM     37  C   UNL A   1      47.229  28.940  30.655  1.00  0.00     0.031 C 
ATOM     38  C   UNL A   1      46.647  26.711  29.737  1.00  0.00     0.031 A 
BRANCH  25  39
ATOM     39  C   UNL A   1      41.940  23.348  27.568  1.00  0.00    -0.014 A 
ATOM     40  C   UNL A   1      41.978  23.057  26.194  1.00  0.00     0.009 A 
ATOM     41  C   UNL A   1      41.503  22.353  28.457  1.00  0.00     0.009 A 
ATOM     42  C   UNL A   1      41.557  21.811  25.722  1.00  0.00     0.001 A 
ATOM     43  C   UNL A   1      41.109  21.098  27.985  1.00  0.00     0.001 A 
ATOM     44  C   UNL A   1      41.127  20.833  26.617  1.00  0.00     0.000 A 
ENDBRANCH  25  39
BRANCH  26  45
ATOM     45  C   UNL A   1      44.651  32.222  31.237  1.00  0.00    -0.014 A 
ATOM     46  C   UNL A   1      45.090  33.251  30.391  1.00  0.00     0.009 A 
ATOM     47  C   UNL A   1      44.601  32.453  32.620  1.00  0.00     0.009 A 
ATOM     48  C   UNL A   1      45.492  34.478  30.924  1.00  0.00     0.001 A 
ATOM     49  C   UNL A   1      44.971  33.692  33.146  1.00  0.00     0.001 A 
ATOM     50  C   UNL A   1      45.427  34.700  32.298  1.00  0.00     0.000 A 
ENDBRANCH  26  45
BRANCH  38  51
ATOM     51  C   UNL A   1      48.091  26.325  29.892  1.00  0.00    -0.014 A 
ATOM     52  C   UNL A   1      48.577  25.783  31.092  1.00  0.00     0.009 A 
ATOM     53  C   UNL A   1      48.973  26.487  28.813  1.00  0.00     0.009 A 
ATOM     54  C   UNL A   1      49.927  25.447  31.219  1.00  0.00     0.001 A 
ATOM     55  C   UNL A   1      50.314  26.121  28.931  1.00  0.00     0.001 A 
ATOM     56  C   UNL A   1      50.792  25.612  30.138  1.00  0.00     0.000 A 
ENDBRANCH  38  51
ENDBRANCH  12  13
ENDBRANCH   5   7
ENDBRANCH   2   3
ENDBRANCH   1   2
BRANCH   1  57
ATOM     57  C   UNL A   1      32.904  29.687  25.114  1.00  0.00     0.023 C 
BRANCH  57  58
ATOM     58  C   UNL A   1      31.390  29.479  25.126  1.00  0.00     0.116 C 
BRANCH  58  59
ATOM     59  N   UNL A   1      30.763  29.481  23.816  1.00  0.00    -0.352 N 
ATOM     60  C   UNL A   1      30.684  28.441  22.916  1.00  0.00     0.251 C 
ATOM     61  H   UNL A   1      30.345  30.328  23.536  1.00  0.00     0.163 HD
ATOM     62  O   UNL A   1      29.889  28.468  21.984  1.00  0.00    -0.269 OA
BRANCH  60  63
ATOM     63  C   UNL A   1      31.647  27.330  23.026  1.00  0.00     0.041 A 
ATOM     64  C   UNL A   1      32.709  27.340  22.116  1.00  0.00     0.014 A 
ATOM     65  C   UNL A   1      31.523  26.322  24.000  1.00  0.00     0.039 A 
ATOM     66  C   UNL A   1      33.690  26.366  22.201  1.00  0.00     0.003 A 
ATOM     67  C   UNL A   1      32.518  25.339  24.094  1.00  0.00     0.039 A 
ATOM     68  C   UNL A   1      33.599  25.391  23.191  1.00  0.00     0.026 A 
BRANCH  67  69
ATOM     69  N   UNL A   1      32.579  24.414  25.163  1.00  0.00    -0.355 N 
ATOM     70  H   UNL A   1      32.364  24.735  26.068  1.00  0.00     0.167 HD
BRANCH  69  71
ATOM     71  C   UNL A   1      32.934  23.047  25.004  1.00  0.00     0.050 A 
ATOM     72  C   UNL A   1      31.889  22.136  24.795  1.00  0.00     0.047 A 
ATOM     73  C   UNL A   1      34.258  22.546  25.141  1.00  0.00     0.025 A 
ATOM     74  C   UNL A   1      32.159  20.789  24.790  1.00  0.00     0.114 A 
ATOM     75  C   UNL A   1      34.419  21.141  25.016  1.00  0.00     0.072 A 
ATOM     76  C   UNL A   1      35.410  23.321  25.441  1.00  0.00     0.033 A 
ATOM     77  N   UNL A   1      33.399  20.286  24.871  1.00  0.00    -0.256 NA
ATOM     78  C   UNL A   1      35.684  20.583  25.068  1.00  0.00     0.030 A 
ATOM     79  C   UNL A   1      36.668  22.717  25.541  1.00  0.00     0.041 A 
ATOM     80  C   UNL A   1      36.816  21.355  25.316  1.00  0.00     0.023 A 
ATOM     81  Cl  UNL A   1      38.050  23.650  25.966  1.00  0.00    -0.084 Cl
ENDBRANCH  69  71
ENDBRANCH  67  69
ENDBRANCH  60  63
ENDBRANCH  58  59
ENDBRANCH  57  58
ENDBRANCH   1  57
TORSDOF 13
ENDMDL
MODEL 3
REMARK VINA RESULT:     -11.7      2.981      4.484
REMARK SMILES O=C(NCCCCNC(=O)c1cccc(Nc2ccnc3ccc(Cl)cc23)c1)c1ccc(-c2c3nc(c(-c4ccccc4)c4ccc([nH]4)c(-c4ccccc4)c4nc(c(-c5ccccc5)c5ccc2[nH]5)C=C4)C=C3)cc1
REMARK SMILES IDX 5 1 4 2 3 3 1 4 2 5 29 7 30 8 76 9 31 10 75 11 32 12 33 13
REMARK SMILES IDX 34 14 69 15 35 16 74 17 68 18 70 19 36 20 73 21 67 22 66 23
REMARK SMILES IDX 37 25 59 26 44 27 58 28 45 29 48 30 57 31 71 32 46 33 47 34
REMARK SMILES IDX 56 36 72 37 49 38 38 39 39 40 43 41 40 42 42 43 41 44 60 45
REMARK SMILES IDX 61 46 65 47 62 48 64 49 63 50 50 51 51 52 55 53 52 54 54 55
REMARK SMILES IDX 53 56 6 57 7 58 8 59 9 60 10 62 11 63 12 64 28 65 13 66
REMARK SMILES IDX 15 67 14 68 16 69 17 71 18 72 27 73 19 74 21 75 26 76 20 77
REMARK SMILES IDX 22 78 24 79 23 80 25 81
REMARK H PARENT 3 6 70 24 48 35 8 61 16 70
REMARK Flexibility Score: inf
ROOT
ATOM      1  C   UNL A   1      31.331  32.094  26.561  1.00  0.00     0.023 C 
ENDROOT
BRANCH   1   2
ATOM      2  C   UNL A   1      32.593  32.771  27.083  1.00  0.00     0.116 C 
BRANCH   2   3
ATOM      3  N   UNL A   1      32.358  34.075  27.684  1.00  0.00    -0.352 N 
ATOM      4  O   UNL A   1      32.662  35.811  29.092  1.00  0.00    -0.269 OA
ATOM      5  C   UNL A   1      33.080  34.743  28.647  1.00  0.00     0.251 C 
ATOM      6  H   UNL A   1      31.562  34.551  27.352  1.00  0.00     0.163 HD
BRANCH   5   7
ATOM      7  C   UNL A   1      34.338  34.173  29.183  1.00  0.00     0.039 A 
ATOM      8  C   UNL A   1      35.568  34.435  28.577  1.00  0.00     0.014 A 
ATOM      9  C   UNL A   1      34.290  33.368  30.328  1.00  0.00     0.014 A 
ATOM     10  C   UNL A   1      36.714  33.773  29.011  1.00  0.00     0.010 A 
ATOM     11  C   UNL A   1      35.458  32.774  30.819  1.00  0.00     0.010 A 
ATOM     12  C   UNL A   1      36.676  32.943  30.144  1.00  0.00    -0.014 A 
BRANCH  12  13
ATOM     13  C   UNL A   1      37.934  32.318  30.633  1.00  0.00     0.031 A 
ATOM     14  C   UNL A   1      38.697  32.893  31.796  1.00  0.00     0.074 A 
ATOM     15  C   UNL A   1      38.374  31.193  30.035  1.00  0.00     0.049 A 
ATOM     16  N   UNL A   1      39.791  32.446  32.364  1.00  0.00    -0.248 NA
ATOM     17  C   UNL A   1      38.172  34.129  32.396  1.00  0.00     0.031 C 
ATOM     18  C   UNL A   1      37.727  30.536  28.896  1.00  0.00     0.029 A 
ATOM     19  N   UNL A   1      39.451  30.391  30.311  1.00  0.00    -0.354 N 
ATOM     20  C   UNL A   1      40.091  33.349  33.378  1.00  0.00     0.074 A 
ATOM     21  C   UNL A   1      39.081  34.386  33.328  1.00  0.00     0.031 C 
ATOM     22  C   UNL A   1      38.390  29.409  28.604  1.00  0.00     0.029 A 
ATOM     23  C   UNL A   1      39.544  29.296  29.487  1.00  0.00     0.049 A 
ATOM     24  H   UNL A   1      40.097  30.583  31.029  1.00  0.00     0.167 HD
ATOM     25  C   UNL A   1      41.110  33.314  34.272  1.00  0.00     0.031 A 
ATOM     26  C   UNL A   1      40.464  28.315  29.431  1.00  0.00     0.031 A 
ATOM     27  C   UNL A   1      42.120  32.287  34.314  1.00  0.00     0.049 A 
ATOM     28  C   UNL A   1      41.609  28.331  30.400  1.00  0.00     0.074 A 
ATOM     29  C   UNL A   1      43.178  32.154  35.200  1.00  0.00     0.029 A 
ATOM     30  N   UNL A   1      42.205  31.221  33.432  1.00  0.00    -0.354 N 
ATOM     31  N   UNL A   1      41.855  29.172  31.374  1.00  0.00    -0.248 NA
ATOM     32  C   UNL A   1      42.605  27.259  30.261  1.00  0.00     0.031 C 
ATOM     33  C   UNL A   1      43.934  31.041  34.817  1.00  0.00     0.029 A 
ATOM     34  C   UNL A   1      43.312  30.444  33.733  1.00  0.00     0.049 A 
ATOM     35  H   UNL A   1      41.571  31.043  32.699  1.00  0.00     0.167 HD
ATOM     36  C   UNL A   1      43.021  28.719  31.978  1.00  0.00     0.074 A 
ATOM     37  C   UNL A   1      43.419  27.517  31.274  1.00  0.00     0.031 C 
ATOM     38  C   UNL A   1      43.701  29.254  33.021  1.00  0.00     0.031 A 
BRANCH  25  39
ATOM     39  C   UNL A   1      41.203  34.439  35.268  1.00  0.00    -0.014 A 
ATOM     40  C   UNL A   1      41.940  35.601  34.991  1.00  0.00     0.009 A 
ATOM     41  C   UNL A   1      40.497  34.358  36.479  1.00  0.00     0.009 A 
ATOM     42  C   UNL A   1      41.994  36.644  35.921  1.00  0.00     0.001 A 
ATOM     43  C   UNL A   1      40.530  35.413  37.394  1.00  0.00     0.001 A 
ATOM     44  C   UNL A   1      41.286  36.551  37.118  1.00  0.00     0.000 A 
ENDBRANCH  25  39
BRANCH  26  45
ATOM     45  C   UNL A   1      40.345  27.247  28.404  1.00  0.00    -0.014 A 
ATOM     46  C   UNL A   1      40.947  27.393  27.146  1.00  0.00     0.009 A 
ATOM     47  C   UNL A   1      39.628  26.073  28.682  1.00  0.00     0.009 A 
ATOM     48  C   UNL A   1      40.811  26.395  26.178  1.00  0.00     0.001 A 
ATOM     49  C   UNL A   1      39.523  25.062  27.726  1.00  0.00     0.001 A 
ATOM     50  C   UNL A   1      40.105  25.229  26.471  1.00  0.00     0.000 A 
ENDBRANCH  26  45
BRANCH  38  51
ATOM     51  C   UNL A   1      44.928  28.520  33.484  1.00  0.00    -0.014 A 
ATOM     52  C   UNL A   1      44.850  27.502  34.447  1.00  0.00     0.009 A 
ATOM     53  C   UNL A   1      46.177  28.838  32.931  1.00  0.00     0.009 A 
ATOM     54  C   UNL A   1      46.006  26.844  34.875  1.00  0.00     0.001 A 
ATOM     55  C   UNL A   1      47.326  28.159  33.336  1.00  0.00     0.001 A 
ATOM     56  C   UNL A   1      47.241  27.170  34.316  1.00  0.00     0.000 A 
ENDBRANCH  38  51
ENDBRANCH  12  13
ENDBRANCH   5   7
ENDBRANCH   2   3
ENDBRANCH   1   2
BRANCH   1  57
ATOM     57  C   UNL A   1      31.492  30.674  26.016  1.00  0.00     0.023 C 
BRANCH  57  58
ATOM     58  C   UNL A   1      31.718  29.565  27.042  1.00  0.00     0.116 C 
BRANCH  58  59
ATOM     59  N   UNL A   1      33.087  29.438  27.513  1.00  0.00    -0.352 N 
ATOM     60  C   UNL A   1      34.151  28.849  26.867  1.00  0.00     0.251 C 
ATOM     61  H   UNL A   1      33.277  29.819  28.401  1.00  0.00     0.163 HD
ATOM     62  O   UNL A   1      35.304  29.058  27.225  1.00  0.00    -0.269 OA
BRANCH  60  63
ATOM     63  C   UNL A   1      33.881  27.871  25.797  1.00  0.00     0.041 A 
ATOM     64  C   UNL A   1      33.873  28.370  24.491  1.00  0.00     0.014 A 
ATOM     65  C   UNL A   1      33.661  26.507  26.065  1.00  0.00     0.039 A 
ATOM     66  C   UNL A   1      33.693  27.499  23.429  1.00  0.00     0.003 A 
ATOM     67  C   UNL A   1      33.487  25.622  24.992  1.00  0.00     0.039 A 
ATOM     68  C   UNL A   1      33.520  26.141  23.682  1.00  0.00     0.026 A 
BRANCH  67  69
ATOM     69  N   UNL A   1      33.462  24.217  25.158  1.00  0.00    -0.355 N 
ATOM     70  H   UNL A   1      32.586  23.771  25.211  1.00  0.00     0.167 HD
BRANCH  69  71
ATOM     71  C   UNL A   1      34.630  23.413  25.252  1.00  0.00     0.050 A 
ATOM     72  C   UNL A   1      35.845  24.074  25.476  1.00  0.00     0.047 A 
ATOM     73  C   UNL A   1      34.648  22.007  25.037  1.00  0.00     0.025 A 
ATOM     74  C   UNL A   1      37.020  23.366  25.421  1.00  0.00     0.114 A 
ATOM     75  C   UNL A   1      35.918  21.374  25.104  1.00  0.00     0.072 A 
ATOM     76  C   UNL A   1      33.524  21.203  24.712  1.00  0.00     0.033 A 
ATOM     77  N   UNL A   1      37.070  22.034  25.265  1.00  0.00    -0.256 NA
ATOM     78  C   UNL A   1      36.012  19.999  24.974  1.00  0.00     0.030 A 
ATOM     79  C   UNL A   1      33.663  19.822  24.534  1.00  0.00     0.041 A 
ATOM     80  C   UNL A   1      34.897  19.210  24.703  1.00  0.00     0.023 A 
ATOM     81  Cl  UNL A   1      32.309  18.863  24.079  1.00  0.00    -0.084 Cl
ENDBRANCH  69  71
ENDBRANCH  67  69
ENDBRANCH  60  63
ENDBRANCH  58  59
ENDBRANCH  57  58
ENDBRANCH   1  57
TORSDOF 13
ENDMDL
