MODEL 1
REMARK VINA RESULT:     -12.4      0.000      0.000
REMARK SMILES CC1(C)[C@H](C(=O)N(Cc2ccccc2)Cc2ccccc2)CC[C@@]1(C)C(=O)NCCCCNC(=O)c1ccc(-c2c3nc(c(-c4ccccc4)c4ccc([nH]4)c(-c4ccccc4)c4nc(c(-c5ccccc5)c5ccc2[nH]5)C=C4)C=C3)cc1
REMARK SMILES IDX 30 1 29 2 28 3 26 4 27 5 24 7 1 8 2 9 3 10 4 11 22 12 23 13
REMARK SMILES IDX 25 14 5 15 6 16 7 17 8 18 9 19 10 20 14 21 11 22 13 23 12 24
REMARK SMILES IDX 15 25 16 26 17 27 21 28 18 29 20 30 19 31 31 32 32 33 33 34
REMARK SMILES IDX 34 35 35 37 36 38 37 39 83 40 38 41 82 42 39 43 40 44 41 45
REMARK SMILES IDX 76 46 42 47 81 48 75 49 77 50 43 51 80 52 74 53 73 54 44 56
REMARK SMILES IDX 66 57 51 58 65 59 52 60 55 61 64 62 78 63 53 64 54 65 63 67
REMARK SMILES IDX 79 68 56 69 45 70 46 71 50 72 47 73 49 74 48 75 67 76 68 77
REMARK SMILES IDX 72 78 69 79 71 80 70 81 57 82 58 83 62 84 59 85 61 86 60 87
REMARK H PARENT 28 6 33 36 77 55 55 66
REMARK Flexibility Score: inf
ROOT
ATOM      1  C   UNL A   1      32.725  29.642  24.967  1.00  0.00     0.023 C 
ENDROOT
BRANCH   1   2
ATOM      2  C   UNL A   1      31.470  28.828  25.284  1.00  0.00     0.116 C 
BRANCH   2   3
ATOM      3  N   UNL A   1      30.788  28.468  24.062  1.00  0.00    -0.356 N 
ATOM      4  C   UNL A   1      31.128  27.643  23.037  1.00  0.00     0.226 C 
ATOM      5  O   UNL A   1      30.456  27.784  22.011  1.00  0.00    -0.274 OA
ATOM      6  H   UNL A   1      29.912  28.901  23.951  1.00  0.00     0.163 HD
BRANCH   4   7
ATOM      7  C   UNL A   1      32.189  26.520  23.166  1.00  0.00     0.052 C 
ATOM      8  C   UNL A   1      30.404  25.658  24.921  1.00  0.00     0.013 C 
ATOM      9  C   UNL A   1      31.832  25.480  24.336  1.00  0.00    -0.010 C 
ATOM     10  C   UNL A   1      32.761  25.591  25.539  1.00  0.00     0.013 C 
ATOM     11  C   UNL A   1      31.877  24.089  23.624  1.00  0.00     0.085 C 
ATOM     12  C   UNL A   1      32.618  24.261  22.313  1.00  0.00     0.015 C 
ATOM     13  C   UNL A   1      32.121  25.633  21.875  1.00  0.00     0.018 C 
ATOM     14  C   UNL A   1      33.638  27.066  23.167  1.00  0.00     0.022 C 
BRANCH  11  15
ATOM     15  C   UNL A   1      32.055  22.775  24.389  1.00  0.00     0.226 C 
ATOM     16  O   UNL A   1      31.006  22.316  24.875  1.00  0.00    -0.275 OA
ATOM     17  N   UNL A   1      33.247  22.077  24.559  1.00  0.00    -0.334 N 
BRANCH  17  18
ATOM     18  C   UNL A   1      34.516  22.235  23.816  1.00  0.00     0.155 C 
BRANCH  18  19
ATOM     19  C   UNL A   1      35.787  22.468  24.630  1.00  0.00    -0.029 A 
ATOM     20  C   UNL A   1      35.999  23.599  25.430  1.00  0.00     0.005 A 
ATOM     21  C   UNL A   1      36.806  21.497  24.629  1.00  0.00     0.005 A 
ATOM     22  C   UNL A   1      37.231  23.836  26.049  1.00  0.00     0.000 A 
ATOM     23  C   UNL A   1      38.043  21.731  25.236  1.00  0.00     0.000 A 
ATOM     24  C   UNL A   1      38.265  22.917  25.924  1.00  0.00     0.000 A 
ENDBRANCH  18  19
ENDBRANCH  17  18
BRANCH  17  25
ATOM     25  C   UNL A   1      33.089  20.844  25.344  1.00  0.00     0.155 C 
BRANCH  25  26
ATOM     26  C   UNL A   1      33.269  19.567  24.545  1.00  0.00    -0.029 A 
ATOM     27  C   UNL A   1      34.346  18.716  24.841  1.00  0.00     0.005 A 
ATOM     28  C   UNL A   1      32.402  19.200  23.505  1.00  0.00     0.005 A 
ATOM     29  C   UNL A   1      34.557  17.547  24.107  1.00  0.00     0.000 A 
ATOM     30  C   UNL A   1      32.607  18.027  22.778  1.00  0.00     0.000 A 
ATOM     31  C   UNL A   1      33.687  17.202  23.076  1.00  0.00     0.000 A 
ENDBRANCH  25  26
ENDBRANCH  17  25
ENDBRANCH  11  15
ENDBRANCH   4   7
ENDBRANCH   2   3
ENDBRANCH   1   2
BRANCH   1  32
ATOM     32  C   UNL A   1      33.938  29.268  25.825  1.00  0.00     0.023 C 
BRANCH  32  33
ATOM     33  C   UNL A   1      33.665  29.204  27.324  1.00  0.00     0.116 C 
BRANCH  33  34
ATOM     34  N   UNL A   1      33.690  30.512  27.962  1.00  0.00    -0.352 N 
ATOM     35  C   UNL A   1      34.712  31.090  28.675  1.00  0.00     0.251 C 
ATOM     36  H   UNL A   1      32.871  31.050  27.870  1.00  0.00     0.163 HD
ATOM     37  O   UNL A   1      34.551  32.157  29.250  1.00  0.00    -0.269 OA
BRANCH  35  38
ATOM     38  C   UNL A   1      35.999  30.375  28.771  1.00  0.00     0.039 A 
ATOM     39  C   UNL A   1      36.881  30.433  27.690  1.00  0.00     0.014 A 
ATOM     40  C   UNL A   1      36.351  29.709  29.947  1.00  0.00     0.014 A 
ATOM     41  C   UNL A   1      38.156  29.881  27.817  1.00  0.00     0.010 A 
ATOM     42  C   UNL A   1      37.642  29.214  30.092  1.00  0.00     0.010 A 
ATOM     43  C   UNL A   1      38.557  29.305  29.033  1.00  0.00    -0.014 A 
BRANCH  43  44
ATOM     44  C   UNL A   1      39.940  28.812  29.229  1.00  0.00     0.031 A 
ATOM     45  C   UNL A   1      40.990  29.721  29.798  1.00  0.00     0.074 A 
ATOM     46  C   UNL A   1      40.266  27.572  28.819  1.00  0.00     0.049 A 
ATOM     47  N   UNL A   1      42.267  29.497  29.973  1.00  0.00    -0.248 NA
ATOM     48  C   UNL A   1      40.551  31.066  30.202  1.00  0.00     0.031 C 
ATOM     49  C   UNL A   1      39.345  26.607  28.215  1.00  0.00     0.029 A 
ATOM     50  N   UNL A   1      41.470  26.914  28.839  1.00  0.00    -0.354 N 
ATOM     51  C   UNL A   1      42.787  30.677  30.489  1.00  0.00     0.074 A 
ATOM     52  C   UNL A   1      41.698  31.627  30.557  1.00  0.00     0.031 C 
ATOM     53  C   UNL A   1      40.011  25.472  27.948  1.00  0.00     0.029 A 
ATOM     54  C   UNL A   1      41.411  25.643  28.322  1.00  0.00     0.049 A 
ATOM     55  H   UNL A   1      42.298  27.316  29.190  1.00  0.00     0.167 HD
ATOM     56  C   UNL A   1      44.055  30.941  30.885  1.00  0.00     0.031 A 
ATOM     57  C   UNL A   1      42.378  24.721  28.163  1.00  0.00     0.031 A 
ATOM     58  C   UNL A   1      45.135  29.995  30.823  1.00  0.00     0.049 A 
ATOM     59  C   UNL A   1      43.780  25.045  28.589  1.00  0.00     0.074 A 
ATOM     60  C   UNL A   1      46.442  30.148  31.255  1.00  0.00     0.029 A 
ATOM     61  N   UNL A   1      45.035  28.720  30.290  1.00  0.00    -0.354 N 
ATOM     62  N   UNL A   1      44.244  26.144  29.134  1.00  0.00    -0.248 NA
ATOM     63  C   UNL A   1      44.791  23.999  28.382  1.00  0.00     0.031 C 
ATOM     64  C   UNL A   1      47.143  28.978  30.943  1.00  0.00     0.029 A 
ATOM     65  C   UNL A   1      46.263  28.082  30.359  1.00  0.00     0.049 A 
ATOM     66  H   UNL A   1      44.214  28.326  29.917  1.00  0.00     0.167 HD
ATOM     67  C   UNL A   1      45.595  25.915  29.356  1.00  0.00     0.074 A 
ATOM     68  C   UNL A   1      45.873  24.569  28.898  1.00  0.00     0.031 C 
ATOM     69  C   UNL A   1      46.522  26.744  29.893  1.00  0.00     0.031 A 
BRANCH  56  70
ATOM     70  C   UNL A   1      44.332  32.320  31.414  1.00  0.00    -0.014 A 
ATOM     71  C   UNL A   1      44.691  33.369  30.552  1.00  0.00     0.009 A 
ATOM     72  C   UNL A   1      44.225  32.576  32.789  1.00  0.00     0.009 A 
ATOM     73  C   UNL A   1      44.979  34.636  31.062  1.00  0.00     0.001 A 
ATOM     74  C   UNL A   1      44.486  33.851  33.293  1.00  0.00     0.001 A 
ATOM     75  C   UNL A   1      44.873  34.877  32.432  1.00  0.00     0.000 A 
ENDBRANCH  56  70
BRANCH  57  76
ATOM     76  C   UNL A   1      42.045  23.392  27.590  1.00  0.00    -0.014 A 
ATOM     77  C   UNL A   1      41.523  22.382  28.411  1.00  0.00     0.009 A 
ATOM     78  C   UNL A   1      42.237  23.129  26.225  1.00  0.00     0.009 A 
ATOM     79  C   UNL A   1      41.217  21.127  27.880  1.00  0.00     0.001 A 
ATOM     80  C   UNL A   1      41.908  21.881  25.693  1.00  0.00     0.001 A 
ATOM     81  C   UNL A   1      41.405  20.879  26.521  1.00  0.00     0.000 A 
ENDBRANCH  57  76
BRANCH  69  82
ATOM     82  C   UNL A   1      47.917  26.210  30.036  1.00  0.00    -0.014 A 
ATOM     83  C   UNL A   1      48.818  26.236  28.960  1.00  0.00     0.009 A 
ATOM     84  C   UNL A   1      48.347  25.712  31.275  1.00  0.00     0.009 A 
ATOM     85  C   UNL A   1      50.117  25.750  29.119  1.00  0.00     0.001 A 
ATOM     86  C   UNL A   1      49.653  25.249  31.437  1.00  0.00     0.001 A 
ATOM     87  C   UNL A   1      50.535  25.261  30.356  1.00  0.00     0.000 A 
ENDBRANCH  69  82
ENDBRANCH  43  44
ENDBRANCH  35  38
ENDBRANCH  33  34
ENDBRANCH  32  33
ENDBRANCH   1  32
TORSDOF 16
ENDMDL
MODEL 2
REMARK VINA RESULT:     -12.0      1.541      5.854
REMARK SMILES CC1(C)[C@H](C(=O)N(Cc2ccccc2)Cc2ccccc2)CC[C@@]1(C)C(=O)NCCCCNC(=O)c1ccc(-c2c3nc(c(-c4ccccc4)c4ccc([nH]4)c(-c4ccccc4)c4nc(c(-c5ccccc5)c5ccc2[nH]5)C=C4)C=C3)cc1
REMARK SMILES IDX 30 1 29 2 28 3 26 4 27 5 24 7 1 8 2 9 3 10 4 11 22 12 23 13
REMARK SMILES IDX 25 14 5 15 6 16 7 17 8 18 9 19 10 20 14 21 11 22 13 23 12 24
REMARK SMILES IDX 15 25 16 26 17 27 21 28 18 29 20 30 19 31 31 32 32 33 33 34
REMARK SMILES IDX 34 35 35 37 36 38 37 39 83 40 38 41 82 42 39 43 40 44 41 45
REMARK SMILES IDX 76 46 42 47 81 48 75 49 77 50 43 51 80 52 74 53 73 54 44 56
REMARK SMILES IDX 66 57 51 58 65 59 52 60 55 61 64 62 78 63 53 64 54 65 63 67
REMARK SMILES IDX 79 68 56 69 45 70 46 71 50 72 47 73 49 74 48 75 67 76 68 77
REMARK SMILES IDX 72 78 69 79 71 80 70 81 57 82 58 83 62 84 59 85 61 86 60 87
REMARK H PARENT 28 6 33 36 77 55 55 66
REMARK Flexibility Score: inf
ROOT
ATOM      1  C   UNL A   1      32.294  29.404  26.705  1.00  0.00     0.023 C 
ENDROOT
BRANCH   1   2
ATOM      2  C   UNL A   1      32.284  29.299  25.179  1.00  0.00     0.116 C 
BRANCH   2   3
ATOM      3  N   UNL A   1      31.081  28.633  24.734  1.00  0.00    -0.356 N 
ATOM      4  C   UNL A   1      30.880  27.506  24.003  1.00  0.00     0.226 C 
ATOM      5  O   UNL A   1      29.738  27.375  23.552  1.00  0.00    -0.274 OA
ATOM      6  H   UNL A   1      30.250  29.080  25.013  1.00  0.00     0.163 HD
BRANCH   4   7
ATOM      7  C   UNL A   1      31.951  26.396  23.840  1.00  0.00     0.052 C 
ATOM      8  C   UNL A   1      30.602  25.424  25.902  1.00  0.00     0.013 C 
ATOM      9  C   UNL A   1      31.867  25.297  25.008  1.00  0.00    -0.010 C 
ATOM     10  C   UNL A   1      33.037  25.368  25.981  1.00  0.00     0.013 C 
ATOM     11  C   UNL A   1      31.762  23.941  24.237  1.00  0.00     0.085 C 
ATOM     12  C   UNL A   1      32.195  24.186  22.806  1.00  0.00     0.015 C 
ATOM     13  C   UNL A   1      31.604  25.568  22.555  1.00  0.00     0.018 C 
ATOM     14  C   UNL A   1      33.360  26.965  23.549  1.00  0.00     0.022 C 
BRANCH  11  15
ATOM     15  C   UNL A   1      32.112  22.596  24.879  1.00  0.00     0.226 C 
ATOM     16  O   UNL A   1      31.165  22.044  25.466  1.00  0.00    -0.275 OA
ATOM     17  N   UNL A   1      33.352  21.966  24.843  1.00  0.00    -0.334 N 
BRANCH  17  18
ATOM     18  C   UNL A   1      34.500  22.249  23.953  1.00  0.00     0.155 C 
BRANCH  18  19
ATOM     19  C   UNL A   1      35.866  22.452  24.605  1.00  0.00    -0.029 A 
ATOM     20  C   UNL A   1      36.923  21.539  24.491  1.00  0.00     0.005 A 
ATOM     21  C   UNL A   1      36.123  23.627  25.338  1.00  0.00     0.005 A 
ATOM     22  C   UNL A   1      38.108  21.700  25.216  1.00  0.00     0.000 A 
ATOM     23  C   UNL A   1      37.301  23.789  26.073  1.00  0.00     0.000 A 
ATOM     24  C   UNL A   1      38.284  22.809  26.034  1.00  0.00     0.000 A 
ENDBRANCH  18  19
ENDBRANCH  17  18
BRANCH  17  25
ATOM     25  C   UNL A   1      33.369  20.680  25.556  1.00  0.00     0.155 C 
BRANCH  25  26
ATOM     26  C   UNL A   1      33.429  19.464  24.649  1.00  0.00    -0.029 A 
ATOM     27  C   UNL A   1      34.482  18.547  24.797  1.00  0.00     0.005 A 
ATOM     28  C   UNL A   1      32.473  19.220  23.652  1.00  0.00     0.005 A 
ATOM     29  C   UNL A   1      34.583  17.433  23.961  1.00  0.00     0.000 A 
ATOM     30  C   UNL A   1      32.568  18.102  22.823  1.00  0.00     0.000 A 
ATOM     31  C   UNL A   1      33.626  17.210  22.975  1.00  0.00     0.000 A 
ENDBRANCH  25  26
ENDBRANCH  17  25
ENDBRANCH  11  15
ENDBRANCH   4   7
ENDBRANCH   2   3
ENDBRANCH   1   2
BRANCH   1  32
ATOM     32  C   UNL A   1      33.506  28.736  27.363  1.00  0.00     0.023 C 
BRANCH  32  33
ATOM     33  C   UNL A   1      34.750  29.614  27.448  1.00  0.00     0.116 C 
BRANCH  33  34
ATOM     34  N   UNL A   1      34.798  30.414  28.663  1.00  0.00    -0.352 N 
ATOM     35  C   UNL A   1      35.844  30.565  29.541  1.00  0.00     0.251 C 
ATOM     36  H   UNL A   1      33.977  30.911  28.883  1.00  0.00     0.163 HD
ATOM     37  O   UNL A   1      35.704  31.188  30.584  1.00  0.00    -0.269 OA
BRANCH  35  38
ATOM     38  C   UNL A   1      37.134  29.923  29.220  1.00  0.00     0.039 A 
ATOM     39  C   UNL A   1      37.627  30.021  27.918  1.00  0.00     0.014 A 
ATOM     40  C   UNL A   1      37.873  29.286  30.220  1.00  0.00     0.014 A 
ATOM     41  C   UNL A   1      38.906  29.542  27.633  1.00  0.00     0.010 A 
ATOM     42  C   UNL A   1      39.168  28.863  29.948  1.00  0.00     0.010 A 
ATOM     43  C   UNL A   1      39.699  28.997  28.656  1.00  0.00    -0.014 A 
BRANCH  43  44
ATOM     44  C   UNL A   1      41.098  28.582  28.404  1.00  0.00     0.031 A 
ATOM     45  C   UNL A   1      41.411  27.155  28.062  1.00  0.00     0.074 A 
ATOM     46  C   UNL A   1      42.093  29.476  28.562  1.00  0.00     0.049 A 
ATOM     47  N   UNL A   1      42.576  26.587  27.883  1.00  0.00    -0.248 NA
ATOM     48  C   UNL A   1      40.265  26.241  27.929  1.00  0.00     0.031 C 
ATOM     49  C   UNL A   1      41.921  30.883  28.929  1.00  0.00     0.029 A 
ATOM     50  N   UNL A   1      43.452  29.327  28.443  1.00  0.00    -0.354 N 
ATOM     51  C   UNL A   1      42.305  25.248  27.634  1.00  0.00     0.074 A 
ATOM     52  C   UNL A   1      40.871  25.080  27.729  1.00  0.00     0.031 C 
ATOM     53  C   UNL A   1      43.125  31.474  28.978  1.00  0.00     0.029 A 
ATOM     54  C   UNL A   1      44.154  30.481  28.687  1.00  0.00     0.049 A 
ATOM     55  H   UNL A   1      43.882  28.474  28.205  1.00  0.00     0.167 HD
ATOM     56  C   UNL A   1      43.170  24.250  27.336  1.00  0.00     0.031 A 
ATOM     57  C   UNL A   1      45.480  30.712  28.684  1.00  0.00     0.031 A 
ATOM     58  C   UNL A   1      44.595  24.418  27.236  1.00  0.00     0.049 A 
ATOM     59  C   UNL A   1      46.422  29.585  28.373  1.00  0.00     0.074 A 
ATOM     60  C   UNL A   1      45.552  23.482  26.882  1.00  0.00     0.029 A 
ATOM     61  N   UNL A   1      45.268  25.602  27.494  1.00  0.00    -0.354 N 
ATOM     62  N   UNL A   1      46.147  28.337  28.077  1.00  0.00    -0.248 NA
ATOM     63  C   UNL A   1      47.857  29.900  28.391  1.00  0.00     0.031 C 
ATOM     64  C   UNL A   1      46.809  24.090  26.969  1.00  0.00     0.029 A 
ATOM     65  C   UNL A   1      46.630  25.415  27.332  1.00  0.00     0.049 A 
ATOM     66  H   UNL A   1      44.841  26.449  27.755  1.00  0.00     0.167 HD
ATOM     67  C   UNL A   1      47.371  27.723  27.853  1.00  0.00     0.074 A 
ATOM     68  C   UNL A   1      48.389  28.738  28.034  1.00  0.00     0.031 C 
ATOM     69  C   UNL A   1      47.629  26.435  27.523  1.00  0.00     0.031 A 
BRANCH  56  70
ATOM     70  C   UNL A   1      42.588  22.884  27.108  1.00  0.00    -0.014 A 
ATOM     71  C   UNL A   1      42.281  22.037  28.184  1.00  0.00     0.009 A 
ATOM     72  C   UNL A   1      42.334  22.442  25.801  1.00  0.00     0.009 A 
ATOM     73  C   UNL A   1      41.771  20.757  27.955  1.00  0.00     0.001 A 
ATOM     74  C   UNL A   1      41.798  21.173  25.576  1.00  0.00     0.001 A 
ATOM     75  C   UNL A   1      41.527  20.328  26.651  1.00  0.00     0.000 A 
ENDBRANCH  56  70
BRANCH  57  76
ATOM     76  C   UNL A   1      45.994  32.077  28.963  1.00  0.00    -0.014 A 
ATOM     77  C   UNL A   1      46.478  32.401  30.239  1.00  0.00     0.009 A 
ATOM     78  C   UNL A   1      46.013  33.057  27.959  1.00  0.00     0.009 A 
ATOM     79  C   UNL A   1      46.954  33.685  30.510  1.00  0.00     0.001 A 
ATOM     80  C   UNL A   1      46.512  34.333  28.227  1.00  0.00     0.001 A 
ATOM     81  C   UNL A   1      46.975  34.649  29.502  1.00  0.00     0.000 A 
ENDBRANCH  57  76
BRANCH  69  82
ATOM     82  C   UNL A   1      49.066  26.057  27.314  1.00  0.00    -0.014 A 
ATOM     83  C   UNL A   1      49.677  26.192  26.058  1.00  0.00     0.009 A 
ATOM     84  C   UNL A   1      49.830  25.600  28.399  1.00  0.00     0.009 A 
ATOM     85  C   UNL A   1      51.020  25.851  25.888  1.00  0.00     0.001 A 
ATOM     86  C   UNL A   1      51.179  25.283  28.231  1.00  0.00     0.001 A 
ATOM     87  C   UNL A   1      51.770  25.402  26.974  1.00  0.00     0.000 A 
ENDBRANCH  69  82
ENDBRANCH  43  44
ENDBRANCH  35  38
ENDBRANCH  33  34
ENDBRANCH  32  33
ENDBRANCH   1  32
TORSDOF 16
ENDMDL
MODEL 3
REMARK VINA RESULT:     -11.9      1.901      2.469
REMARK SMILES CC1(C)[C@H](C(=O)N(Cc2ccccc2)Cc2ccccc2)CC[C@@]1(C)C(=O)NCCCCNC(=O)c1ccc(-c2c3nc(c(-c4ccccc4)c4ccc([nH]4)c(-c4ccccc4)c4nc(c(-c5ccccc5)c5ccc2[nH]5)C=C4)C=C3)cc1
REMARK SMILES IDX 30 1 29 2 28 3 26 4 27 5 24 7 1 8 2 9 3 10 4 11 22 12 23 13
REMARK SMILES IDX 25 14 5 15 6 16 7 17 8 18 9 19 10 20 14 21 11 22 13 23 12 24
REMARK SMILES IDX 15 25 16 26 17 27 21 28 18 29 20 30 19 31 31 32 32 33 33 34
REMARK SMILES IDX 34 35 35 37 36 38 37 39 83 40 38 41 82 42 39 43 40 44 41 45
REMARK SMILES IDX 76 46 42 47 81 48 75 49 77 50 43 51 80 52 74 53 73 54 44 56
REMARK SMILES IDX 66 57 51 58 65 59 52 60 55 61 64 62 78 63 53 64 54 65 63 67
REMARK SMILES IDX 79 68 56 69 45 70 46 71 50 72 47 73 49 74 48 75 67 76 68 77
REMARK SMILES IDX 72 78 69 79 71 80 70 81 57 82 58 83 62 84 59 85 61 86 60 87
REMARK H PARENT 28 6 33 36 77 55 55 66
REMARK Flexibility Score: inf
ROOT
ATOM      1  C   UNL A   1      32.288  28.643  26.735  1.00  0.00     0.023 C 
ENDROOT
BRANCH   1   2
ATOM      2  C   UNL A   1      32.230  29.057  25.265  1.00  0.00     0.116 C 
BRANCH   2   3
ATOM      3  N   UNL A   1      31.076  28.466  24.626  1.00  0.00    -0.356 N 
ATOM      4  C   UNL A   1      30.944  27.419  23.771  1.00  0.00     0.226 C 
ATOM      5  O   UNL A   1      29.858  27.359  23.185  1.00  0.00    -0.274 OA
ATOM      6  H   UNL A   1      30.225  28.906  24.853  1.00  0.00     0.163 HD
BRANCH   4   7
ATOM      7  C   UNL A   1      32.010  26.303  23.622  1.00  0.00     0.052 C 
ATOM      8  C   UNL A   1      30.699  25.396  25.736  1.00  0.00     0.013 C 
ATOM      9  C   UNL A   1      31.947  25.240  24.824  1.00  0.00    -0.010 C 
ATOM     10  C   UNL A   1      33.135  25.339  25.773  1.00  0.00     0.013 C 
ATOM     11  C   UNL A   1      31.827  23.862  24.096  1.00  0.00     0.085 C 
ATOM     12  C   UNL A   1      32.233  24.063  22.650  1.00  0.00     0.015 C 
ATOM     13  C   UNL A   1      31.639  25.438  22.369  1.00  0.00     0.018 C 
ATOM     14  C   UNL A   1      33.414  26.862  23.288  1.00  0.00     0.022 C 
BRANCH  11  15
ATOM     15  C   UNL A   1      32.188  22.536  24.772  1.00  0.00     0.226 C 
ATOM     16  O   UNL A   1      31.238  21.976  25.346  1.00  0.00    -0.275 OA
ATOM     17  N   UNL A   1      33.440  21.930  24.777  1.00  0.00    -0.334 N 
BRANCH  17  18
ATOM     18  C   UNL A   1      34.603  22.220  23.909  1.00  0.00     0.155 C 
BRANCH  18  19
ATOM     19  C   UNL A   1      35.954  22.435  24.587  1.00  0.00    -0.029 A 
ATOM     20  C   UNL A   1      36.962  21.461  24.635  1.00  0.00     0.005 A 
ATOM     21  C   UNL A   1      36.251  23.680  25.174  1.00  0.00     0.005 A 
ATOM     22  C   UNL A   1      38.128  21.654  25.384  1.00  0.00     0.000 A 
ATOM     23  C   UNL A   1      37.410  23.875  25.932  1.00  0.00     0.000 A 
ATOM     24  C   UNL A   1      38.336  22.849  26.061  1.00  0.00     0.000 A 
ENDBRANCH  18  19
ENDBRANCH  17  18
BRANCH  17  25
ATOM     25  C   UNL A   1      33.465  20.658  25.514  1.00  0.00     0.155 C 
BRANCH  25  26
ATOM     26  C   UNL A   1      33.495  19.425  24.630  1.00  0.00    -0.029 A 
ATOM     27  C   UNL A   1      34.566  18.523  24.743  1.00  0.00     0.005 A 
ATOM     28  C   UNL A   1      32.494  19.149  23.687  1.00  0.00     0.005 A 
ATOM     29  C   UNL A   1      34.639  17.393  23.925  1.00  0.00     0.000 A 
ATOM     30  C   UNL A   1      32.561  18.014  22.877  1.00  0.00     0.000 A 
ATOM     31  C   UNL A   1      33.636  17.139  22.993  1.00  0.00     0.000 A 
ENDBRANCH  25  26
ENDBRANCH  17  25
ENDBRANCH  11  15
ENDBRANCH   4   7
ENDBRANCH   2   3
ENDBRANCH   1   2
BRANCH   1  32
ATOM     32  C   UNL A   1      33.710  28.568  27.301  1.00  0.00     0.023 C 
BRANCH  32  33
ATOM     33  C   UNL A   1      34.649  29.668  26.817  1.00  0.00     0.116 C 
BRANCH  33  34
ATOM     34  N   UNL A   1      34.255  30.992  27.275  1.00  0.00    -0.352 N 
ATOM     35  C   UNL A   1      34.821  31.751  28.271  1.00  0.00     0.251 C 
ATOM     36  H   UNL A   1      33.486  31.395  26.811  1.00  0.00     0.163 HD
ATOM     37  O   UNL A   1      34.314  32.807  28.621  1.00  0.00    -0.269 OA
BRANCH  35  38
ATOM     38  C   UNL A   1      36.034  31.244  28.941  1.00  0.00     0.039 A 
ATOM     39  C   UNL A   1      35.910  30.184  29.841  1.00  0.00     0.014 A 
ATOM     40  C   UNL A   1      37.288  31.776  28.630  1.00  0.00     0.014 A 
ATOM     41  C   UNL A   1      37.060  29.603  30.376  1.00  0.00     0.010 A 
ATOM     42  C   UNL A   1      38.433  31.158  29.117  1.00  0.00     0.010 A 
ATOM     43  C   UNL A   1      38.328  30.061  29.985  1.00  0.00    -0.014 A 
BRANCH  43  44
ATOM     44  C   UNL A   1      39.564  29.390  30.453  1.00  0.00     0.031 A 
ATOM     45  C   UNL A   1      40.281  29.896  31.670  1.00  0.00     0.074 A 
ATOM     46  C   UNL A   1      40.081  28.377  29.733  1.00  0.00     0.049 A 
ATOM     47  N   UNL A   1      41.412  29.491  32.188  1.00  0.00    -0.248 NA
ATOM     48  C   UNL A   1      39.656  31.020  32.386  1.00  0.00     0.031 C 
ATOM     49  C   UNL A   1      39.499  27.819  28.511  1.00  0.00     0.029 A 
ATOM     50  N   UNL A   1      41.224  27.641  29.922  1.00  0.00    -0.354 N 
ATOM     51  C   UNL A   1      41.644  30.321  33.277  1.00  0.00     0.074 A 
ATOM     52  C   UNL A   1      40.560  31.279  33.319  1.00  0.00     0.031 C 
ATOM     53  C   UNL A   1      40.273  26.812  28.075  1.00  0.00     0.029 A 
ATOM     54  C   UNL A   1      41.424  26.680  28.962  1.00  0.00     0.049 A 
ATOM     55  H   UNL A   1      41.841  27.788  30.675  1.00  0.00     0.167 HD
ATOM     56  C   UNL A   1      42.659  30.280  34.172  1.00  0.00     0.031 A 
ATOM     57  C   UNL A   1      42.427  25.796  28.810  1.00  0.00     0.031 A 
ATOM     58  C   UNL A   1      43.733  29.324  34.134  1.00  0.00     0.049 A 
ATOM     59  C   UNL A   1      43.553  25.784  29.802  1.00  0.00     0.074 A 
ATOM     60  C   UNL A   1      44.777  29.163  35.028  1.00  0.00     0.029 A 
ATOM     61  N   UNL A   1      43.902  28.370  33.143  1.00  0.00    -0.354 N 
ATOM     62  N   UNL A   1      43.727  26.534  30.863  1.00  0.00    -0.248 NA
ATOM     63  C   UNL A   1      44.621  24.799  29.577  1.00  0.00     0.031 C 
ATOM     64  C   UNL A   1      45.603  28.137  34.554  1.00  0.00     0.029 A 
ATOM     65  C   UNL A   1      45.047  27.632  33.389  1.00  0.00     0.049 A 
ATOM     66  H   UNL A   1      43.299  28.237  32.377  1.00  0.00     0.167 HD
ATOM     67  C   UNL A   1      44.909  26.099  31.445  1.00  0.00     0.074 A 
ATOM     68  C   UNL A   1      45.405  25.011  30.626  1.00  0.00     0.031 C 
ATOM     69  C   UNL A   1      45.528  26.557  32.560  1.00  0.00     0.031 A 
BRANCH  56  70
ATOM     70  C   UNL A   1      42.652  31.312  35.263  1.00  0.00    -0.014 A 
ATOM     71  C   UNL A   1      42.018  31.066  36.491  1.00  0.00     0.009 A 
ATOM     72  C   UNL A   1      43.294  32.543  35.066  1.00  0.00     0.009 A 
ATOM     73  C   UNL A   1      41.990  32.048  37.484  1.00  0.00     0.001 A 
ATOM     74  C   UNL A   1      43.290  33.513  36.069  1.00  0.00     0.001 A 
ATOM     75  C   UNL A   1      42.629  33.269  37.273  1.00  0.00     0.000 A 
ENDBRANCH  56  70
BRANCH  57  76
ATOM     76  C   UNL A   1      42.398  24.832  27.681  1.00  0.00    -0.014 A 
ATOM     77  C   UNL A   1      41.835  23.559  27.856  1.00  0.00     0.009 A 
ATOM     78  C   UNL A   1      42.920  25.179  26.426  1.00  0.00     0.009 A 
ATOM     79  C   UNL A   1      41.814  22.644  26.800  1.00  0.00     0.001 A 
ATOM     80  C   UNL A   1      42.875  24.271  25.366  1.00  0.00     0.001 A 
ATOM     81  C   UNL A   1      42.328  23.003  25.555  1.00  0.00     0.000 A 
ENDBRANCH  57  76
BRANCH  69  82
ATOM     82  C   UNL A   1      46.796  25.867  32.971  1.00  0.00    -0.014 A 
ATOM     83  C   UNL A   1      46.778  24.789  33.869  1.00  0.00     0.009 A 
ATOM     84  C   UNL A   1      48.020  26.275  32.418  1.00  0.00     0.009 A 
ATOM     85  C   UNL A   1      47.966  24.150  34.225  1.00  0.00     0.001 A 
ATOM     86  C   UNL A   1      49.203  25.618  32.758  1.00  0.00     0.001 A 
ATOM     87  C   UNL A   1      49.176  24.561  33.667  1.00  0.00     0.000 A 
ENDBRANCH  69  82
ENDBRANCH  43  44
ENDBRANCH  35  38
ENDBRANCH  33  34
ENDBRANCH  32  33
ENDBRANCH   1  32
TORSDOF 16
ENDMDL
