MODEL 1
REMARK VINA RESULT:     -10.6      0.000      0.000
REMARK SMILES CCC[C@@H]1SC[C@@H](C(=O)NCCCCNC(=O)c2ccc(-c3c4nc(c(-c5ccccc5)c5ccc([nH]5)c(-c5ccccc5)c5nc(c(-c6ccccc6)c6ccc3[nH]6)C=C5)C=C4)cc2)N1C(=O)C1C(C)(C)C1(C)C
REMARK SMILES IDX 12 1 11 2 10 3 8 4 9 5 7 7 4 8 5 9 66 10 6 11 3 12 2 13 1 14
REMARK SMILES IDX 67 15 68 16 69 17 70 18 73 19 71 20 72 21 74 22 75 23 13 24
REMARK SMILES IDX 14 25 15 26 16 27 17 29 18 30 19 31 65 32 20 33 64 34 21 35
REMARK SMILES IDX 22 36 23 37 58 38 24 39 63 40 57 41 59 42 25 43 62 44 56 45
REMARK SMILES IDX 55 46 26 48 48 49 33 50 47 51 34 52 37 53 46 54 60 55 35 56
REMARK SMILES IDX 36 57 45 59 61 60 38 61 27 62 28 63 32 64 29 65 31 66 30 67
REMARK SMILES IDX 49 68 50 69 54 70 51 71 53 72 52 73 39 74 40 75 44 76 41 77
REMARK SMILES IDX 43 78 42 79
REMARK H PARENT 10 6 15 28 59 47 37 58
REMARK Flexibility Score: inf
ROOT
ATOM      1  C   UNL A   1      36.430  21.770  24.119  1.00  0.00     0.023 C 
ENDROOT
BRANCH   1   2
ATOM      2  C   UNL A   1      35.761  22.888  24.908  1.00  0.00     0.116 C 
BRANCH   2   3
ATOM      3  N   UNL A   1      35.353  22.452  26.222  1.00  0.00    -0.354 N 
ATOM      4  C   UNL A   1      34.134  22.051  26.688  1.00  0.00     0.243 C 
ATOM      5  O   UNL A   1      34.149  21.450  27.770  1.00  0.00    -0.273 OA
ATOM      6  H   UNL A   1      36.073  22.444  26.894  1.00  0.00     0.163 HD
BRANCH   4   7
ATOM      7  C   UNL A   1      32.831  22.101  25.835  1.00  0.00     0.185 C 
ATOM      8  C   UNL A   1      32.328  23.574  23.887  1.00  0.00     0.144 C 
ATOM      9  S   UNL A   1      32.413  21.885  23.189  1.00  0.00    -0.134 SA
ATOM     10  N   UNL A   1      32.340  23.436  25.378  1.00  0.00    -0.318 N 
ATOM     11  C   UNL A   1      33.032  21.118  24.684  1.00  0.00     0.107 C 
BRANCH   8  12
ATOM     12  C   UNL A   1      31.175  24.249  23.129  1.00  0.00     0.036 C 
BRANCH  12  13
ATOM     13  C   UNL A   1      31.550  25.463  22.257  1.00  0.00    -0.000 C 
ATOM     14  C   UNL A   1      32.918  25.357  21.617  1.00  0.00     0.004 C 
ENDBRANCH  12  13
ENDBRANCH   8  12
BRANCH  10  15
ATOM     15  C   UNL A   1      31.997  24.287  26.485  1.00  0.00     0.228 C 
ATOM     16  O   UNL A   1      31.233  23.827  27.340  1.00  0.00    -0.274 OA
BRANCH  15  17
ATOM     17  C   UNL A   1      32.415  25.731  26.814  1.00  0.00     0.091 C 
ATOM     18  C   UNL A   1      33.198  26.703  25.960  1.00  0.00    -0.017 C 
ATOM     19  C   UNL A   1      31.610  26.914  26.314  1.00  0.00    -0.017 C 
ATOM     20  C   UNL A   1      34.126  27.770  26.561  1.00  0.00     0.012 C 
ATOM     21  C   UNL A   1      34.041  25.994  24.929  1.00  0.00     0.012 C 
ATOM     22  C   UNL A   1      30.290  26.564  25.640  1.00  0.00     0.012 C 
ATOM     23  C   UNL A   1      31.337  28.131  27.207  1.00  0.00     0.012 C 
ENDBRANCH  15  17
ENDBRANCH  10  15
ENDBRANCH   4   7
ENDBRANCH   2   3
ENDBRANCH   1   2
BRANCH   1  24
ATOM     24  C   UNL A   1      37.056  20.675  24.979  1.00  0.00     0.023 C 
BRANCH  24  25
ATOM     25  C   UNL A   1      38.407  21.027  25.593  1.00  0.00     0.116 C 
BRANCH  25  26
ATOM     26  N   UNL A   1      39.378  19.945  25.542  1.00  0.00    -0.352 N 
ATOM     27  C   UNL A   1      40.697  19.944  25.944  1.00  0.00     0.251 C 
ATOM     28  H   UNL A   1      39.049  19.095  25.169  1.00  0.00     0.163 HD
ATOM     29  O   UNL A   1      41.402  18.972  25.738  1.00  0.00    -0.269 OA
BRANCH  27  30
ATOM     30  C   UNL A   1      41.258  21.155  26.586  1.00  0.00     0.039 A 
ATOM     31  C   UNL A   1      41.815  22.144  25.774  1.00  0.00     0.014 A 
ATOM     32  C   UNL A   1      41.197  21.333  27.970  1.00  0.00     0.014 A 
ATOM     33  C   UNL A   1      42.242  23.342  26.347  1.00  0.00     0.010 A 
ATOM     34  C   UNL A   1      41.528  22.564  28.524  1.00  0.00     0.010 A 
ATOM     35  C   UNL A   1      42.061  23.580  27.722  1.00  0.00    -0.014 A 
BRANCH  35  36
ATOM     36  C   UNL A   1      42.418  24.894  28.314  1.00  0.00     0.031 A 
ATOM     37  C   UNL A   1      43.840  25.203  28.695  1.00  0.00     0.074 A 
ATOM     38  C   UNL A   1      41.447  25.805  28.531  1.00  0.00     0.049 A 
ATOM     39  N   UNL A   1      44.343  26.319  29.161  1.00  0.00    -0.248 NA
ATOM     40  C   UNL A   1      44.821  24.115  28.564  1.00  0.00     0.031 C 
ATOM     41  C   UNL A   1      40.019  25.601  28.273  1.00  0.00     0.029 A 
ATOM     42  N   UNL A   1      41.517  27.090  29.004  1.00  0.00    -0.354 N 
ATOM     43  C   UNL A   1      45.690  26.064  29.380  1.00  0.00     0.074 A 
ATOM     44  C   UNL A   1      45.914  24.671  29.064  1.00  0.00     0.031 C 
ATOM     45  C   UNL A   1      39.358  26.739  28.533  1.00  0.00     0.029 A 
ATOM     46  C   UNL A   1      40.306  27.740  29.010  1.00  0.00     0.049 A 
ATOM     47  H   UNL A   1      42.355  27.508  29.309  1.00  0.00     0.167 HD
ATOM     48  C   UNL A   1      46.662  26.916  29.782  1.00  0.00     0.031 A 
ATOM     49  C   UNL A   1      39.996  29.006  29.346  1.00  0.00     0.031 A 
ATOM     50  C   UNL A   1      46.440  28.303  30.096  1.00  0.00     0.049 A 
ATOM     51  C   UNL A   1      41.095  29.936  29.775  1.00  0.00     0.074 A 
ATOM     52  C   UNL A   1      47.367  29.265  30.458  1.00  0.00     0.029 A 
ATOM     53  N   UNL A   1      45.200  28.922  30.090  1.00  0.00    -0.354 N 
ATOM     54  N   UNL A   1      42.381  29.703  29.889  1.00  0.00    -0.248 NA
ATOM     55  C   UNL A   1      40.700  31.313  30.101  1.00  0.00     0.031 C 
ATOM     56  C   UNL A   1      46.679  30.454  30.726  1.00  0.00     0.029 A 
ATOM     57  C   UNL A   1      45.334  30.249  30.466  1.00  0.00     0.049 A 
ATOM     58  H   UNL A   1      44.350  28.485  29.854  1.00  0.00     0.167 HD
ATOM     59  C   UNL A   1      42.951  30.910  30.275  1.00  0.00     0.074 A 
ATOM     60  C   UNL A   1      41.874  31.876  30.345  1.00  0.00     0.031 C 
ATOM     61  C   UNL A   1      44.249  31.194  30.548  1.00  0.00     0.031 A 
BRANCH  48  62
ATOM     62  C   UNL A   1      48.058  26.365  29.905  1.00  0.00    -0.014 A 
ATOM     63  C   UNL A   1      48.513  25.794  31.105  1.00  0.00     0.009 A 
ATOM     64  C   UNL A   1      48.921  26.391  28.800  1.00  0.00     0.009 A 
ATOM     65  C   UNL A   1      49.814  25.298  31.207  1.00  0.00     0.001 A 
ATOM     66  C   UNL A   1      50.212  25.865  28.894  1.00  0.00     0.001 A 
ATOM     67  C   UNL A   1      50.661  25.328  30.100  1.00  0.00     0.000 A 
ENDBRANCH  48  62
BRANCH  49  68
ATOM     68  C   UNL A   1      38.591  29.482  29.251  1.00  0.00    -0.014 A 
ATOM     69  C   UNL A   1      38.096  30.020  28.052  1.00  0.00     0.009 A 
ATOM     70  C   UNL A   1      37.736  29.410  30.362  1.00  0.00     0.009 A 
ATOM     71  C   UNL A   1      36.790  30.506  27.979  1.00  0.00     0.001 A 
ATOM     72  C   UNL A   1      36.420  29.868  30.277  1.00  0.00     0.001 A 
ATOM     73  C   UNL A   1      35.951  30.426  29.089  1.00  0.00     0.000 A 
ENDBRANCH  49  68
BRANCH  61  74
ATOM     74  C   UNL A   1      44.569  32.616  30.919  1.00  0.00    -0.014 A 
ATOM     75  C   UNL A   1      44.886  33.574  29.943  1.00  0.00     0.009 A 
ATOM     76  C   UNL A   1      44.552  33.001  32.268  1.00  0.00     0.009 A 
ATOM     77  C   UNL A   1      45.236  34.874  30.317  1.00  0.00     0.001 A 
ATOM     78  C   UNL A   1      44.866  34.309  32.636  1.00  0.00     0.001 A 
ATOM     79  C   UNL A   1      45.224  35.240  31.662  1.00  0.00     0.000 A 
ENDBRANCH  61  74
ENDBRANCH  35  36
ENDBRANCH  27  30
ENDBRANCH  25  26
ENDBRANCH  24  25
ENDBRANCH   1  24
TORSDOF 15
ENDMDL
MODEL 2
REMARK VINA RESULT:     -10.4      3.278      8.364
REMARK SMILES CCC[C@@H]1SC[C@@H](C(=O)NCCCCNC(=O)c2ccc(-c3c4nc(c(-c5ccccc5)c5ccc([nH]5)c(-c5ccccc5)c5nc(c(-c6ccccc6)c6ccc3[nH]6)C=C5)C=C4)cc2)N1C(=O)C1C(C)(C)C1(C)C
REMARK SMILES IDX 12 1 11 2 10 3 8 4 9 5 7 7 4 8 5 9 66 10 6 11 3 12 2 13 1 14
REMARK SMILES IDX 67 15 68 16 69 17 70 18 73 19 71 20 72 21 74 22 75 23 13 24
REMARK SMILES IDX 14 25 15 26 16 27 17 29 18 30 19 31 65 32 20 33 64 34 21 35
REMARK SMILES IDX 22 36 23 37 58 38 24 39 63 40 57 41 59 42 25 43 62 44 56 45
REMARK SMILES IDX 55 46 26 48 48 49 33 50 47 51 34 52 37 53 46 54 60 55 35 56
REMARK SMILES IDX 36 57 45 59 61 60 38 61 27 62 28 63 32 64 29 65 31 66 30 67
REMARK SMILES IDX 49 68 50 69 54 70 51 71 53 72 52 73 39 74 40 75 44 76 41 77
REMARK SMILES IDX 43 78 42 79
REMARK H PARENT 10 6 15 28 59 47 37 58
REMARK Flexibility Score: inf
ROOT
ATOM      1  C   UNL A   1      34.538  30.553  27.712  1.00  0.00     0.023 C 
ENDROOT
BRANCH   1   2
ATOM      2  C   UNL A   1      34.477  29.068  27.379  1.00  0.00     0.116 C 
BRANCH   2   3
ATOM      3  N   UNL A   1      33.149  28.530  27.555  1.00  0.00    -0.354 N 
ATOM      4  C   UNL A   1      32.343  27.849  26.688  1.00  0.00     0.243 C 
ATOM      5  O   UNL A   1      31.389  27.253  27.205  1.00  0.00    -0.273 OA
ATOM      6  H   UNL A   1      32.760  28.680  28.446  1.00  0.00     0.163 HD
BRANCH   4   7
ATOM      7  C   UNL A   1      32.703  27.606  25.191  1.00  0.00     0.185 C 
ATOM      8  C   UNL A   1      31.322  26.486  23.443  1.00  0.00     0.144 C 
ATOM      9  S   UNL A   1      31.420  28.236  22.916  1.00  0.00    -0.134 SA
ATOM     10  N   UNL A   1      32.292  26.311  24.570  1.00  0.00    -0.318 N 
ATOM     11  C   UNL A   1      32.189  28.822  24.423  1.00  0.00     0.107 C 
BRANCH   8  12
ATOM     12  C   UNL A   1      31.417  25.682  22.138  1.00  0.00     0.036 C 
BRANCH  12  13
ATOM     13  C   UNL A   1      32.709  25.862  21.319  1.00  0.00    -0.000 C 
ATOM     14  C   UNL A   1      32.574  25.456  19.867  1.00  0.00     0.004 C 
ENDBRANCH  12  13
ENDBRANCH   8  12
BRANCH  10  15
ATOM     15  C   UNL A   1      32.924  25.188  25.208  1.00  0.00     0.228 C 
ATOM     16  O   UNL A   1      32.261  24.557  26.038  1.00  0.00    -0.274 OA
BRANCH  15  17
ATOM     17  C   UNL A   1      34.340  24.604  25.049  1.00  0.00     0.091 C 
ATOM     18  C   UNL A   1      34.966  23.439  25.782  1.00  0.00    -0.017 C 
ATOM     19  C   UNL A   1      34.593  23.385  24.185  1.00  0.00    -0.017 C 
ATOM     20  C   UNL A   1      36.472  23.364  26.082  1.00  0.00     0.012 C 
ATOM     21  C   UNL A   1      34.295  23.183  27.109  1.00  0.00     0.012 C 
ATOM     22  C   UNL A   1      33.402  22.912  23.363  1.00  0.00     0.012 C 
ATOM     23  C   UNL A   1      35.821  23.292  23.271  1.00  0.00     0.012 C 
ENDBRANCH  15  17
ENDBRANCH  10  15
ENDBRANCH   4   7
ENDBRANCH   2   3
ENDBRANCH   1   2
BRANCH   1  24
ATOM     24  C   UNL A   1      33.193  31.272  27.645  1.00  0.00     0.023 C 
BRANCH  24  25
ATOM     25  C   UNL A   1      33.232  32.662  27.022  1.00  0.00     0.116 C 
BRANCH  25  26
ATOM     26  N   UNL A   1      32.696  33.709  27.878  1.00  0.00    -0.352 N 
ATOM     27  C   UNL A   1      33.248  34.271  29.010  1.00  0.00     0.251 C 
ATOM     28  H   UNL A   1      31.816  34.065  27.615  1.00  0.00     0.163 HD
ATOM     29  O   UNL A   1      32.613  35.076  29.669  1.00  0.00    -0.269 OA
BRANCH  27  30
ATOM     30  C   UNL A   1      34.602  33.851  29.440  1.00  0.00     0.039 A 
ATOM     31  C   UNL A   1      34.719  33.005  30.544  1.00  0.00     0.014 A 
ATOM     32  C   UNL A   1      35.740  34.252  28.736  1.00  0.00     0.014 A 
ATOM     33  C   UNL A   1      35.972  32.504  30.893  1.00  0.00     0.010 A 
ATOM     34  C   UNL A   1      36.970  33.671  29.023  1.00  0.00     0.010 A 
ATOM     35  C   UNL A   1      37.103  32.797  30.109  1.00  0.00    -0.014 A 
BRANCH  35  36
ATOM     36  C   UNL A   1      38.417  32.180  30.418  1.00  0.00     0.031 A 
ATOM     37  C   UNL A   1      39.360  32.831  31.393  1.00  0.00     0.074 A 
ATOM     38  C   UNL A   1      38.771  31.037  29.797  1.00  0.00     0.049 A 
ATOM     39  N   UNL A   1      40.517  32.400  31.832  1.00  0.00    -0.248 NA
ATOM     40  C   UNL A   1      38.972  34.147  31.925  1.00  0.00     0.031 C 
ATOM     41  C   UNL A   1      37.978  30.345  28.777  1.00  0.00     0.029 A 
ATOM     42  N   UNL A   1      39.883  30.247  29.943  1.00  0.00    -0.354 N 
ATOM     43  C   UNL A   1      40.991  33.390  32.681  1.00  0.00     0.074 A 
ATOM     44  C   UNL A   1      40.034  34.473  32.645  1.00  0.00     0.031 C 
ATOM     45  C   UNL A   1      38.600  29.205  28.435  1.00  0.00     0.029 A 
ATOM     46  C   UNL A   1      39.849  29.103  29.181  1.00  0.00     0.049 A 
ATOM     47  H   UNL A   1      40.634  30.477  30.537  1.00  0.00     0.167 HD
ATOM     48  C   UNL A   1      42.108  33.390  33.447  1.00  0.00     0.031 A 
ATOM     49  C   UNL A   1      40.718  28.079  29.104  1.00  0.00     0.031 A 
ATOM     50  C   UNL A   1      43.060  32.312  33.484  1.00  0.00     0.049 A 
ATOM     51  C   UNL A   1      41.944  28.097  29.974  1.00  0.00     0.074 A 
ATOM     52  C   UNL A   1      44.195  32.189  34.267  1.00  0.00     0.029 A 
ATOM     53  N   UNL A   1      42.990  31.172  32.699  1.00  0.00    -0.354 N 
ATOM     54  N   UNL A   1      42.331  29.000  30.842  1.00  0.00    -0.248 NA
ATOM     55  C   UNL A   1      42.840  26.938  29.867  1.00  0.00     0.031 C 
ATOM     56  C   UNL A   1      44.841  30.999  33.914  1.00  0.00     0.029 A 
ATOM     57  C   UNL A   1      44.074  30.350  32.960  1.00  0.00     0.049 A 
ATOM     58  H   UNL A   1      42.275  30.975  32.051  1.00  0.00     0.167 HD
ATOM     59  C   UNL A   1      43.502  28.506  31.404  1.00  0.00     0.074 A 
ATOM     60  C   UNL A   1      43.742  27.212  30.798  1.00  0.00     0.031 C 
ATOM     61  C   UNL A   1      44.308  29.073  32.336  1.00  0.00     0.031 A 
BRANCH  48  62
ATOM     62  C   UNL A   1      42.358  34.601  34.307  1.00  0.00    -0.014 A 
ATOM     63  C   UNL A   1      41.897  34.662  35.632  1.00  0.00     0.009 A 
ATOM     64  C   UNL A   1      43.087  35.684  33.794  1.00  0.00     0.009 A 
ATOM     65  C   UNL A   1      42.126  35.797  36.412  1.00  0.00     0.001 A 
ATOM     66  C   UNL A   1      43.343  36.806  34.587  1.00  0.00     0.001 A 
ATOM     67  C   UNL A   1      42.854  36.866  35.891  1.00  0.00     0.000 A 
ENDBRANCH  48  62
BRANCH  49  68
ATOM     68  C   UNL A   1      40.443  26.931  28.200  1.00  0.00    -0.014 A 
ATOM     69  C   UNL A   1      39.664  25.848  28.635  1.00  0.00     0.009 A 
ATOM     70  C   UNL A   1      40.968  26.906  26.898  1.00  0.00     0.009 A 
ATOM     71  C   UNL A   1      39.443  24.752  27.799  1.00  0.00     0.001 A 
ATOM     72  C   UNL A   1      40.720  25.823  26.053  1.00  0.00     0.001 A 
ATOM     73  C   UNL A   1      39.967  24.742  26.508  1.00  0.00     0.000 A 
ENDBRANCH  49  68
BRANCH  61  74
ATOM     74  C   UNL A   1      45.506  28.275  32.772  1.00  0.00    -0.014 A 
ATOM     75  C   UNL A   1      46.747  28.409  32.130  1.00  0.00     0.009 A 
ATOM     76  C   UNL A   1      45.389  27.375  33.842  1.00  0.00     0.009 A 
ATOM     77  C   UNL A   1      47.830  27.615  32.515  1.00  0.00     0.001 A 
ATOM     78  C   UNL A   1      46.482  26.610  34.248  1.00  0.00     0.001 A 
ATOM     79  C   UNL A   1      47.697  26.719  33.574  1.00  0.00     0.000 A 
ENDBRANCH  61  74
ENDBRANCH  35  36
ENDBRANCH  27  30
ENDBRANCH  25  26
ENDBRANCH  24  25
ENDBRANCH   1  24
TORSDOF 15
ENDMDL
MODEL 3
REMARK VINA RESULT:     -10.3      1.405      6.489
REMARK SMILES CCC[C@@H]1SC[C@@H](C(=O)NCCCCNC(=O)c2ccc(-c3c4nc(c(-c5ccccc5)c5ccc([nH]5)c(-c5ccccc5)c5nc(c(-c6ccccc6)c6ccc3[nH]6)C=C5)C=C4)cc2)N1C(=O)C1C(C)(C)C1(C)C
REMARK SMILES IDX 12 1 11 2 10 3 8 4 9 5 7 7 4 8 5 9 66 10 6 11 3 12 2 13 1 14
REMARK SMILES IDX 67 15 68 16 69 17 70 18 73 19 71 20 72 21 74 22 75 23 13 24
REMARK SMILES IDX 14 25 15 26 16 27 17 29 18 30 19 31 65 32 20 33 64 34 21 35
REMARK SMILES IDX 22 36 23 37 58 38 24 39 63 40 57 41 59 42 25 43 62 44 56 45
REMARK SMILES IDX 55 46 26 48 48 49 33 50 47 51 34 52 37 53 46 54 60 55 35 56
REMARK SMILES IDX 36 57 45 59 61 60 38 61 27 62 28 63 32 64 29 65 31 66 30 67
REMARK SMILES IDX 49 68 50 69 54 70 51 71 53 72 52 73 39 74 40 75 44 76 41 77
REMARK SMILES IDX 43 78 42 79
REMARK H PARENT 10 6 15 28 59 47 37 58
REMARK Flexibility Score: inf
ROOT
ATOM      1  C   UNL A   1      37.073  21.469  24.336  1.00  0.00     0.023 C 
ENDROOT
BRANCH   1   2
ATOM      2  C   UNL A   1      37.201  22.754  25.143  1.00  0.00     0.116 C 
BRANCH   2   3
ATOM      3  N   UNL A   1      36.243  22.812  26.222  1.00  0.00    -0.354 N 
ATOM      4  C   UNL A   1      35.036  23.443  26.307  1.00  0.00     0.243 C 
ATOM      5  O   UNL A   1      34.304  23.070  27.234  1.00  0.00    -0.273 OA
ATOM      6  H   UNL A   1      36.506  22.314  27.030  1.00  0.00     0.163 HD
BRANCH   4   7
ATOM      7  C   UNL A   1      34.479  24.384  25.197  1.00  0.00     0.185 C 
ATOM      8  C   UNL A   1      32.102  24.725  24.524  1.00  0.00     0.144 C 
ATOM      9  S   UNL A   1      32.616  26.320  25.259  1.00  0.00    -0.134 SA
ATOM     10  N   UNL A   1      33.338  23.894  24.366  1.00  0.00    -0.318 N 
ATOM     11  C   UNL A   1      34.188  25.721  25.874  1.00  0.00     0.107 C 
BRANCH   8  12
ATOM     12  C   UNL A   1      31.211  25.114  23.336  1.00  0.00     0.036 C 
BRANCH  12  13
ATOM     13  C   UNL A   1      30.494  26.474  23.438  1.00  0.00    -0.000 C 
ATOM     14  C   UNL A   1      29.073  26.379  23.953  1.00  0.00     0.004 C 
ENDBRANCH  12  13
ENDBRANCH   8  12
BRANCH  10  15
ATOM     15  C   UNL A   1      33.693  22.726  23.607  1.00  0.00     0.228 C 
ATOM     16  O   UNL A   1      34.325  22.898  22.559  1.00  0.00    -0.274 OA
BRANCH  15  17
ATOM     17  C   UNL A   1      33.413  21.234  23.863  1.00  0.00     0.091 C 
ATOM     18  C   UNL A   1      32.339  20.611  24.725  1.00  0.00    -0.017 C 
ATOM     19  C   UNL A   1      32.340  20.494  23.089  1.00  0.00    -0.017 C 
ATOM     20  C   UNL A   1      32.537  19.273  25.455  1.00  0.00     0.012 C 
ATOM     21  C   UNL A   1      31.851  21.563  25.790  1.00  0.00     0.012 C 
ATOM     22  C   UNL A   1      31.710  21.274  21.943  1.00  0.00     0.012 C 
ATOM     23  C   UNL A   1      32.563  19.066  22.576  1.00  0.00     0.012 C 
ENDBRANCH  15  17
ENDBRANCH  10  15
ENDBRANCH   4   7
ENDBRANCH   2   3
ENDBRANCH   1   2
BRANCH   1  24
ATOM     24  C   UNL A   1      37.753  20.256  24.966  1.00  0.00     0.023 C 
BRANCH  24  25
ATOM     25  C   UNL A   1      38.994  20.567  25.795  1.00  0.00     0.116 C 
BRANCH  25  26
ATOM     26  N   UNL A   1      39.971  19.490  25.822  1.00  0.00    -0.352 N 
ATOM     27  C   UNL A   1      41.309  19.541  26.154  1.00  0.00     0.251 C 
ATOM     28  H   UNL A   1      39.632  18.601  25.568  1.00  0.00     0.163 HD
ATOM     29  O   UNL A   1      42.012  18.554  26.027  1.00  0.00    -0.269 OA
BRANCH  27  30
ATOM     30  C   UNL A   1      41.891  20.821  26.620  1.00  0.00     0.039 A 
ATOM     31  C   UNL A   1      42.384  21.716  25.669  1.00  0.00     0.014 A 
ATOM     32  C   UNL A   1      41.910  21.154  27.976  1.00  0.00     0.014 A 
ATOM     33  C   UNL A   1      42.827  22.974  26.076  1.00  0.00     0.010 A 
ATOM     34  C   UNL A   1      42.256  22.442  28.367  1.00  0.00     0.010 A 
ATOM     35  C   UNL A   1      42.726  23.365  27.423  1.00  0.00    -0.014 A 
BRANCH  35  36
ATOM     36  C   UNL A   1      43.099  24.740  27.841  1.00  0.00     0.031 A 
ATOM     37  C   UNL A   1      42.041  25.781  28.087  1.00  0.00     0.074 A 
ATOM     38  C   UNL A   1      44.403  25.057  27.974  1.00  0.00     0.049 A 
ATOM     39  N   UNL A   1      42.180  27.009  28.520  1.00  0.00    -0.248 NA
ATOM     40  C   UNL A   1      40.650  25.408  27.785  1.00  0.00     0.031 C 
ATOM     41  C   UNL A   1      45.527  24.160  27.695  1.00  0.00     0.029 A 
ATOM     42  N   UNL A   1      45.002  26.217  28.395  1.00  0.00    -0.354 N 
ATOM     43  C   UNL A   1      40.902  27.552  28.535  1.00  0.00     0.074 A 
ATOM     44  C   UNL A   1      40.009  26.546  28.005  1.00  0.00     0.031 C 
ATOM     45  C   UNL A   1      46.675  24.782  28.008  1.00  0.00     0.029 A 
ATOM     46  C   UNL A   1      46.371  26.131  28.475  1.00  0.00     0.049 A 
ATOM     47  H   UNL A   1      44.499  27.034  28.618  1.00  0.00     0.167 HD
ATOM     48  C   UNL A   1      40.499  28.767  28.977  1.00  0.00     0.031 A 
ATOM     49  C   UNL A   1      47.280  27.030  28.893  1.00  0.00     0.031 A 
ATOM     50  C   UNL A   1      41.388  29.767  29.506  1.00  0.00     0.049 A 
ATOM     51  C   UNL A   1      46.806  28.367  29.391  1.00  0.00     0.074 A 
ATOM     52  C   UNL A   1      41.075  31.009  30.032  1.00  0.00     0.029 A 
ATOM     53  N   UNL A   1      42.767  29.641  29.571  1.00  0.00    -0.354 N 
ATOM     54  N   UNL A   1      45.583  28.830  29.486  1.00  0.00    -0.248 NA
ATOM     55  C   UNL A   1      47.843  29.296  29.862  1.00  0.00     0.031 C 
ATOM     56  C   UNL A   1      42.270  31.657  30.363  1.00  0.00     0.029 A 
ATOM     57  C   UNL A   1      43.322  30.792  30.105  1.00  0.00     0.049 A 
ATOM     58  H   UNL A   1      43.277  28.851  29.280  1.00  0.00     0.167 HD
ATOM     59  C   UNL A   1      45.701  30.094  30.051  1.00  0.00     0.074 A 
ATOM     60  C   UNL A   1      47.111  30.309  30.303  1.00  0.00     0.031 C 
ATOM     61  C   UNL A   1      44.729  30.997  30.334  1.00  0.00     0.031 A 
BRANCH  48  62
ATOM     62  C   UNL A   1      39.028  29.077  28.903  1.00  0.00    -0.014 A 
ATOM     63  C   UNL A   1      38.171  28.812  29.984  1.00  0.00     0.009 A 
ATOM     64  C   UNL A   1      38.495  29.668  27.747  1.00  0.00     0.009 A 
ATOM     65  C   UNL A   1      36.807  29.095  29.894  1.00  0.00     0.001 A 
ATOM     66  C   UNL A   1      37.135  29.980  27.672  1.00  0.00     0.001 A 
ATOM     67  C   UNL A   1      36.291  29.684  28.741  1.00  0.00     0.000 A 
ENDBRANCH  48  62
BRANCH  49  68
ATOM     68  C   UNL A   1      48.726  26.685  28.899  1.00  0.00    -0.014 A 
ATOM     69  C   UNL A   1      49.522  26.917  27.767  1.00  0.00     0.009 A 
ATOM     70  C   UNL A   1      49.318  26.111  30.035  1.00  0.00     0.009 A 
ATOM     71  C   UNL A   1      50.870  26.552  27.760  1.00  0.00     0.001 A 
ATOM     72  C   UNL A   1      50.674  25.776  30.037  1.00  0.00     0.001 A 
ATOM     73  C   UNL A   1      51.446  25.986  28.896  1.00  0.00     0.000 A 
ENDBRANCH  49  68
BRANCH  61  74
ATOM     74  C   UNL A   1      45.167  32.285  30.976  1.00  0.00    -0.014 A 
ATOM     75  C   UNL A   1      45.244  32.420  32.371  1.00  0.00     0.009 A 
ATOM     76  C   UNL A   1      45.508  33.382  30.168  1.00  0.00     0.009 A 
ATOM     77  C   UNL A   1      45.598  33.644  32.944  1.00  0.00     0.001 A 
ATOM     78  C   UNL A   1      45.895  34.591  30.742  1.00  0.00     0.001 A 
ATOM     79  C   UNL A   1      45.924  34.727  32.130  1.00  0.00     0.000 A 
ENDBRANCH  61  74
ENDBRANCH  35  36
ENDBRANCH  27  30
ENDBRANCH  25  26
ENDBRANCH  24  25
ENDBRANCH   1  24
TORSDOF 15
ENDMDL
