MODEL 1
REMARK VINA RESULT:      -9.5      0.000      0.000
REMARK SMILES CN(C)C(=O)CC(C)(C)CC(=O)NCCCCNC(=O)c1ccc(-c2c3nc(c(-c4ccccc4)c4ccc([nH]4)c(-c4ccccc4)c4nc(c(-c5ccccc5)c5ccc2[nH]5)C=C4)C=C3)cc1
REMARK SMILES IDX 15 1 14 2 13 3 11 4 12 5 10 7 7 8 8 9 9 10 6 11 4 12 1 13
REMARK SMILES IDX 2 14 3 15 5 16 16 17 17 18 18 19 19 20 20 22 21 23 22 24
REMARK SMILES IDX 68 25 23 26 67 27 24 28 25 29 26 30 61 31 27 32 66 33 60 34
REMARK SMILES IDX 62 35 28 36 65 37 59 38 58 39 29 41 51 42 36 43 50 44 37 45
REMARK SMILES IDX 40 46 49 47 63 48 38 49 39 50 48 52 64 53 41 54 30 55 31 56
REMARK SMILES IDX 35 57 32 58 34 59 33 60 52 61 53 62 57 63 54 64 56 65 55 66
REMARK SMILES IDX 42 67 43 68 47 69 44 70 46 71 45 72
REMARK H PARENT 13 6 18 21 62 40 40 51
REMARK Flexibility Score: inf
ROOT
ATOM      1  C   UNL A   1      31.706  28.605  25.815  1.00  0.00     0.023 C 
ENDROOT
BRANCH   1   2
ATOM      2  C   UNL A   1      31.023  27.306  25.391  1.00  0.00     0.116 C 
BRANCH   2   3
ATOM      3  N   UNL A   1      31.220  26.295  26.402  1.00  0.00    -0.356 N 
ATOM      4  C   UNL A   1      31.466  24.964  26.261  1.00  0.00     0.220 C 
ATOM      5  O   UNL A   1      31.429  24.277  27.280  1.00  0.00    -0.275 OA
ATOM      6  H   UNL A   1      31.170  26.614  27.331  1.00  0.00     0.163 HD
BRANCH   4   7
ATOM      7  C   UNL A   1      31.836  24.380  24.905  1.00  0.00     0.107 C 
BRANCH   7   8
ATOM      8  C   UNL A   1      33.315  24.447  24.427  1.00  0.00    -0.018 C 
ATOM      9  C   UNL A   1      34.177  24.611  25.697  1.00  0.00     0.012 C 
ATOM     10  C   UNL A   1      33.615  25.685  23.566  1.00  0.00     0.012 C 
BRANCH   8  11
ATOM     11  C   UNL A   1      33.715  23.209  23.580  1.00  0.00     0.107 C 
BRANCH  11  12
ATOM     12  C   UNL A   1      34.382  22.084  24.351  1.00  0.00     0.222 C 
ATOM     13  C   UNL A   1      36.372  20.920  25.116  1.00  0.00     0.146 C 
ATOM     14  N   UNL A   1      35.763  21.968  24.314  1.00  0.00    -0.349 N 
ATOM     15  C   UNL A   1      36.682  22.750  23.502  1.00  0.00     0.146 C 
ATOM     16  O   UNL A   1      33.687  21.310  25.012  1.00  0.00    -0.275 OA
ENDBRANCH  11  12
ENDBRANCH   8  11
ENDBRANCH   7   8
ENDBRANCH   4   7
ENDBRANCH   2   3
ENDBRANCH   1   2
BRANCH   1  17
ATOM     17  C   UNL A   1      33.223  28.529  25.895  1.00  0.00     0.023 C 
BRANCH  17  18
ATOM     18  C   UNL A   1      33.784  28.674  27.295  1.00  0.00     0.116 C 
BRANCH  18  19
ATOM     19  N   UNL A   1      33.752  30.043  27.792  1.00  0.00    -0.352 N 
ATOM     20  C   UNL A   1      34.760  30.747  28.405  1.00  0.00     0.251 C 
ATOM     21  H   UNL A   1      32.900  30.523  27.675  1.00  0.00     0.163 HD
ATOM     22  O   UNL A   1      34.561  31.859  28.872  1.00  0.00    -0.269 OA
BRANCH  20  23
ATOM     23  C   UNL A   1      36.083  30.106  28.524  1.00  0.00     0.039 A 
ATOM     24  C   UNL A   1      36.975  30.189  27.455  1.00  0.00     0.014 A 
ATOM     25  C   UNL A   1      36.465  29.515  29.731  1.00  0.00     0.014 A 
ATOM     26  C   UNL A   1      38.282  29.735  27.622  1.00  0.00     0.010 A 
ATOM     27  C   UNL A   1      37.791  29.160  29.928  1.00  0.00     0.010 A 
ATOM     28  C   UNL A   1      38.709  29.252  28.871  1.00  0.00    -0.014 A 
BRANCH  28  29
ATOM     29  C   UNL A   1      40.103  28.802  29.089  1.00  0.00     0.031 A 
ATOM     30  C   UNL A   1      41.094  29.743  29.718  1.00  0.00     0.074 A 
ATOM     31  C   UNL A   1      40.494  27.587  28.659  1.00  0.00     0.049 A 
ATOM     32  N   UNL A   1      42.373  29.571  29.936  1.00  0.00    -0.248 NA
ATOM     33  C   UNL A   1      40.591  31.068  30.118  1.00  0.00     0.031 C 
ATOM     34  C   UNL A   1      39.645  26.611  27.972  1.00  0.00     0.029 A 
ATOM     35  N   UNL A   1      41.716  26.969  28.733  1.00  0.00    -0.354 N 
ATOM     36  C   UNL A   1      42.828  30.773  30.461  1.00  0.00     0.074 A 
ATOM     37  C   UNL A   1      41.706  31.684  30.480  1.00  0.00     0.031 C 
ATOM     38  C   UNL A   1      40.364  25.506  27.717  1.00  0.00     0.029 A 
ATOM     39  C   UNL A   1      41.727  25.705  28.195  1.00  0.00     0.049 A 
ATOM     40  H   UNL A   1      42.510  27.392  29.133  1.00  0.00     0.167 HD
ATOM     41  C   UNL A   1      44.064  31.086  30.913  1.00  0.00     0.031 A 
ATOM     42  C   UNL A   1      42.727  24.808  28.105  1.00  0.00     0.031 A 
ATOM     43  C   UNL A   1      45.166  30.165  30.938  1.00  0.00     0.049 A 
ATOM     44  C   UNL A   1      44.075  25.157  28.671  1.00  0.00     0.074 A 
ATOM     45  C   UNL A   1      46.437  30.354  31.449  1.00  0.00     0.029 A 
ATOM     46  N   UNL A   1      45.120  28.874  30.436  1.00  0.00    -0.354 N 
ATOM     47  N   UNL A   1      44.470  26.271  29.238  1.00  0.00    -0.248 NA
ATOM     48  C   UNL A   1      45.110  24.116  28.601  1.00  0.00     0.031 C 
ATOM     49  C   UNL A   1      47.172  29.185  31.228  1.00  0.00     0.029 A 
ATOM     50  C   UNL A   1      46.345  28.257  30.618  1.00  0.00     0.049 A 
ATOM     51  H   UNL A   1      44.334  28.459  30.014  1.00  0.00     0.167 HD
ATOM     52  C   UNL A   1      45.787  26.056  29.618  1.00  0.00     0.074 A 
ATOM     53  C   UNL A   1      46.119  24.699  29.231  1.00  0.00     0.031 C 
ATOM     54  C   UNL A   1      46.648  26.905  30.231  1.00  0.00     0.031 A 
BRANCH  41  55
ATOM     55  C   UNL A   1      44.278  32.483  31.424  1.00  0.00    -0.014 A 
ATOM     56  C   UNL A   1      44.689  33.515  30.566  1.00  0.00     0.009 A 
ATOM     57  C   UNL A   1      44.051  32.772  32.777  1.00  0.00     0.009 A 
ATOM     58  C   UNL A   1      44.907  34.802  31.063  1.00  0.00     0.001 A 
ATOM     59  C   UNL A   1      44.240  34.067  33.265  1.00  0.00     0.001 A 
ATOM     60  C   UNL A   1      44.678  35.077  32.410  1.00  0.00     0.000 A 
ENDBRANCH  41  55
BRANCH  42  61
ATOM     61  C   UNL A   1      42.484  23.478  27.490  1.00  0.00    -0.014 A 
ATOM     62  C   UNL A   1      41.963  22.425  28.258  1.00  0.00     0.009 A 
ATOM     63  C   UNL A   1      42.778  23.250  26.138  1.00  0.00     0.009 A 
ATOM     64  C   UNL A   1      41.771  21.163  27.693  1.00  0.00     0.001 A 
ATOM     65  C   UNL A   1      42.561  21.993  25.568  1.00  0.00     0.001 A 
ATOM     66  C   UNL A   1      42.067  20.949  26.348  1.00  0.00     0.000 A 
ENDBRANCH  42  61
BRANCH  54  67
ATOM     67  C   UNL A   1      48.014  26.375  30.554  1.00  0.00    -0.014 A 
ATOM     68  C   UNL A   1      48.284  25.759  31.785  1.00  0.00     0.009 A 
ATOM     69  C   UNL A   1      49.035  26.461  29.593  1.00  0.00     0.009 A 
ATOM     70  C   UNL A   1      49.562  25.270  32.061  1.00  0.00     0.001 A 
ATOM     71  C   UNL A   1      50.303  25.947  29.863  1.00  0.00     0.001 A 
ATOM     72  C   UNL A   1      50.568  25.360  31.099  1.00  0.00     0.000 A 
ENDBRANCH  54  67
ENDBRANCH  28  29
ENDBRANCH  20  23
ENDBRANCH  18  19
ENDBRANCH  17  18
ENDBRANCH   1  17
TORSDOF 14
ENDMDL
MODEL 2
REMARK VINA RESULT:      -9.5      2.312      7.871
REMARK SMILES CN(C)C(=O)CC(C)(C)CC(=O)NCCCCNC(=O)c1ccc(-c2c3nc(c(-c4ccccc4)c4ccc([nH]4)c(-c4ccccc4)c4nc(c(-c5ccccc5)c5ccc2[nH]5)C=C4)C=C3)cc1
REMARK SMILES IDX 15 1 14 2 13 3 11 4 12 5 10 7 7 8 8 9 9 10 6 11 4 12 1 13
REMARK SMILES IDX 2 14 3 15 5 16 16 17 17 18 18 19 19 20 20 22 21 23 22 24
REMARK SMILES IDX 68 25 23 26 67 27 24 28 25 29 26 30 61 31 27 32 66 33 60 34
REMARK SMILES IDX 62 35 28 36 65 37 59 38 58 39 29 41 51 42 36 43 50 44 37 45
REMARK SMILES IDX 40 46 49 47 63 48 38 49 39 50 48 52 64 53 41 54 30 55 31 56
REMARK SMILES IDX 35 57 32 58 34 59 33 60 52 61 53 62 57 63 54 64 56 65 55 66
REMARK SMILES IDX 42 67 43 68 47 69 44 70 46 71 45 72
REMARK H PARENT 13 6 18 21 62 40 40 51
REMARK Flexibility Score: inf
ROOT
ATOM      1  C   UNL A   1      35.145  22.114  26.187  1.00  0.00     0.023 C 
ENDROOT
BRANCH   1   2
ATOM      2  C   UNL A   1      33.822  22.186  25.427  1.00  0.00     0.116 C 
BRANCH   2   3
ATOM      3  N   UNL A   1      32.752  22.525  26.335  1.00  0.00    -0.356 N 
ATOM      4  C   UNL A   1      31.849  23.541  26.271  1.00  0.00     0.220 C 
ATOM      5  O   UNL A   1      31.138  23.720  27.259  1.00  0.00    -0.275 OA
ATOM      6  H   UNL A   1      32.661  21.933  27.116  1.00  0.00     0.163 HD
BRANCH   4   7
ATOM      7  C   UNL A   1      31.693  24.366  25.002  1.00  0.00     0.107 C 
BRANCH   7   8
ATOM      8  C   UNL A   1      32.609  25.603  24.783  1.00  0.00    -0.018 C 
ATOM      9  C   UNL A   1      31.763  26.643  24.017  1.00  0.00     0.012 C 
ATOM     10  C   UNL A   1      33.815  25.309  23.875  1.00  0.00     0.012 C 
BRANCH   8  11
ATOM     11  C   UNL A   1      33.181  26.154  26.116  1.00  0.00     0.107 C 
BRANCH  11  12
ATOM     12  C   UNL A   1      32.400  27.301  26.733  1.00  0.00     0.222 C 
ATOM     13  C   UNL A   1      32.144  29.661  27.250  1.00  0.00     0.146 C 
ATOM     14  N   UNL A   1      32.946  28.576  26.710  1.00  0.00    -0.349 N 
ATOM     15  C   UNL A   1      34.277  28.947  26.256  1.00  0.00     0.146 C 
ATOM     16  O   UNL A   1      31.290  27.083  27.220  1.00  0.00    -0.275 OA
ENDBRANCH  11  12
ENDBRANCH   8  11
ENDBRANCH   7   8
ENDBRANCH   4   7
ENDBRANCH   2   3
ENDBRANCH   1   2
BRANCH   1  17
ATOM     17  C   UNL A   1      35.930  23.415  26.222  1.00  0.00     0.023 C 
BRANCH  17  18
ATOM     18  C   UNL A   1      37.025  23.515  25.178  1.00  0.00     0.116 C 
BRANCH  18  19
ATOM     19  N   UNL A   1      38.153  22.631  25.437  1.00  0.00    -0.352 N 
ATOM     20  C   UNL A   1      39.307  22.908  26.129  1.00  0.00     0.251 C 
ATOM     21  H   UNL A   1      38.079  21.720  25.068  1.00  0.00     0.163 HD
ATOM     22  O   UNL A   1      40.224  22.101  26.179  1.00  0.00    -0.269 OA
BRANCH  20  23
ATOM     23  C   UNL A   1      39.428  24.226  26.780  1.00  0.00     0.039 A 
ATOM     24  C   UNL A   1      38.942  24.390  28.077  1.00  0.00     0.014 A 
ATOM     25  C   UNL A   1      40.112  25.261  26.135  1.00  0.00     0.014 A 
ATOM     26  C   UNL A   1      39.203  25.578  28.756  1.00  0.00     0.010 A 
ATOM     27  C   UNL A   1      40.459  26.397  26.849  1.00  0.00     0.010 A 
ATOM     28  C   UNL A   1      39.995  26.574  28.161  1.00  0.00    -0.014 A 
BRANCH  28  29
ATOM     29  C   UNL A   1      40.324  27.829  28.876  1.00  0.00     0.031 A 
ATOM     30  C   UNL A   1      41.656  27.961  29.563  1.00  0.00     0.074 A 
ATOM     31  C   UNL A   1      39.407  28.812  28.970  1.00  0.00     0.049 A 
ATOM     32  N   UNL A   1      42.113  28.945  30.296  1.00  0.00    -0.248 NA
ATOM     33  C   UNL A   1      42.581  26.822  29.446  1.00  0.00     0.031 C 
ATOM     34  C   UNL A   1      38.055  28.773  28.407  1.00  0.00     0.029 A 
ATOM     35  N   UNL A   1      39.476  30.035  29.586  1.00  0.00    -0.354 N 
ATOM     36  C   UNL A   1      43.355  28.525  30.752  1.00  0.00     0.074 A 
ATOM     37  C   UNL A   1      43.559  27.181  30.262  1.00  0.00     0.031 C 
ATOM     38  C   UNL A   1      37.436  29.934  28.675  1.00  0.00     0.029 A 
ATOM     39  C   UNL A   1      38.332  30.783  29.451  1.00  0.00     0.049 A 
ATOM     40  H   UNL A   1      40.270  30.348  30.077  1.00  0.00     0.167 HD
ATOM     41  C   UNL A   1      44.260  29.206  31.493  1.00  0.00     0.031 A 
ATOM     42  C   UNL A   1      38.045  32.019  29.900  1.00  0.00     0.031 A 
ATOM     43  C   UNL A   1      44.076  30.558  31.939  1.00  0.00     0.049 A 
ATOM     44  C   UNL A   1      39.090  32.780  30.667  1.00  0.00     0.074 A 
ATOM     45  C   UNL A   1      44.963  31.369  32.625  1.00  0.00     0.029 A 
ATOM     46  N   UNL A   1      42.926  31.302  31.733  1.00  0.00    -0.354 N 
ATOM     47  N   UNL A   1      40.293  32.399  31.023  1.00  0.00    -0.248 NA
ATOM     48  C   UNL A   1      38.744  34.148  31.077  1.00  0.00     0.031 C 
ATOM     49  C   UNL A   1      44.336  32.596  32.862  1.00  0.00     0.029 A 
ATOM     50  C   UNL A   1      43.076  32.561  32.286  1.00  0.00     0.049 A 
ATOM     51  H   UNL A   1      42.122  30.983  31.263  1.00  0.00     0.167 HD
ATOM     52  C   UNL A   1      40.858  33.488  31.673  1.00  0.00     0.074 A 
ATOM     53  C   UNL A   1      39.871  34.549  31.648  1.00  0.00     0.031 C 
ATOM     54  C   UNL A   1      42.083  33.601  32.242  1.00  0.00     0.031 A 
BRANCH  41  55
ATOM     55  C   UNL A   1      45.532  28.492  31.853  1.00  0.00    -0.014 A 
ATOM     56  C   UNL A   1      45.633  27.739  33.034  1.00  0.00     0.009 A 
ATOM     57  C   UNL A   1      46.638  28.562  30.994  1.00  0.00     0.009 A 
ATOM     58  C   UNL A   1      46.831  27.103  33.366  1.00  0.00     0.001 A 
ATOM     59  C   UNL A   1      47.825  27.899  31.314  1.00  0.00     0.001 A 
ATOM     60  C   UNL A   1      47.923  27.180  32.504  1.00  0.00     0.000 A 
ENDBRANCH  41  55
BRANCH  42  61
ATOM     61  C   UNL A   1      36.726  32.634  29.603  1.00  0.00    -0.014 A 
ATOM     62  C   UNL A   1      36.503  33.281  28.378  1.00  0.00     0.009 A 
ATOM     63  C   UNL A   1      35.686  32.588  30.544  1.00  0.00     0.009 A 
ATOM     64  C   UNL A   1      35.277  33.894  28.112  1.00  0.00     0.001 A 
ATOM     65  C   UNL A   1      34.452  33.180  30.266  1.00  0.00     0.001 A 
ATOM     66  C   UNL A   1      34.252  33.841  29.055  1.00  0.00     0.000 A 
ENDBRANCH  42  61
BRANCH  54  67
ATOM     67  C   UNL A   1      42.434  34.929  32.846  1.00  0.00    -0.014 A 
ATOM     68  C   UNL A   1      43.187  35.876  32.136  1.00  0.00     0.009 A 
ATOM     69  C   UNL A   1      41.969  35.249  34.132  1.00  0.00     0.009 A 
ATOM     70  C   UNL A   1      43.497  37.107  32.717  1.00  0.00     0.001 A 
ATOM     71  C   UNL A   1      42.259  36.490  34.699  1.00  0.00     0.001 A 
ATOM     72  C   UNL A   1      43.030  37.413  33.995  1.00  0.00     0.000 A 
ENDBRANCH  54  67
ENDBRANCH  28  29
ENDBRANCH  20  23
ENDBRANCH  18  19
ENDBRANCH  17  18
ENDBRANCH   1  17
TORSDOF 14
ENDMDL
MODEL 3
REMARK VINA RESULT:      -9.3      4.542      8.432
REMARK SMILES CN(C)C(=O)CC(C)(C)CC(=O)NCCCCNC(=O)c1ccc(-c2c3nc(c(-c4ccccc4)c4ccc([nH]4)c(-c4ccccc4)c4nc(c(-c5ccccc5)c5ccc2[nH]5)C=C4)C=C3)cc1
REMARK SMILES IDX 15 1 14 2 13 3 11 4 12 5 10 7 7 8 8 9 9 10 6 11 4 12 1 13
REMARK SMILES IDX 2 14 3 15 5 16 16 17 17 18 18 19 19 20 20 22 21 23 22 24
REMARK SMILES IDX 68 25 23 26 67 27 24 28 25 29 26 30 61 31 27 32 66 33 60 34
REMARK SMILES IDX 62 35 28 36 65 37 59 38 58 39 29 41 51 42 36 43 50 44 37 45
REMARK SMILES IDX 40 46 49 47 63 48 38 49 39 50 48 52 64 53 41 54 30 55 31 56
REMARK SMILES IDX 35 57 32 58 34 59 33 60 52 61 53 62 57 63 54 64 56 65 55 66
REMARK SMILES IDX 42 67 43 68 47 69 44 70 46 71 45 72
REMARK H PARENT 13 6 18 21 62 40 40 51
REMARK Flexibility Score: inf
ROOT
ATOM      1  C   UNL A   1      35.176  35.122  32.807  1.00  0.00     0.023 C 
ENDROOT
BRANCH   1   2
ATOM      2  C   UNL A   1      35.186  34.394  34.150  1.00  0.00     0.116 C 
BRANCH   2   3
ATOM      3  N   UNL A   1      35.764  33.081  33.994  1.00  0.00    -0.356 N 
ATOM      4  C   UNL A   1      36.999  32.630  34.340  1.00  0.00     0.220 C 
ATOM      5  O   UNL A   1      37.316  31.507  33.947  1.00  0.00    -0.275 OA
ATOM      6  H   UNL A   1      35.176  32.412  33.574  1.00  0.00     0.163 HD
BRANCH   4   7
ATOM      7  C   UNL A   1      37.912  33.462  35.230  1.00  0.00     0.107 C 
BRANCH   7   8
ATOM      8  C   UNL A   1      38.776  32.749  36.308  1.00  0.00    -0.018 C 
ATOM      9  C   UNL A   1      39.823  31.909  35.544  1.00  0.00     0.012 C 
ATOM     10  C   UNL A   1      37.978  31.740  37.151  1.00  0.00     0.012 C 
BRANCH   8  11
ATOM     11  C   UNL A   1      39.417  33.751  37.304  1.00  0.00     0.107 C 
BRANCH  11  12
ATOM     12  C   UNL A   1      40.135  33.124  38.486  1.00  0.00     0.222 C 
ATOM     13  C   UNL A   1      40.274  32.599  40.853  1.00  0.00     0.146 C 
ATOM     14  N   UNL A   1      39.597  33.267  39.755  1.00  0.00    -0.349 N 
ATOM     15  C   UNL A   1      38.446  34.076  40.128  1.00  0.00     0.146 C 
ATOM     16  O   UNL A   1      41.169  32.481  38.293  1.00  0.00    -0.275 OA
ENDBRANCH  11  12
ENDBRANCH   8  11
ENDBRANCH   7   8
ENDBRANCH   4   7
ENDBRANCH   2   3
ENDBRANCH   1   2
BRANCH   1  17
ATOM     17  C   UNL A   1      33.791  35.421  32.256  1.00  0.00     0.023 C 
BRANCH  17  18
ATOM     18  C   UNL A   1      33.788  36.234  30.976  1.00  0.00     0.116 C 
BRANCH  18  19
ATOM     19  N   UNL A   1      32.908  35.693  29.950  1.00  0.00    -0.352 N 
ATOM     20  C   UNL A   1      33.146  34.644  29.094  1.00  0.00     0.251 C 
ATOM     21  H   UNL A   1      32.033  36.136  29.856  1.00  0.00     0.163 HD
ATOM     22  O   UNL A   1      32.358  34.363  28.204  1.00  0.00    -0.269 OA
BRANCH  20  23
ATOM     23  C   UNL A   1      34.404  33.889  29.253  1.00  0.00     0.039 A 
ATOM     24  C   UNL A   1      35.558  34.355  28.622  1.00  0.00     0.014 A 
ATOM     25  C   UNL A   1      34.450  32.783  30.105  1.00  0.00     0.014 A 
ATOM     26  C   UNL A   1      36.779  33.745  28.903  1.00  0.00     0.010 A 
ATOM     27  C   UNL A   1      35.678  32.248  30.462  1.00  0.00     0.010 A 
ATOM     28  C   UNL A   1      36.853  32.712  29.852  1.00  0.00    -0.014 A 
BRANCH  28  29
ATOM     29  C   UNL A   1      38.143  32.075  30.202  1.00  0.00     0.031 A 
ATOM     30  C   UNL A   1      39.098  32.792  31.118  1.00  0.00     0.074 A 
ATOM     31  C   UNL A   1      38.487  30.898  29.644  1.00  0.00     0.049 A 
ATOM     32  N   UNL A   1      40.302  32.440  31.494  1.00  0.00    -0.248 NA
ATOM     33  C   UNL A   1      38.660  34.093  31.648  1.00  0.00     0.031 C 
ATOM     34  C   UNL A   1      37.677  30.140  28.687  1.00  0.00     0.029 A 
ATOM     35  N   UNL A   1      39.617  30.138  29.799  1.00  0.00    -0.354 N 
ATOM     36  C   UNL A   1      40.772  33.491  32.270  1.00  0.00     0.074 A 
ATOM     37  C   UNL A   1      39.752  34.515  32.268  1.00  0.00     0.031 C 
ATOM     38  C   UNL A   1      38.324  29.007  28.367  1.00  0.00     0.029 A 
ATOM     39  C   UNL A   1      39.601  28.973  29.070  1.00  0.00     0.049 A 
ATOM     40  H   UNL A   1      40.369  30.401  30.377  1.00  0.00     0.167 HD
ATOM     41  C   UNL A   1      41.939  33.588  32.948  1.00  0.00     0.031 A 
ATOM     42  C   UNL A   1      40.514  27.988  28.986  1.00  0.00     0.031 A 
ATOM     43  C   UNL A   1      42.931  32.551  32.988  1.00  0.00     0.049 A 
ATOM     44  C   UNL A   1      41.775  28.089  29.798  1.00  0.00     0.074 A 
ATOM     45  C   UNL A   1      44.111  32.512  33.709  1.00  0.00     0.029 A 
ATOM     46  N   UNL A   1      42.851  31.361  32.282  1.00  0.00    -0.354 N 
ATOM     47  N   UNL A   1      42.171  29.055  30.592  1.00  0.00    -0.248 NA
ATOM     48  C   UNL A   1      42.706  26.955  29.716  1.00  0.00     0.031 C 
ATOM     49  C   UNL A   1      44.762  31.310  33.413  1.00  0.00     0.029 A 
ATOM     50  C   UNL A   1      43.965  30.584  32.543  1.00  0.00     0.049 A 
ATOM     51  H   UNL A   1      42.111  31.107  31.684  1.00  0.00     0.167 HD
ATOM     52  C   UNL A   1      43.381  28.633  31.125  1.00  0.00     0.074 A 
ATOM     53  C   UNL A   1      43.646  27.318  30.577  1.00  0.00     0.031 C 
ATOM     54  C   UNL A   1      44.202  29.277  31.991  1.00  0.00     0.031 A 
BRANCH  41  55
ATOM     55  C   UNL A   1      42.192  34.860  33.706  1.00  0.00    -0.014 A 
ATOM     56  C   UNL A   1      41.752  35.017  35.030  1.00  0.00     0.009 A 
ATOM     57  C   UNL A   1      42.893  35.909  33.093  1.00  0.00     0.009 A 
ATOM     58  C   UNL A   1      41.975  36.216  35.711  1.00  0.00     0.001 A 
ATOM     59  C   UNL A   1      43.141  37.094  33.788  1.00  0.00     0.001 A 
ATOM     60  C   UNL A   1      42.673  37.250  35.091  1.00  0.00     0.000 A 
ENDBRANCH  41  55
BRANCH  42  61
ATOM     61  C   UNL A   1      40.255  26.800  28.134  1.00  0.00    -0.014 A 
ATOM     62  C   UNL A   1      40.774  26.733  26.832  1.00  0.00     0.009 A 
ATOM     63  C   UNL A   1      39.481  25.731  28.611  1.00  0.00     0.009 A 
ATOM     64  C   UNL A   1      40.499  25.635  26.014  1.00  0.00     0.001 A 
ATOM     65  C   UNL A   1      39.229  24.621  27.800  1.00  0.00     0.001 A 
ATOM     66  C   UNL A   1      39.730  24.579  26.499  1.00  0.00     0.000 A 
ENDBRANCH  42  61
BRANCH  54  67
ATOM     67  C   UNL A   1      45.441  28.549  32.425  1.00  0.00    -0.014 A 
ATOM     68  C   UNL A   1      46.649  28.688  31.725  1.00  0.00     0.009 A 
ATOM     69  C   UNL A   1      45.404  27.744  33.574  1.00  0.00     0.009 A 
ATOM     70  C   UNL A   1      47.790  28.005  32.150  1.00  0.00     0.001 A 
ATOM     71  C   UNL A   1      46.553  27.084  34.010  1.00  0.00     0.001 A 
ATOM     72  C   UNL A   1      47.741  27.207  33.293  1.00  0.00     0.000 A 
ENDBRANCH  54  67
ENDBRANCH  28  29
ENDBRANCH  20  23
ENDBRANCH  18  19
ENDBRANCH  17  18
ENDBRANCH   1  17
TORSDOF 14
ENDMDL
