MODEL 1
REMARK VINA RESULT:     -10.6      0.000      0.000
REMARK SMILES C[C@H](CNC(=O)c1ccc(Br)nc1)C(=O)NCCCCNC(=O)c1ccc(-c2c3nc(c(-c4ccccc4)c4ccc([nH]4)c(-c4ccccc4)c4nc(c(-c5ccccc5)c5ccc2[nH]5)C=C4)C=C3)cc1
REMARK SMILES IDX 18 1 17 2 16 3 14 4 15 5 2 7 1 8 3 9 4 10 5 11 6 13 7 14
REMARK SMILES IDX 8 15 13 16 9 17 12 18 10 19 11 20 19 21 20 22 21 23 22 24
REMARK SMILES IDX 23 26 24 27 25 28 71 29 26 30 70 31 27 32 28 33 29 34 64 35
REMARK SMILES IDX 30 36 69 37 63 38 65 39 31 40 68 41 62 42 61 43 32 45 54 46
REMARK SMILES IDX 39 47 53 48 40 49 43 50 52 51 66 52 41 53 42 54 51 56 67 57
REMARK SMILES IDX 44 58 33 59 34 60 38 61 35 62 37 63 36 64 55 65 56 66 60 67
REMARK SMILES IDX 57 68 59 69 58 70 45 71 46 72 50 73 47 74 49 75 48 76
REMARK H PARENT 16 6 4 12 21 25 65 44 43 55
REMARK Flexibility Score: inf
ROOT
ATOM      1  C   UNL A   1      36.916  22.175  24.208  1.00  0.00     0.023 C 
ENDROOT
BRANCH   1   2
ATOM      2  C   UNL A   1      35.394  22.253  24.288  1.00  0.00     0.116 C 
BRANCH   2   3
ATOM      3  N   UNL A   1      34.864  23.259  23.390  1.00  0.00    -0.356 N 
ATOM      4  C   UNL A   1      33.619  23.431  22.875  1.00  0.00     0.224 C 
ATOM      5  O   UNL A   1      33.482  24.317  22.026  1.00  0.00    -0.275 OA
ATOM      6  H   UNL A   1      35.520  23.935  23.103  1.00  0.00     0.163 HD
BRANCH   4   7
ATOM      7  C   UNL A   1      32.420  22.576  23.277  1.00  0.00     0.094 C 
ATOM      8  C   UNL A   1      32.144  21.378  22.374  1.00  0.00     0.020 C 
BRANCH   7   9
ATOM      9  C   UNL A   1      31.173  23.374  23.684  1.00  0.00     0.129 C 
BRANCH   9  10
ATOM     10  N   UNL A   1      30.680  23.160  25.034  1.00  0.00    -0.351 N 
ATOM     11  C   UNL A   1      30.824  23.892  26.181  1.00  0.00     0.252 C 
ATOM     12  H   UNL A   1      30.145  22.342  25.143  1.00  0.00     0.163 HD
ATOM     13  O   UNL A   1      30.367  23.485  27.244  1.00  0.00    -0.269 OA
BRANCH  11  14
ATOM     14  C   UNL A   1      31.552  25.160  26.179  1.00  0.00     0.058 A 
ATOM     15  C   UNL A   1      32.940  25.203  26.094  1.00  0.00     0.018 A 
ATOM     16  C   UNL A   1      30.838  26.347  26.114  1.00  0.00     0.126 A 
ATOM     17  C   UNL A   1      33.564  26.444  25.984  1.00  0.00     0.037 A 
ATOM     18  N   UNL A   1      31.423  27.564  26.036  1.00  0.00    -0.249 NA
ATOM     19  C   UNL A   1      32.774  27.588  25.963  1.00  0.00     0.106 A 
ATOM     20  Br  UNL A   1      33.616  29.278  25.806  1.00  0.00    -0.029 Br
ENDBRANCH  11  14
ENDBRANCH   9  10
ENDBRANCH   7   9
ENDBRANCH   4   7
ENDBRANCH   2   3
ENDBRANCH   1   2
BRANCH   1  21
ATOM     21  C   UNL A   1      37.522  20.833  24.590  1.00  0.00     0.023 C 
BRANCH  21  22
ATOM     22  C   UNL A   1      38.547  20.893  25.709  1.00  0.00     0.116 C 
BRANCH  22  23
ATOM     23  N   UNL A   1      39.525  19.812  25.666  1.00  0.00    -0.352 N 
ATOM     24  C   UNL A   1      40.858  19.832  26.009  1.00  0.00     0.251 C 
ATOM     25  H   UNL A   1      39.184  18.946  25.348  1.00  0.00     0.163 HD
ATOM     26  O   UNL A   1      41.567  18.852  25.827  1.00  0.00    -0.269 OA
BRANCH  24  27
ATOM     27  C   UNL A   1      41.432  21.075  26.562  1.00  0.00     0.039 A 
ATOM     28  C   UNL A   1      41.985  22.013  25.688  1.00  0.00     0.014 A 
ATOM     29  C   UNL A   1      41.347  21.339  27.930  1.00  0.00     0.014 A 
ATOM     30  C   UNL A   1      42.371  23.260  26.180  1.00  0.00     0.010 A 
ATOM     31  C   UNL A   1      41.633  22.613  28.396  1.00  0.00     0.010 A 
ATOM     32  C   UNL A   1      42.151  23.586  27.527  1.00  0.00    -0.014 A 
BRANCH  32  33
ATOM     33  C   UNL A   1      42.462  24.933  28.065  1.00  0.00     0.031 A 
ATOM     34  C   UNL A   1      43.866  25.253  28.499  1.00  0.00     0.074 A 
ATOM     35  C   UNL A   1      41.473  25.830  28.249  1.00  0.00     0.049 A 
ATOM     36  N   UNL A   1      44.322  26.322  29.100  1.00  0.00    -0.248 NA
ATOM     37  C   UNL A   1      44.884  24.215  28.267  1.00  0.00     0.031 C 
ATOM     38  C   UNL A   1      40.060  25.623  27.921  1.00  0.00     0.029 A 
ATOM     39  N   UNL A   1      41.509  27.099  28.770  1.00  0.00    -0.354 N 
ATOM     40  C   UNL A   1      45.664  26.067  29.350  1.00  0.00     0.074 A 
ATOM     41  C   UNL A   1      45.938  24.727  28.884  1.00  0.00     0.031 C 
ATOM     42  C   UNL A   1      39.373  26.739  28.214  1.00  0.00     0.029 A 
ATOM     43  C   UNL A   1      40.286  27.723  28.787  1.00  0.00     0.049 A 
ATOM     44  H   UNL A   1      42.335  27.523  29.100  1.00  0.00     0.167 HD
ATOM     45  C   UNL A   1      46.594  26.882  29.899  1.00  0.00     0.031 A 
ATOM     46  C   UNL A   1      39.939  28.950  29.217  1.00  0.00     0.031 A 
ATOM     47  C   UNL A   1      46.333  28.232  30.318  1.00  0.00     0.049 A 
ATOM     48  C   UNL A   1      40.997  29.852  29.787  1.00  0.00     0.074 A 
ATOM     49  C   UNL A   1      47.223  29.170  30.811  1.00  0.00     0.029 A 
ATOM     50  N   UNL A   1      45.087  28.838  30.282  1.00  0.00    -0.354 N 
ATOM     51  N   UNL A   1      42.275  29.620  29.958  1.00  0.00    -0.248 NA
ATOM     52  C   UNL A   1      40.564  31.189  30.215  1.00  0.00     0.031 C 
ATOM     53  C   UNL A   1      46.508  30.335  31.105  1.00  0.00     0.029 A 
ATOM     54  C   UNL A   1      45.182  30.135  30.755  1.00  0.00     0.049 A 
ATOM     55  H   UNL A   1      44.259  28.410  29.967  1.00  0.00     0.167 HD
ATOM     56  C   UNL A   1      42.805  30.788  30.487  1.00  0.00     0.074 A 
ATOM     57  C   UNL A   1      41.711  31.733  30.597  1.00  0.00     0.031 C 
ATOM     58  C   UNL A   1      44.082  31.058  30.849  1.00  0.00     0.031 A 
BRANCH  45  59
ATOM     59  C   UNL A   1      47.980  26.330  30.071  1.00  0.00    -0.014 A 
ATOM     60  C   UNL A   1      48.924  26.400  29.033  1.00  0.00     0.009 A 
ATOM     61  C   UNL A   1      48.351  25.743  31.289  1.00  0.00     0.009 A 
ATOM     62  C   UNL A   1      50.198  25.855  29.199  1.00  0.00     0.001 A 
ATOM     63  C   UNL A   1      49.636  25.225  31.462  1.00  0.00     0.001 A 
ATOM     64  C   UNL A   1      50.554  25.271  30.414  1.00  0.00     0.000 A 
ENDBRANCH  45  59
BRANCH  46  65
ATOM     65  C   UNL A   1      38.534  29.416  29.093  1.00  0.00    -0.014 A 
ATOM     66  C   UNL A   1      37.647  29.274  30.172  1.00  0.00     0.009 A 
ATOM     67  C   UNL A   1      38.069  29.997  27.903  1.00  0.00     0.009 A 
ATOM     68  C   UNL A   1      36.316  29.680  30.052  1.00  0.00     0.001 A 
ATOM     69  C   UNL A   1      36.744  30.425  27.796  1.00  0.00     0.001 A 
ATOM     70  C   UNL A   1      35.866  30.258  28.866  1.00  0.00     0.000 A 
ENDBRANCH  46  65
BRANCH  58  71
ATOM     71  C   UNL A   1      44.372  32.437  31.363  1.00  0.00    -0.014 A 
ATOM     72  C   UNL A   1      44.313  32.729  32.734  1.00  0.00     0.009 A 
ATOM     73  C   UNL A   1      44.752  33.446  30.464  1.00  0.00     0.009 A 
ATOM     74  C   UNL A   1      44.603  34.015  33.191  1.00  0.00     0.001 A 
ATOM     75  C   UNL A   1      45.066  34.724  30.927  1.00  0.00     0.001 A 
ATOM     76  C   UNL A   1      44.984  35.009  32.290  1.00  0.00     0.000 A 
ENDBRANCH  58  71
ENDBRANCH  32  33
ENDBRANCH  24  27
ENDBRANCH  22  23
ENDBRANCH  21  22
ENDBRANCH   1  21
TORSDOF 14
ENDMDL
MODEL 2
REMARK VINA RESULT:     -10.5      1.181      6.218
REMARK SMILES C[C@H](CNC(=O)c1ccc(Br)nc1)C(=O)NCCCCNC(=O)c1ccc(-c2c3nc(c(-c4ccccc4)c4ccc([nH]4)c(-c4ccccc4)c4nc(c(-c5ccccc5)c5ccc2[nH]5)C=C4)C=C3)cc1
REMARK SMILES IDX 18 1 17 2 16 3 14 4 15 5 2 7 1 8 3 9 4 10 5 11 6 13 7 14
REMARK SMILES IDX 8 15 13 16 9 17 12 18 10 19 11 20 19 21 20 22 21 23 22 24
REMARK SMILES IDX 23 26 24 27 25 28 71 29 26 30 70 31 27 32 28 33 29 34 64 35
REMARK SMILES IDX 30 36 69 37 63 38 65 39 31 40 68 41 62 42 61 43 32 45 54 46
REMARK SMILES IDX 39 47 53 48 40 49 43 50 52 51 66 52 41 53 42 54 51 56 67 57
REMARK SMILES IDX 44 58 33 59 34 60 38 61 35 62 37 63 36 64 55 65 56 66 60 67
REMARK SMILES IDX 57 68 59 69 58 70 45 71 46 72 50 73 47 74 49 75 48 76
REMARK H PARENT 16 6 4 12 21 25 65 44 43 55
REMARK Flexibility Score: inf
ROOT
ATOM      1  C   UNL A   1      36.568  19.771  24.923  1.00  0.00     0.023 C 
ENDROOT
BRANCH   1   2
ATOM      2  C   UNL A   1      35.058  19.988  24.979  1.00  0.00     0.116 C 
BRANCH   2   3
ATOM      3  N   UNL A   1      34.675  20.773  26.136  1.00  0.00    -0.356 N 
ATOM      4  C   UNL A   1      34.245  22.057  26.242  1.00  0.00     0.224 C 
ATOM      5  O   UNL A   1      34.105  22.507  27.384  1.00  0.00    -0.275 OA
ATOM      6  H   UNL A   1      34.739  20.292  26.993  1.00  0.00     0.163 HD
BRANCH   4   7
ATOM      7  C   UNL A   1      33.957  22.948  25.037  1.00  0.00     0.094 C 
ATOM      8  C   UNL A   1      34.677  24.293  25.036  1.00  0.00     0.020 C 
BRANCH   7   9
ATOM      9  C   UNL A   1      32.479  23.010  24.625  1.00  0.00     0.129 C 
BRANCH   9  10
ATOM     10  N   UNL A   1      31.504  22.898  25.696  1.00  0.00    -0.351 N 
ATOM     11  C   UNL A   1      30.773  23.844  26.363  1.00  0.00     0.252 C 
ATOM     12  H   UNL A   1      31.338  21.976  25.997  1.00  0.00     0.163 HD
ATOM     13  O   UNL A   1      30.040  23.526  27.295  1.00  0.00    -0.269 OA
BRANCH  11  14
ATOM     14  C   UNL A   1      30.867  25.258  26.006  1.00  0.00     0.058 A 
ATOM     15  C   UNL A   1      31.834  26.088  26.563  1.00  0.00     0.018 A 
ATOM     16  C   UNL A   1      30.069  25.750  24.983  1.00  0.00     0.126 A 
ATOM     17  C   UNL A   1      31.941  27.397  26.098  1.00  0.00     0.037 A 
ATOM     18  N   UNL A   1      30.136  27.024  24.533  1.00  0.00    -0.249 NA
ATOM     19  C   UNL A   1      31.076  27.819  25.093  1.00  0.00     0.106 A 
ATOM     20  Br  UNL A   1      31.221  29.596  24.449  1.00  0.00    -0.029 Br
ENDBRANCH  11  14
ENDBRANCH   9  10
ENDBRANCH   7   9
ENDBRANCH   4   7
ENDBRANCH   2   3
ENDBRANCH   1   2
BRANCH   1  21
ATOM     21  C   UNL A   1      37.403  21.030  24.747  1.00  0.00     0.023 C 
BRANCH  21  22
ATOM     22  C   UNL A   1      38.592  21.142  25.686  1.00  0.00     0.116 C 
BRANCH  22  23
ATOM     23  N   UNL A   1      39.489  19.994  25.635  1.00  0.00    -0.352 N 
ATOM     24  C   UNL A   1      40.814  19.909  25.997  1.00  0.00     0.251 C 
ATOM     25  H   UNL A   1      39.090  19.161  25.294  1.00  0.00     0.163 HD
ATOM     26  O   UNL A   1      41.453  18.885  25.805  1.00  0.00    -0.269 OA
BRANCH  24  27
ATOM     27  C   UNL A   1      41.468  21.096  26.584  1.00  0.00     0.039 A 
ATOM     28  C   UNL A   1      42.010  22.061  25.733  1.00  0.00     0.014 A 
ATOM     29  C   UNL A   1      41.469  21.285  27.967  1.00  0.00     0.014 A 
ATOM     30  C   UNL A   1      42.473  23.263  26.269  1.00  0.00     0.010 A 
ATOM     31  C   UNL A   1      41.833  22.518  28.485  1.00  0.00     0.010 A 
ATOM     32  C   UNL A   1      42.342  23.519  27.643  1.00  0.00    -0.014 A 
BRANCH  32  33
ATOM     33  C   UNL A   1      42.737  24.820  28.235  1.00  0.00     0.031 A 
ATOM     34  C   UNL A   1      41.694  25.879  28.464  1.00  0.00     0.074 A 
ATOM     35  C   UNL A   1      44.037  25.083  28.478  1.00  0.00     0.049 A 
ATOM     36  N   UNL A   1      41.846  27.117  28.860  1.00  0.00    -0.248 NA
ATOM     37  C   UNL A   1      40.299  25.511  28.168  1.00  0.00     0.031 C 
ATOM     38  C   UNL A   1      45.152  24.161  28.247  1.00  0.00     0.029 A 
ATOM     39  N   UNL A   1      44.638  26.215  28.968  1.00  0.00    -0.354 N 
ATOM     40  C   UNL A   1      40.577  27.681  28.820  1.00  0.00     0.074 A 
ATOM     41  C   UNL A   1      39.677  26.669  28.316  1.00  0.00     0.031 C 
ATOM     42  C   UNL A   1      46.296  24.752  28.629  1.00  0.00     0.029 A 
ATOM     43  C   UNL A   1      46.002  26.104  29.092  1.00  0.00     0.049 A 
ATOM     44  H   UNL A   1      44.140  27.029  29.207  1.00  0.00     0.167 HD
ATOM     45  C   UNL A   1      40.190  28.923  29.191  1.00  0.00     0.031 A 
ATOM     46  C   UNL A   1      46.912  26.993  29.530  1.00  0.00     0.031 A 
ATOM     47  C   UNL A   1      41.076  29.912  29.738  1.00  0.00     0.049 A 
ATOM     48  C   UNL A   1      46.452  28.353  29.972  1.00  0.00     0.074 A 
ATOM     49  C   UNL A   1      40.771  31.172  30.221  1.00  0.00     0.029 A 
ATOM     50  N   UNL A   1      42.445  29.745  29.883  1.00  0.00    -0.354 N 
ATOM     51  N   UNL A   1      45.240  28.850  29.990  1.00  0.00    -0.248 NA
ATOM     52  C   UNL A   1      47.488  29.272  30.466  1.00  0.00     0.031 C 
ATOM     53  C   UNL A   1      41.962  31.782  30.629  1.00  0.00     0.029 A 
ATOM     54  C   UNL A   1      43.001  30.884  30.438  1.00  0.00     0.049 A 
ATOM     55  H   UNL A   1      42.946  28.937  29.630  1.00  0.00     0.167 HD
ATOM     56  C   UNL A   1      45.361  30.127  30.519  1.00  0.00     0.074 A 
ATOM     57  C   UNL A   1      46.765  30.325  30.823  1.00  0.00     0.031 C 
ATOM     58  C   UNL A   1      44.398  31.055  30.737  1.00  0.00     0.031 A 
BRANCH  45  59
ATOM     59  C   UNL A   1      38.739  29.273  29.018  1.00  0.00    -0.014 A 
ATOM     60  C   UNL A   1      38.251  29.768  27.798  1.00  0.00     0.009 A 
ATOM     61  C   UNL A   1      37.847  29.094  30.085  1.00  0.00     0.009 A 
ATOM     62  C   UNL A   1      36.906  30.116  27.665  1.00  0.00     0.001 A 
ATOM     63  C   UNL A   1      36.496  29.416  29.940  1.00  0.00     0.001 A 
ATOM     64  C   UNL A   1      36.029  29.937  28.735  1.00  0.00     0.000 A 
ENDBRANCH  45  59
BRANCH  46  65
ATOM     65  C   UNL A   1      48.347  26.618  29.607  1.00  0.00    -0.014 A 
ATOM     66  C   UNL A   1      48.849  25.979  30.751  1.00  0.00     0.009 A 
ATOM     67  C   UNL A   1      49.223  26.898  28.547  1.00  0.00     0.009 A 
ATOM     68  C   UNL A   1      50.203  25.653  30.844  1.00  0.00     0.001 A 
ATOM     69  C   UNL A   1      50.573  26.547  28.632  1.00  0.00     0.001 A 
ATOM     70  C   UNL A   1      51.064  25.934  29.784  1.00  0.00     0.000 A 
ENDBRANCH  46  65
BRANCH  58  71
ATOM     71  C   UNL A   1      44.824  32.350  31.363  1.00  0.00    -0.014 A 
ATOM     72  C   UNL A   1      45.197  33.450  30.576  1.00  0.00     0.009 A 
ATOM     73  C   UNL A   1      44.808  32.483  32.761  1.00  0.00     0.009 A 
ATOM     74  C   UNL A   1      45.573  34.650  31.179  1.00  0.00     0.001 A 
ATOM     75  C   UNL A   1      45.160  33.692  33.360  1.00  0.00     0.001 A 
ATOM     76  C   UNL A   1      45.549  34.773  32.569  1.00  0.00     0.000 A 
ENDBRANCH  58  71
ENDBRANCH  32  33
ENDBRANCH  24  27
ENDBRANCH  22  23
ENDBRANCH  21  22
ENDBRANCH   1  21
TORSDOF 14
ENDMDL
MODEL 3
REMARK VINA RESULT:     -10.5      3.327      8.572
REMARK SMILES C[C@H](CNC(=O)c1ccc(Br)nc1)C(=O)NCCCCNC(=O)c1ccc(-c2c3nc(c(-c4ccccc4)c4ccc([nH]4)c(-c4ccccc4)c4nc(c(-c5ccccc5)c5ccc2[nH]5)C=C4)C=C3)cc1
REMARK SMILES IDX 18 1 17 2 16 3 14 4 15 5 2 7 1 8 3 9 4 10 5 11 6 13 7 14
REMARK SMILES IDX 8 15 13 16 9 17 12 18 10 19 11 20 19 21 20 22 21 23 22 24
REMARK SMILES IDX 23 26 24 27 25 28 71 29 26 30 70 31 27 32 28 33 29 34 64 35
REMARK SMILES IDX 30 36 69 37 63 38 65 39 31 40 68 41 62 42 61 43 32 45 54 46
REMARK SMILES IDX 39 47 53 48 40 49 43 50 52 51 66 52 41 53 42 54 51 56 67 57
REMARK SMILES IDX 44 58 33 59 34 60 38 61 35 62 37 63 36 64 55 65 56 66 60 67
REMARK SMILES IDX 57 68 59 69 58 70 45 71 46 72 50 73 47 74 49 75 48 76
REMARK H PARENT 16 6 4 12 21 25 65 44 43 55
REMARK Flexibility Score: inf
ROOT
ATOM      1  C   UNL A   1      31.902  30.114  26.463  1.00  0.00     0.023 C 
ENDROOT
BRANCH   1   2
ATOM      2  C   UNL A   1      32.150  29.717  25.010  1.00  0.00     0.116 C 
BRANCH   2   3
ATOM      3  N   UNL A   1      30.909  29.443  24.313  1.00  0.00    -0.356 N 
ATOM      4  C   UNL A   1      30.453  28.313  23.713  1.00  0.00     0.224 C 
ATOM      5  O   UNL A   1      29.395  28.404  23.082  1.00  0.00    -0.275 OA
ATOM      6  H   UNL A   1      30.291  30.207  24.268  1.00  0.00     0.163 HD
BRANCH   4   7
ATOM      7  C   UNL A   1      31.190  26.978  23.767  1.00  0.00     0.094 C 
ATOM      8  C   UNL A   1      32.258  26.781  22.695  1.00  0.00     0.020 C 
BRANCH   7   9
ATOM      9  C   UNL A   1      30.289  25.758  24.006  1.00  0.00     0.129 C 
BRANCH   9  10
ATOM     10  N   UNL A   1      30.310  25.190  25.343  1.00  0.00    -0.351 N 
ATOM     11  C   UNL A   1      31.259  24.462  26.008  1.00  0.00     0.252 C 
ATOM     12  H   UNL A   1      29.494  25.360  25.866  1.00  0.00     0.163 HD
ATOM     13  O   UNL A   1      31.037  24.022  27.131  1.00  0.00    -0.269 OA
BRANCH  11  14
ATOM     14  C   UNL A   1      32.549  24.163  25.388  1.00  0.00     0.058 A 
ATOM     15  C   UNL A   1      33.673  24.946  25.630  1.00  0.00     0.018 A 
ATOM     16  C   UNL A   1      32.691  22.991  24.660  1.00  0.00     0.126 A 
ATOM     17  C   UNL A   1      34.896  24.543  25.098  1.00  0.00     0.037 A 
ATOM     18  N   UNL A   1      33.862  22.593  24.110  1.00  0.00    -0.249 NA
ATOM     19  C   UNL A   1      34.942  23.372  24.348  1.00  0.00     0.106 A 
ATOM     20  Br  UNL A   1      36.604  22.813  23.628  1.00  0.00    -0.029 Br
ENDBRANCH  11  14
ENDBRANCH   9  10
ENDBRANCH   7   9
ENDBRANCH   4   7
ENDBRANCH   2   3
ENDBRANCH   1   2
BRANCH   1  21
ATOM     21  C   UNL A   1      31.648  31.594  26.701  1.00  0.00     0.023 C 
BRANCH  21  22
ATOM     22  C   UNL A   1      32.852  32.374  27.202  1.00  0.00     0.116 C 
BRANCH  22  23
ATOM     23  N   UNL A   1      32.536  33.734  27.621  1.00  0.00    -0.352 N 
ATOM     24  C   UNL A   1      33.213  34.554  28.495  1.00  0.00     0.251 C 
ATOM     25  H   UNL A   1      31.725  34.122  27.220  1.00  0.00     0.163 HD
ATOM     26  O   UNL A   1      32.760  35.646  28.809  1.00  0.00    -0.269 OA
BRANCH  24  27
ATOM     27  C   UNL A   1      34.478  34.075  29.084  1.00  0.00     0.039 A 
ATOM     28  C   UNL A   1      34.435  33.301  30.246  1.00  0.00     0.014 A 
ATOM     29  C   UNL A   1      35.692  34.325  28.441  1.00  0.00     0.014 A 
ATOM     30  C   UNL A   1      35.604  32.700  30.712  1.00  0.00     0.010 A 
ATOM     31  C   UNL A   1      36.830  33.644  28.846  1.00  0.00     0.010 A 
ATOM     32  C   UNL A   1      36.800  32.827  29.987  1.00  0.00    -0.014 A 
BRANCH  32  33
ATOM     33  C   UNL A   1      38.041  32.128  30.400  1.00  0.00     0.031 A 
ATOM     34  C   UNL A   1      38.957  32.771  31.404  1.00  0.00     0.074 A 
ATOM     35  C   UNL A   1      38.390  30.968  29.807  1.00  0.00     0.049 A 
ATOM     36  N   UNL A   1      40.139  32.386  31.811  1.00  0.00    -0.248 NA
ATOM     37  C   UNL A   1      38.502  34.040  31.998  1.00  0.00     0.031 C 
ATOM     38  C   UNL A   1      37.617  30.269  28.778  1.00  0.00     0.029 A 
ATOM     39  N   UNL A   1      39.497  30.178  29.984  1.00  0.00    -0.354 N 
ATOM     40  C   UNL A   1      40.581  33.382  32.672  1.00  0.00     0.074 A 
ATOM     41  C   UNL A   1      39.566  34.410  32.692  1.00  0.00     0.031 C 
ATOM     42  C   UNL A   1      38.256  29.135  28.443  1.00  0.00     0.029 A 
ATOM     43  C   UNL A   1      39.500  29.050  29.200  1.00  0.00     0.049 A 
ATOM     44  H   UNL A   1      40.222  30.398  30.613  1.00  0.00     0.167 HD
ATOM     45  C   UNL A   1      41.720  33.427  33.400  1.00  0.00     0.031 A 
ATOM     46  C   UNL A   1      40.404  28.058  29.104  1.00  0.00     0.031 A 
ATOM     47  C   UNL A   1      42.706  32.382  33.418  1.00  0.00     0.049 A 
ATOM     48  C   UNL A   1      41.643  28.112  29.951  1.00  0.00     0.074 A 
ATOM     49  C   UNL A   1      43.856  32.293  34.183  1.00  0.00     0.029 A 
ATOM     50  N   UNL A   1      42.650  31.238  32.638  1.00  0.00    -0.354 N 
ATOM     51  N   UNL A   1      42.016  29.028  30.811  1.00  0.00    -0.248 NA
ATOM     52  C   UNL A   1      42.581  26.987  29.823  1.00  0.00     0.031 C 
ATOM     53  C   UNL A   1      44.514  31.107  33.841  1.00  0.00     0.029 A 
ATOM     54  C   UNL A   1      43.752  30.440  32.895  1.00  0.00     0.049 A 
ATOM     55  H   UNL A   1      41.935  31.024  31.998  1.00  0.00     0.167 HD
ATOM     56  C   UNL A   1      43.216  28.580  31.344  1.00  0.00     0.074 A 
ATOM     57  C   UNL A   1      43.503  27.303  30.722  1.00  0.00     0.031 C 
ATOM     58  C   UNL A   1      44.012  29.171  32.268  1.00  0.00     0.031 A 
BRANCH  45  59
ATOM     59  C   UNL A   1      41.952  34.650  34.242  1.00  0.00    -0.014 A 
ATOM     60  C   UNL A   1      42.610  35.777  33.721  1.00  0.00     0.009 A 
ATOM     61  C   UNL A   1      41.496  34.681  35.567  1.00  0.00     0.009 A 
ATOM     62  C   UNL A   1      42.842  36.893  34.526  1.00  0.00     0.001 A 
ATOM     63  C   UNL A   1      41.706  35.810  36.362  1.00  0.00     0.001 A 
ATOM     64  C   UNL A   1      42.388  36.910  35.844  1.00  0.00     0.000 A 
ENDBRANCH  45  59
BRANCH  46  65
ATOM     65  C   UNL A   1      40.158  26.908  28.196  1.00  0.00    -0.014 A 
ATOM     66  C   UNL A   1      39.423  25.799  28.644  1.00  0.00     0.009 A 
ATOM     67  C   UNL A   1      40.657  26.906  26.884  1.00  0.00     0.009 A 
ATOM     68  C   UNL A   1      39.217  24.701  27.807  1.00  0.00     0.001 A 
ATOM     69  C   UNL A   1      40.427  25.816  26.041  1.00  0.00     0.001 A 
ATOM     70  C   UNL A   1      39.716  24.711  26.505  1.00  0.00     0.000 A 
ENDBRANCH  46  65
BRANCH  58  71
ATOM     71  C   UNL A   1      45.246  28.427  32.687  1.00  0.00    -0.014 A 
ATOM     72  C   UNL A   1      46.473  28.632  32.038  1.00  0.00     0.009 A 
ATOM     73  C   UNL A   1      45.186  27.542  33.774  1.00  0.00     0.009 A 
ATOM     74  C   UNL A   1      47.612  27.942  32.455  1.00  0.00     0.001 A 
ATOM     75  C   UNL A   1      46.331  26.872  34.205  1.00  0.00     0.001 A 
ATOM     76  C   UNL A   1      47.542  27.068  33.540  1.00  0.00     0.000 A 
ENDBRANCH  58  71
ENDBRANCH  32  33
ENDBRANCH  24  27
ENDBRANCH  22  23
ENDBRANCH  21  22
ENDBRANCH   1  21
TORSDOF 14
ENDMDL
