MODEL 1
REMARK VINA RESULT:     -10.7      0.000      0.000
REMARK SMILES CC[NH+](CC)[C@@H](C(=O)NCCCCNC(=O)c1ccc(-c2c3nc(c(-c4ccccc4)c4ccc([nH]4)c(-c4ccccc4)c4nc(c(-c5ccccc5)c5ccc2[nH]5)C=C4)C=C3)cc1)c1ccc(C2CC2)cc1
REMARK SMILES IDX 11 1 10 2 9 3 7 4 8 5 6 7 3 8 2 10 1 11 4 12 5 13 65 14
REMARK SMILES IDX 66 15 73 16 67 17 72 18 68 19 69 20 70 21 71 22 12 23 13 24
REMARK SMILES IDX 14 25 15 26 16 28 17 29 18 30 64 31 19 32 63 33 20 34 21 35
REMARK SMILES IDX 22 36 57 37 23 38 62 39 56 40 58 41 24 42 61 43 55 44 54 45
REMARK SMILES IDX 25 47 47 48 32 49 46 50 33 51 36 52 45 53 59 54 34 55 35 56
REMARK SMILES IDX 44 58 60 59 37 60 26 61 27 62 31 63 28 64 30 65 29 66 48 67
REMARK SMILES IDX 49 68 53 69 50 70 52 71 51 72 38 73 39 74 43 75 40 76 42 77
REMARK SMILES IDX 41 78
REMARK H PARENT 9 6 3 9 14 27 58 46 36 57
REMARK Flexibility Score: inf
ROOT
ATOM      1  C   UNL A   1      36.499  20.151  24.906  1.00  0.00     0.023 C 
ENDROOT
BRANCH   1   2
ATOM      2  C   UNL A   1      36.603  21.661  25.179  1.00  0.00     0.116 C 
BRANCH   2   3
ATOM      3  N   UNL A   1      35.905  22.107  26.375  1.00  0.00    -0.351 N 
ATOM      4  C   UNL A   1      34.634  22.571  26.614  1.00  0.00     0.283 C 
ATOM      5  O   UNL A   1      34.411  22.906  27.784  1.00  0.00    -0.268 OA
ATOM      6  H   UNL A   1      36.460  22.068  27.187  1.00  0.00     0.163 HD
BRANCH   4   7
ATOM      7  C   UNL A   1      33.570  22.681  25.480  1.00  0.00     0.305 C 
BRANCH   7   8
ATOM      8  N   UNL A   1      32.475  23.679  25.757  1.00  0.00    -0.321 N 
ATOM      9  H   UNL A   1      31.856  23.409  24.993  1.00  0.00     0.349 HD
BRANCH   8  10
ATOM     10  C   UNL A   1      31.629  23.497  26.939  1.00  0.00     0.259 C 
ATOM     11  C   UNL A   1      30.258  22.918  26.598  1.00  0.00     0.071 C 
ENDBRANCH   8  10
BRANCH   8  12
ATOM     12  C   UNL A   1      32.839  25.079  25.568  1.00  0.00     0.259 C 
ATOM     13  C   UNL A   1      32.068  26.105  26.406  1.00  0.00     0.071 C 
ENDBRANCH   8  12
ENDBRANCH   7   8
BRANCH   7  14
ATOM     14  C   UNL A   1      33.024  21.310  25.029  1.00  0.00     0.019 A 
ATOM     15  C   UNL A   1      32.648  21.064  23.699  1.00  0.00     0.011 A 
ATOM     16  C   UNL A   1      33.053  20.214  25.904  1.00  0.00     0.011 A 
ATOM     17  C   UNL A   1      32.506  19.757  23.221  1.00  0.00     0.004 A 
ATOM     18  C   UNL A   1      32.882  18.907  25.422  1.00  0.00     0.004 A 
ATOM     19  C   UNL A   1      32.689  18.649  24.057  1.00  0.00    -0.045 A 
BRANCH  19  20
ATOM     20  C   UNL A   1      32.823  17.269  23.459  1.00  0.00     0.019 C 
ATOM     21  C   UNL A   1      34.095  16.779  22.821  1.00  0.00     0.009 C 
ATOM     22  C   UNL A   1      33.662  16.221  24.143  1.00  0.00     0.009 C 
ENDBRANCH  19  20
ENDBRANCH   7  14
ENDBRANCH   4   7
ENDBRANCH   2   3
ENDBRANCH   1   2
BRANCH   1  23
ATOM     23  C   UNL A   1      37.811  19.366  24.924  1.00  0.00     0.023 C 
BRANCH  23  24
ATOM     24  C   UNL A   1      38.938  20.093  25.632  1.00  0.00     0.116 C 
BRANCH  24  25
ATOM     25  N   UNL A   1      40.113  19.244  25.771  1.00  0.00    -0.352 N 
ATOM     26  C   UNL A   1      41.403  19.583  26.091  1.00  0.00     0.251 C 
ATOM     27  H   UNL A   1      39.959  18.285  25.614  1.00  0.00     0.163 HD
ATOM     28  O   UNL A   1      42.305  18.765  25.947  1.00  0.00    -0.269 OA
BRANCH  26  29
ATOM     29  C   UNL A   1      41.704  20.935  26.601  1.00  0.00     0.039 A 
ATOM     30  C   UNL A   1      42.149  21.914  25.708  1.00  0.00     0.014 A 
ATOM     31  C   UNL A   1      41.573  21.228  27.960  1.00  0.00     0.014 A 
ATOM     32  C   UNL A   1      42.430  23.197  26.177  1.00  0.00     0.010 A 
ATOM     33  C   UNL A   1      41.764  22.527  28.410  1.00  0.00     0.010 A 
ATOM     34  C   UNL A   1      42.220  23.515  27.527  1.00  0.00    -0.014 A 
BRANCH  34  35
ATOM     35  C   UNL A   1      42.523  24.863  28.059  1.00  0.00     0.031 A 
ATOM     36  C   UNL A   1      43.928  25.195  28.478  1.00  0.00     0.074 A 
ATOM     37  C   UNL A   1      41.527  25.752  28.226  1.00  0.00     0.049 A 
ATOM     38  N   UNL A   1      44.388  26.285  29.037  1.00  0.00    -0.248 NA
ATOM     39  C   UNL A   1      44.946  24.150  28.277  1.00  0.00     0.031 C 
ATOM     40  C   UNL A   1      40.118  25.521  27.901  1.00  0.00     0.029 A 
ATOM     41  N   UNL A   1      41.549  27.030  28.721  1.00  0.00    -0.354 N 
ATOM     42  C   UNL A   1      45.734  26.043  29.279  1.00  0.00     0.074 A 
ATOM     43  C   UNL A   1      46.008  24.687  28.856  1.00  0.00     0.031 C 
ATOM     44  C   UNL A   1      39.416  26.632  28.178  1.00  0.00     0.029 A 
ATOM     45  C   UNL A   1      40.317  27.636  28.731  1.00  0.00     0.049 A 
ATOM     46  H   UNL A   1      42.370  27.471  29.040  1.00  0.00     0.167 HD
ATOM     47  C   UNL A   1      46.667  26.883  29.785  1.00  0.00     0.031 A 
ATOM     48  C   UNL A   1      39.958  28.867  29.141  1.00  0.00     0.031 A 
ATOM     49  C   UNL A   1      46.394  28.239  30.174  1.00  0.00     0.049 A 
ATOM     50  C   UNL A   1      41.016  29.790  29.676  1.00  0.00     0.074 A 
ATOM     51  C   UNL A   1      47.275  29.200  30.636  1.00  0.00     0.029 A 
ATOM     52  N   UNL A   1      45.138  28.827  30.139  1.00  0.00    -0.354 N 
ATOM     53  N   UNL A   1      42.301  29.571  29.835  1.00  0.00    -0.248 NA
ATOM     54  C   UNL A   1      40.579  31.135  30.074  1.00  0.00     0.031 C 
ATOM     55  C   UNL A   1      46.545  30.359  30.918  1.00  0.00     0.029 A 
ATOM     56  C   UNL A   1      45.218  30.134  30.585  1.00  0.00     0.049 A 
ATOM     57  H   UNL A   1      44.314  28.381  29.840  1.00  0.00     0.167 HD
ATOM     58  C   UNL A   1      42.828  30.756  30.328  1.00  0.00     0.074 A 
ATOM     59  C   UNL A   1      41.728  31.696  30.424  1.00  0.00     0.031 C 
ATOM     60  C   UNL A   1      44.107  31.046  30.670  1.00  0.00     0.031 A 
BRANCH  47  61
ATOM     61  C   UNL A   1      48.064  26.350  29.945  1.00  0.00    -0.014 A 
ATOM     62  C   UNL A   1      48.477  25.735  31.138  1.00  0.00     0.009 A 
ATOM     63  C   UNL A   1      48.977  26.452  28.884  1.00  0.00     0.009 A 
ATOM     64  C   UNL A   1      49.786  25.270  31.280  1.00  0.00     0.001 A 
ATOM     65  C   UNL A   1      50.276  25.959  29.018  1.00  0.00     0.001 A 
ATOM     66  C   UNL A   1      50.683  25.379  30.218  1.00  0.00     0.000 A 
ENDBRANCH  47  61
BRANCH  48  67
ATOM     67  C   UNL A   1      38.544  29.305  29.031  1.00  0.00    -0.014 A 
ATOM     68  C   UNL A   1      37.694  29.248  30.146  1.00  0.00     0.009 A 
ATOM     69  C   UNL A   1      38.038  29.791  27.816  1.00  0.00     0.009 A 
ATOM     70  C   UNL A   1      36.359  29.644  30.039  1.00  0.00     0.001 A 
ATOM     71  C   UNL A   1      36.709  30.213  27.720  1.00  0.00     0.001 A 
ATOM     72  C   UNL A   1      35.868  30.130  28.829  1.00  0.00     0.000 A 
ENDBRANCH  48  67
BRANCH  60  73
ATOM     73  C   UNL A   1      44.386  32.440  31.149  1.00  0.00    -0.014 A 
ATOM     74  C   UNL A   1      44.706  33.468  30.251  1.00  0.00     0.009 A 
ATOM     75  C   UNL A   1      44.283  32.735  32.519  1.00  0.00     0.009 A 
ATOM     76  C   UNL A   1      44.951  34.760  30.718  1.00  0.00     0.001 A 
ATOM     77  C   UNL A   1      44.502  34.033  32.979  1.00  0.00     0.001 A 
ATOM     78  C   UNL A   1      44.844  35.042  32.080  1.00  0.00     0.000 A 
ENDBRANCH  60  73
ENDBRANCH  34  35
ENDBRANCH  26  29
ENDBRANCH  24  25
ENDBRANCH  23  24
ENDBRANCH   1  23
TORSDOF 16
ENDMDL
MODEL 2
REMARK VINA RESULT:     -10.5      1.549      6.204
REMARK SMILES CC[NH+](CC)[C@@H](C(=O)NCCCCNC(=O)c1ccc(-c2c3nc(c(-c4ccccc4)c4ccc([nH]4)c(-c4ccccc4)c4nc(c(-c5ccccc5)c5ccc2[nH]5)C=C4)C=C3)cc1)c1ccc(C2CC2)cc1
REMARK SMILES IDX 11 1 10 2 9 3 7 4 8 5 6 7 3 8 2 10 1 11 4 12 5 13 65 14
REMARK SMILES IDX 66 15 73 16 67 17 72 18 68 19 69 20 70 21 71 22 12 23 13 24
REMARK SMILES IDX 14 25 15 26 16 28 17 29 18 30 64 31 19 32 63 33 20 34 21 35
REMARK SMILES IDX 22 36 57 37 23 38 62 39 56 40 58 41 24 42 61 43 55 44 54 45
REMARK SMILES IDX 25 47 47 48 32 49 46 50 33 51 36 52 45 53 59 54 34 55 35 56
REMARK SMILES IDX 44 58 60 59 37 60 26 61 27 62 31 63 28 64 30 65 29 66 48 67
REMARK SMILES IDX 49 68 53 69 50 70 52 71 51 72 38 73 39 74 43 75 40 76 42 77
REMARK SMILES IDX 41 78
REMARK H PARENT 9 6 3 9 14 27 58 46 36 57
REMARK Flexibility Score: inf
ROOT
ATOM      1  C   UNL A   1      36.524  20.176  24.997  1.00  0.00     0.023 C 
ENDROOT
BRANCH   1   2
ATOM      2  C   UNL A   1      36.371  21.704  24.915  1.00  0.00     0.116 C 
BRANCH   2   3
ATOM      3  N   UNL A   1      35.618  22.294  26.012  1.00  0.00    -0.351 N 
ATOM      4  C   UNL A   1      34.303  22.659  26.171  1.00  0.00     0.283 C 
ATOM      5  O   UNL A   1      34.035  23.186  27.258  1.00  0.00    -0.268 OA
ATOM      6  H   UNL A   1      36.167  22.468  26.811  1.00  0.00     0.163 HD
BRANCH   4   7
ATOM      7  C   UNL A   1      33.245  22.440  25.047  1.00  0.00     0.305 C 
BRANCH   7   8
ATOM      8  N   UNL A   1      32.044  23.345  25.148  1.00  0.00    -0.321 N 
ATOM      9  H   UNL A   1      32.357  23.887  25.953  1.00  0.00     0.349 HD
BRANCH   8  10
ATOM     10  C   UNL A   1      31.839  24.372  24.125  1.00  0.00     0.259 C 
ATOM     11  C   UNL A   1      30.680  24.046  23.186  1.00  0.00     0.071 C 
ENDBRANCH   8  10
BRANCH   8  12
ATOM     12  C   UNL A   1      30.792  22.689  25.508  1.00  0.00     0.259 C 
ATOM     13  C   UNL A   1      30.253  22.969  26.915  1.00  0.00     0.071 C 
ENDBRANCH   8  12
ENDBRANCH   7   8
BRANCH   7  14
ATOM     14  C   UNL A   1      32.859  20.958  24.862  1.00  0.00     0.019 A 
ATOM     15  C   UNL A   1      32.538  20.429  23.603  1.00  0.00     0.011 A 
ATOM     16  C   UNL A   1      32.990  20.055  25.927  1.00  0.00     0.011 A 
ATOM     17  C   UNL A   1      32.546  19.048  23.378  1.00  0.00     0.004 A 
ATOM     18  C   UNL A   1      32.970  18.670  25.699  1.00  0.00     0.004 A 
ATOM     19  C   UNL A   1      32.831  18.142  24.407  1.00  0.00    -0.045 A 
BRANCH  19  20
ATOM     20  C   UNL A   1      33.125  16.698  24.077  1.00  0.00     0.019 C 
ATOM     21  C   UNL A   1      34.299  15.954  24.656  1.00  0.00     0.009 C 
ATOM     22  C   UNL A   1      32.909  15.623  25.110  1.00  0.00     0.009 C 
ENDBRANCH  19  20
ENDBRANCH   7  14
ENDBRANCH   4   7
ENDBRANCH   2   3
ENDBRANCH   1   2
BRANCH   1  23
ATOM     23  C   UNL A   1      37.917  19.617  24.705  1.00  0.00     0.023 C 
BRANCH  23  24
ATOM     24  C   UNL A   1      38.968  20.070  25.699  1.00  0.00     0.116 C 
BRANCH  24  25
ATOM     25  N   UNL A   1      40.042  19.092  25.819  1.00  0.00    -0.352 N 
ATOM     26  C   UNL A   1      41.386  19.289  26.006  1.00  0.00     0.251 C 
ATOM     27  H   UNL A   1      39.761  18.151  25.758  1.00  0.00     0.163 HD
ATOM     28  O   UNL A   1      42.169  18.357  25.863  1.00  0.00    -0.269 OA
BRANCH  26  29
ATOM     29  C   UNL A   1      41.890  20.629  26.371  1.00  0.00     0.039 A 
ATOM     30  C   UNL A   1      42.063  20.944  27.722  1.00  0.00     0.014 A 
ATOM     31  C   UNL A   1      42.163  21.579  25.385  1.00  0.00     0.014 A 
ATOM     32  C   UNL A   1      42.545  22.203  28.079  1.00  0.00     0.010 A 
ATOM     33  C   UNL A   1      42.728  22.797  25.735  1.00  0.00     0.010 A 
ATOM     34  C   UNL A   1      42.897  23.130  27.086  1.00  0.00    -0.014 A 
BRANCH  34  35
ATOM     35  C   UNL A   1      43.397  24.479  27.431  1.00  0.00     0.031 A 
ATOM     36  C   UNL A   1      42.424  25.540  27.866  1.00  0.00     0.074 A 
ATOM     37  C   UNL A   1      44.704  24.763  27.288  1.00  0.00     0.049 A 
ATOM     38  N   UNL A   1      42.643  26.800  28.139  1.00  0.00    -0.248 NA
ATOM     39  C   UNL A   1      41.010  25.140  27.974  1.00  0.00     0.031 C 
ATOM     40  C   UNL A   1      45.731  23.826  26.825  1.00  0.00     0.029 A 
ATOM     41  N   UNL A   1      45.391  25.928  27.509  1.00  0.00    -0.354 N 
ATOM     42  C   UNL A   1      41.396  27.346  28.419  1.00  0.00     0.074 A 
ATOM     43  C   UNL A   1      40.419  26.296  28.232  1.00  0.00     0.031 C 
ATOM     44  C   UNL A   1      46.922  24.447  26.826  1.00  0.00     0.029 A 
ATOM     45  C   UNL A   1      46.736  25.829  27.253  1.00  0.00     0.049 A 
ATOM     46  H   UNL A   1      44.961  26.757  27.821  1.00  0.00     0.167 HD
ATOM     47  C   UNL A   1      41.093  28.602  28.819  1.00  0.00     0.031 A 
ATOM     48  C   UNL A   1      47.710  26.753  27.354  1.00  0.00     0.031 A 
ATOM     49  C   UNL A   1      42.073  29.631  29.032  1.00  0.00     0.049 A 
ATOM     50  C   UNL A   1      47.352  28.134  27.824  1.00  0.00     0.074 A 
ATOM     51  C   UNL A   1      41.887  30.919  29.501  1.00  0.00     0.029 A 
ATOM     52  N   UNL A   1      43.431  29.482  28.792  1.00  0.00    -0.354 N 
ATOM     53  N   UNL A   1      46.177  28.617  28.153  1.00  0.00    -0.248 NA
ATOM     54  C   UNL A   1      48.457  29.094  27.955  1.00  0.00     0.031 C 
ATOM     55  C   UNL A   1      43.129  31.563  29.508  1.00  0.00     0.029 A 
ATOM     56  C   UNL A   1      44.093  30.660  29.090  1.00  0.00     0.049 A 
ATOM     57  H   UNL A   1      43.859  28.660  28.461  1.00  0.00     0.167 HD
ATOM     58  C   UNL A   1      46.404  29.927  28.550  1.00  0.00     0.074 A 
ATOM     59  C   UNL A   1      47.831  30.157  28.439  1.00  0.00     0.031 C 
ATOM     60  C   UNL A   1      45.514  30.859  28.970  1.00  0.00     0.031 A 
BRANCH  47  61
ATOM     61  C   UNL A   1      39.642  28.925  29.048  1.00  0.00    -0.014 A 
ATOM     62  C   UNL A   1      39.029  28.681  30.288  1.00  0.00     0.009 A 
ATOM     63  C   UNL A   1      38.881  29.494  28.016  1.00  0.00     0.009 A 
ATOM     64  C   UNL A   1      37.674  28.961  30.476  1.00  0.00     0.001 A 
ATOM     65  C   UNL A   1      37.533  29.801  28.217  1.00  0.00     0.001 A 
ATOM     66  C   UNL A   1      36.929  29.525  29.442  1.00  0.00     0.000 A 
ENDBRANCH  47  61
BRANCH  48  67
ATOM     67  C   UNL A   1      49.114  26.392  27.035  1.00  0.00    -0.014 A 
ATOM     68  C   UNL A   1      49.966  25.899  28.035  1.00  0.00     0.009 A 
ATOM     69  C   UNL A   1      49.609  26.527  25.728  1.00  0.00     0.009 A 
ATOM     70  C   UNL A   1      51.292  25.574  27.740  1.00  0.00     0.001 A 
ATOM     71  C   UNL A   1      50.929  26.176  25.431  1.00  0.00     0.001 A 
ATOM     72  C   UNL A   1      51.771  25.708  26.439  1.00  0.00     0.000 A 
ENDBRANCH  48  67
BRANCH  60  73
ATOM     73  C   UNL A   1      46.065  32.197  29.368  1.00  0.00    -0.014 A 
ATOM     74  C   UNL A   1      46.607  32.411  30.643  1.00  0.00     0.009 A 
ATOM     75  C   UNL A   1      46.078  33.246  28.434  1.00  0.00     0.009 A 
ATOM     76  C   UNL A   1      47.124  33.660  30.988  1.00  0.00     0.001 A 
ATOM     77  C   UNL A   1      46.620  34.485  28.772  1.00  0.00     0.001 A 
ATOM     78  C   UNL A   1      47.135  34.694  30.052  1.00  0.00     0.000 A 
ENDBRANCH  60  73
ENDBRANCH  34  35
ENDBRANCH  26  29
ENDBRANCH  24  25
ENDBRANCH  23  24
ENDBRANCH   1  23
TORSDOF 16
ENDMDL
MODEL 3
REMARK VINA RESULT:     -10.4      2.861      5.277
REMARK SMILES CC[NH+](CC)[C@@H](C(=O)NCCCCNC(=O)c1ccc(-c2c3nc(c(-c4ccccc4)c4ccc([nH]4)c(-c4ccccc4)c4nc(c(-c5ccccc5)c5ccc2[nH]5)C=C4)C=C3)cc1)c1ccc(C2CC2)cc1
REMARK SMILES IDX 11 1 10 2 9 3 7 4 8 5 6 7 3 8 2 10 1 11 4 12 5 13 65 14
REMARK SMILES IDX 66 15 73 16 67 17 72 18 68 19 69 20 70 21 71 22 12 23 13 24
REMARK SMILES IDX 14 25 15 26 16 28 17 29 18 30 64 31 19 32 63 33 20 34 21 35
REMARK SMILES IDX 22 36 57 37 23 38 62 39 56 40 58 41 24 42 61 43 55 44 54 45
REMARK SMILES IDX 25 47 47 48 32 49 46 50 33 51 36 52 45 53 59 54 34 55 35 56
REMARK SMILES IDX 44 58 60 59 37 60 26 61 27 62 31 63 28 64 30 65 29 66 48 67
REMARK SMILES IDX 49 68 53 69 50 70 52 71 51 72 38 73 39 74 43 75 40 76 42 77
REMARK SMILES IDX 41 78
REMARK H PARENT 9 6 3 9 14 27 58 46 36 57
REMARK Flexibility Score: inf
ROOT
ATOM      1  C   UNL A   1      33.871  23.418  26.833  1.00  0.00     0.023 C 
ENDROOT
BRANCH   1   2
ATOM      2  C   UNL A   1      32.455  23.311  26.241  1.00  0.00     0.116 C 
BRANCH   2   3
ATOM      3  N   UNL A   1      31.543  24.361  26.667  1.00  0.00    -0.351 N 
ATOM      4  C   UNL A   1      31.163  25.565  26.125  1.00  0.00     0.283 C 
ATOM      5  O   UNL A   1      30.379  26.226  26.817  1.00  0.00    -0.268 OA
ATOM      6  H   UNL A   1      31.103  24.168  27.526  1.00  0.00     0.163 HD
BRANCH   4   7
ATOM      7  C   UNL A   1      31.706  26.057  24.749  1.00  0.00     0.305 C 
BRANCH   7   8
ATOM      8  N   UNL A   1      33.063  26.707  24.819  1.00  0.00    -0.321 N 
ATOM      9  H   UNL A   1      32.847  27.523  24.247  1.00  0.00     0.349 HD
BRANCH   8  10
ATOM     10  C   UNL A   1      33.501  27.304  26.082  1.00  0.00     0.259 C 
ATOM     11  C   UNL A   1      34.028  28.728  25.910  1.00  0.00     0.071 C 
ENDBRANCH   8  10
BRANCH   8  12
ATOM     12  C   UNL A   1      34.145  25.976  24.168  1.00  0.00     0.259 C 
ATOM     13  C   UNL A   1      33.741  25.020  23.040  1.00  0.00     0.071 C 
ENDBRANCH   8  12
ENDBRANCH   7   8
BRANCH   7  14
ATOM     14  C   UNL A   1      30.682  26.901  23.963  1.00  0.00     0.019 A 
ATOM     15  C   UNL A   1      29.333  26.528  23.865  1.00  0.00     0.011 A 
ATOM     16  C   UNL A   1      31.039  28.165  23.467  1.00  0.00     0.011 A 
ATOM     17  C   UNL A   1      28.356  27.452  23.477  1.00  0.00     0.004 A 
ATOM     18  C   UNL A   1      30.055  29.077  23.054  1.00  0.00     0.004 A 
ATOM     19  C   UNL A   1      28.690  28.767  23.131  1.00  0.00    -0.045 A 
BRANCH  19  20
ATOM     20  C   UNL A   1      27.606  29.811  23.009  1.00  0.00     0.019 C 
ATOM     21  C   UNL A   1      27.742  31.195  23.583  1.00  0.00     0.009 C 
ATOM     22  C   UNL A   1      27.791  30.997  22.098  1.00  0.00     0.009 C 
ENDBRANCH  19  20
ENDBRANCH   7  14
ENDBRANCH   4   7
ENDBRANCH   2   3
ENDBRANCH   1   2
BRANCH   1  23
ATOM     23  C   UNL A   1      34.986  22.712  26.059  1.00  0.00     0.023 C 
BRANCH  23  24
ATOM     24  C   UNL A   1      36.312  23.446  26.110  1.00  0.00     0.116 C 
BRANCH  24  25
ATOM     25  N   UNL A   1      37.434  22.517  26.085  1.00  0.00    -0.352 N 
ATOM     26  C   UNL A   1      38.768  22.752  26.298  1.00  0.00     0.251 C 
ATOM     27  H   UNL A   1      37.200  21.582  25.886  1.00  0.00     0.163 HD
ATOM     28  O   UNL A   1      39.595  21.891  26.020  1.00  0.00    -0.269 OA
BRANCH  26  29
ATOM     29  C   UNL A   1      39.207  24.047  26.856  1.00  0.00     0.039 A 
ATOM     30  C   UNL A   1      39.906  24.937  26.037  1.00  0.00     0.014 A 
ATOM     31  C   UNL A   1      38.953  24.369  28.191  1.00  0.00     0.014 A 
ATOM     32  C   UNL A   1      40.320  26.166  26.550  1.00  0.00     0.010 A 
ATOM     33  C   UNL A   1      39.283  25.626  28.675  1.00  0.00     0.010 A 
ATOM     34  C   UNL A   1      39.994  26.525  27.867  1.00  0.00    -0.014 A 
BRANCH  34  35
ATOM     35  C   UNL A   1      40.430  27.814  28.447  1.00  0.00     0.031 A 
ATOM     36  C   UNL A   1      41.859  27.983  28.885  1.00  0.00     0.074 A 
ATOM     37  C   UNL A   1      39.532  28.797  28.639  1.00  0.00     0.049 A 
ATOM     38  N   UNL A   1      42.425  28.999  29.483  1.00  0.00    -0.248 NA
ATOM     39  C   UNL A   1      42.764  26.844  28.653  1.00  0.00     0.031 C 
ATOM     40  C   UNL A   1      38.109  28.726  28.299  1.00  0.00     0.029 A 
ATOM     41  N   UNL A   1      39.683  30.048  29.178  1.00  0.00    -0.354 N 
ATOM     42  C   UNL A   1      43.737  28.609  29.724  1.00  0.00     0.074 A 
ATOM     43  C   UNL A   1      43.871  27.247  29.256  1.00  0.00     0.031 C 
ATOM     44  C   UNL A   1      37.525  29.894  28.610  1.00  0.00     0.029 A 
ATOM     45  C   UNL A   1      38.521  30.779  29.203  1.00  0.00     0.049 A 
ATOM     46  H   UNL A   1      40.543  30.389  29.516  1.00  0.00     0.167 HD
ATOM     47  C   UNL A   1      44.748  29.329  30.264  1.00  0.00     0.031 A 
ATOM     48  C   UNL A   1      38.290  32.026  29.654  1.00  0.00     0.031 A 
ATOM     49  C   UNL A   1      44.615  30.693  30.698  1.00  0.00     0.049 A 
ATOM     50  C   UNL A   1      39.434  32.814  30.226  1.00  0.00     0.074 A 
ATOM     51  C   UNL A   1      45.587  31.539  31.197  1.00  0.00     0.029 A 
ATOM     52  N   UNL A   1      43.428  31.409  30.677  1.00  0.00    -0.354 N 
ATOM     53  N   UNL A   1      40.686  32.457  30.384  1.00  0.00    -0.248 NA
ATOM     54  C   UNL A   1      39.136  34.184  30.668  1.00  0.00     0.031 C 
ATOM     55  C   UNL A   1      44.980  32.759  31.516  1.00  0.00     0.029 A 
ATOM     56  C   UNL A   1      43.640  32.685  31.168  1.00  0.00     0.049 A 
ATOM     57  H   UNL A   1      42.564  31.062  30.358  1.00  0.00     0.167 HD
ATOM     58  C   UNL A   1      41.331  33.563  30.920  1.00  0.00     0.074 A 
ATOM     59  C   UNL A   1      40.334  34.609  31.043  1.00  0.00     0.031 C 
ATOM     60  C   UNL A   1      42.630  33.705  31.279  1.00  0.00     0.031 A 
BRANCH  47  61
ATOM     61  C   UNL A   1      46.080  28.648  30.413  1.00  0.00    -0.014 A 
ATOM     62  C   UNL A   1      46.411  27.941  31.580  1.00  0.00     0.009 A 
ATOM     63  C   UNL A   1      47.013  28.701  29.366  1.00  0.00     0.009 A 
ATOM     64  C   UNL A   1      47.663  27.337  31.713  1.00  0.00     0.001 A 
ATOM     65  C   UNL A   1      48.253  28.070  29.489  1.00  0.00     0.001 A 
ATOM     66  C   UNL A   1      48.581  27.399  30.666  1.00  0.00     0.000 A 
ENDBRANCH  47  61
BRANCH  48  67
ATOM     67  C   UNL A   1      36.930  32.613  29.551  1.00  0.00    -0.014 A 
ATOM     68  C   UNL A   1      36.021  32.491  30.613  1.00  0.00     0.009 A 
ATOM     69  C   UNL A   1      36.536  33.308  28.397  1.00  0.00     0.009 A 
ATOM     70  C   UNL A   1      34.736  33.029  30.511  1.00  0.00     0.001 A 
ATOM     71  C   UNL A   1      35.258  33.868  28.310  1.00  0.00     0.001 A 
ATOM     72  C   UNL A   1      34.357  33.720  29.363  1.00  0.00     0.000 A 
ENDBRANCH  48  67
BRANCH  60  73
ATOM     73  C   UNL A   1      43.048  35.045  31.808  1.00  0.00    -0.014 A 
ATOM     74  C   UNL A   1      43.582  36.027  30.961  1.00  0.00     0.009 A 
ATOM     75  C   UNL A   1      42.865  35.340  33.169  1.00  0.00     0.009 A 
ATOM     76  C   UNL A   1      43.955  37.271  31.473  1.00  0.00     0.001 A 
ATOM     77  C   UNL A   1      43.213  36.594  33.671  1.00  0.00     0.001 A 
ATOM     78  C   UNL A   1      43.766  37.555  32.825  1.00  0.00     0.000 A 
ENDBRANCH  60  73
ENDBRANCH  34  35
ENDBRANCH  26  29
ENDBRANCH  24  25
ENDBRANCH  23  24
ENDBRANCH   1  23
TORSDOF 16
ENDMDL
