MODEL 1
REMARK VINA RESULT:     -10.8      0.000      0.000
REMARK SMILES O=C(NCCCCNC(=O)[C@@H]([NH2+]C[C@@H]1CCCO1)c1cncn1C1CC1)c1ccc(-c2c3nc(c(-c4ccccc4)c4ccc([nH]4)c(-c4ccccc4)c4nc(c(-c5ccccc5)c5ccc2[nH]5)C=C4)C=C3)cc1
REMARK SMILES IDX 6 1 5 2 4 3 3 4 1 5 2 6 27 8 28 9 74 10 29 11 73 12 30 13
REMARK SMILES IDX 31 14 32 15 67 16 33 17 72 18 66 19 68 20 34 21 71 22 65 23
REMARK SMILES IDX 64 24 35 26 57 27 42 28 56 29 43 30 46 31 55 32 69 33 44 34
REMARK SMILES IDX 45 35 54 37 70 38 47 39 36 40 37 41 41 42 38 43 40 44 39 45
REMARK SMILES IDX 58 46 59 47 63 48 60 49 62 50 61 51 48 52 49 53 53 54 50 55
REMARK SMILES IDX 52 56 51 57 7 58 8 59 9 60 10 62 11 63 12 64 13 67 14 68
REMARK SMILES IDX 15 69 18 70 16 71 17 72 19 73 20 74 23 75 21 76 22 77 24 78
REMARK SMILES IDX 25 79 26 80
REMARK H PARENT 3 7 68 25 46 36 8 61 12 65 12 66
REMARK Flexibility Score: inf
ROOT
ATOM      1  C   UNL A   1      32.220  30.433  27.098  1.00  0.00     0.023 C 
ENDROOT
BRANCH   1   2
ATOM      2  C   UNL A   1      33.715  30.342  27.424  1.00  0.00     0.023 C 
BRANCH   2   3
ATOM      3  C   UNL A   1      34.406  31.685  27.656  1.00  0.00     0.116 C 
BRANCH   3   4
ATOM      4  N   UNL A   1      34.398  32.121  29.039  1.00  0.00    -0.352 N 
ATOM      5  O   UNL A   1      34.946  32.615  31.122  1.00  0.00    -0.269 OA
ATOM      6  C   UNL A   1      35.265  32.016  30.091  1.00  0.00     0.251 C 
ATOM      7  H   UNL A   1      33.575  32.606  29.276  1.00  0.00     0.163 HD
BRANCH   6   8
ATOM      8  C   UNL A   1      36.519  31.211  30.099  1.00  0.00     0.039 A 
ATOM      9  C   UNL A   1      37.800  31.691  29.831  1.00  0.00     0.014 A 
ATOM     10  C   UNL A   1      36.369  29.842  30.402  1.00  0.00     0.014 A 
ATOM     11  C   UNL A   1      38.891  30.824  29.808  1.00  0.00     0.010 A 
ATOM     12  C   UNL A   1      37.457  28.975  30.394  1.00  0.00     0.010 A 
ATOM     13  C   UNL A   1      38.718  29.464  30.069  1.00  0.00    -0.014 A 
BRANCH  13  14
ATOM     14  C   UNL A   1      39.910  28.620  30.102  1.00  0.00     0.031 A 
ATOM     15  C   UNL A   1      40.560  28.457  31.436  1.00  0.00     0.074 A 
ATOM     16  C   UNL A   1      40.354  27.906  29.050  1.00  0.00     0.049 A 
ATOM     17  N   UNL A   1      41.781  28.724  31.776  1.00  0.00    -0.248 NA
ATOM     18  C   UNL A   1      39.721  27.976  32.545  1.00  0.00     0.031 C 
ATOM     19  C   UNL A   1      39.698  27.680  27.761  1.00  0.00     0.029 A 
ATOM     20  N   UNL A   1      41.474  27.131  28.970  1.00  0.00    -0.354 N 
ATOM     21  C   UNL A   1      41.912  28.329  33.106  1.00  0.00     0.074 A 
ATOM     22  C   UNL A   1      40.594  27.949  33.552  1.00  0.00     0.031 C 
ATOM     23  C   UNL A   1      40.313  26.658  27.124  1.00  0.00     0.029 A 
ATOM     24  C   UNL A   1      41.484  26.262  27.890  1.00  0.00     0.049 A 
ATOM     25  H   UNL A   1      42.209  27.184  29.622  1.00  0.00     0.167 HD
ATOM     26  C   UNL A   1      43.117  28.198  33.726  1.00  0.00     0.031 A 
ATOM     27  C   UNL A   1      42.360  25.253  27.673  1.00  0.00     0.031 A 
ATOM     28  C   UNL A   1      44.171  28.882  33.033  1.00  0.00     0.049 A 
ATOM     29  C   UNL A   1      43.563  25.500  28.495  1.00  0.00     0.074 A 
ATOM     30  C   UNL A   1      44.439  30.200  32.722  1.00  0.00     0.029 A 
ATOM     31  N   UNL A   1      45.013  28.137  32.246  1.00  0.00    -0.354 N 
ATOM     32  N   UNL A   1      44.403  26.469  28.273  1.00  0.00    -0.248 NA
ATOM     33  C   UNL A   1      43.639  24.899  29.815  1.00  0.00     0.031 C 
ATOM     34  C   UNL A   1      45.045  30.156  31.432  1.00  0.00     0.029 A 
ATOM     35  C   UNL A   1      45.142  28.814  31.059  1.00  0.00     0.049 A 
ATOM     36  H   UNL A   1      45.442  27.283  32.485  1.00  0.00     0.167 HD
ATOM     37  C   UNL A   1      44.807  26.883  29.534  1.00  0.00     0.074 A 
ATOM     38  C   UNL A   1      44.400  25.807  30.432  1.00  0.00     0.031 C 
ATOM     39  C   UNL A   1      45.185  28.174  29.764  1.00  0.00     0.031 A 
BRANCH  26  40
ATOM     40  C   UNL A   1      43.395  27.197  34.816  1.00  0.00    -0.014 A 
ATOM     41  C   UNL A   1      43.489  25.830  34.494  1.00  0.00     0.009 A 
ATOM     42  C   UNL A   1      43.307  27.523  36.183  1.00  0.00     0.009 A 
ATOM     43  C   UNL A   1      43.452  24.843  35.488  1.00  0.00     0.001 A 
ATOM     44  C   UNL A   1      43.310  26.542  37.180  1.00  0.00     0.001 A 
ATOM     45  C   UNL A   1      43.359  25.200  36.830  1.00  0.00     0.000 A 
ENDBRANCH  26  40
BRANCH  27  46
ATOM     46  C   UNL A   1      42.119  23.958  27.008  1.00  0.00    -0.014 A 
ATOM     47  C   UNL A   1      42.894  23.555  25.910  1.00  0.00     0.009 A 
ATOM     48  C   UNL A   1      41.303  22.994  27.628  1.00  0.00     0.009 A 
ATOM     49  C   UNL A   1      42.877  22.224  25.471  1.00  0.00     0.001 A 
ATOM     50  C   UNL A   1      41.284  21.667  27.189  1.00  0.00     0.001 A 
ATOM     51  C   UNL A   1      42.082  21.279  26.119  1.00  0.00     0.000 A 
ENDBRANCH  27  46
BRANCH  39  52
ATOM     52  C   UNL A   1      45.361  29.080  28.567  1.00  0.00    -0.014 A 
ATOM     53  C   UNL A   1      44.289  29.777  27.979  1.00  0.00     0.009 A 
ATOM     54  C   UNL A   1      46.658  29.355  28.110  1.00  0.00     0.009 A 
ATOM     55  C   UNL A   1      44.505  30.687  26.940  1.00  0.00     0.001 A 
ATOM     56  C   UNL A   1      46.876  30.283  27.089  1.00  0.00     0.001 A 
ATOM     57  C   UNL A   1      45.800  30.943  26.499  1.00  0.00     0.000 A 
ENDBRANCH  39  52
ENDBRANCH  13  14
ENDBRANCH   6   8
ENDBRANCH   3   4
ENDBRANCH   2   3
ENDBRANCH   1   2
BRANCH   1  58
ATOM     58  C   UNL A   1      31.850  30.159  25.642  1.00  0.00     0.116 C 
BRANCH  58  59
ATOM     59  N   UNL A   1      33.004  29.874  24.795  1.00  0.00    -0.351 N 
ATOM     60  C   UNL A   1      33.070  29.049  23.680  1.00  0.00     0.284 C 
ATOM     61  H   UNL A   1      33.843  30.323  25.047  1.00  0.00     0.163 HD
ATOM     62  O   UNL A   1      34.081  29.092  22.990  1.00  0.00    -0.268 OA
BRANCH  60  63
ATOM     63  C   UNL A   1      31.837  28.057  23.346  1.00  0.00     0.322 C 
BRANCH  63  64
ATOM     64  N   UNL A   1      31.040  28.873  22.402  1.00  0.00    -0.329 N 
ATOM     65  H   UNL A   1      31.402  28.682  21.468  1.00  0.00     0.347 HD
ATOM     66  H   UNL A   1      31.148  29.822  22.760  1.00  0.00     0.347 HD
BRANCH  64  67
ATOM     67  C   UNL A   1      29.595  28.701  22.336  1.00  0.00     0.293 C 
BRANCH  67  68
ATOM     68  C   UNL A   1      28.733  29.943  22.511  1.00  0.00     0.173 C 
ATOM     69  C   UNL A   1      28.657  30.794  21.262  1.00  0.00     0.040 C 
ATOM     70  O   UNL A   1      29.253  30.813  23.523  1.00  0.00    -0.372 OA
ATOM     71  C   UNL A   1      28.127  32.081  21.842  1.00  0.00     0.031 C 
ATOM     72  C   UNL A   1      28.778  32.136  23.217  1.00  0.00     0.161 C 
ENDBRANCH  67  68
ENDBRANCH  64  67
ENDBRANCH  63  64
BRANCH  63  73
ATOM     73  C   UNL A   1      32.442  26.736  22.868  1.00  0.00     0.106 A 
ATOM     74  C   UNL A   1      32.392  26.312  21.528  1.00  0.00     0.141 A 
ATOM     75  N   UNL A   1      33.265  25.754  23.429  1.00  0.00    -0.326 N 
ATOM     76  N   UNL A   1      32.936  25.091  21.313  1.00  0.00    -0.245 NA
ATOM     77  C   UNL A   1      33.427  24.770  22.475  1.00  0.00     0.200 A 
BRANCH  75  78
ATOM     78  C   UNL A   1      34.060  25.549  24.637  1.00  0.00     0.089 C 
ATOM     79  C   UNL A   1      33.948  26.271  25.948  1.00  0.00     0.027 C 
ATOM     80  C   UNL A   1      33.640  24.811  25.877  1.00  0.00     0.027 C 
ENDBRANCH  75  78
ENDBRANCH  63  73
ENDBRANCH  60  63
ENDBRANCH  58  59
ENDBRANCH   1  58
TORSDOF 16
ENDMDL
MODEL 2
REMARK VINA RESULT:     -10.6      1.191      1.537
REMARK SMILES O=C(NCCCCNC(=O)[C@@H]([NH2+]C[C@@H]1CCCO1)c1cncn1C1CC1)c1ccc(-c2c3nc(c(-c4ccccc4)c4ccc([nH]4)c(-c4ccccc4)c4nc(c(-c5ccccc5)c5ccc2[nH]5)C=C4)C=C3)cc1
REMARK SMILES IDX 6 1 5 2 4 3 3 4 1 5 2 6 27 8 28 9 74 10 29 11 73 12 30 13
REMARK SMILES IDX 31 14 32 15 67 16 33 17 72 18 66 19 68 20 34 21 71 22 65 23
REMARK SMILES IDX 64 24 35 26 57 27 42 28 56 29 43 30 46 31 55 32 69 33 44 34
REMARK SMILES IDX 45 35 54 37 70 38 47 39 36 40 37 41 41 42 38 43 40 44 39 45
REMARK SMILES IDX 58 46 59 47 63 48 60 49 62 50 61 51 48 52 49 53 53 54 50 55
REMARK SMILES IDX 52 56 51 57 7 58 8 59 9 60 10 62 11 63 12 64 13 67 14 68
REMARK SMILES IDX 15 69 18 70 16 71 17 72 19 73 20 74 23 75 21 76 22 77 24 78
REMARK SMILES IDX 25 79 26 80
REMARK H PARENT 3 7 68 25 46 36 8 61 12 65 12 66
REMARK Flexibility Score: inf
ROOT
ATOM      1  C   UNL A   1      31.706  29.712  25.866  1.00  0.00     0.023 C 
ENDROOT
BRANCH   1   2
ATOM      2  C   UNL A   1      32.141  30.918  26.706  1.00  0.00     0.023 C 
BRANCH   2   3
ATOM      3  C   UNL A   1      33.503  30.775  27.384  1.00  0.00     0.116 C 
BRANCH   3   4
ATOM      4  N   UNL A   1      34.120  32.038  27.740  1.00  0.00    -0.352 N 
ATOM      5  O   UNL A   1      35.553  33.647  28.229  1.00  0.00    -0.269 OA
ATOM      6  C   UNL A   1      35.383  32.433  28.083  1.00  0.00     0.251 C 
ATOM      7  H   UNL A   1      33.480  32.785  27.734  1.00  0.00     0.163 HD
BRANCH   6   8
ATOM      8  C   UNL A   1      36.535  31.522  28.334  1.00  0.00     0.039 A 
ATOM      9  C   UNL A   1      36.609  30.179  27.967  1.00  0.00     0.014 A 
ATOM     10  C   UNL A   1      37.634  32.091  29.009  1.00  0.00     0.014 A 
ATOM     11  C   UNL A   1      37.718  29.410  28.313  1.00  0.00     0.010 A 
ATOM     12  C   UNL A   1      38.751  31.331  29.345  1.00  0.00     0.010 A 
ATOM     13  C   UNL A   1      38.780  29.980  29.019  1.00  0.00    -0.014 A 
BRANCH  13  14
ATOM     14  C   UNL A   1      39.945  29.141  29.288  1.00  0.00     0.031 A 
ATOM     15  C   UNL A   1      40.220  28.845  30.727  1.00  0.00     0.074 A 
ATOM     16  C   UNL A   1      40.676  28.538  28.331  1.00  0.00     0.049 A 
ATOM     17  N   UNL A   1      41.298  29.080  31.406  1.00  0.00    -0.248 NA
ATOM     18  C   UNL A   1      39.131  28.252  31.517  1.00  0.00     0.031 C 
ATOM     19  C   UNL A   1      40.395  28.442  26.897  1.00  0.00     0.029 A 
ATOM     20  N   UNL A   1      41.799  27.779  28.480  1.00  0.00    -0.354 N 
ATOM     21  C   UNL A   1      41.080  28.553  32.677  1.00  0.00     0.074 A 
ATOM     22  C   UNL A   1      39.703  28.126  32.714  1.00  0.00     0.031 C 
ATOM     23  C   UNL A   1      41.189  27.492  26.353  1.00  0.00     0.029 A 
ATOM     24  C   UNL A   1      42.123  27.024  27.364  1.00  0.00     0.049 A 
ATOM     25  H   UNL A   1      42.331  27.767  29.308  1.00  0.00     0.167 HD
ATOM     26  C   UNL A   1      42.080  28.364  33.583  1.00  0.00     0.031 A 
ATOM     27  C   UNL A   1      43.056  26.045  27.293  1.00  0.00     0.031 A 
ATOM     28  C   UNL A   1      43.259  29.117  33.269  1.00  0.00     0.049 A 
ATOM     29  C   UNL A   1      43.988  26.211  28.429  1.00  0.00     0.074 A 
ATOM     30  C   UNL A   1      43.560  30.461  33.170  1.00  0.00     0.029 A 
ATOM     31  N   UNL A   1      44.303  28.459  32.668  1.00  0.00    -0.354 N 
ATOM     32  N   UNL A   1      44.826  27.200  28.536  1.00  0.00    -0.248 NA
ATOM     33  C   UNL A   1      43.726  25.479  29.656  1.00  0.00     0.031 C 
ATOM     34  C   UNL A   1      44.490  30.550  32.092  1.00  0.00     0.029 A 
ATOM     35  C   UNL A   1      44.724  29.253  31.631  1.00  0.00     0.049 A 
ATOM     36  H   UNL A   1      44.677  27.586  32.930  1.00  0.00     0.167 HD
ATOM     37  C   UNL A   1      44.867  27.485  29.892  1.00  0.00     0.074 A 
ATOM     38  C   UNL A   1      44.267  26.322  30.540  1.00  0.00     0.031 C 
ATOM     39  C   UNL A   1      45.130  28.748  30.339  1.00  0.00     0.031 A 
BRANCH  26  40
ATOM     40  C   UNL A   1      42.086  27.258  34.605  1.00  0.00    -0.014 A 
ATOM     41  C   UNL A   1      41.674  27.528  35.923  1.00  0.00     0.009 A 
ATOM     42  C   UNL A   1      42.732  26.026  34.382  1.00  0.00     0.009 A 
ATOM     43  C   UNL A   1      41.934  26.631  36.967  1.00  0.00     0.001 A 
ATOM     44  C   UNL A   1      42.958  25.111  35.415  1.00  0.00     0.001 A 
ATOM     45  C   UNL A   1      42.579  25.424  36.713  1.00  0.00     0.000 A 
ENDBRANCH  26  40
BRANCH  27  46
ATOM     46  C   UNL A   1      43.040  24.823  26.466  1.00  0.00    -0.014 A 
ATOM     47  C   UNL A   1      43.704  24.779  25.231  1.00  0.00     0.009 A 
ATOM     48  C   UNL A   1      42.600  23.608  27.022  1.00  0.00     0.009 A 
ATOM     49  C   UNL A   1      43.947  23.556  24.592  1.00  0.00     0.001 A 
ATOM     50  C   UNL A   1      42.840  22.388  26.383  1.00  0.00     0.001 A 
ATOM     51  C   UNL A   1      43.527  22.361  25.174  1.00  0.00     0.000 A 
ENDBRANCH  27  46
BRANCH  39  52
ATOM     52  C   UNL A   1      45.592  29.771  29.328  1.00  0.00    -0.014 A 
ATOM     53  C   UNL A   1      44.704  30.434  28.459  1.00  0.00     0.009 A 
ATOM     54  C   UNL A   1      46.931  30.186  29.347  1.00  0.00     0.009 A 
ATOM     55  C   UNL A   1      45.152  31.450  27.610  1.00  0.00     0.001 A 
ATOM     56  C   UNL A   1      47.373  31.218  28.516  1.00  0.00     0.001 A 
ATOM     57  C   UNL A   1      46.486  31.844  27.642  1.00  0.00     0.000 A 
ENDBRANCH  39  52
ENDBRANCH  13  14
ENDBRANCH   6   8
ENDBRANCH   3   4
ENDBRANCH   2   3
ENDBRANCH   1   2
BRANCH   1  58
ATOM     58  C   UNL A   1      32.738  28.593  25.747  1.00  0.00     0.116 C 
BRANCH  58  59
ATOM     59  N   UNL A   1      33.554  28.683  24.539  1.00  0.00    -0.351 N 
ATOM     60  C   UNL A   1      33.280  28.173  23.277  1.00  0.00     0.284 C 
ATOM     61  H   UNL A   1      34.406  29.165  24.632  1.00  0.00     0.163 HD
ATOM     62  O   UNL A   1      33.998  28.520  22.347  1.00  0.00    -0.268 OA
BRANCH  60  63
ATOM     63  C   UNL A   1      32.055  27.136  23.082  1.00  0.00     0.322 C 
BRANCH  63  64
ATOM     64  N   UNL A   1      31.161  27.890  22.174  1.00  0.00    -0.329 N 
ATOM     65  H   UNL A   1      30.865  27.241  21.445  1.00  0.00     0.347 HD
ATOM     66  H   UNL A   1      31.732  28.685  21.888  1.00  0.00     0.347 HD
BRANCH  64  67
ATOM     67  C   UNL A   1      29.954  28.513  22.697  1.00  0.00     0.293 C 
BRANCH  67  68
ATOM     68  C   UNL A   1      29.667  29.948  22.277  1.00  0.00     0.173 C 
ATOM     69  C   UNL A   1      28.971  30.754  23.351  1.00  0.00     0.040 C 
ATOM     70  O   UNL A   1      28.794  30.006  21.143  1.00  0.00    -0.372 OA
ATOM     71  C   UNL A   1      28.468  31.917  22.535  1.00  0.00     0.031 C 
ATOM     72  C   UNL A   1      28.132  31.281  21.194  1.00  0.00     0.161 C 
ENDBRANCH  67  68
ENDBRANCH  64  67
ENDBRANCH  63  64
BRANCH  63  73
ATOM     73  C   UNL A   1      32.659  25.813  22.609  1.00  0.00     0.106 A 
ATOM     74  C   UNL A   1      32.641  25.401  21.263  1.00  0.00     0.141 A 
ATOM     75  N   UNL A   1      33.457  24.818  23.183  1.00  0.00    -0.326 N 
ATOM     76  N   UNL A   1      33.179  24.177  21.053  1.00  0.00    -0.245 NA
ATOM     77  C   UNL A   1      33.635  23.840  22.225  1.00  0.00     0.200 A 
BRANCH  75  78
ATOM     78  C   UNL A   1      34.218  24.594  24.410  1.00  0.00     0.089 C 
ATOM     79  C   UNL A   1      34.011  25.233  25.752  1.00  0.00     0.027 C 
ATOM     80  C   UNL A   1      33.798  23.764  25.590  1.00  0.00     0.027 C 
ENDBRANCH  75  78
ENDBRANCH  63  73
ENDBRANCH  60  63
ENDBRANCH  58  59
ENDBRANCH   1  58
TORSDOF 16
ENDMDL
MODEL 3
REMARK VINA RESULT:     -10.5      1.979      6.014
REMARK SMILES O=C(NCCCCNC(=O)[C@@H]([NH2+]C[C@@H]1CCCO1)c1cncn1C1CC1)c1ccc(-c2c3nc(c(-c4ccccc4)c4ccc([nH]4)c(-c4ccccc4)c4nc(c(-c5ccccc5)c5ccc2[nH]5)C=C4)C=C3)cc1
REMARK SMILES IDX 6 1 5 2 4 3 3 4 1 5 2 6 27 8 28 9 74 10 29 11 73 12 30 13
REMARK SMILES IDX 31 14 32 15 67 16 33 17 72 18 66 19 68 20 34 21 71 22 65 23
REMARK SMILES IDX 64 24 35 26 57 27 42 28 56 29 43 30 46 31 55 32 69 33 44 34
REMARK SMILES IDX 45 35 54 37 70 38 47 39 36 40 37 41 41 42 38 43 40 44 39 45
REMARK SMILES IDX 58 46 59 47 63 48 60 49 62 50 61 51 48 52 49 53 53 54 50 55
REMARK SMILES IDX 52 56 51 57 7 58 8 59 9 60 10 62 11 63 12 64 13 67 14 68
REMARK SMILES IDX 15 69 18 70 16 71 17 72 19 73 20 74 23 75 21 76 22 77 24 78
REMARK SMILES IDX 25 79 26 80
REMARK H PARENT 3 7 68 25 46 36 8 61 12 65 12 66
REMARK Flexibility Score: inf
ROOT
ATOM      1  C   UNL A   1      32.454  29.819  27.178  1.00  0.00     0.023 C 
ENDROOT
BRANCH   1   2
ATOM      2  C   UNL A   1      33.482  28.712  26.918  1.00  0.00     0.023 C 
BRANCH   2   3
ATOM      3  C   UNL A   1      34.927  29.083  27.252  1.00  0.00     0.116 C 
BRANCH   3   4
ATOM      4  N   UNL A   1      35.111  29.576  28.603  1.00  0.00    -0.352 N 
ATOM      5  O   UNL A   1      35.956  30.330  30.500  1.00  0.00    -0.269 OA
ATOM      6  C   UNL A   1      36.191  29.795  29.413  1.00  0.00     0.251 C 
ATOM      7  H   UNL A   1      34.260  29.807  29.039  1.00  0.00     0.163 HD
BRANCH   6   8
ATOM      8  C   UNL A   1      37.594  29.401  29.106  1.00  0.00     0.039 A 
ATOM      9  C   UNL A   1      38.302  29.733  27.952  1.00  0.00     0.014 A 
ATOM     10  C   UNL A   1      38.242  28.617  30.084  1.00  0.00     0.014 A 
ATOM     11  C   UNL A   1      39.594  29.251  27.750  1.00  0.00     0.010 A 
ATOM     12  C   UNL A   1      39.537  28.145  29.893  1.00  0.00     0.010 A 
ATOM     13  C   UNL A   1      40.204  28.441  28.710  1.00  0.00    -0.014 A 
BRANCH  13  14
ATOM     14  C   UNL A   1      41.585  28.028  28.473  1.00  0.00     0.031 A 
ATOM     15  C   UNL A   1      41.768  26.689  27.837  1.00  0.00     0.074 A 
ATOM     16  C   UNL A   1      42.653  28.824  28.674  1.00  0.00     0.049 A 
ATOM     17  N   UNL A   1      42.438  25.672  28.278  1.00  0.00    -0.248 NA
ATOM     18  C   UNL A   1      41.071  26.443  26.565  1.00  0.00     0.031 C 
ATOM     19  C   UNL A   1      42.676  30.254  28.989  1.00  0.00     0.029 A 
ATOM     20  N   UNL A   1      43.974  28.516  28.525  1.00  0.00    -0.354 N 
ATOM     21  C   UNL A   1      42.360  24.695  27.287  1.00  0.00     0.074 A 
ATOM     22  C   UNL A   1      41.443  25.192  26.291  1.00  0.00     0.031 C 
ATOM     23  C   UNL A   1      43.926  30.731  28.787  1.00  0.00     0.029 A 
ATOM     24  C   UNL A   1      44.809  29.621  28.473  1.00  0.00     0.049 A 
ATOM     25  H   UNL A   1      44.303  27.591  28.460  1.00  0.00     0.167 HD
ATOM     26  C   UNL A   1      43.163  23.594  27.266  1.00  0.00     0.031 A 
ATOM     27  C   UNL A   1      46.121  29.626  28.138  1.00  0.00     0.031 A 
ATOM     28  C   UNL A   1      43.780  23.337  28.535  1.00  0.00     0.049 A 
ATOM     29  C   UNL A   1      46.643  28.251  28.289  1.00  0.00     0.074 A 
ATOM     30  C   UNL A   1      43.319  23.016  29.797  1.00  0.00     0.029 A 
ATOM     31  N   UNL A   1      45.087  23.720  28.706  1.00  0.00    -0.354 N 
ATOM     32  N   UNL A   1      46.790  27.657  29.438  1.00  0.00    -0.248 NA
ATOM     33  C   UNL A   1      46.646  27.377  27.130  1.00  0.00     0.031 C 
ATOM     34  C   UNL A   1      44.196  23.697  30.691  1.00  0.00     0.029 A 
ATOM     35  C   UNL A   1      45.155  24.355  29.920  1.00  0.00     0.049 A 
ATOM     36  H   UNL A   1      45.831  23.569  28.078  1.00  0.00     0.167 HD
ATOM     37  C   UNL A   1      46.476  26.329  29.192  1.00  0.00     0.074 A 
ATOM     38  C   UNL A   1      46.514  26.195  27.739  1.00  0.00     0.031 C 
ATOM     39  C   UNL A   1      45.950  25.536  30.171  1.00  0.00     0.031 A 
BRANCH  26  40
ATOM     40  C   UNL A   1      43.619  22.914  26.003  1.00  0.00    -0.014 A 
ATOM     41  C   UNL A   1      43.616  21.508  25.932  1.00  0.00     0.009 A 
ATOM     42  C   UNL A   1      44.299  23.600  24.977  1.00  0.00     0.009 A 
ATOM     43  C   UNL A   1      44.295  20.829  24.912  1.00  0.00     0.001 A 
ATOM     44  C   UNL A   1      44.943  22.925  23.936  1.00  0.00     0.001 A 
ATOM     45  C   UNL A   1      44.961  21.537  23.916  1.00  0.00     0.000 A 
ENDBRANCH  26  40
BRANCH  27  46
ATOM     46  C   UNL A   1      46.886  30.681  27.445  1.00  0.00    -0.014 A 
ATOM     47  C   UNL A   1      46.235  31.772  26.850  1.00  0.00     0.009 A 
ATOM     48  C   UNL A   1      48.281  30.754  27.607  1.00  0.00     0.009 A 
ATOM     49  C   UNL A   1      46.954  32.910  26.462  1.00  0.00     0.001 A 
ATOM     50  C   UNL A   1      48.999  31.888  27.217  1.00  0.00     0.001 A 
ATOM     51  C   UNL A   1      48.332  32.973  26.658  1.00  0.00     0.000 A 
ENDBRANCH  27  46
BRANCH  39  52
ATOM     52  C   UNL A   1      45.925  26.080  31.581  1.00  0.00    -0.014 A 
ATOM     53  C   UNL A   1      44.871  26.875  32.068  1.00  0.00     0.009 A 
ATOM     54  C   UNL A   1      46.912  25.665  32.485  1.00  0.00     0.009 A 
ATOM     55  C   UNL A   1      44.829  27.274  33.408  1.00  0.00     0.001 A 
ATOM     56  C   UNL A   1      46.858  26.043  33.828  1.00  0.00     0.001 A 
ATOM     57  C   UNL A   1      45.822  26.853  34.289  1.00  0.00     0.000 A 
ENDBRANCH  39  52
ENDBRANCH  13  14
ENDBRANCH   6   8
ENDBRANCH   3   4
ENDBRANCH   2   3
ENDBRANCH   1   2
BRANCH   1  58
ATOM     58  C   UNL A   1      31.730  30.343  25.940  1.00  0.00     0.116 C 
BRANCH  58  59
ATOM     59  N   UNL A   1      32.330  29.897  24.686  1.00  0.00    -0.351 N 
ATOM     60  C   UNL A   1      31.795  29.038  23.735  1.00  0.00     0.284 C 
ATOM     61  H   UNL A   1      33.227  30.250  24.490  1.00  0.00     0.163 HD
ATOM     62  O   UNL A   1      32.372  28.939  22.658  1.00  0.00    -0.268 OA
BRANCH  60  63
ATOM     63  C   UNL A   1      30.462  28.191  24.082  1.00  0.00     0.322 C 
BRANCH  63  64
ATOM     64  N   UNL A   1      29.689  28.315  22.826  1.00  0.00    -0.329 N 
ATOM     65  H   UNL A   1      29.761  27.419  22.344  1.00  0.00     0.347 HD
ATOM     66  H   UNL A   1      30.108  29.125  22.369  1.00  0.00     0.347 HD
BRANCH  64  67
ATOM     67  C   UNL A   1      28.274  28.652  22.875  1.00  0.00     0.293 C 
BRANCH  67  68
ATOM     68  C   UNL A   1      27.893  30.111  22.666  1.00  0.00     0.173 C 
ATOM     69  C   UNL A   1      28.177  30.604  21.264  1.00  0.00     0.040 C 
ATOM     70  O   UNL A   1      28.636  30.984  23.525  1.00  0.00    -0.372 OA
ATOM     71  C   UNL A   1      28.105  32.094  21.480  1.00  0.00     0.031 C 
ATOM     72  C   UNL A   1      28.669  32.270  22.882  1.00  0.00     0.161 C 
ENDBRANCH  67  68
ENDBRANCH  64  67
ENDBRANCH  63  64
BRANCH  63  73
ATOM     73  C   UNL A   1      30.919  26.806  24.546  1.00  0.00     0.106 A 
ATOM     74  C   UNL A   1      30.259  26.080  25.553  1.00  0.00     0.141 A 
ATOM     75  N   UNL A   1      31.851  25.862  24.101  1.00  0.00    -0.326 N 
ATOM     76  N   UNL A   1      30.846  24.899  25.859  1.00  0.00    -0.245 NA
ATOM     77  C   UNL A   1      31.812  24.808  24.992  1.00  0.00     0.200 A 
BRANCH  75  78
ATOM     78  C   UNL A   1      32.721  25.637  22.950  1.00  0.00     0.089 C 
ATOM     79  C   UNL A   1      32.834  24.400  22.108  1.00  0.00     0.027 C 
ATOM     80  C   UNL A   1      32.322  25.665  21.501  1.00  0.00     0.027 C 
ENDBRANCH  75  78
ENDBRANCH  63  73
ENDBRANCH  60  63
ENDBRANCH  58  59
ENDBRANCH   1  58
TORSDOF 16
ENDMDL
