MODEL 1
REMARK VINA RESULT:     -11.6      0.000      0.000
REMARK SMILES Cc1cc2c(c(C)c1Br)C=C(C(=O)NCCCCNC(=O)c1ccc(-c3c4nc(c(-c5ccccc5)c5ccc([nH]5)c(-c5ccccc5)c5nc(c(-c6ccccc6)c6ccc3[nH]6)C=C5)C=C4)cc1)[C@@H](C(F)(F)F)O2
REMARK SMILES IDX 17 1 16 2 15 3 14 4 12 5 13 6 11 8 1 9 2 10 3 11 8 12 4 13
REMARK SMILES IDX 6 14 9 15 5 16 75 17 7 18 10 19 70 20 71 21 72 22 73 23
REMARK SMILES IDX 74 24 18 25 19 26 20 27 21 29 22 30 23 31 69 32 24 33 68 34
REMARK SMILES IDX 25 35 26 36 27 37 62 38 28 39 67 40 61 41 63 42 29 43 66 44
REMARK SMILES IDX 60 45 59 46 30 48 52 49 37 50 51 51 38 52 41 53 50 54 64 55
REMARK SMILES IDX 39 56 40 57 49 59 65 60 42 61 31 62 32 63 36 64 33 65 35 66
REMARK SMILES IDX 34 67 53 68 54 69 58 70 55 71 57 72 56 73 43 74 44 75 48 76
REMARK SMILES IDX 45 77 47 78 46 79
REMARK H PARENT 14 7 19 28 63 47 41 58
REMARK Flexibility Score: inf
ROOT
ATOM      1  C   UNL A   1      37.444  20.952  24.683  1.00  0.00     0.023 C 
ENDROOT
BRANCH   1   2
ATOM      2  C   UNL A   1      36.838  22.314  24.340  1.00  0.00     0.023 C 
BRANCH   2   3
ATOM      3  C   UNL A   1      36.759  23.275  25.522  1.00  0.00     0.116 C 
BRANCH   3   4
ATOM      4  N   UNL A   1      35.693  22.918  26.439  1.00  0.00    -0.352 N 
ATOM      5  C   UNL A   1      34.385  23.222  26.601  1.00  0.00     0.251 C 
ATOM      6  O   UNL A   1      33.837  22.674  27.562  1.00  0.00    -0.270 OA
ATOM      7  H   UNL A   1      36.005  22.285  27.126  1.00  0.00     0.163 HD
BRANCH   5   8
ATOM      8  C   UNL A   1      33.597  24.141  25.725  1.00  0.00     0.067 C 
ATOM      9  C   UNL A   1      30.672  29.119  22.709  1.00  0.00     0.046 C 
ATOM     10  C   UNL A   1      31.362  28.205  23.688  1.00  0.00    -0.033 A 
ATOM     11  C   UNL A   1      31.655  26.907  23.261  1.00  0.00     0.051 A 
ATOM     12  C   UNL A   1      31.781  28.607  24.974  1.00  0.00     0.024 A 
ATOM     13  C   UNL A   1      32.327  26.018  24.093  1.00  0.00     0.128 A 
ATOM     14  C   UNL A   1      32.443  27.700  25.844  1.00  0.00    -0.026 A 
ATOM     15  Br  UNL A   1      31.483  30.422  25.505  1.00  0.00    -0.050 Br
ATOM     16  C   UNL A   1      32.736  26.395  25.374  1.00  0.00     0.021 A 
ATOM     17  O   UNL A   1      32.594  24.796  23.546  1.00  0.00    -0.475 OA
ATOM     18  C   UNL A   1      32.875  28.092  27.240  1.00  0.00     0.046 C 
ATOM     19  C   UNL A   1      33.511  25.416  26.146  1.00  0.00     0.026 C 
ATOM     20  C   UNL A   1      32.894  23.720  24.470  1.00  0.00     0.314 C 
BRANCH  20  21
ATOM     21  C   UNL A   1      31.613  22.910  24.744  1.00  0.00     0.429 C 
ATOM     22  F   UNL A   1      31.007  23.352  25.874  1.00  0.00    -0.167 F 
ATOM     23  F   UNL A   1      30.701  23.032  23.751  1.00  0.00    -0.167 F 
ATOM     24  F   UNL A   1      31.853  21.589  24.900  1.00  0.00    -0.167 F 
ENDBRANCH  20  21
ENDBRANCH   5   8
ENDBRANCH   3   4
ENDBRANCH   2   3
ENDBRANCH   1   2
BRANCH   1  25
ATOM     25  C   UNL A   1      38.570  20.979  25.713  1.00  0.00     0.116 C 
BRANCH  25  26
ATOM     26  N   UNL A   1      39.506  19.869  25.595  1.00  0.00    -0.352 N 
ATOM     27  C   UNL A   1      40.833  19.840  25.955  1.00  0.00     0.251 C 
ATOM     28  H   UNL A   1      39.145  19.038  25.211  1.00  0.00     0.163 HD
ATOM     29  O   UNL A   1      41.527  18.854  25.742  1.00  0.00    -0.269 OA
BRANCH  27  30
ATOM     30  C   UNL A   1      41.415  21.050  26.562  1.00  0.00     0.039 A 
ATOM     31  C   UNL A   1      41.962  22.021  25.723  1.00  0.00     0.014 A 
ATOM     32  C   UNL A   1      41.316  21.259  27.940  1.00  0.00     0.014 A 
ATOM     33  C   UNL A   1      42.345  23.247  26.262  1.00  0.00     0.010 A 
ATOM     34  C   UNL A   1      41.639  22.505  28.465  1.00  0.00     0.010 A 
ATOM     35  C   UNL A   1      42.146  23.510  27.628  1.00  0.00    -0.014 A 
BRANCH  35  36
ATOM     36  C   UNL A   1      42.459  24.843  28.193  1.00  0.00     0.031 A 
ATOM     37  C   UNL A   1      43.868  25.182  28.580  1.00  0.00     0.074 A 
ATOM     38  C   UNL A   1      41.466  25.732  28.388  1.00  0.00     0.049 A 
ATOM     39  N   UNL A   1      44.337  26.294  29.083  1.00  0.00    -0.248 NA
ATOM     40  C   UNL A   1      44.880  24.128  28.397  1.00  0.00     0.031 C 
ATOM     41  C   UNL A   1      40.050  25.503  28.089  1.00  0.00     0.029 A 
ATOM     42  N   UNL A   1      41.500  27.013  28.878  1.00  0.00    -0.354 N 
ATOM     43  C   UNL A   1      45.693  26.073  29.280  1.00  0.00     0.074 A 
ATOM     44  C   UNL A   1      45.963  24.705  28.896  1.00  0.00     0.031 C 
ATOM     45  C   UNL A   1      39.359  26.623  28.358  1.00  0.00     0.029 A 
ATOM     46  C   UNL A   1      40.276  27.635  28.874  1.00  0.00     0.049 A 
ATOM     47  H   UNL A   1      42.323  27.445  29.202  1.00  0.00     0.167 HD
ATOM     48  C   UNL A   1      46.635  26.940  29.714  1.00  0.00     0.031 A 
ATOM     49  C   UNL A   1      39.933  28.887  29.232  1.00  0.00     0.031 A 
ATOM     50  C   UNL A   1      46.372  28.303  30.080  1.00  0.00     0.049 A 
ATOM     51  C   UNL A   1      40.995  29.825  29.731  1.00  0.00     0.074 A 
ATOM     52  C   UNL A   1      47.270  29.276  30.481  1.00  0.00     0.029 A 
ATOM     53  N   UNL A   1      45.116  28.886  30.086  1.00  0.00    -0.354 N 
ATOM     54  N   UNL A   1      42.284  29.618  29.855  1.00  0.00    -0.248 NA
ATOM     55  C   UNL A   1      40.557  31.169  30.134  1.00  0.00     0.031 C 
ATOM     56  C   UNL A   1      46.551  30.441  30.763  1.00  0.00     0.029 A 
ATOM     57  C   UNL A   1      45.211  30.202  30.503  1.00  0.00     0.049 A 
ATOM     58  H   UNL A   1      44.280  28.432  29.832  1.00  0.00     0.167 HD
ATOM     59  C   UNL A   1      42.812  30.809  30.333  1.00  0.00     0.074 A 
ATOM     60  C   UNL A   1      41.708  31.737  30.468  1.00  0.00     0.031 C 
ATOM     61  C   UNL A   1      44.099  31.106  30.632  1.00  0.00     0.031 A 
BRANCH  48  62
ATOM     62  C   UNL A   1      48.044  26.431  29.801  1.00  0.00    -0.014 A 
ATOM     63  C   UNL A   1      48.528  25.858  30.989  1.00  0.00     0.009 A 
ATOM     64  C   UNL A   1      48.889  26.502  28.684  1.00  0.00     0.009 A 
ATOM     65  C   UNL A   1      49.842  25.394  31.064  1.00  0.00     0.001 A 
ATOM     66  C   UNL A   1      50.195  26.016  28.755  1.00  0.00     0.001 A 
ATOM     67  C   UNL A   1      50.673  25.472  29.947  1.00  0.00     0.000 A 
ENDBRANCH  48  62
BRANCH  49  68
ATOM     68  C   UNL A   1      38.528  29.339  29.087  1.00  0.00    -0.014 A 
ATOM     69  C   UNL A   1      38.072  29.832  27.856  1.00  0.00     0.009 A 
ATOM     70  C   UNL A   1      37.633  29.268  30.166  1.00  0.00     0.009 A 
ATOM     71  C   UNL A   1      36.749  30.258  27.709  1.00  0.00     0.001 A 
ATOM     72  C   UNL A   1      36.306  29.676  30.011  1.00  0.00     0.001 A 
ATOM     73  C   UNL A   1      35.867  30.175  28.786  1.00  0.00     0.000 A 
ENDBRANCH  49  68
BRANCH  61  74
ATOM     74  C   UNL A   1      44.392  32.491  31.128  1.00  0.00    -0.014 A 
ATOM     75  C   UNL A   1      44.419  32.771  32.501  1.00  0.00     0.009 A 
ATOM     76  C   UNL A   1      44.728  33.502  30.213  1.00  0.00     0.009 A 
ATOM     77  C   UNL A   1      44.769  34.045  32.952  1.00  0.00     0.001 A 
ATOM     78  C   UNL A   1      45.097  34.768  30.669  1.00  0.00     0.001 A 
ATOM     79  C   UNL A   1      45.115  35.039  32.036  1.00  0.00     0.000 A 
ENDBRANCH  61  74
ENDBRANCH  35  36
ENDBRANCH  27  30
ENDBRANCH  25  26
ENDBRANCH   1  25
TORSDOF 12
ENDMDL
MODEL 2
REMARK VINA RESULT:     -11.6      0.543      5.989
REMARK SMILES Cc1cc2c(c(C)c1Br)C=C(C(=O)NCCCCNC(=O)c1ccc(-c3c4nc(c(-c5ccccc5)c5ccc([nH]5)c(-c5ccccc5)c5nc(c(-c6ccccc6)c6ccc3[nH]6)C=C5)C=C4)cc1)[C@@H](C(F)(F)F)O2
REMARK SMILES IDX 17 1 16 2 15 3 14 4 12 5 13 6 11 8 1 9 2 10 3 11 8 12 4 13
REMARK SMILES IDX 6 14 9 15 5 16 75 17 7 18 10 19 70 20 71 21 72 22 73 23
REMARK SMILES IDX 74 24 18 25 19 26 20 27 21 29 22 30 23 31 69 32 24 33 68 34
REMARK SMILES IDX 25 35 26 36 27 37 62 38 28 39 67 40 61 41 63 42 29 43 66 44
REMARK SMILES IDX 60 45 59 46 30 48 52 49 37 50 51 51 38 52 41 53 50 54 64 55
REMARK SMILES IDX 39 56 40 57 49 59 65 60 42 61 31 62 32 63 36 64 33 65 35 66
REMARK SMILES IDX 34 67 53 68 54 69 58 70 55 71 57 72 56 73 43 74 44 75 48 76
REMARK SMILES IDX 45 77 47 78 46 79
REMARK H PARENT 14 7 19 28 63 47 41 58
REMARK Flexibility Score: inf
ROOT
ATOM      1  C   UNL A   1      37.501  20.879  25.001  1.00  0.00     0.023 C 
ENDROOT
BRANCH   1   2
ATOM      2  C   UNL A   1      37.033  22.086  24.186  1.00  0.00     0.023 C 
BRANCH   2   3
ATOM      3  C   UNL A   1      36.722  23.321  25.026  1.00  0.00     0.116 C 
BRANCH   3   4
ATOM      4  N   UNL A   1      35.927  22.994  26.195  1.00  0.00    -0.352 N 
ATOM      5  C   UNL A   1      34.677  23.253  26.644  1.00  0.00     0.251 C 
ATOM      6  O   UNL A   1      34.405  22.763  27.744  1.00  0.00    -0.270 OA
ATOM      7  H   UNL A   1      36.430  22.434  26.830  1.00  0.00     0.163 HD
BRANCH   5   8
ATOM      8  C   UNL A   1      33.649  24.061  25.920  1.00  0.00     0.067 C 
ATOM      9  C   UNL A   1      29.874  28.644  23.241  1.00  0.00     0.046 C 
ATOM     10  C   UNL A   1      30.839  27.857  24.090  1.00  0.00    -0.033 A 
ATOM     11  C   UNL A   1      31.018  26.506  23.777  1.00  0.00     0.051 A 
ATOM     12  C   UNL A   1      31.608  28.422  25.129  1.00  0.00     0.024 A 
ATOM     13  C   UNL A   1      31.921  25.725  24.490  1.00  0.00     0.128 A 
ATOM     14  C   UNL A   1      32.514  27.628  25.883  1.00  0.00    -0.026 A 
ATOM     15  Br  UNL A   1      31.444  30.298  25.470  1.00  0.00    -0.050 Br
ATOM     16  C   UNL A   1      32.680  26.265  25.531  1.00  0.00     0.021 A 
ATOM     17  O   UNL A   1      32.039  24.434  24.061  1.00  0.00    -0.475 OA
ATOM     18  C   UNL A   1      33.328  28.197  27.023  1.00  0.00     0.046 C 
ATOM     19  C   UNL A   1      33.666  25.384  26.168  1.00  0.00     0.026 C 
ATOM     20  C   UNL A   1      32.618  23.488  24.995  1.00  0.00     0.314 C 
BRANCH  20  21
ATOM     21  C   UNL A   1      31.489  22.752  25.741  1.00  0.00     0.429 C 
ATOM     22  F   UNL A   1      31.731  21.417  25.765  1.00  0.00    -0.167 F 
ATOM     23  F   UNL A   1      31.383  23.141  27.034  1.00  0.00    -0.167 F 
ATOM     24  F   UNL A   1      30.278  22.937  25.172  1.00  0.00    -0.167 F 
ENDBRANCH  20  21
ENDBRANCH   5   8
ENDBRANCH   3   4
ENDBRANCH   2   3
ENDBRANCH   1   2
BRANCH   1  25
ATOM     25  C   UNL A   1      38.819  21.067  25.748  1.00  0.00     0.116 C 
BRANCH  25  26
ATOM     26  N   UNL A   1      39.686  19.897  25.722  1.00  0.00    -0.352 N 
ATOM     27  C   UNL A   1      41.005  19.813  26.102  1.00  0.00     0.251 C 
ATOM     28  H   UNL A   1      39.278  19.063  25.392  1.00  0.00     0.163 HD
ATOM     29  O   UNL A   1      41.638  18.773  25.969  1.00  0.00    -0.269 OA
BRANCH  27  30
ATOM     30  C   UNL A   1      41.655  21.025  26.630  1.00  0.00     0.039 A 
ATOM     31  C   UNL A   1      42.197  21.939  25.726  1.00  0.00     0.014 A 
ATOM     32  C   UNL A   1      41.624  21.295  28.000  1.00  0.00     0.014 A 
ATOM     33  C   UNL A   1      42.645  23.172  26.194  1.00  0.00     0.010 A 
ATOM     34  C   UNL A   1      42.012  22.550  28.455  1.00  0.00     0.010 A 
ATOM     35  C   UNL A   1      42.517  23.500  27.555  1.00  0.00    -0.014 A 
BRANCH  35  36
ATOM     36  C   UNL A   1      42.900  24.843  28.046  1.00  0.00     0.031 A 
ATOM     37  C   UNL A   1      41.848  25.891  28.262  1.00  0.00     0.074 A 
ATOM     38  C   UNL A   1      44.199  25.127  28.263  1.00  0.00     0.049 A 
ATOM     39  N   UNL A   1      41.987  27.118  28.691  1.00  0.00    -0.248 NA
ATOM     40  C   UNL A   1      40.461  25.518  27.935  1.00  0.00     0.031 C 
ATOM     41  C   UNL A   1      45.317  24.204  28.049  1.00  0.00     0.029 A 
ATOM     42  N   UNL A   1      44.796  26.274  28.719  1.00  0.00    -0.354 N 
ATOM     43  C   UNL A   1      40.711  27.664  28.681  1.00  0.00     0.074 A 
ATOM     44  C   UNL A   1      39.819  26.656  28.153  1.00  0.00     0.031 C 
ATOM     45  C   UNL A   1      46.458  24.806  28.420  1.00  0.00     0.029 A 
ATOM     46  C   UNL A   1      46.157  26.162  28.868  1.00  0.00     0.049 A 
ATOM     47  H   UNL A   1      44.298  27.098  28.922  1.00  0.00     0.167 HD
ATOM     48  C   UNL A   1      40.312  28.886  29.103  1.00  0.00     0.031 A 
ATOM     49  C   UNL A   1      47.059  27.051  29.327  1.00  0.00     0.031 A 
ATOM     50  C   UNL A   1      41.193  29.881  29.643  1.00  0.00     0.049 A 
ATOM     51  C   UNL A   1      46.594  28.408  29.770  1.00  0.00     0.074 A 
ATOM     52  C   UNL A   1      40.877  31.131  30.147  1.00  0.00     0.029 A 
ATOM     53  N   UNL A   1      42.567  29.739  29.752  1.00  0.00    -0.354 N 
ATOM     54  N   UNL A   1      45.375  28.888  29.810  1.00  0.00    -0.248 NA
ATOM     55  C   UNL A   1      47.628  29.345  30.234  1.00  0.00     0.031 C 
ATOM     56  C   UNL A   1      42.065  31.758  30.531  1.00  0.00     0.029 A 
ATOM     57  C   UNL A   1      43.116  30.885  30.298  1.00  0.00     0.049 A 
ATOM     58  H   UNL A   1      43.076  28.941  29.482  1.00  0.00     0.167 HD
ATOM     59  C   UNL A   1      45.492  30.174  30.319  1.00  0.00     0.074 A 
ATOM     60  C   UNL A   1      46.899  30.397  30.583  1.00  0.00     0.031 C 
ATOM     61  C   UNL A   1      44.519  31.087  30.549  1.00  0.00     0.031 A 
BRANCH  48  62
ATOM     62  C   UNL A   1      38.849  29.199  29.003  1.00  0.00    -0.014 A 
ATOM     63  C   UNL A   1      38.296  29.672  27.801  1.00  0.00     0.009 A 
ATOM     64  C   UNL A   1      38.008  28.999  30.108  1.00  0.00     0.009 A 
ATOM     65  C   UNL A   1      36.935  29.968  27.719  1.00  0.00     0.001 A 
ATOM     66  C   UNL A   1      36.644  29.275  30.016  1.00  0.00     0.001 A 
ATOM     67  C   UNL A   1      36.110  29.767  28.825  1.00  0.00     0.000 A 
ENDBRANCH  48  62
BRANCH  49  68
ATOM     68  C   UNL A   1      48.488  26.665  29.434  1.00  0.00    -0.014 A 
ATOM     69  C   UNL A   1      48.963  26.047  30.600  1.00  0.00     0.009 A 
ATOM     70  C   UNL A   1      49.378  26.895  28.375  1.00  0.00     0.009 A 
ATOM     71  C   UNL A   1      50.305  25.678  30.710  1.00  0.00     0.001 A 
ATOM     72  C   UNL A   1      50.716  26.508  28.479  1.00  0.00     0.001 A 
ATOM     73  C   UNL A   1      51.180  25.904  29.647  1.00  0.00     0.000 A 
ENDBRANCH  49  68
BRANCH  61  74
ATOM     74  C   UNL A   1      44.933  32.410  31.121  1.00  0.00    -0.014 A 
ATOM     75  C   UNL A   1      45.226  33.494  30.281  1.00  0.00     0.009 A 
ATOM     76  C   UNL A   1      44.945  32.595  32.512  1.00  0.00     0.009 A 
ATOM     77  C   UNL A   1      45.535  34.742  30.827  1.00  0.00     0.001 A 
ATOM     78  C   UNL A   1      45.235  33.848  33.053  1.00  0.00     0.001 A 
ATOM     79  C   UNL A   1      45.531  34.918  32.211  1.00  0.00     0.000 A 
ENDBRANCH  61  74
ENDBRANCH  35  36
ENDBRANCH  27  30
ENDBRANCH  25  26
ENDBRANCH   1  25
TORSDOF 12
ENDMDL
MODEL 3
REMARK VINA RESULT:     -11.6      3.525      8.492
REMARK SMILES Cc1cc2c(c(C)c1Br)C=C(C(=O)NCCCCNC(=O)c1ccc(-c3c4nc(c(-c5ccccc5)c5ccc([nH]5)c(-c5ccccc5)c5nc(c(-c6ccccc6)c6ccc3[nH]6)C=C5)C=C4)cc1)[C@@H](C(F)(F)F)O2
REMARK SMILES IDX 17 1 16 2 15 3 14 4 12 5 13 6 11 8 1 9 2 10 3 11 8 12 4 13
REMARK SMILES IDX 6 14 9 15 5 16 75 17 7 18 10 19 70 20 71 21 72 22 73 23
REMARK SMILES IDX 74 24 18 25 19 26 20 27 21 29 22 30 23 31 69 32 24 33 68 34
REMARK SMILES IDX 25 35 26 36 27 37 62 38 28 39 67 40 61 41 63 42 29 43 66 44
REMARK SMILES IDX 60 45 59 46 30 48 52 49 37 50 51 51 38 52 41 53 50 54 64 55
REMARK SMILES IDX 39 56 40 57 49 59 65 60 42 61 31 62 32 63 36 64 33 65 35 66
REMARK SMILES IDX 34 67 53 68 54 69 58 70 55 71 57 72 56 73 43 74 44 75 48 76
REMARK SMILES IDX 45 77 47 78 46 79
REMARK H PARENT 14 7 19 28 63 47 41 58
REMARK Flexibility Score: inf
ROOT
ATOM      1  C   UNL A   1      31.838  31.018  26.580  1.00  0.00     0.023 C 
ENDROOT
BRANCH   1   2
ATOM      2  C   UNL A   1      31.916  29.517  26.871  1.00  0.00     0.023 C 
BRANCH   2   3
ATOM      3  C   UNL A   1      33.313  28.925  26.712  1.00  0.00     0.116 C 
BRANCH   3   4
ATOM      4  N   UNL A   1      33.782  29.006  25.341  1.00  0.00    -0.352 N 
ATOM      5  C   UNL A   1      33.854  28.182  24.271  1.00  0.00     0.251 C 
ATOM      6  O   UNL A   1      34.358  28.683  23.260  1.00  0.00    -0.270 OA
ATOM      7  H   UNL A   1      34.144  29.899  25.136  1.00  0.00     0.163 HD
BRANCH   5   8
ATOM      8  C   UNL A   1      33.381  26.766  24.237  1.00  0.00     0.067 C 
ATOM      9  C   UNL A   1      32.512  20.326  24.695  1.00  0.00     0.046 C 
ATOM     10  C   UNL A   1      33.069  21.724  24.615  1.00  0.00    -0.033 A 
ATOM     11  C   UNL A   1      32.157  22.772  24.456  1.00  0.00     0.051 A 
ATOM     12  C   UNL A   1      34.439  22.031  24.755  1.00  0.00     0.024 A 
ATOM     13  C   UNL A   1      32.592  24.092  24.415  1.00  0.00     0.128 A 
ATOM     14  C   UNL A   1      34.898  23.373  24.686  1.00  0.00    -0.026 A 
ATOM     15  Br  UNL A   1      35.664  20.599  25.091  1.00  0.00    -0.050 Br
ATOM     16  C   UNL A   1      33.946  24.412  24.538  1.00  0.00     0.021 A 
ATOM     17  O   UNL A   1      31.604  25.027  24.302  1.00  0.00    -0.475 OA
ATOM     18  C   UNL A   1      36.363  23.730  24.801  1.00  0.00     0.046 C 
ATOM     19  C   UNL A   1      34.298  25.837  24.566  1.00  0.00     0.026 C 
ATOM     20  C   UNL A   1      32.000  26.342  23.836  1.00  0.00     0.314 C 
BRANCH  20  21
ATOM     21  C   UNL A   1      31.762  26.439  22.318  1.00  0.00     0.429 C 
ATOM     22  F   UNL A   1      31.002  25.400  21.891  1.00  0.00    -0.167 F 
ATOM     23  F   UNL A   1      31.095  27.565  21.970  1.00  0.00    -0.167 F 
ATOM     24  F   UNL A   1      32.910  26.423  21.607  1.00  0.00    -0.167 F 
ENDBRANCH  20  21
ENDBRANCH   5   8
ENDBRANCH   3   4
ENDBRANCH   2   3
ENDBRANCH   1   2
BRANCH   1  25
ATOM     25  C   UNL A   1      32.924  31.867  27.236  1.00  0.00     0.116 C 
BRANCH  25  26
ATOM     26  N   UNL A   1      32.478  33.197  27.628  1.00  0.00    -0.352 N 
ATOM     27  C   UNL A   1      33.131  34.107  28.425  1.00  0.00     0.251 C 
ATOM     28  H   UNL A   1      31.601  33.479  27.281  1.00  0.00     0.163 HD
ATOM     29  O   UNL A   1      32.611  35.173  28.729  1.00  0.00    -0.269 OA
BRANCH  27  30
ATOM     30  C   UNL A   1      34.460  33.745  28.948  1.00  0.00     0.039 A 
ATOM     31  C   UNL A   1      34.535  33.016  30.136  1.00  0.00     0.014 A 
ATOM     32  C   UNL A   1      35.607  34.035  28.205  1.00  0.00     0.014 A 
ATOM     33  C   UNL A   1      35.765  32.507  30.543  1.00  0.00     0.010 A 
ATOM     34  C   UNL A   1      36.822  33.472  28.580  1.00  0.00     0.010 A 
ATOM     35  C   UNL A   1      36.907  32.697  29.746  1.00  0.00    -0.014 A 
BRANCH  35  36
ATOM     36  C   UNL A   1      38.200  32.077  30.120  1.00  0.00     0.031 A 
ATOM     37  C   UNL A   1      39.106  32.766  31.098  1.00  0.00     0.074 A 
ATOM     38  C   UNL A   1      38.570  30.914  29.550  1.00  0.00     0.049 A 
ATOM     39  N   UNL A   1      40.270  32.379  31.551  1.00  0.00    -0.248 NA
ATOM     40  C   UNL A   1      38.655  34.067  31.619  1.00  0.00     0.031 C 
ATOM     41  C   UNL A   1      37.792  30.171  28.555  1.00  0.00     0.029 A 
ATOM     42  N   UNL A   1      39.693  30.149  29.734  1.00  0.00    -0.354 N 
ATOM     43  C   UNL A   1      40.692  33.388  32.405  1.00  0.00     0.074 A 
ATOM     44  C   UNL A   1      39.689  34.429  32.366  1.00  0.00     0.031 C 
ATOM     45  C   UNL A   1      38.440  29.035  28.253  1.00  0.00     0.029 A 
ATOM     46  C   UNL A   1      39.688  28.983  29.009  1.00  0.00     0.049 A 
ATOM     47  H   UNL A   1      40.431  30.410  30.330  1.00  0.00     0.167 HD
ATOM     48  C   UNL A   1      41.801  33.432  33.177  1.00  0.00     0.031 A 
ATOM     49  C   UNL A   1      40.583  27.978  28.968  1.00  0.00     0.031 A 
ATOM     50  C   UNL A   1      42.790  32.392  33.230  1.00  0.00     0.049 A 
ATOM     51  C   UNL A   1      41.818  28.059  29.819  1.00  0.00     0.074 A 
ATOM     52  C   UNL A   1      43.923  32.320  34.021  1.00  0.00     0.029 A 
ATOM     53  N   UNL A   1      42.761  31.241  32.461  1.00  0.00    -0.354 N 
ATOM     54  N   UNL A   1      42.173  28.994  30.667  1.00  0.00    -0.248 NA
ATOM     55  C   UNL A   1      42.773  26.947  29.711  1.00  0.00     0.031 C 
ATOM     56  C   UNL A   1      44.598  31.138  33.705  1.00  0.00     0.029 A 
ATOM     57  C   UNL A   1      43.867  30.459  32.744  1.00  0.00     0.049 A 
ATOM     58  H   UNL A   1      42.059  31.013  31.810  1.00  0.00     0.167 HD
ATOM     59  C   UNL A   1      43.382  28.575  31.206  1.00  0.00     0.074 A 
ATOM     60  C   UNL A   1      43.695  27.298  30.598  1.00  0.00     0.031 C 
ATOM     61  C   UNL A   1      44.160  29.194  32.125  1.00  0.00     0.031 A 
BRANCH  48  62
ATOM     62  C   UNL A   1      41.989  34.647  34.036  1.00  0.00    -0.014 A 
ATOM     63  C   UNL A   1      42.656  35.779  33.542  1.00  0.00     0.009 A 
ATOM     64  C   UNL A   1      41.476  34.673  35.342  1.00  0.00     0.009 A 
ATOM     65  C   UNL A   1      42.834  36.903  34.351  1.00  0.00     0.001 A 
ATOM     66  C   UNL A   1      41.635  35.806  36.140  1.00  0.00     0.001 A 
ATOM     67  C   UNL A   1      42.321  36.916  35.646  1.00  0.00     0.000 A 
ENDBRANCH  48  62
BRANCH  49  68
ATOM     68  C   UNL A   1      40.320  26.787  28.124  1.00  0.00    -0.014 A 
ATOM     69  C   UNL A   1      39.548  25.728  28.625  1.00  0.00     0.009 A 
ATOM     70  C   UNL A   1      40.820  26.706  26.815  1.00  0.00     0.009 A 
ATOM     71  C   UNL A   1      39.293  24.604  27.836  1.00  0.00     0.001 A 
ATOM     72  C   UNL A   1      40.547  25.589  26.023  1.00  0.00     0.001 A 
ATOM     73  C   UNL A   1      39.789  24.537  26.535  1.00  0.00     0.000 A 
ENDBRANCH  49  68
BRANCH  61  74
ATOM     74  C   UNL A   1      45.424  28.501  32.539  1.00  0.00    -0.014 A 
ATOM     75  C   UNL A   1      46.639  28.780  31.896  1.00  0.00     0.009 A 
ATOM     76  C   UNL A   1      45.412  27.627  33.638  1.00  0.00     0.009 A 
ATOM     77  C   UNL A   1      47.822  28.187  32.342  1.00  0.00     0.001 A 
ATOM     78  C   UNL A   1      46.600  27.052  34.092  1.00  0.00     0.001 A 
ATOM     79  C   UNL A   1      47.802  27.331  33.443  1.00  0.00     0.000 A 
ENDBRANCH  61  74
ENDBRANCH  35  36
ENDBRANCH  27  30
ENDBRANCH  25  26
ENDBRANCH   1  25
TORSDOF 12
ENDMDL
