MODEL 1
REMARK VINA RESULT:     -10.1      0.000      0.000
REMARK SMILES C#CC[NH2+]CC(=O)Nc1ccc(F)cc1C(=O)NCCCCNC(=O)c1ccc(-c2c3nc(c(-c4ccccc4)c4ccc([nH]4)c(-c4ccccc4)c4nc(c(-c5ccccc5)c5ccc2[nH]5)C=C4)C=C3)cc1
REMARK SMILES IDX 19 1 18 2 16 3 17 4 15 6 9 7 10 8 11 9 14 10 12 11 13 12
REMARK SMILES IDX 8 13 6 14 7 15 5 17 4 18 3 21 2 22 1 23 20 24 21 25 22 26
REMARK SMILES IDX 23 27 24 28 25 30 26 31 27 32 73 33 28 34 72 35 29 36 30 37
REMARK SMILES IDX 31 38 66 39 32 40 71 41 65 42 67 43 33 44 70 45 64 46 63 47
REMARK SMILES IDX 34 49 56 50 41 51 55 52 42 53 45 54 54 55 68 56 43 57 44 58
REMARK SMILES IDX 53 60 69 61 46 62 35 63 36 64 40 65 37 66 39 67 38 68 57 69
REMARK SMILES IDX 58 70 62 71 59 72 61 73 60 74 47 75 48 76 52 77 49 78 51 79
REMARK SMILES IDX 50 80
REMARK H PARENT 18 5 8 16 4 19 4 20 23 29 67 48 45 59
REMARK Flexibility Score: inf
ROOT
ATOM      1  C   UNL A   1      32.544  27.358  26.716  1.00  0.00     0.116 C 
ENDROOT
BRANCH   1   2
ATOM      2  N   UNL A   1      31.431  26.517  26.419  1.00  0.00    -0.352 N 
ATOM      3  C   UNL A   1      31.469  25.226  25.964  1.00  0.00     0.253 C 
ATOM      4  O   UNL A   1      30.397  24.686  25.687  1.00  0.00    -0.269 OA
ATOM      5  H   UNL A   1      30.537  26.906  26.557  1.00  0.00     0.163 HD
BRANCH   3   6
ATOM      6  C   UNL A   1      32.717  24.427  25.762  1.00  0.00     0.066 A 
ATOM      7  C   UNL A   1      33.851  24.872  25.055  1.00  0.00     0.054 A 
ATOM      8  C   UNL A   1      35.131  24.495  25.532  1.00  0.00     0.030 A 
ATOM      9  C   UNL A   1      35.277  23.487  26.488  1.00  0.00     0.041 A 
ATOM     10  C   UNL A   1      32.883  23.409  26.729  1.00  0.00     0.055 A 
ATOM     11  C   UNL A   1      34.144  22.918  27.043  1.00  0.00     0.124 A 
ATOM     12  F   UNL A   1      34.272  21.930  27.938  1.00  0.00    -0.207 F 
BRANCH   7  13
ATOM     13  N   UNL A   1      33.864  25.632  23.858  1.00  0.00    -0.320 N 
ATOM     14  C   UNL A   1      33.318  25.352  22.610  1.00  0.00     0.279 C 
ATOM     15  O   UNL A   1      33.731  26.037  21.666  1.00  0.00    -0.268 OA
ATOM     16  H   UNL A   1      34.333  26.495  23.920  1.00  0.00     0.170 HD
BRANCH  14  17
ATOM     17  C   UNL A   1      32.238  24.265  22.321  1.00  0.00     0.363 C 
BRANCH  17  18
ATOM     18  N   UNL A   1      32.832  22.951  21.973  1.00  0.00    -0.328 N 
ATOM     19  H   UNL A   1      32.678  22.732  20.989  1.00  0.00     0.347 HD
ATOM     20  H   UNL A   1      33.843  22.929  22.113  1.00  0.00     0.347 HD
BRANCH  18  21
ATOM     21  C   UNL A   1      32.138  22.020  22.818  1.00  0.00     0.352 C 
BRANCH  21  22
ATOM     22  C   UNL A   1      32.917  21.126  23.769  1.00  0.00    -0.047 C 
ATOM     23  C   UNL A   1      33.586  20.360  24.584  1.00  0.00     0.010 C 
ENDBRANCH  21  22
ENDBRANCH  18  21
ENDBRANCH  17  18
ENDBRANCH  14  17
ENDBRANCH   7  13
ENDBRANCH   3   6
ENDBRANCH   1   2
BRANCH   1  24
ATOM     24  C   UNL A   1      32.315  28.525  27.653  1.00  0.00     0.023 C 
BRANCH  24  25
ATOM     25  C   UNL A   1      31.976  29.839  26.964  1.00  0.00     0.023 C 
BRANCH  25  26
ATOM     26  C   UNL A   1      33.028  30.944  27.058  1.00  0.00     0.116 C 
BRANCH  26  27
ATOM     27  N   UNL A   1      32.481  32.279  27.267  1.00  0.00    -0.352 N 
ATOM     28  C   UNL A   1      33.001  33.339  27.987  1.00  0.00     0.251 C 
ATOM     29  H   UNL A   1      31.616  32.452  26.830  1.00  0.00     0.163 HD
ATOM     30  O   UNL A   1      32.361  34.361  28.156  1.00  0.00    -0.269 OA
BRANCH  28  31
ATOM     31  C   UNL A   1      34.341  33.197  28.597  1.00  0.00     0.039 A 
ATOM     32  C   UNL A   1      34.460  32.560  29.834  1.00  0.00     0.014 A 
ATOM     33  C   UNL A   1      35.477  33.622  27.909  1.00  0.00     0.014 A 
ATOM     34  C   UNL A   1      35.730  32.235  30.316  1.00  0.00     0.010 A 
ATOM     35  C   UNL A   1      36.731  33.202  28.336  1.00  0.00     0.010 A 
ATOM     36  C   UNL A   1      36.872  32.492  29.539  1.00  0.00    -0.014 A 
BRANCH  36  37
ATOM     37  C   UNL A   1      38.216  32.006  29.944  1.00  0.00     0.031 A 
ATOM     38  C   UNL A   1      38.733  30.692  29.421  1.00  0.00     0.074 A 
ATOM     39  C   UNL A   1      38.931  32.692  30.859  1.00  0.00     0.049 A 
ATOM     40  N   UNL A   1      39.834  30.056  29.735  1.00  0.00    -0.248 NA
ATOM     41  C   UNL A   1      37.886  29.980  28.449  1.00  0.00     0.031 C 
ATOM     42  C   UNL A   1      38.517  33.942  31.504  1.00  0.00     0.029 A 
ATOM     43  N   UNL A   1      40.156  32.424  31.421  1.00  0.00    -0.354 N 
ATOM     44  C   UNL A   1      39.790  28.860  29.030  1.00  0.00     0.074 A 
ATOM     45  C   UNL A   1      38.538  28.837  28.307  1.00  0.00     0.031 C 
ATOM     46  C   UNL A   1      39.480  34.343  32.349  1.00  0.00     0.029 A 
ATOM     47  C   UNL A   1      40.560  33.363  32.340  1.00  0.00     0.049 A 
ATOM     48  H   UNL A   1      40.693  31.634  31.188  1.00  0.00     0.167 HD
ATOM     49  C   UNL A   1      40.718  27.875  28.971  1.00  0.00     0.031 A 
ATOM     50  C   UNL A   1      41.672  33.427  33.097  1.00  0.00     0.031 A 
ATOM     51  C   UNL A   1      41.984  27.916  29.650  1.00  0.00     0.049 A 
ATOM     52  C   UNL A   1      42.705  32.341  32.980  1.00  0.00     0.074 A 
ATOM     53  C   UNL A   1      43.030  27.013  29.571  1.00  0.00     0.029 A 
ATOM     54  N   UNL A   1      42.377  28.911  30.528  1.00  0.00    -0.354 N 
ATOM     55  N   UNL A   1      42.690  31.265  32.232  1.00  0.00    -0.248 NA
ATOM     56  C   UNL A   1      43.915  32.486  33.802  1.00  0.00     0.031 C 
ATOM     57  C   UNL A   1      44.040  27.440  30.438  1.00  0.00     0.029 A 
ATOM     58  C   UNL A   1      43.641  28.633  31.018  1.00  0.00     0.049 A 
ATOM     59  H   UNL A   1      41.837  29.699  30.769  1.00  0.00     0.167 HD
ATOM     60  C   UNL A   1      43.897  30.621  32.472  1.00  0.00     0.074 A 
ATOM     61  C   UNL A   1      44.627  31.435  33.421  1.00  0.00     0.031 C 
ATOM     62  C   UNL A   1      44.357  29.457  31.954  1.00  0.00     0.031 A 
BRANCH  49  63
ATOM     63  C   UNL A   1      40.400  26.667  28.138  1.00  0.00    -0.014 A 
ATOM     64  C   UNL A   1      39.586  25.635  28.631  1.00  0.00     0.009 A 
ATOM     65  C   UNL A   1      40.877  26.587  26.820  1.00  0.00     0.009 A 
ATOM     66  C   UNL A   1      39.283  24.531  27.831  1.00  0.00     0.001 A 
ATOM     67  C   UNL A   1      40.551  25.495  26.014  1.00  0.00     0.001 A 
ATOM     68  C   UNL A   1      39.760  24.465  26.522  1.00  0.00     0.000 A 
ENDBRANCH  49  63
BRANCH  50  69
ATOM     69  C   UNL A   1      41.879  34.564  34.033  1.00  0.00    -0.014 A 
ATOM     70  C   UNL A   1      41.473  34.466  35.373  1.00  0.00     0.009 A 
ATOM     71  C   UNL A   1      42.460  35.761  33.586  1.00  0.00     0.009 A 
ATOM     72  C   UNL A   1      41.611  35.556  36.237  1.00  0.00     0.001 A 
ATOM     73  C   UNL A   1      42.623  36.838  34.460  1.00  0.00     0.001 A 
ATOM     74  C   UNL A   1      42.189  36.738  35.780  1.00  0.00     0.000 A 
ENDBRANCH  50  69
BRANCH  62  75
ATOM     75  C   UNL A   1      45.730  29.012  32.373  1.00  0.00    -0.014 A 
ATOM     76  C   UNL A   1      45.916  28.166  33.476  1.00  0.00     0.009 A 
ATOM     77  C   UNL A   1      46.846  29.411  31.621  1.00  0.00     0.009 A 
ATOM     78  C   UNL A   1      47.199  27.751  33.835  1.00  0.00     0.001 A 
ATOM     79  C   UNL A   1      48.124  28.972  31.966  1.00  0.00     0.001 A 
ATOM     80  C   UNL A   1      48.301  28.149  33.078  1.00  0.00     0.000 A 
ENDBRANCH  62  75
ENDBRANCH  36  37
ENDBRANCH  28  31
ENDBRANCH  26  27
ENDBRANCH  25  26
ENDBRANCH  24  25
ENDBRANCH   1  24
TORSDOF 16
ENDMDL
MODEL 2
REMARK VINA RESULT:     -10.1      2.582      7.085
REMARK SMILES C#CC[NH2+]CC(=O)Nc1ccc(F)cc1C(=O)NCCCCNC(=O)c1ccc(-c2c3nc(c(-c4ccccc4)c4ccc([nH]4)c(-c4ccccc4)c4nc(c(-c5ccccc5)c5ccc2[nH]5)C=C4)C=C3)cc1
REMARK SMILES IDX 19 1 18 2 16 3 17 4 15 6 9 7 10 8 11 9 14 10 12 11 13 12
REMARK SMILES IDX 8 13 6 14 7 15 5 17 4 18 3 21 2 22 1 23 20 24 21 25 22 26
REMARK SMILES IDX 23 27 24 28 25 30 26 31 27 32 73 33 28 34 72 35 29 36 30 37
REMARK SMILES IDX 31 38 66 39 32 40 71 41 65 42 67 43 33 44 70 45 64 46 63 47
REMARK SMILES IDX 34 49 56 50 41 51 55 52 42 53 45 54 54 55 68 56 43 57 44 58
REMARK SMILES IDX 53 60 69 61 46 62 35 63 36 64 40 65 37 66 39 67 38 68 57 69
REMARK SMILES IDX 58 70 62 71 59 72 61 73 60 74 47 75 48 76 52 77 49 78 51 79
REMARK SMILES IDX 50 80
REMARK H PARENT 18 5 8 16 4 19 4 20 23 29 67 48 45 59
REMARK Flexibility Score: inf
ROOT
ATOM      1  C   UNL A   1      31.648  26.949  26.089  1.00  0.00     0.116 C 
ENDROOT
BRANCH   1   2
ATOM      2  N   UNL A   1      30.999  27.105  24.828  1.00  0.00    -0.352 N 
ATOM      3  C   UNL A   1      31.007  26.224  23.780  1.00  0.00     0.253 C 
ATOM      4  O   UNL A   1      30.452  26.572  22.737  1.00  0.00    -0.269 OA
ATOM      5  H   UNL A   1      30.489  27.937  24.697  1.00  0.00     0.163 HD
BRANCH   3   6
ATOM      6  C   UNL A   1      31.655  24.876  23.801  1.00  0.00     0.066 A 
ATOM      7  C   UNL A   1      31.079  23.716  24.352  1.00  0.00     0.054 A 
ATOM      8  C   UNL A   1      31.307  22.478  23.701  1.00  0.00     0.030 A 
ATOM      9  C   UNL A   1      32.296  22.349  22.723  1.00  0.00     0.041 A 
ATOM     10  C   UNL A   1      32.652  24.728  22.809  1.00  0.00     0.055 A 
ATOM     11  C   UNL A   1      32.994  23.473  22.321  1.00  0.00     0.124 A 
ATOM     12  F   UNL A   1      33.965  23.355  21.406  1.00  0.00    -0.207 F 
BRANCH   7  13
ATOM     13  N   UNL A   1      30.317  23.627  25.544  1.00  0.00    -0.320 N 
ATOM     14  C   UNL A   1      30.702  23.274  26.833  1.00  0.00     0.279 C 
ATOM     15  O   UNL A   1      29.790  22.986  27.617  1.00  0.00    -0.268 OA
ATOM     16  H   UNL A   1      29.364  23.852  25.444  1.00  0.00     0.170 HD
BRANCH  14  17
ATOM     17  C   UNL A   1      32.171  23.227  27.354  1.00  0.00     0.363 C 
BRANCH  17  18
ATOM     18  N   UNL A   1      32.699  21.843  27.441  1.00  0.00    -0.328 N 
ATOM     19  H   UNL A   1      33.066  21.653  28.374  1.00  0.00     0.347 HD
ATOM     20  H   UNL A   1      31.980  21.138  27.272  1.00  0.00     0.347 HD
BRANCH  18  21
ATOM     21  C   UNL A   1      33.748  21.808  26.461  1.00  0.00     0.352 C 
BRANCH  21  22
ATOM     22  C   UNL A   1      34.402  23.099  25.998  1.00  0.00    -0.047 C 
ATOM     23  C   UNL A   1      34.963  24.206  25.601  1.00  0.00     0.010 C 
ENDBRANCH  21  22
ENDBRANCH  18  21
ENDBRANCH  17  18
ENDBRANCH  14  17
ENDBRANCH   7  13
ENDBRANCH   3   6
ENDBRANCH   1   2
BRANCH   1  24
ATOM     24  C   UNL A   1      31.719  28.156  26.999  1.00  0.00     0.023 C 
BRANCH  24  25
ATOM     25  C   UNL A   1      33.125  28.544  27.435  1.00  0.00     0.023 C 
BRANCH  25  26
ATOM     26  C   UNL A   1      33.674  29.852  26.865  1.00  0.00     0.116 C 
BRANCH  26  27
ATOM     27  N   UNL A   1      33.727  30.950  27.823  1.00  0.00    -0.352 N 
ATOM     28  C   UNL A   1      34.702  31.259  28.753  1.00  0.00     0.251 C 
ATOM     29  H   UNL A   1      32.956  31.562  27.802  1.00  0.00     0.163 HD
ATOM     30  O   UNL A   1      34.542  32.156  29.560  1.00  0.00    -0.269 OA
BRANCH  28  31
ATOM     31  C   UNL A   1      35.938  30.447  28.787  1.00  0.00     0.039 A 
ATOM     32  C   UNL A   1      36.804  30.481  27.693  1.00  0.00     0.014 A 
ATOM     33  C   UNL A   1      36.271  29.719  29.929  1.00  0.00     0.014 A 
ATOM     34  C   UNL A   1      38.065  29.890  27.800  1.00  0.00     0.010 A 
ATOM     35  C   UNL A   1      37.563  29.228  30.073  1.00  0.00     0.010 A 
ATOM     36  C   UNL A   1      38.480  29.318  29.013  1.00  0.00    -0.014 A 
BRANCH  36  37
ATOM     37  C   UNL A   1      39.872  28.837  29.213  1.00  0.00     0.031 A 
ATOM     38  C   UNL A   1      40.922  29.766  29.761  1.00  0.00     0.074 A 
ATOM     39  C   UNL A   1      40.217  27.597  28.808  1.00  0.00     0.049 A 
ATOM     40  N   UNL A   1      42.206  29.560  29.913  1.00  0.00    -0.248 NA
ATOM     41  C   UNL A   1      40.480  31.115  30.153  1.00  0.00     0.031 C 
ATOM     42  C   UNL A   1      39.317  26.618  28.192  1.00  0.00     0.029 A 
ATOM     43  N   UNL A   1      41.431  26.953  28.839  1.00  0.00    -0.354 N 
ATOM     44  C   UNL A   1      42.726  30.761  30.380  1.00  0.00     0.074 A 
ATOM     45  C   UNL A   1      41.631  31.702  30.446  1.00  0.00     0.031 C 
ATOM     46  C   UNL A   1      40.001  25.493  27.929  1.00  0.00     0.029 A 
ATOM     47  C   UNL A   1      41.394  25.681  28.317  1.00  0.00     0.049 A 
ATOM     48  H   UNL A   1      42.249  27.363  29.200  1.00  0.00     0.167 HD
ATOM     49  C   UNL A   1      43.998  31.051  30.742  1.00  0.00     0.031 A 
ATOM     50  C   UNL A   1      42.373  24.770  28.162  1.00  0.00     0.031 A 
ATOM     51  C   UNL A   1      45.080  30.105  30.724  1.00  0.00     0.049 A 
ATOM     52  C   UNL A   1      43.768  25.103  28.613  1.00  0.00     0.074 A 
ATOM     53  C   UNL A   1      46.379  30.277  31.167  1.00  0.00     0.029 A 
ATOM     54  N   UNL A   1      44.988  28.811  30.239  1.00  0.00    -0.354 N 
ATOM     55  N   UNL A   1      44.221  26.213  29.145  1.00  0.00    -0.248 NA
ATOM     56  C   UNL A   1      44.785  24.053  28.454  1.00  0.00     0.031 C 
ATOM     57  C   UNL A   1      47.087  29.100  30.909  1.00  0.00     0.029 A 
ATOM     58  C   UNL A   1      46.214  28.180  30.351  1.00  0.00     0.049 A 
ATOM     59  H   UNL A   1      44.172  28.401  29.870  1.00  0.00     0.167 HD
ATOM     60  C   UNL A   1      45.564  25.985  29.408  1.00  0.00     0.074 A 
ATOM     61  C   UNL A   1      45.850  24.626  28.996  1.00  0.00     0.031 C 
ATOM     62  C   UNL A   1      46.481  26.826  29.943  1.00  0.00     0.031 A 
BRANCH  49  63
ATOM     63  C   UNL A   1      44.290  32.452  31.196  1.00  0.00    -0.014 A 
ATOM     64  C   UNL A   1      44.252  32.801  32.556  1.00  0.00     0.009 A 
ATOM     65  C   UNL A   1      44.661  33.424  30.255  1.00  0.00     0.009 A 
ATOM     66  C   UNL A   1      44.550  34.104  32.959  1.00  0.00     0.001 A 
ATOM     67  C   UNL A   1      44.984  34.719  30.663  1.00  0.00     0.001 A 
ATOM     68  C   UNL A   1      44.921  35.060  32.014  1.00  0.00     0.000 A 
ENDBRANCH  49  63
BRANCH  50  69
ATOM     69  C   UNL A   1      42.076  23.443  27.559  1.00  0.00    -0.014 A 
ATOM     70  C   UNL A   1      41.538  22.409  28.341  1.00  0.00     0.009 A 
ATOM     71  C   UNL A   1      42.353  23.195  26.205  1.00  0.00     0.009 A 
ATOM     72  C   UNL A   1      41.317  21.144  27.789  1.00  0.00     0.001 A 
ATOM     73  C   UNL A   1      42.103  21.938  25.650  1.00  0.00     0.001 A 
ATOM     74  C   UNL A   1      41.597  20.912  26.444  1.00  0.00     0.000 A 
ENDBRANCH  50  69
BRANCH  62  75
ATOM     75  C   UNL A   1      47.870  26.293  30.148  1.00  0.00    -0.014 A 
ATOM     76  C   UNL A   1      48.280  25.789  31.391  1.00  0.00     0.009 A 
ATOM     77  C   UNL A   1      48.763  26.253  29.066  1.00  0.00     0.009 A 
ATOM     78  C   UNL A   1      49.571  25.283  31.553  1.00  0.00     0.001 A 
ATOM     79  C   UNL A   1      50.042  25.721  29.224  1.00  0.00     0.001 A 
ATOM     80  C   UNL A   1      50.448  25.243  30.469  1.00  0.00     0.000 A 
ENDBRANCH  62  75
ENDBRANCH  36  37
ENDBRANCH  28  31
ENDBRANCH  26  27
ENDBRANCH  25  26
ENDBRANCH  24  25
ENDBRANCH   1  24
TORSDOF 16
ENDMDL
MODEL 3
REMARK VINA RESULT:     -10.1      3.244      8.247
REMARK SMILES C#CC[NH2+]CC(=O)Nc1ccc(F)cc1C(=O)NCCCCNC(=O)c1ccc(-c2c3nc(c(-c4ccccc4)c4ccc([nH]4)c(-c4ccccc4)c4nc(c(-c5ccccc5)c5ccc2[nH]5)C=C4)C=C3)cc1
REMARK SMILES IDX 19 1 18 2 16 3 17 4 15 6 9 7 10 8 11 9 14 10 12 11 13 12
REMARK SMILES IDX 8 13 6 14 7 15 5 17 4 18 3 21 2 22 1 23 20 24 21 25 22 26
REMARK SMILES IDX 23 27 24 28 25 30 26 31 27 32 73 33 28 34 72 35 29 36 30 37
REMARK SMILES IDX 31 38 66 39 32 40 71 41 65 42 67 43 33 44 70 45 64 46 63 47
REMARK SMILES IDX 34 49 56 50 41 51 55 52 42 53 45 54 54 55 68 56 43 57 44 58
REMARK SMILES IDX 53 60 69 61 46 62 35 63 36 64 40 65 37 66 39 67 38 68 57 69
REMARK SMILES IDX 58 70 62 71 59 72 61 73 60 74 47 75 48 76 52 77 49 78 51 79
REMARK SMILES IDX 50 80
REMARK H PARENT 18 5 8 16 4 19 4 20 23 29 67 48 45 59
REMARK Flexibility Score: inf
ROOT
ATOM      1  C   UNL A   1      35.792  23.377  23.650  1.00  0.00     0.116 C 
ENDROOT
BRANCH   1   2
ATOM      2  N   UNL A   1      34.659  22.908  22.920  1.00  0.00    -0.352 N 
ATOM      3  C   UNL A   1      33.463  23.551  22.749  1.00  0.00     0.253 C 
ATOM      4  O   UNL A   1      32.570  22.948  22.151  1.00  0.00    -0.269 OA
ATOM      5  H   UNL A   1      34.747  22.025  22.492  1.00  0.00     0.163 HD
BRANCH   3   6
ATOM      6  C   UNL A   1      33.152  24.926  23.249  1.00  0.00     0.066 A 
ATOM      7  C   UNL A   1      33.020  25.277  24.606  1.00  0.00     0.054 A 
ATOM      8  C   UNL A   1      33.498  26.545  25.022  1.00  0.00     0.030 A 
ATOM      9  C   UNL A   1      33.822  27.534  24.091  1.00  0.00     0.041 A 
ATOM     10  C   UNL A   1      33.484  25.939  22.320  1.00  0.00     0.055 A 
ATOM     11  C   UNL A   1      33.764  27.233  22.742  1.00  0.00     0.124 A 
ATOM     12  F   UNL A   1      34.043  28.183  21.840  1.00  0.00    -0.207 F 
BRANCH   7  13
ATOM     13  N   UNL A   1      32.402  24.512  25.628  1.00  0.00    -0.320 N 
ATOM     14  C   UNL A   1      31.185  24.693  26.274  1.00  0.00     0.279 C 
ATOM     15  O   UNL A   1      31.025  24.063  27.327  1.00  0.00    -0.268 OA
ATOM     16  H   UNL A   1      32.916  23.727  25.926  1.00  0.00     0.170 HD
BRANCH  14  17
ATOM     17  C   UNL A   1      30.025  25.607  25.773  1.00  0.00     0.363 C 
BRANCH  17  18
ATOM     18  N   UNL A   1      29.621  25.299  24.379  1.00  0.00    -0.328 N 
ATOM     19  H   UNL A   1      30.437  25.112  23.798  1.00  0.00     0.347 HD
ATOM     20  H   UNL A   1      29.032  24.467  24.316  1.00  0.00     0.347 HD
BRANCH  18  21
ATOM     21  C   UNL A   1      28.944  26.488  23.942  1.00  0.00     0.352 C 
BRANCH  21  22
ATOM     22  C   UNL A   1      29.741  27.665  23.405  1.00  0.00    -0.047 C 
ATOM     23  C   UNL A   1      30.425  28.674  22.945  1.00  0.00     0.010 C 
ENDBRANCH  21  22
ENDBRANCH  18  21
ENDBRANCH  17  18
ENDBRANCH  14  17
ENDBRANCH   7  13
ENDBRANCH   3   6
ENDBRANCH   1   2
BRANCH   1  24
ATOM     24  C   UNL A   1      37.029  22.505  23.666  1.00  0.00     0.023 C 
BRANCH  24  25
ATOM     25  C   UNL A   1      37.049  21.446  24.759  1.00  0.00     0.023 C 
BRANCH  25  26
ATOM     26  C   UNL A   1      38.274  21.438  25.673  1.00  0.00     0.116 C 
BRANCH  26  27
ATOM     27  N   UNL A   1      39.079  20.226  25.590  1.00  0.00    -0.352 N 
ATOM     28  C   UNL A   1      40.402  20.023  25.937  1.00  0.00     0.251 C 
ATOM     29  H   UNL A   1      38.611  19.434  25.237  1.00  0.00     0.163 HD
ATOM     30  O   UNL A   1      40.962  18.968  25.701  1.00  0.00    -0.269 OA
BRANCH  28  31
ATOM     31  C   UNL A   1      41.152  21.134  26.564  1.00  0.00     0.039 A 
ATOM     32  C   UNL A   1      41.838  22.036  25.749  1.00  0.00     0.014 A 
ATOM     33  C   UNL A   1      41.108  21.322  27.945  1.00  0.00     0.014 A 
ATOM     34  C   UNL A   1      42.369  23.199  26.311  1.00  0.00     0.010 A 
ATOM     35  C   UNL A   1      41.540  22.528  28.483  1.00  0.00     0.010 A 
ATOM     36  C   UNL A   1      42.165  23.487  27.670  1.00  0.00    -0.014 A 
BRANCH  36  37
ATOM     37  C   UNL A   1      42.565  24.791  28.260  1.00  0.00     0.031 A 
ATOM     38  C   UNL A   1      41.538  25.871  28.473  1.00  0.00     0.074 A 
ATOM     39  C   UNL A   1      43.867  25.044  28.508  1.00  0.00     0.049 A 
ATOM     40  N   UNL A   1      41.711  27.103  28.881  1.00  0.00    -0.248 NA
ATOM     41  C   UNL A   1      40.141  25.537  28.150  1.00  0.00     0.031 C 
ATOM     42  C   UNL A   1      44.976  24.113  28.279  1.00  0.00     0.029 A 
ATOM     43  N   UNL A   1      44.481  26.172  28.997  1.00  0.00    -0.354 N 
ATOM     44  C   UNL A   1      40.456  27.696  28.827  1.00  0.00     0.074 A 
ATOM     45  C   UNL A   1      39.539  26.706  28.306  1.00  0.00     0.031 C 
ATOM     46  C   UNL A   1      46.127  24.698  28.649  1.00  0.00     0.029 A 
ATOM     47  C   UNL A   1      45.847  26.055  29.104  1.00  0.00     0.049 A 
ATOM     48  H   UNL A   1      43.989  26.987  29.247  1.00  0.00     0.167 HD
ATOM     49  C   UNL A   1      40.092  28.947  29.195  1.00  0.00     0.031 A 
ATOM     50  C   UNL A   1      46.772  26.942  29.516  1.00  0.00     0.031 A 
ATOM     51  C   UNL A   1      40.989  29.918  29.758  1.00  0.00     0.049 A 
ATOM     52  C   UNL A   1      46.334  28.310  29.961  1.00  0.00     0.074 A 
ATOM     53  C   UNL A   1      40.693  31.175  30.255  1.00  0.00     0.029 A 
ATOM     54  N   UNL A   1      42.355  29.740  29.900  1.00  0.00    -0.354 N 
ATOM     55  N   UNL A   1      45.127  28.820  29.994  1.00  0.00    -0.248 NA
ATOM     56  C   UNL A   1      47.386  29.221  30.437  1.00  0.00     0.031 C 
ATOM     57  C   UNL A   1      41.889  31.777  30.657  1.00  0.00     0.029 A 
ATOM     58  C   UNL A   1      42.920  30.874  30.455  1.00  0.00     0.049 A 
ATOM     59  H   UNL A   1      42.850  28.929  29.643  1.00  0.00     0.167 HD
ATOM     60  C   UNL A   1      45.271  30.097  30.519  1.00  0.00     0.074 A 
ATOM     61  C   UNL A   1      46.678  30.279  30.807  1.00  0.00     0.031 C 
ATOM     62  C   UNL A   1      44.321  31.037  30.742  1.00  0.00     0.031 A 
BRANCH  49  63
ATOM     63  C   UNL A   1      38.654  29.337  29.007  1.00  0.00    -0.014 A 
ATOM     64  C   UNL A   1      38.189  29.840  27.781  1.00  0.00     0.009 A 
ATOM     65  C   UNL A   1      37.740  29.150  30.055  1.00  0.00     0.009 A 
ATOM     66  C   UNL A   1      36.843  30.175  27.620  1.00  0.00     0.001 A 
ATOM     67  C   UNL A   1      36.390  29.460  29.883  1.00  0.00     0.001 A 
ATOM     68  C   UNL A   1      35.944  29.980  28.667  1.00  0.00     0.000 A 
ENDBRANCH  49  63
BRANCH  50  69
ATOM     69  C   UNL A   1      48.212  26.570  29.538  1.00  0.00    -0.014 A 
ATOM     70  C   UNL A   1      49.030  26.822  28.426  1.00  0.00     0.009 A 
ATOM     71  C   UNL A   1      48.769  25.938  30.660  1.00  0.00     0.009 A 
ATOM     72  C   UNL A   1      50.367  26.417  28.424  1.00  0.00     0.001 A 
ATOM     73  C   UNL A   1      50.114  25.560  30.665  1.00  0.00     0.001 A 
ATOM     74  C   UNL A   1      50.907  25.789  29.544  1.00  0.00     0.000 A 
ENDBRANCH  50  69
BRANCH  62  75
ATOM     75  C   UNL A   1      44.765  32.332  31.359  1.00  0.00    -0.014 A 
ATOM     76  C   UNL A   1      44.824  32.493  32.752  1.00  0.00     0.009 A 
ATOM     77  C   UNL A   1      45.173  33.390  30.531  1.00  0.00     0.009 A 
ATOM     78  C   UNL A   1      45.256  33.701  33.302  1.00  0.00     0.001 A 
ATOM     79  C   UNL A   1      45.631  34.585  31.085  1.00  0.00     0.001 A 
ATOM     80  C   UNL A   1      45.665  34.743  32.469  1.00  0.00     0.000 A 
ENDBRANCH  62  75
ENDBRANCH  36  37
ENDBRANCH  28  31
ENDBRANCH  26  27
ENDBRANCH  25  26
ENDBRANCH  24  25
ENDBRANCH   1  24
TORSDOF 16
ENDMDL
