MODEL 1
REMARK VINA RESULT:     -11.6      0.000      0.000
REMARK SMILES NS(=O)(=O)c1ccc(N2N=C(C(=O)NCCCCNC(=O)c3ccc(-c4c5nc(c(-c6ccccc6)c6ccc([nH]6)c(-c6ccccc6)c6nc(c(-c7ccccc7)c7ccc4[nH]7)C=C6)C=C5)cc3)C[C@H]2c2cccs2)cc1
REMARK SMILES IDX 16 1 15 2 14 3 12 4 13 5 11 7 9 8 10 9 71 10 70 11 8 12 5 13
REMARK SMILES IDX 6 14 78 15 7 16 77 17 2 18 3 19 4 20 1 21 72 24 73 25 76 26
REMARK SMILES IDX 74 27 75 28 17 29 18 30 19 31 20 32 21 34 22 35 23 36 69 37
REMARK SMILES IDX 24 38 68 39 25 40 26 41 27 42 62 43 28 44 67 45 61 46 63 47
REMARK SMILES IDX 29 48 66 49 60 50 59 51 30 53 52 54 37 55 51 56 38 57 41 58
REMARK SMILES IDX 50 59 64 60 39 61 40 62 49 64 65 65 42 66 31 67 32 68 36 69
REMARK SMILES IDX 33 70 35 71 34 72 53 73 54 74 58 75 55 76 57 77 56 78 43 79
REMARK SMILES IDX 44 80 48 81 45 82 47 83 46 84
REMARK H PARENT 14 6 1 22 1 23 19 33 63 52 41 63
REMARK Flexibility Score: inf
ROOT
ATOM      1  C   UNL A   1      36.023  22.286  25.241  1.00  0.00     0.023 C 
ENDROOT
BRANCH   1   2
ATOM      2  C   UNL A   1      35.453  23.222  24.184  1.00  0.00     0.116 C 
BRANCH   2   3
ATOM      3  N   UNL A   1      34.336  22.619  23.483  1.00  0.00    -0.351 N 
ATOM      4  C   UNL A   1      33.001  22.920  23.364  1.00  0.00     0.267 C 
ATOM      5  O   UNL A   1      32.296  22.128  22.744  1.00  0.00    -0.268 OA
ATOM      6  H   UNL A   1      34.592  21.812  22.981  1.00  0.00     0.163 HD
BRANCH   4   7
ATOM      7  C   UNL A   1      32.366  24.193  23.905  1.00  0.00     0.128 C 
ATOM      8  N   UNL A   1      31.522  26.149  23.880  1.00  0.00    -0.256 N 
ATOM      9  N   UNL A   1      31.836  25.073  23.110  1.00  0.00    -0.171 NA
ATOM     10  C   UNL A   1      31.709  25.937  25.316  1.00  0.00     0.154 C 
ATOM     11  C   UNL A   1      32.319  24.536  25.354  1.00  0.00     0.097 C 
BRANCH   8  12
ATOM     12  C   UNL A   1      30.708  27.158  23.385  1.00  0.00     0.060 A 
ATOM     13  C   UNL A   1      29.129  29.280  22.459  1.00  0.00     0.082 A 
ATOM     14  C   UNL A   1      28.521  28.188  23.081  1.00  0.00     0.024 A 
ATOM     15  C   UNL A   1      30.508  29.308  22.259  1.00  0.00     0.024 A 
ATOM     16  C   UNL A   1      29.315  27.127  23.535  1.00  0.00     0.029 A 
ATOM     17  C   UNL A   1      31.285  28.249  22.721  1.00  0.00     0.029 A 
BRANCH  13  18
ATOM     18  S   UNL A   1      28.162  30.640  21.882  1.00  0.00     0.238 S 
ATOM     19  O   UNL A   1      27.178  30.995  22.872  1.00  0.00    -0.207 OA
ATOM     20  O   UNL A   1      27.831  30.425  20.490  1.00  0.00    -0.207 OA
BRANCH  18  21
ATOM     21  N   UNL A   1      29.288  31.891  21.896  1.00  0.00    -0.225 NA
ATOM     22  H   UNL A   1      29.007  32.609  21.229  1.00  0.00     0.137 HD
ATOM     23  H   UNL A   1      30.205  31.526  21.640  1.00  0.00     0.137 HD
ENDBRANCH  18  21
ENDBRANCH  13  18
ENDBRANCH   8  12
BRANCH  10  24
ATOM     24  C   UNL A   1      32.507  26.993  26.074  1.00  0.00     0.030 A 
ATOM     25  C   UNL A   1      33.868  27.238  25.962  1.00  0.00     0.017 A 
ATOM     26  S   UNL A   1      31.813  28.044  27.248  1.00  0.00    -0.147 S 
ATOM     27  C   UNL A   1      34.319  28.284  26.817  1.00  0.00     0.012 A 
ATOM     28  C   UNL A   1      33.288  28.841  27.535  1.00  0.00     0.065 A 
ENDBRANCH  10  24
ENDBRANCH   4   7
ENDBRANCH   2   3
ENDBRANCH   1   2
BRANCH   1  29
ATOM     29  C   UNL A   1      37.191  21.438  24.753  1.00  0.00     0.023 C 
BRANCH  29  30
ATOM     30  C   UNL A   1      38.427  21.478  25.646  1.00  0.00     0.116 C 
BRANCH  30  31
ATOM     31  N   UNL A   1      39.217  20.253  25.598  1.00  0.00    -0.352 N 
ATOM     32  C   UNL A   1      40.531  20.067  25.955  1.00  0.00     0.251 C 
ATOM     33  H   UNL A   1      38.747  19.454  25.267  1.00  0.00     0.163 HD
ATOM     34  O   UNL A   1      41.094  18.998  25.748  1.00  0.00    -0.269 OA
BRANCH  32  35
ATOM     35  C   UNL A   1      41.267  21.195  26.555  1.00  0.00     0.039 A 
ATOM     36  C   UNL A   1      41.904  22.111  25.717  1.00  0.00     0.014 A 
ATOM     37  C   UNL A   1      41.240  21.392  27.938  1.00  0.00     0.014 A 
ATOM     38  C   UNL A   1      42.439  23.278  26.262  1.00  0.00     0.010 A 
ATOM     39  C   UNL A   1      41.694  22.592  28.466  1.00  0.00     0.010 A 
ATOM     40  C   UNL A   1      42.291  23.552  27.633  1.00  0.00    -0.014 A 
BRANCH  40  41
ATOM     41  C   UNL A   1      42.731  24.843  28.216  1.00  0.00     0.031 A 
ATOM     42  C   UNL A   1      41.724  25.922  28.497  1.00  0.00     0.074 A 
ATOM     43  C   UNL A   1      44.043  25.073  28.416  1.00  0.00     0.049 A 
ATOM     44  N   UNL A   1      41.921  27.141  28.928  1.00  0.00    -0.248 NA
ATOM     45  C   UNL A   1      40.312  25.597  28.235  1.00  0.00     0.031 C 
ATOM     46  C   UNL A   1      45.125  24.122  28.147  1.00  0.00     0.029 A 
ATOM     47  N   UNL A   1      44.692  26.187  28.886  1.00  0.00    -0.354 N 
ATOM     48  C   UNL A   1      40.665  27.731  28.974  1.00  0.00     0.074 A 
ATOM     49  C   UNL A   1      39.720  26.757  28.474  1.00  0.00     0.031 C 
ATOM     50  C   UNL A   1      46.298  24.682  28.484  1.00  0.00     0.029 A 
ATOM     51  C   UNL A   1      46.059  26.045  28.947  1.00  0.00     0.049 A 
ATOM     52  H   UNL A   1      44.224  27.010  29.157  1.00  0.00     0.167 HD
ATOM     53  C   UNL A   1      40.323  28.966  29.412  1.00  0.00     0.031 A 
ATOM     54  C   UNL A   1      47.013  26.919  29.319  1.00  0.00     0.031 A 
ATOM     55  C   UNL A   1      41.263  29.934  29.910  1.00  0.00     0.049 A 
ATOM     56  C   UNL A   1      46.611  28.297  29.766  1.00  0.00     0.074 A 
ATOM     57  C   UNL A   1      41.010  31.193  30.426  1.00  0.00     0.029 A 
ATOM     58  N   UNL A   1      42.637  29.752  29.950  1.00  0.00    -0.354 N 
ATOM     59  N   UNL A   1      45.411  28.816  29.870  1.00  0.00    -0.248 NA
ATOM     60  C   UNL A   1      47.697  29.209  30.155  1.00  0.00     0.031 C 
ATOM     61  C   UNL A   1      42.235  31.798  30.722  1.00  0.00     0.029 A 
ATOM     62  C   UNL A   1      43.247  30.889  30.453  1.00  0.00     0.049 A 
ATOM     63  H   UNL A   1      43.107  28.937  29.664  1.00  0.00     0.167 HD
ATOM     64  C   UNL A   1      45.595  30.101  30.363  1.00  0.00     0.074 A 
ATOM     65  C   UNL A   1      47.020  30.277  30.553  1.00  0.00     0.031 C 
ATOM     66  C   UNL A   1      44.667  31.050  30.636  1.00  0.00     0.031 A 
BRANCH  53  67
ATOM     67  C   UNL A   1      38.868  29.340  29.359  1.00  0.00    -0.014 A 
ATOM     68  C   UNL A   1      37.998  29.038  30.419  1.00  0.00     0.009 A 
ATOM     69  C   UNL A   1      38.365  30.031  28.246  1.00  0.00     0.009 A 
ATOM     70  C   UNL A   1      36.647  29.384  30.349  1.00  0.00     0.001 A 
ATOM     71  C   UNL A   1      37.020  30.405  28.192  1.00  0.00     0.001 A 
ATOM     72  C   UNL A   1      36.161  30.071  29.237  1.00  0.00     0.000 A 
ENDBRANCH  53  67
BRANCH  54  73
ATOM     73  C   UNL A   1      48.445  26.518  29.297  1.00  0.00    -0.014 A 
ATOM     74  C   UNL A   1      49.022  25.878  30.405  1.00  0.00     0.009 A 
ATOM     75  C   UNL A   1      49.245  26.783  28.175  1.00  0.00     0.009 A 
ATOM     76  C   UNL A   1      50.378  25.539  30.400  1.00  0.00     0.001 A 
ATOM     77  C   UNL A   1      50.592  26.415  28.161  1.00  0.00     0.001 A 
ATOM     78  C   UNL A   1      51.160  25.803  29.277  1.00  0.00     0.000 A 
ENDBRANCH  54  73
BRANCH  66  79
ATOM     79  C   UNL A   1      45.157  32.352  31.206  1.00  0.00    -0.014 A 
ATOM     80  C   UNL A   1      45.520  33.423  30.375  1.00  0.00     0.009 A 
ATOM     81  C   UNL A   1      45.206  32.523  32.598  1.00  0.00     0.009 A 
ATOM     82  C   UNL A   1      45.954  34.629  30.929  1.00  0.00     0.001 A 
ATOM     83  C   UNL A   1      45.609  33.740  33.148  1.00  0.00     0.001 A 
ATOM     84  C   UNL A   1      45.990  34.789  32.314  1.00  0.00     0.000 A 
ENDBRANCH  66  79
ENDBRANCH  40  41
ENDBRANCH  32  35
ENDBRANCH  30  31
ENDBRANCH  29  30
ENDBRANCH   1  29
TORSDOF 15
ENDMDL
MODEL 2
REMARK VINA RESULT:     -11.5      2.026      5.799
REMARK SMILES NS(=O)(=O)c1ccc(N2N=C(C(=O)NCCCCNC(=O)c3ccc(-c4c5nc(c(-c6ccccc6)c6ccc([nH]6)c(-c6ccccc6)c6nc(c(-c7ccccc7)c7ccc4[nH]7)C=C6)C=C5)cc3)C[C@H]2c2cccs2)cc1
REMARK SMILES IDX 16 1 15 2 14 3 12 4 13 5 11 7 9 8 10 9 71 10 70 11 8 12 5 13
REMARK SMILES IDX 6 14 78 15 7 16 77 17 2 18 3 19 4 20 1 21 72 24 73 25 76 26
REMARK SMILES IDX 74 27 75 28 17 29 18 30 19 31 20 32 21 34 22 35 23 36 69 37
REMARK SMILES IDX 24 38 68 39 25 40 26 41 27 42 62 43 28 44 67 45 61 46 63 47
REMARK SMILES IDX 29 48 66 49 60 50 59 51 30 53 52 54 37 55 51 56 38 57 41 58
REMARK SMILES IDX 50 59 64 60 39 61 40 62 49 64 65 65 42 66 31 67 32 68 36 69
REMARK SMILES IDX 33 70 35 71 34 72 53 73 54 74 58 75 55 76 57 77 56 78 43 79
REMARK SMILES IDX 44 80 48 81 45 82 47 83 46 84
REMARK H PARENT 14 6 1 22 1 23 19 33 63 52 41 63
REMARK Flexibility Score: inf
ROOT
ATOM      1  C   UNL A   1      35.946  23.228  23.820  1.00  0.00     0.023 C 
ENDROOT
BRANCH   1   2
ATOM      2  C   UNL A   1      34.727  23.370  22.917  1.00  0.00     0.116 C 
BRANCH   2   3
ATOM      3  N   UNL A   1      33.631  22.533  23.363  1.00  0.00    -0.351 N 
ATOM      4  C   UNL A   1      32.478  22.759  24.076  1.00  0.00     0.267 C 
ATOM      5  O   UNL A   1      31.791  21.782  24.362  1.00  0.00    -0.268 OA
ATOM      6  H   UNL A   1      33.737  21.592  23.096  1.00  0.00     0.163 HD
BRANCH   4   7
ATOM      7  C   UNL A   1      31.986  24.141  24.478  1.00  0.00     0.128 C 
ATOM      8  N   UNL A   1      31.305  26.146  24.242  1.00  0.00    -0.256 N 
ATOM      9  N   UNL A   1      31.481  24.958  23.603  1.00  0.00    -0.171 NA
ATOM     10  C   UNL A   1      31.563  26.101  25.681  1.00  0.00     0.154 C 
ATOM     11  C   UNL A   1      32.058  24.666  25.870  1.00  0.00     0.097 C 
BRANCH   8  12
ATOM     12  C   UNL A   1      30.547  27.153  23.661  1.00  0.00     0.060 A 
ATOM     13  C   UNL A   1      29.079  29.274  22.565  1.00  0.00     0.082 A 
ATOM     14  C   UNL A   1      28.408  28.217  23.184  1.00  0.00     0.024 A 
ATOM     15  C   UNL A   1      30.468  29.266  22.452  1.00  0.00     0.024 A 
ATOM     16  C   UNL A   1      29.147  27.157  23.724  1.00  0.00     0.029 A 
ATOM     17  C   UNL A   1      31.190  28.208  22.999  1.00  0.00     0.029 A 
BRANCH  13  18
ATOM     18  S   UNL A   1      28.182  30.632  21.882  1.00  0.00     0.238 S 
ATOM     19  O   UNL A   1      27.170  31.066  22.810  1.00  0.00    -0.207 OA
ATOM     20  O   UNL A   1      27.902  30.359  20.489  1.00  0.00    -0.207 OA
BRANCH  18  21
ATOM     21  N   UNL A   1      29.346  31.847  21.884  1.00  0.00    -0.225 NA
ATOM     22  H   UNL A   1      29.033  32.617  22.475  1.00  0.00     0.137 HD
ATOM     23  H   UNL A   1      29.489  32.184  20.933  1.00  0.00     0.137 HD
ENDBRANCH  18  21
ENDBRANCH  13  18
ENDBRANCH   8  12
BRANCH  10  24
ATOM     24  C   UNL A   1      32.492  27.167  26.253  1.00  0.00     0.030 A 
ATOM     25  C   UNL A   1      33.795  27.427  25.856  1.00  0.00     0.017 A 
ATOM     26  S   UNL A   1      32.048  28.214  27.545  1.00  0.00    -0.147 S 
ATOM     27  C   UNL A   1      34.405  28.481  26.596  1.00  0.00     0.012 A 
ATOM     28  C   UNL A   1      33.542  29.029  27.515  1.00  0.00     0.065 A 
ENDBRANCH  10  24
ENDBRANCH   4   7
ENDBRANCH   2   3
ENDBRANCH   1   2
BRANCH   1  29
ATOM     29  C   UNL A   1      36.128  21.831  24.399  1.00  0.00     0.023 C 
BRANCH  29  30
ATOM     30  C   UNL A   1      36.849  21.785  25.742  1.00  0.00     0.116 C 
BRANCH  30  31
ATOM     31  N   UNL A   1      37.950  20.829  25.778  1.00  0.00    -0.352 N 
ATOM     32  C   UNL A   1      39.257  21.039  26.148  1.00  0.00     0.251 C 
ATOM     33  H   UNL A   1      37.727  19.911  25.500  1.00  0.00     0.163 HD
ATOM     34  O   UNL A   1      40.098  20.159  26.014  1.00  0.00    -0.269 OA
BRANCH  32  35
ATOM     35  C   UNL A   1      39.638  22.364  26.672  1.00  0.00     0.039 A 
ATOM     36  C   UNL A   1      40.699  22.457  27.573  1.00  0.00     0.014 A 
ATOM     37  C   UNL A   1      39.003  23.514  26.194  1.00  0.00     0.014 A 
ATOM     38  C   UNL A   1      41.187  23.715  27.927  1.00  0.00     0.010 A 
ATOM     39  C   UNL A   1      39.545  24.760  26.479  1.00  0.00     0.010 A 
ATOM     40  C   UNL A   1      40.648  24.873  27.341  1.00  0.00    -0.014 A 
BRANCH  40  41
ATOM     41  C   UNL A   1      41.232  26.213  27.595  1.00  0.00     0.031 A 
ATOM     42  C   UNL A   1      42.572  26.570  27.017  1.00  0.00     0.074 A 
ATOM     43  C   UNL A   1      40.595  27.076  28.411  1.00  0.00     0.049 A 
ATOM     44  N   UNL A   1      43.283  27.655  27.191  1.00  0.00    -0.248 NA
ATOM     45  C   UNL A   1      43.210  25.565  26.150  1.00  0.00     0.031 C 
ATOM     46  C   UNL A   1      39.307  26.834  29.066  1.00  0.00     0.029 A 
ATOM     47  N   UNL A   1      40.952  28.331  28.836  1.00  0.00    -0.354 N 
ATOM     48  C   UNL A   1      44.453  27.456  26.471  1.00  0.00     0.074 A 
ATOM     49  C   UNL A   1      44.383  26.127  25.905  1.00  0.00     0.031 C 
ATOM     50  C   UNL A   1      38.969  27.918  29.785  1.00  0.00     0.029 A 
ATOM     51  C   UNL A   1      40.034  28.909  29.681  1.00  0.00     0.049 A 
ATOM     52  H   UNL A   1      41.785  28.777  28.560  1.00  0.00     0.167 HD
ATOM     53  C   UNL A   1      45.486  28.311  26.279  1.00  0.00     0.031 A 
ATOM     54  C   UNL A   1      40.056  30.098  30.313  1.00  0.00     0.031 A 
ATOM     55  C   UNL A   1      45.554  29.633  26.842  1.00  0.00     0.049 A 
ATOM     56  C   UNL A   1      41.232  31.013  30.114  1.00  0.00     0.074 A 
ATOM     57  C   UNL A   1      46.534  30.594  26.664  1.00  0.00     0.029 A 
ATOM     58  N   UNL A   1      44.607  30.177  27.695  1.00  0.00    -0.354 N 
ATOM     59  N   UNL A   1      42.299  30.840  29.373  1.00  0.00    -0.248 NA
ATOM     60  C   UNL A   1      41.201  32.294  30.835  1.00  0.00     0.031 C 
ATOM     61  C   UNL A   1      46.211  31.698  27.459  1.00  0.00     0.029 A 
ATOM     62  C   UNL A   1      44.996  31.450  28.078  1.00  0.00     0.049 A 
ATOM     63  H   UNL A   1      43.783  29.727  27.986  1.00  0.00     0.167 HD
ATOM     64  C   UNL A   1      43.051  31.998  29.514  1.00  0.00     0.074 A 
ATOM     65  C   UNL A   1      42.310  32.874  30.398  1.00  0.00     0.031 C 
ATOM     66  C   UNL A   1      44.248  32.310  28.959  1.00  0.00     0.031 A 
BRANCH  53  67
ATOM     67  C   UNL A   1      46.632  27.831  25.432  1.00  0.00    -0.014 A 
ATOM     68  C   UNL A   1      46.658  28.057  24.046  1.00  0.00     0.009 A 
ATOM     69  C   UNL A   1      47.715  27.171  26.032  1.00  0.00     0.009 A 
ATOM     70  C   UNL A   1      47.726  27.596  23.274  1.00  0.00     0.001 A 
ATOM     71  C   UNL A   1      48.797  26.739  25.262  1.00  0.00     0.001 A 
ATOM     72  C   UNL A   1      48.796  26.942  23.883  1.00  0.00     0.000 A 
ENDBRANCH  53  67
BRANCH  54  73
ATOM     73  C   UNL A   1      38.922  30.500  31.188  1.00  0.00    -0.014 A 
ATOM     74  C   UNL A   1      38.919  30.161  32.550  1.00  0.00     0.009 A 
ATOM     75  C   UNL A   1      37.832  31.214  30.665  1.00  0.00     0.009 A 
ATOM     76  C   UNL A   1      37.835  30.502  33.362  1.00  0.00     0.001 A 
ATOM     77  C   UNL A   1      36.765  31.580  31.488  1.00  0.00     0.001 A 
ATOM     78  C   UNL A   1      36.761  31.215  32.832  1.00  0.00     0.000 A 
ENDBRANCH  54  73
BRANCH  66  79
ATOM     79  C   UNL A   1      44.815  33.670  29.260  1.00  0.00    -0.014 A 
ATOM     80  C   UNL A   1      44.492  34.786  28.475  1.00  0.00     0.009 A 
ATOM     81  C   UNL A   1      45.646  33.841  30.378  1.00  0.00     0.009 A 
ATOM     82  C   UNL A   1      45.016  36.043  28.786  1.00  0.00     0.001 A 
ATOM     83  C   UNL A   1      46.142  35.104  30.705  1.00  0.00     0.001 A 
ATOM     84  C   UNL A   1      45.833  36.201  29.904  1.00  0.00     0.000 A 
ENDBRANCH  66  79
ENDBRANCH  40  41
ENDBRANCH  32  35
ENDBRANCH  30  31
ENDBRANCH  29  30
ENDBRANCH   1  29
TORSDOF 15
ENDMDL
MODEL 3
REMARK VINA RESULT:     -11.2      2.107      2.598
REMARK SMILES NS(=O)(=O)c1ccc(N2N=C(C(=O)NCCCCNC(=O)c3ccc(-c4c5nc(c(-c6ccccc6)c6ccc([nH]6)c(-c6ccccc6)c6nc(c(-c7ccccc7)c7ccc4[nH]7)C=C6)C=C5)cc3)C[C@H]2c2cccs2)cc1
REMARK SMILES IDX 16 1 15 2 14 3 12 4 13 5 11 7 9 8 10 9 71 10 70 11 8 12 5 13
REMARK SMILES IDX 6 14 78 15 7 16 77 17 2 18 3 19 4 20 1 21 72 24 73 25 76 26
REMARK SMILES IDX 74 27 75 28 17 29 18 30 19 31 20 32 21 34 22 35 23 36 69 37
REMARK SMILES IDX 24 38 68 39 25 40 26 41 27 42 62 43 28 44 67 45 61 46 63 47
REMARK SMILES IDX 29 48 66 49 60 50 59 51 30 53 52 54 37 55 51 56 38 57 41 58
REMARK SMILES IDX 50 59 64 60 39 61 40 62 49 64 65 65 42 66 31 67 32 68 36 69
REMARK SMILES IDX 33 70 35 71 34 72 53 73 54 74 58 75 55 76 57 77 56 78 43 79
REMARK SMILES IDX 44 80 48 81 45 82 47 83 46 84
REMARK H PARENT 14 6 1 22 1 23 19 33 63 52 41 63
REMARK Flexibility Score: inf
ROOT
ATOM      1  C   UNL A   1      35.608  23.433  23.648  1.00  0.00     0.023 C 
ENDROOT
BRANCH   1   2
ATOM      2  C   UNL A   1      34.212  23.759  23.133  1.00  0.00     0.116 C 
BRANCH   2   3
ATOM      3  N   UNL A   1      33.191  23.030  23.861  1.00  0.00    -0.351 N 
ATOM      4  C   UNL A   1      32.195  23.390  24.736  1.00  0.00     0.267 C 
ATOM      5  O   UNL A   1      31.542  22.485  25.250  1.00  0.00    -0.268 OA
ATOM      6  H   UNL A   1      33.218  22.062  23.689  1.00  0.00     0.163 HD
BRANCH   4   7
ATOM      7  C   UNL A   1      31.826  24.831  25.058  1.00  0.00     0.128 C 
ATOM      8  N   UNL A   1      31.259  26.854  24.707  1.00  0.00    -0.256 N 
ATOM      9  N   UNL A   1      31.305  25.610  24.158  1.00  0.00    -0.171 NA
ATOM     10  C   UNL A   1      31.629  26.903  26.122  1.00  0.00     0.154 C 
ATOM     11  C   UNL A   1      32.044  25.457  26.392  1.00  0.00     0.097 C 
BRANCH   8  12
ATOM     12  C   UNL A   1      30.522  27.864  24.104  1.00  0.00     0.060 A 
ATOM     13  C   UNL A   1      29.006  29.949  23.005  1.00  0.00     0.082 A 
ATOM     14  C   UNL A   1      28.673  28.625  22.711  1.00  0.00     0.024 A 
ATOM     15  C   UNL A   1      30.106  30.245  23.807  1.00  0.00     0.024 A 
ATOM     16  C   UNL A   1      29.439  27.588  23.258  1.00  0.00     0.029 A 
ATOM     17  C   UNL A   1      30.855  29.203  24.348  1.00  0.00     0.029 A 
BRANCH  13  18
ATOM     18  S   UNL A   1      28.058  31.283  22.342  1.00  0.00     0.238 S 
ATOM     19  O   UNL A   1      27.166  31.796  23.350  1.00  0.00    -0.207 OA
ATOM     20  O   UNL A   1      27.615  30.930  21.011  1.00  0.00    -0.207 OA
BRANCH  18  21
ATOM     21  N   UNL A   1      29.234  32.469  22.134  1.00  0.00    -0.225 NA
ATOM     22  H   UNL A   1      29.632  32.392  21.199  1.00  0.00     0.137 HD
ATOM     23  H   UNL A   1      29.969  32.343  22.829  1.00  0.00     0.137 HD
ENDBRANCH  18  21
ENDBRANCH  13  18
ENDBRANCH   8  12
BRANCH  10  24
ATOM     24  C   UNL A   1      32.667  27.943  26.531  1.00  0.00     0.030 A 
ATOM     25  C   UNL A   1      34.042  27.841  26.382  1.00  0.00     0.017 A 
ATOM     26  S   UNL A   1      32.264  29.430  27.299  1.00  0.00    -0.147 S 
ATOM     27  C   UNL A   1      34.743  28.978  26.877  1.00  0.00     0.012 A 
ATOM     28  C   UNL A   1      33.887  29.939  27.359  1.00  0.00     0.065 A 
ENDBRANCH  10  24
ENDBRANCH   4   7
ENDBRANCH   2   3
ENDBRANCH   1   2
BRANCH   1  29
ATOM     29  C   UNL A   1      35.712  22.083  24.347  1.00  0.00     0.023 C 
BRANCH  29  30
ATOM     30  C   UNL A   1      36.578  22.079  25.602  1.00  0.00     0.116 C 
BRANCH  30  31
ATOM     31  N   UNL A   1      37.585  21.025  25.609  1.00  0.00    -0.352 N 
ATOM     32  C   UNL A   1      38.905  21.103  25.987  1.00  0.00     0.251 C 
ATOM     33  H   UNL A   1      37.280  20.141  25.301  1.00  0.00     0.163 HD
ATOM     34  O   UNL A   1      39.662  20.154  25.826  1.00  0.00    -0.269 OA
BRANCH  32  35
ATOM     35  C   UNL A   1      39.404  22.370  26.553  1.00  0.00     0.039 A 
ATOM     36  C   UNL A   1      40.450  22.334  27.476  1.00  0.00     0.014 A 
ATOM     37  C   UNL A   1      38.896  23.589  26.095  1.00  0.00     0.014 A 
ATOM     38  C   UNL A   1      41.052  23.528  27.872  1.00  0.00     0.010 A 
ATOM     39  C   UNL A   1      39.552  24.767  26.422  1.00  0.00     0.010 A 
ATOM     40  C   UNL A   1      40.642  24.749  27.307  1.00  0.00    -0.014 A 
BRANCH  40  41
ATOM     41  C   UNL A   1      41.351  26.017  27.609  1.00  0.00     0.031 A 
ATOM     42  C   UNL A   1      40.693  27.059  28.469  1.00  0.00     0.074 A 
ATOM     43  C   UNL A   1      42.550  26.263  27.045  1.00  0.00     0.049 A 
ATOM     44  N   UNL A   1      41.115  28.258  28.778  1.00  0.00    -0.248 NA
ATOM     45  C   UNL A   1      39.377  26.719  29.033  1.00  0.00     0.031 C 
ATOM     46  C   UNL A   1      43.277  25.350  26.160  1.00  0.00     0.029 A 
ATOM     47  N   UNL A   1      43.364  27.364  27.125  1.00  0.00    -0.354 N 
ATOM     48  C   UNL A   1      40.111  28.819  29.557  1.00  0.00     0.074 A 
ATOM     49  C   UNL A   1      39.037  27.853  29.627  1.00  0.00     0.031 C 
ATOM     50  C   UNL A   1      44.443  25.916  25.805  1.00  0.00     0.029 A 
ATOM     51  C   UNL A   1      44.523  27.247  26.395  1.00  0.00     0.049 A 
ATOM     52  H   UNL A   1      43.141  28.162  27.657  1.00  0.00     0.167 HD
ATOM     53  C   UNL A   1      40.092  30.022  30.178  1.00  0.00     0.031 A 
ATOM     54  C   UNL A   1      45.532  28.121  26.210  1.00  0.00     0.031 A 
ATOM     55  C   UNL A   1      41.161  30.982  30.110  1.00  0.00     0.049 A 
ATOM     56  C   UNL A   1      45.470  29.465  26.880  1.00  0.00     0.074 A 
ATOM     57  C   UNL A   1      41.259  32.207  30.746  1.00  0.00     0.029 A 
ATOM     58  N   UNL A   1      42.314  30.827  29.356  1.00  0.00    -0.354 N 
ATOM     59  N   UNL A   1      44.546  29.953  27.672  1.00  0.00    -0.248 NA
ATOM     60  C   UNL A   1      46.597  30.378  26.635  1.00  0.00     0.031 C 
ATOM     61  C   UNL A   1      42.445  32.821  30.329  1.00  0.00     0.029 A 
ATOM     62  C   UNL A   1      43.116  31.948  29.487  1.00  0.00     0.049 A 
ATOM     63  H   UNL A   1      42.531  30.038  28.811  1.00  0.00     0.167 HD
ATOM     64  C   UNL A   1      44.992  31.215  28.043  1.00  0.00     0.074 A 
ATOM     65  C   UNL A   1      46.277  31.410  27.404  1.00  0.00     0.031 C 
ATOM     66  C   UNL A   1      44.392  32.129  28.844  1.00  0.00     0.031 A 
BRANCH  53  67
ATOM     67  C   UNL A   1      38.867  30.369  30.977  1.00  0.00    -0.014 A 
ATOM     68  C   UNL A   1      38.779  30.064  32.346  1.00  0.00     0.009 A 
ATOM     69  C   UNL A   1      37.797  31.035  30.361  1.00  0.00     0.009 A 
ATOM     70  C   UNL A   1      37.629  30.385  33.070  1.00  0.00     0.001 A 
ATOM     71  C   UNL A   1      36.661  31.383  31.095  1.00  0.00     0.001 A 
ATOM     72  C   UNL A   1      36.574  31.048  32.445  1.00  0.00     0.000 A 
ENDBRANCH  53  67
BRANCH  54  73
ATOM     73  C   UNL A   1      46.696  27.751  25.360  1.00  0.00    -0.014 A 
ATOM     74  C   UNL A   1      47.827  27.145  25.927  1.00  0.00     0.009 A 
ATOM     75  C   UNL A   1      46.686  28.012  23.981  1.00  0.00     0.009 A 
ATOM     76  C   UNL A   1      48.937  26.836  25.136  1.00  0.00     0.001 A 
ATOM     77  C   UNL A   1      47.785  27.673  23.188  1.00  0.00     0.001 A 
ATOM     78  C   UNL A   1      48.913  27.095  23.767  1.00  0.00     0.000 A 
ENDBRANCH  54  73
BRANCH  66  79
ATOM     79  C   UNL A   1      45.135  33.409  29.107  1.00  0.00    -0.014 A 
ATOM     80  C   UNL A   1      46.056  33.517  30.160  1.00  0.00     0.009 A 
ATOM     81  C   UNL A   1      44.945  34.508  28.254  1.00  0.00     0.009 A 
ATOM     82  C   UNL A   1      46.748  34.712  30.371  1.00  0.00     0.001 A 
ATOM     83  C   UNL A   1      45.661  35.689  28.449  1.00  0.00     0.001 A 
ATOM     84  C   UNL A   1      46.556  35.792  29.512  1.00  0.00     0.000 A 
ENDBRANCH  66  79
ENDBRANCH  40  41
ENDBRANCH  32  35
ENDBRANCH  30  31
ENDBRANCH  29  30
ENDBRANCH   1  29
TORSDOF 15
ENDMDL
