MODEL 1
REMARK VINA RESULT:     -12.3      0.000      0.000
REMARK SMILES COc1ccc(NC(=O)[C@@H]2[C@@H](C(=O)NCCCCNC(=O)c3ccc(-c4c5nc(c(-c6ccccc6)c6ccc([nH]6)c(-c6ccccc6)c6nc(c(-c7ccccc7)c7ccc4[nH]7)C=C6)C=C5)cc3)[C@@H]3CC[C@H]2C3=C(C)C)cc1
REMARK SMILES IDX 16 1 15 2 14 3 12 4 13 5 11 7 10 8 73 9 70 10 72 11 74 12
REMARK SMILES IDX 71 13 75 14 76 15 77 16 8 17 7 18 9 20 6 21 3 22 4 23 79 24
REMARK SMILES IDX 5 25 78 26 2 27 1 28 17 29 18 30 19 31 20 32 21 34 22 35
REMARK SMILES IDX 23 36 69 37 24 38 68 39 25 40 26 41 27 42 62 43 28 44 67 45
REMARK SMILES IDX 61 46 63 47 29 48 66 49 60 50 59 51 30 53 52 54 37 55 51 56
REMARK SMILES IDX 38 57 41 58 50 59 64 60 39 61 40 62 49 64 65 65 42 66 31 67
REMARK SMILES IDX 32 68 36 69 33 70 35 71 34 72 53 73 54 74 58 75 55 76 57 77
REMARK SMILES IDX 56 78 43 79 44 80 48 81 45 82 47 83 46 84
REMARK H PARENT 14 6 7 19 19 33 63 52 41 63
REMARK Flexibility Score: inf
ROOT
ATOM      1  C   UNL A   1      36.399  20.637  25.187  1.00  0.00     0.023 C 
ENDROOT
BRANCH   1   2
ATOM      2  C   UNL A   1      35.803  22.002  25.496  1.00  0.00     0.116 C 
BRANCH   2   3
ATOM      3  N   UNL A   1      35.474  22.752  24.299  1.00  0.00    -0.356 N 
ATOM      4  C   UNL A   1      34.675  23.820  24.050  1.00  0.00     0.224 C 
ATOM      5  O   UNL A   1      34.630  24.181  22.866  1.00  0.00    -0.275 OA
ATOM      6  H   UNL A   1      35.927  22.412  23.493  1.00  0.00     0.163 HD
BRANCH   4   7
ATOM      7  C   UNL A   1      33.798  24.543  25.075  1.00  0.00     0.098 C 
ATOM      8  C   UNL A   1      32.287  24.208  25.095  1.00  0.00     0.099 C 
ATOM      9  C   UNL A   1      31.644  25.608  24.920  1.00  0.00     0.028 C 
ATOM     10  C   UNL A   1      33.852  26.077  24.882  1.00  0.00     0.028 C 
ATOM     11  C   UNL A   1      31.852  26.471  26.177  1.00  0.00     0.009 C 
ATOM     12  C   UNL A   1      32.636  26.315  24.032  1.00  0.00    -0.064 C 
ATOM     13  C   UNL A   1      33.365  26.760  26.170  1.00  0.00     0.009 C 
ATOM     14  C   UNL A   1      32.455  27.025  22.905  1.00  0.00    -0.077 C 
ATOM     15  C   UNL A   1      33.546  27.838  22.256  1.00  0.00     0.039 C 
ATOM     16  C   UNL A   1      31.126  27.096  22.198  1.00  0.00     0.039 C 
BRANCH   8  17
ATOM     17  C   UNL A   1      31.782  23.477  26.331  1.00  0.00     0.228 C 
ATOM     18  N   UNL A   1      31.736  22.106  26.361  1.00  0.00    -0.326 N 
ATOM     19  H   UNL A   1      31.317  21.738  27.172  1.00  0.00     0.169 HD
ATOM     20  O   UNL A   1      31.362  24.084  27.319  1.00  0.00    -0.274 OA
BRANCH  18  21
ATOM     21  C   UNL A   1      32.175  21.129  25.450  1.00  0.00     0.041 A 
ATOM     22  C   UNL A   1      32.851  18.945  23.809  1.00  0.00     0.119 A 
ATOM     23  C   UNL A   1      32.331  20.113  23.254  1.00  0.00     0.048 A 
ATOM     24  C   UNL A   1      33.130  18.910  25.173  1.00  0.00     0.048 A 
ATOM     25  C   UNL A   1      32.009  21.204  24.067  1.00  0.00     0.030 A 
ATOM     26  C   UNL A   1      32.807  20.004  25.986  1.00  0.00     0.030 A 
BRANCH  22  27
ATOM     27  O   UNL A   1      33.061  17.928  22.922  1.00  0.00    -0.497 OA
ATOM     28  C   UNL A   1      33.695  16.765  23.442  1.00  0.00     0.278 C 
ENDBRANCH  22  27
ENDBRANCH  18  21
ENDBRANCH   8  17
ENDBRANCH   4   7
ENDBRANCH   2   3
ENDBRANCH   1   2
BRANCH   1  29
ATOM     29  C   UNL A   1      37.827  20.641  24.676  1.00  0.00     0.023 C 
BRANCH  29  30
ATOM     30  C   UNL A   1      38.901  20.727  25.749  1.00  0.00     0.116 C 
BRANCH  30  31
ATOM     31  N   UNL A   1      39.895  19.660  25.692  1.00  0.00    -0.352 N 
ATOM     32  C   UNL A   1      41.224  19.683  26.048  1.00  0.00     0.251 C 
ATOM     33  H   UNL A   1      39.567  18.799  25.349  1.00  0.00     0.163 HD
ATOM     34  O   UNL A   1      41.932  18.699  25.867  1.00  0.00    -0.269 OA
BRANCH  32  35
ATOM     35  C   UNL A   1      41.803  20.925  26.599  1.00  0.00     0.039 A 
ATOM     36  C   UNL A   1      42.240  21.915  25.717  1.00  0.00     0.014 A 
ATOM     37  C   UNL A   1      41.836  21.143  27.977  1.00  0.00     0.014 A 
ATOM     38  C   UNL A   1      42.609  23.165  26.218  1.00  0.00     0.010 A 
ATOM     39  C   UNL A   1      42.091  22.418  28.462  1.00  0.00     0.010 A 
ATOM     40  C   UNL A   1      42.481  23.443  27.589  1.00  0.00    -0.014 A 
BRANCH  40  41
ATOM     41  C   UNL A   1      42.744  24.802  28.126  1.00  0.00     0.031 A 
ATOM     42  C   UNL A   1      44.138  25.201  28.525  1.00  0.00     0.074 A 
ATOM     43  C   UNL A   1      41.716  25.653  28.317  1.00  0.00     0.049 A 
ATOM     44  N   UNL A   1      44.558  26.331  29.035  1.00  0.00    -0.248 NA
ATOM     45  C   UNL A   1      45.194  24.187  28.368  1.00  0.00     0.031 C 
ATOM     46  C   UNL A   1      40.306  25.363  28.043  1.00  0.00     0.029 A 
ATOM     47  N   UNL A   1      41.702  26.943  28.785  1.00  0.00    -0.354 N 
ATOM     48  C   UNL A   1      45.914  26.153  29.277  1.00  0.00     0.074 A 
ATOM     49  C   UNL A   1      46.234  24.789  28.921  1.00  0.00     0.031 C 
ATOM     50  C   UNL A   1      39.572  26.458  28.299  1.00  0.00     0.029 A 
ATOM     51  C   UNL A   1      40.452  27.514  28.788  1.00  0.00     0.049 A 
ATOM     52  H   UNL A   1      42.510  27.415  29.090  1.00  0.00     0.167 HD
ATOM     53  C   UNL A   1      46.822  27.051  29.727  1.00  0.00     0.031 A 
ATOM     54  C   UNL A   1      40.059  28.753  29.135  1.00  0.00     0.031 A 
ATOM     55  C   UNL A   1      46.512  28.416  30.053  1.00  0.00     0.049 A 
ATOM     56  C   UNL A   1      41.090  29.744  29.599  1.00  0.00     0.074 A 
ATOM     57  C   UNL A   1      47.371  29.425  30.447  1.00  0.00     0.029 A 
ATOM     58  N   UNL A   1      45.238  28.961  30.018  1.00  0.00    -0.354 N 
ATOM     59  N   UNL A   1      42.384  29.584  29.741  1.00  0.00    -0.248 NA
ATOM     60  C   UNL A   1      40.608  31.090  29.933  1.00  0.00     0.031 C 
ATOM     61  C   UNL A   1      46.610  30.574  30.690  1.00  0.00     0.029 A 
ATOM     62  C   UNL A   1      45.285  30.290  30.401  1.00  0.00     0.049 A 
ATOM     63  H   UNL A   1      44.422  28.475  29.760  1.00  0.00     0.167 HD
ATOM     64  C   UNL A   1      42.872  30.813  30.162  1.00  0.00     0.074 A 
ATOM     65  C   UNL A   1      41.739  31.713  30.229  1.00  0.00     0.031 C 
ATOM     66  C   UNL A   1      44.145  31.166  30.468  1.00  0.00     0.031 A 
BRANCH  53  67
ATOM     67  C   UNL A   1      48.240  26.576  29.878  1.00  0.00    -0.014 A 
ATOM     68  C   UNL A   1      49.173  26.731  28.840  1.00  0.00     0.009 A 
ATOM     69  C   UNL A   1      48.654  25.979  31.079  1.00  0.00     0.009 A 
ATOM     70  C   UNL A   1      50.479  26.259  28.985  1.00  0.00     0.001 A 
ATOM     71  C   UNL A   1      49.969  25.535  31.232  1.00  0.00     0.001 A 
ATOM     72  C   UNL A   1      50.877  25.666  30.181  1.00  0.00     0.000 A 
ENDBRANCH  53  67
BRANCH  54  73
ATOM     73  C   UNL A   1      38.631  29.147  29.015  1.00  0.00    -0.014 A 
ATOM     74  C   UNL A   1      38.124  29.612  27.792  1.00  0.00     0.009 A 
ATOM     75  C   UNL A   1      37.770  29.064  30.120  1.00  0.00     0.009 A 
ATOM     76  C   UNL A   1      36.791  30.013  27.684  1.00  0.00     0.001 A 
ATOM     77  C   UNL A   1      36.429  29.441  30.001  1.00  0.00     0.001 A 
ATOM     78  C   UNL A   1      35.944  29.923  28.787  1.00  0.00     0.000 A 
ENDBRANCH  54  73
BRANCH  66  79
ATOM     79  C   UNL A   1      44.375  32.591  30.881  1.00  0.00    -0.014 A 
ATOM     80  C   UNL A   1      44.330  32.973  32.230  1.00  0.00     0.009 A 
ATOM     81  C   UNL A   1      44.665  33.559  29.907  1.00  0.00     0.009 A 
ATOM     82  C   UNL A   1      44.534  34.305  32.593  1.00  0.00     0.001 A 
ATOM     83  C   UNL A   1      44.897  34.885  30.275  1.00  0.00     0.001 A 
ATOM     84  C   UNL A   1      44.821  35.258  31.616  1.00  0.00     0.000 A 
ENDBRANCH  66  79
ENDBRANCH  40  41
ENDBRANCH  32  35
ENDBRANCH  30  31
ENDBRANCH  29  30
ENDBRANCH   1  29
TORSDOF 14
ENDMDL
MODEL 2
REMARK VINA RESULT:     -12.1      1.563      5.923
REMARK SMILES COc1ccc(NC(=O)[C@@H]2[C@@H](C(=O)NCCCCNC(=O)c3ccc(-c4c5nc(c(-c6ccccc6)c6ccc([nH]6)c(-c6ccccc6)c6nc(c(-c7ccccc7)c7ccc4[nH]7)C=C6)C=C5)cc3)[C@@H]3CC[C@H]2C3=C(C)C)cc1
REMARK SMILES IDX 16 1 15 2 14 3 12 4 13 5 11 7 10 8 73 9 70 10 72 11 74 12
REMARK SMILES IDX 71 13 75 14 76 15 77 16 8 17 7 18 9 20 6 21 3 22 4 23 79 24
REMARK SMILES IDX 5 25 78 26 2 27 1 28 17 29 18 30 19 31 20 32 21 34 22 35
REMARK SMILES IDX 23 36 69 37 24 38 68 39 25 40 26 41 27 42 62 43 28 44 67 45
REMARK SMILES IDX 61 46 63 47 29 48 66 49 60 50 59 51 30 53 52 54 37 55 51 56
REMARK SMILES IDX 38 57 41 58 50 59 64 60 39 61 40 62 49 64 65 65 42 66 31 67
REMARK SMILES IDX 32 68 36 69 33 70 35 71 34 72 53 73 54 74 58 75 55 76 57 77
REMARK SMILES IDX 56 78 43 79 44 80 48 81 45 82 47 83 46 84
REMARK H PARENT 14 6 7 19 19 33 63 52 41 63
REMARK Flexibility Score: inf
ROOT
ATOM      1  C   UNL A   1      36.710  21.084  25.447  1.00  0.00     0.023 C 
ENDROOT
BRANCH   1   2
ATOM      2  C   UNL A   1      36.722  22.552  25.054  1.00  0.00     0.116 C 
BRANCH   2   3
ATOM      3  N   UNL A   1      35.872  22.832  23.913  1.00  0.00    -0.356 N 
ATOM      4  C   UNL A   1      34.730  23.547  23.745  1.00  0.00     0.224 C 
ATOM      5  O   UNL A   1      34.270  23.544  22.595  1.00  0.00    -0.275 OA
ATOM      6  H   UNL A   1      36.192  22.414  23.081  1.00  0.00     0.163 HD
BRANCH   4   7
ATOM      7  C   UNL A   1      33.954  24.270  24.848  1.00  0.00     0.098 C 
ATOM      8  C   UNL A   1      32.438  23.980  24.973  1.00  0.00     0.099 C 
ATOM      9  C   UNL A   1      31.829  25.402  24.876  1.00  0.00     0.028 C 
ATOM     10  C   UNL A   1      34.042  25.807  24.685  1.00  0.00     0.028 C 
ATOM     11  C   UNL A   1      32.156  26.229  26.134  1.00  0.00     0.009 C 
ATOM     12  C   UNL A   1      32.775  26.101  23.933  1.00  0.00    -0.064 C 
ATOM     13  C   UNL A   1      33.673  26.472  26.020  1.00  0.00     0.009 C 
ATOM     14  C   UNL A   1      32.534  26.843  22.838  1.00  0.00    -0.077 C 
ATOM     15  C   UNL A   1      33.599  27.638  22.128  1.00  0.00     0.039 C 
ATOM     16  C   UNL A   1      31.160  26.971  22.234  1.00  0.00     0.039 C 
BRANCH   8  17
ATOM     17  C   UNL A   1      32.003  23.235  26.226  1.00  0.00     0.228 C 
ATOM     18  N   UNL A   1      31.951  21.864  26.241  1.00  0.00    -0.326 N 
ATOM     19  H   UNL A   1      31.579  21.487  27.070  1.00  0.00     0.169 HD
ATOM     20  O   UNL A   1      31.646  23.831  27.245  1.00  0.00    -0.274 OA
BRANCH  18  21
ATOM     21  C   UNL A   1      32.330  20.898  25.293  1.00  0.00     0.041 A 
ATOM     22  C   UNL A   1      32.877  18.738  23.573  1.00  0.00     0.119 A 
ATOM     23  C   UNL A   1      32.404  19.946  23.064  1.00  0.00     0.048 A 
ATOM     24  C   UNL A   1      33.175  18.646  24.930  1.00  0.00     0.048 A 
ATOM     25  C   UNL A   1      32.146  21.024  23.916  1.00  0.00     0.030 A 
ATOM     26  C   UNL A   1      32.916  19.727  25.783  1.00  0.00     0.030 A 
BRANCH  22  27
ATOM     27  O   UNL A   1      33.025  17.741  22.651  1.00  0.00    -0.497 OA
ATOM     28  C   UNL A   1      34.025  16.769  22.937  1.00  0.00     0.278 C 
ENDBRANCH  22  27
ENDBRANCH  18  21
ENDBRANCH   8  17
ENDBRANCH   4   7
ENDBRANCH   2   3
ENDBRANCH   1   2
BRANCH   1  29
ATOM     29  C   UNL A   1      37.900  20.266  24.981  1.00  0.00     0.023 C 
BRANCH  29  30
ATOM     30  C   UNL A   1      39.183  20.479  25.770  1.00  0.00     0.116 C 
BRANCH  30  31
ATOM     31  N   UNL A   1      40.045  19.304  25.845  1.00  0.00    -0.352 N 
ATOM     32  C   UNL A   1      41.390  19.223  26.120  1.00  0.00     0.251 C 
ATOM     33  H   UNL A   1      39.599  18.445  25.672  1.00  0.00     0.163 HD
ATOM     34  O   UNL A   1      41.969  18.143  26.073  1.00  0.00    -0.269 OA
BRANCH  32  35
ATOM     35  C   UNL A   1      42.143  20.458  26.417  1.00  0.00     0.039 A 
ATOM     36  C   UNL A   1      42.702  21.179  25.360  1.00  0.00     0.014 A 
ATOM     37  C   UNL A   1      42.223  20.944  27.723  1.00  0.00     0.014 A 
ATOM     38  C   UNL A   1      43.247  22.440  25.604  1.00  0.00     0.010 A 
ATOM     39  C   UNL A   1      42.658  22.243  27.944  1.00  0.00     0.010 A 
ATOM     40  C   UNL A   1      43.177  23.006  26.888  1.00  0.00    -0.014 A 
BRANCH  40  41
ATOM     41  C   UNL A   1      43.632  24.395  27.143  1.00  0.00     0.031 A 
ATOM     42  C   UNL A   1      42.644  25.451  27.559  1.00  0.00     0.074 A 
ATOM     43  C   UNL A   1      44.923  24.722  26.935  1.00  0.00     0.049 A 
ATOM     44  N   UNL A   1      42.848  26.720  27.802  1.00  0.00    -0.248 NA
ATOM     45  C   UNL A   1      41.236  25.036  27.682  1.00  0.00     0.031 C 
ATOM     46  C   UNL A   1      45.967  23.812  26.458  1.00  0.00     0.029 A 
ATOM     47  N   UNL A   1      45.579  25.916  27.104  1.00  0.00    -0.354 N 
ATOM     48  C   UNL A   1      41.596  27.255  28.083  1.00  0.00     0.074 A 
ATOM     49  C   UNL A   1      40.633  26.190  27.916  1.00  0.00     0.031 C 
ATOM     50  C   UNL A   1      47.140  24.465  26.421  1.00  0.00     0.029 A 
ATOM     51  C   UNL A   1      46.925  25.847  26.837  1.00  0.00     0.049 A 
ATOM     52  H   UNL A   1      45.128  26.744  27.388  1.00  0.00     0.167 HD
ATOM     53  C   UNL A   1      41.277  28.511  28.474  1.00  0.00     0.031 A 
ATOM     54  C   UNL A   1      47.882  26.789  26.928  1.00  0.00     0.031 A 
ATOM     55  C   UNL A   1      42.237  29.563  28.668  1.00  0.00     0.049 A 
ATOM     56  C   UNL A   1      47.510  28.167  27.397  1.00  0.00     0.074 A 
ATOM     57  C   UNL A   1      42.026  30.848  29.132  1.00  0.00     0.029 A 
ATOM     58  N   UNL A   1      43.594  29.444  28.411  1.00  0.00    -0.354 N 
ATOM     59  N   UNL A   1      46.333  28.633  27.740  1.00  0.00    -0.248 NA
ATOM     60  C   UNL A   1      48.601  29.144  27.507  1.00  0.00     0.031 C 
ATOM     61  C   UNL A   1      43.252  31.523  29.118  1.00  0.00     0.029 A 
ATOM     62  C   UNL A   1      44.231  30.640  28.691  1.00  0.00     0.049 A 
ATOM     63  H   UNL A   1      44.038  28.631  28.079  1.00  0.00     0.167 HD
ATOM     64  C   UNL A   1      46.546  29.949  28.126  1.00  0.00     0.074 A 
ATOM     65  C   UNL A   1      47.966  30.199  27.996  1.00  0.00     0.031 C 
ATOM     66  C   UNL A   1      45.645  30.871  28.548  1.00  0.00     0.031 A 
BRANCH  53  67
ATOM     67  C   UNL A   1      39.824  28.803  28.725  1.00  0.00    -0.014 A 
ATOM     68  C   UNL A   1      39.245  28.578  29.985  1.00  0.00     0.009 A 
ATOM     69  C   UNL A   1      39.026  29.323  27.695  1.00  0.00     0.009 A 
ATOM     70  C   UNL A   1      37.888  28.827  30.195  1.00  0.00     0.001 A 
ATOM     71  C   UNL A   1      37.676  29.600  27.917  1.00  0.00     0.001 A 
ATOM     72  C   UNL A   1      37.105  29.341  29.163  1.00  0.00     0.000 A 
ENDBRANCH  53  67
BRANCH  54  73
ATOM     73  C   UNL A   1      49.295  26.452  26.612  1.00  0.00    -0.014 A 
ATOM     74  C   UNL A   1      49.796  26.645  25.315  1.00  0.00     0.009 A 
ATOM     75  C   UNL A   1      50.147  25.935  27.599  1.00  0.00     0.009 A 
ATOM     76  C   UNL A   1      51.114  26.298  25.006  1.00  0.00     0.001 A 
ATOM     77  C   UNL A   1      51.472  25.615  27.293  1.00  0.00     0.001 A 
ATOM     78  C   UNL A   1      51.952  25.789  25.996  1.00  0.00     0.000 A 
ENDBRANCH  54  73
BRANCH  66  79
ATOM     79  C   UNL A   1      46.180  32.224  28.918  1.00  0.00    -0.014 A 
ATOM     80  C   UNL A   1      46.622  32.498  30.220  1.00  0.00     0.009 A 
ATOM     81  C   UNL A   1      46.265  33.228  27.941  1.00  0.00     0.009 A 
ATOM     82  C   UNL A   1      47.105  33.767  30.548  1.00  0.00     0.001 A 
ATOM     83  C   UNL A   1      46.775  34.486  28.265  1.00  0.00     0.001 A 
ATOM     84  C   UNL A   1      47.185  34.757  29.570  1.00  0.00     0.000 A 
ENDBRANCH  66  79
ENDBRANCH  40  41
ENDBRANCH  32  35
ENDBRANCH  30  31
ENDBRANCH  29  30
ENDBRANCH   1  29
TORSDOF 14
ENDMDL
MODEL 3
REMARK VINA RESULT:     -12.0      4.242      8.882
REMARK SMILES COc1ccc(NC(=O)[C@@H]2[C@@H](C(=O)NCCCCNC(=O)c3ccc(-c4c5nc(c(-c6ccccc6)c6ccc([nH]6)c(-c6ccccc6)c6nc(c(-c7ccccc7)c7ccc4[nH]7)C=C6)C=C5)cc3)[C@@H]3CC[C@H]2C3=C(C)C)cc1
REMARK SMILES IDX 16 1 15 2 14 3 12 4 13 5 11 7 10 8 73 9 70 10 72 11 74 12
REMARK SMILES IDX 71 13 75 14 76 15 77 16 8 17 7 18 9 20 6 21 3 22 4 23 79 24
REMARK SMILES IDX 5 25 78 26 2 27 1 28 17 29 18 30 19 31 20 32 21 34 22 35
REMARK SMILES IDX 23 36 69 37 24 38 68 39 25 40 26 41 27 42 62 43 28 44 67 45
REMARK SMILES IDX 61 46 63 47 29 48 66 49 60 50 59 51 30 53 52 54 37 55 51 56
REMARK SMILES IDX 38 57 41 58 50 59 64 60 39 61 40 62 49 64 65 65 42 66 31 67
REMARK SMILES IDX 32 68 36 69 33 70 35 71 34 72 53 73 54 74 58 75 55 76 57 77
REMARK SMILES IDX 56 78 43 79 44 80 48 81 45 82 47 83 46 84
REMARK H PARENT 14 6 7 19 19 33 63 52 41 63
REMARK Flexibility Score: inf
ROOT
ATOM      1  C   UNL A   1      31.938  30.517  26.208  1.00  0.00     0.023 C 
ENDROOT
BRANCH   1   2
ATOM      2  C   UNL A   1      31.922  29.418  27.258  1.00  0.00     0.116 C 
BRANCH   2   3
ATOM      3  N   UNL A   1      32.924  28.397  27.013  1.00  0.00    -0.356 N 
ATOM      4  C   UNL A   1      32.894  27.174  26.425  1.00  0.00     0.224 C 
ATOM      5  O   UNL A   1      33.974  26.567  26.416  1.00  0.00    -0.275 OA
ATOM      6  H   UNL A   1      33.816  28.645  27.345  1.00  0.00     0.163 HD
BRANCH   4   7
ATOM      7  C   UNL A   1      31.654  26.481  25.858  1.00  0.00     0.098 C 
ATOM      8  C   UNL A   1      31.757  24.971  25.530  1.00  0.00     0.099 C 
ATOM      9  C   UNL A   1      31.334  24.935  24.039  1.00  0.00     0.028 C 
ATOM     10  C   UNL A   1      31.199  27.135  24.531  1.00  0.00     0.028 C 
ATOM     11  C   UNL A   1      29.835  25.249  23.883  1.00  0.00     0.009 C 
ATOM     12  C   UNL A   1      31.863  26.247  23.517  1.00  0.00    -0.064 C 
ATOM     13  C   UNL A   1      29.739  26.741  24.254  1.00  0.00     0.009 C 
ATOM     14  C   UNL A   1      32.596  26.525  22.425  1.00  0.00    -0.077 C 
ATOM     15  C   UNL A   1      32.865  27.929  21.946  1.00  0.00     0.039 C 
ATOM     16  C   UNL A   1      33.197  25.449  21.558  1.00  0.00     0.039 C 
BRANCH   8  17
ATOM     17  C   UNL A   1      30.926  24.042  26.402  1.00  0.00     0.228 C 
ATOM     18  N   UNL A   1      31.343  22.758  26.651  1.00  0.00    -0.326 N 
ATOM     19  H   UNL A   1      30.695  22.217  27.155  1.00  0.00     0.169 HD
ATOM     20  O   UNL A   1      29.842  24.390  26.875  1.00  0.00    -0.274 OA
BRANCH  18  21
ATOM     21  C   UNL A   1      32.525  22.072  26.319  1.00  0.00     0.041 A 
ATOM     22  C   UNL A   1      34.860  20.850  25.332  1.00  0.00     0.119 A 
ATOM     23  C   UNL A   1      34.897  21.605  26.503  1.00  0.00     0.048 A 
ATOM     24  C   UNL A   1      33.634  20.621  24.713  1.00  0.00     0.048 A 
ATOM     25  C   UNL A   1      33.734  22.200  27.002  1.00  0.00     0.030 A 
ATOM     26  C   UNL A   1      32.470  21.218  25.214  1.00  0.00     0.030 A 
BRANCH  22  27
ATOM     27  O   UNL A   1      36.071  20.378  24.911  1.00  0.00    -0.497 OA
ATOM     28  C   UNL A   1      37.078  21.357  24.681  1.00  0.00     0.278 C 
ENDBRANCH  22  27
ENDBRANCH  18  21
ENDBRANCH   8  17
ENDBRANCH   4   7
ENDBRANCH   2   3
ENDBRANCH   1   2
BRANCH   1  29
ATOM     29  C   UNL A   1      31.539  31.899  26.693  1.00  0.00     0.023 C 
BRANCH  29  30
ATOM     30  C   UNL A   1      32.651  32.702  27.351  1.00  0.00     0.116 C 
BRANCH  30  31
ATOM     31  N   UNL A   1      32.292  34.081  27.662  1.00  0.00    -0.352 N 
ATOM     32  C   UNL A   1      32.904  34.973  28.513  1.00  0.00     0.251 C 
ATOM     33  H   UNL A   1      31.496  34.423  27.196  1.00  0.00     0.163 HD
ATOM     34  O   UNL A   1      32.418  36.083  28.702  1.00  0.00    -0.269 OA
BRANCH  32  35
ATOM     35  C   UNL A   1      34.122  34.560  29.239  1.00  0.00     0.039 A 
ATOM     36  C   UNL A   1      33.989  33.959  30.492  1.00  0.00     0.014 A 
ATOM     37  C   UNL A   1      35.379  34.690  28.648  1.00  0.00     0.014 A 
ATOM     38  C   UNL A   1      35.109  33.392  31.102  1.00  0.00     0.010 A 
ATOM     39  C   UNL A   1      36.466  34.026  29.199  1.00  0.00     0.010 A 
ATOM     40  C   UNL A   1      36.344  33.371  30.433  1.00  0.00    -0.014 A 
BRANCH  40  41
ATOM     41  C   UNL A   1      37.516  32.661  31.004  1.00  0.00     0.031 A 
ATOM     42  C   UNL A   1      38.099  33.100  32.320  1.00  0.00     0.074 A 
ATOM     43  C   UNL A   1      38.098  31.665  30.306  1.00  0.00     0.049 A 
ATOM     44  N   UNL A   1      39.133  32.621  32.964  1.00  0.00    -0.248 NA
ATOM     45  C   UNL A   1      37.462  34.251  32.982  1.00  0.00     0.031 C 
ATOM     46  C   UNL A   1      37.678  31.194  28.983  1.00  0.00     0.029 A 
ATOM     47  N   UNL A   1      39.169  30.865  30.617  1.00  0.00    -0.354 N 
ATOM     48  C   UNL A   1      39.280  33.424  34.088  1.00  0.00     0.074 A 
ATOM     49  C   UNL A   1      38.273  34.458  34.006  1.00  0.00     0.031 C 
ATOM     50  C   UNL A   1      38.450  30.156  28.620  1.00  0.00     0.029 A 
ATOM     51  C   UNL A   1      39.438  29.911  29.664  1.00  0.00     0.049 A 
ATOM     52  H   UNL A   1      39.695  30.965  31.442  1.00  0.00     0.167 HD
ATOM     53  C   UNL A   1      40.153  33.297  35.114  1.00  0.00     0.031 A 
ATOM     54  C   UNL A   1      40.370  28.941  29.641  1.00  0.00     0.031 A 
ATOM     55  C   UNL A   1      41.135  32.252  35.212  1.00  0.00     0.049 A 
ATOM     56  C   UNL A   1      41.307  28.798  30.807  1.00  0.00     0.074 A 
ATOM     57  C   UNL A   1      42.018  31.992  36.245  1.00  0.00     0.029 A 
ATOM     58  N   UNL A   1      41.358  31.291  34.239  1.00  0.00    -0.354 N 
ATOM     59  N   UNL A   1      41.376  29.515  31.903  1.00  0.00    -0.248 NA
ATOM     60  C   UNL A   1      42.282  27.702  30.740  1.00  0.00     0.031 C 
ATOM     61  C   UNL A   1      42.805  30.895  35.878  1.00  0.00     0.029 A 
ATOM     62  C   UNL A   1      42.378  30.445  34.638  1.00  0.00     0.049 A 
ATOM     63  H   UNL A   1      40.865  31.221  33.390  1.00  0.00     0.167 HD
ATOM     64  C   UNL A   1      42.388  28.944  32.664  1.00  0.00     0.074 A 
ATOM     65  C   UNL A   1      42.886  27.809  31.914  1.00  0.00     0.031 C 
ATOM     66  C   UNL A   1      42.864  29.326  33.875  1.00  0.00     0.031 A 
BRANCH  53  67
ATOM     67  C   UNL A   1      40.070  34.316  36.217  1.00  0.00    -0.014 A 
ATOM     68  C   UNL A   1      39.256  34.105  37.341  1.00  0.00     0.009 A 
ATOM     69  C   UNL A   1      40.826  35.496  36.138  1.00  0.00     0.009 A 
ATOM     70  C   UNL A   1      39.166  35.073  38.343  1.00  0.00     0.001 A 
ATOM     71  C   UNL A   1      40.757  36.448  37.156  1.00  0.00     0.001 A 
ATOM     72  C   UNL A   1      39.920  36.242  38.252  1.00  0.00     0.000 A 
ENDBRANCH  53  67
BRANCH  54  73
ATOM     73  C   UNL A   1      40.438  27.997  28.495  1.00  0.00    -0.014 A 
ATOM     74  C   UNL A   1      39.752  26.774  28.542  1.00  0.00     0.009 A 
ATOM     75  C   UNL A   1      41.189  28.310  27.352  1.00  0.00     0.009 A 
ATOM     76  C   UNL A   1      39.840  25.870  27.481  1.00  0.00     0.001 A 
ATOM     77  C   UNL A   1      41.253  27.415  26.280  1.00  0.00     0.001 A 
ATOM     78  C   UNL A   1      40.586  26.193  26.350  1.00  0.00     0.000 A 
ENDBRANCH  54  73
BRANCH  66  79
ATOM     79  C   UNL A   1      43.964  28.493  34.466  1.00  0.00    -0.014 A 
ATOM     80  C   UNL A   1      45.312  28.772  34.195  1.00  0.00     0.009 A 
ATOM     81  C   UNL A   1      43.645  27.431  35.327  1.00  0.00     0.009 A 
ATOM     82  C   UNL A   1      46.320  27.978  34.745  1.00  0.00     0.001 A 
ATOM     83  C   UNL A   1      44.656  26.657  35.897  1.00  0.00     0.001 A 
ATOM     84  C   UNL A   1      45.992  26.925  35.598  1.00  0.00     0.000 A 
ENDBRANCH  66  79
ENDBRANCH  40  41
ENDBRANCH  32  35
ENDBRANCH  30  31
ENDBRANCH  29  30
ENDBRANCH   1  29
TORSDOF 14
ENDMDL
