MODEL 1
REMARK VINA RESULT:     -11.9      0.000      0.000
REMARK SMILES O=C(NCCCCNC(=O)c1cc(NC(=S)NC(=O)c2ccccc2Cl)c(Cl)cc1Cl)c1ccc(-c2c3nc(c(-c4ccccc4)c4ccc([nH]4)c(-c4ccccc4)c4nc(c(-c5ccccc5)c5ccc2[nH]5)C=C4)C=C3)cc1
REMARK SMILES IDX 6 1 5 2 4 3 3 4 1 5 2 6 32 8 33 9 79 10 34 11 78 12 35 13
REMARK SMILES IDX 36 14 37 15 72 16 38 17 77 18 71 19 73 20 39 21 76 22 70 23
REMARK SMILES IDX 69 24 40 26 62 27 47 28 61 29 48 30 51 31 60 32 74 33 49 34
REMARK SMILES IDX 50 35 59 37 75 38 52 39 41 40 42 41 46 42 43 43 45 44 44 45
REMARK SMILES IDX 63 46 64 47 68 48 65 49 67 50 66 51 53 52 54 53 58 54 55 55
REMARK SMILES IDX 57 56 56 57 7 58 8 59 9 60 10 62 11 63 12 64 30 65 13 66
REMARK SMILES IDX 29 67 31 68 27 69 28 70 14 71 15 73 16 74 17 75 18 76 19 78
REMARK SMILES IDX 20 79 21 80 25 81 22 82 24 83 26 84 23 85
REMARK H PARENT 3 7 73 25 51 36 8 61 14 72 17 77
REMARK Flexibility Score: inf
ROOT
ATOM      1  C   UNL A   1      37.831  21.829  25.332  1.00  0.00     0.023 C 
ENDROOT
BRANCH   1   2
ATOM      2  C   UNL A   1      38.575  20.501  25.156  1.00  0.00     0.023 C 
BRANCH   2   3
ATOM      3  C   UNL A   1      39.495  20.094  26.305  1.00  0.00     0.116 C 
BRANCH   3   4
ATOM      4  N   UNL A   1      40.577  19.195  25.940  1.00  0.00    -0.352 N 
ATOM      5  O   UNL A   1      42.763  18.661  25.601  1.00  0.00    -0.269 OA
ATOM      6  C   UNL A   1      41.929  19.475  25.977  1.00  0.00     0.251 C 
ATOM      7  H   UNL A   1      40.320  18.294  25.635  1.00  0.00     0.163 HD
BRANCH   6   8
ATOM      8  C   UNL A   1      42.346  20.813  26.447  1.00  0.00     0.039 A 
ATOM      9  C   UNL A   1      42.379  21.084  27.818  1.00  0.00     0.014 A 
ATOM     10  C   UNL A   1      42.591  21.823  25.515  1.00  0.00     0.014 A 
ATOM     11  C   UNL A   1      42.512  22.396  28.252  1.00  0.00     0.010 A 
ATOM     12  C   UNL A   1      42.827  23.127  25.961  1.00  0.00     0.010 A 
ATOM     13  C   UNL A   1      42.771  23.426  27.332  1.00  0.00    -0.014 A 
BRANCH  13  14
ATOM     14  C   UNL A   1      43.127  24.776  27.836  1.00  0.00     0.031 A 
ATOM     15  C   UNL A   1      42.083  25.804  28.164  1.00  0.00     0.074 A 
ATOM     16  C   UNL A   1      44.437  25.064  27.972  1.00  0.00     0.049 A 
ATOM     17  N   UNL A   1      42.251  27.043  28.556  1.00  0.00    -0.248 NA
ATOM     18  C   UNL A   1      40.673  25.405  28.032  1.00  0.00     0.031 C 
ATOM     19  C   UNL A   1      45.537  24.139  27.675  1.00  0.00     0.029 A 
ATOM     20  N   UNL A   1      45.070  26.205  28.388  1.00  0.00    -0.354 N 
ATOM     21  C   UNL A   1      40.976  27.580  28.689  1.00  0.00     0.074 A 
ATOM     22  C   UNL A   1      40.040  26.534  28.333  1.00  0.00     0.031 C 
ATOM     23  C   UNL A   1      46.704  24.738  27.946  1.00  0.00     0.029 A 
ATOM     24  C   UNL A   1      46.440  26.113  28.347  1.00  0.00     0.049 A 
ATOM     25  H   UNL A   1      44.591  27.011  28.688  1.00  0.00     0.167 HD
ATOM     26  C   UNL A   1      40.629  28.834  29.068  1.00  0.00     0.031 A 
ATOM     27  C   UNL A   1      47.389  27.043  28.555  1.00  0.00     0.031 A 
ATOM     28  C   UNL A   1      41.574  29.863  29.422  1.00  0.00     0.049 A 
ATOM     29  C   UNL A   1      46.965  28.434  28.914  1.00  0.00     0.074 A 
ATOM     30  C   UNL A   1      41.317  31.144  29.881  1.00  0.00     0.029 A 
ATOM     31  N   UNL A   1      42.952  29.737  29.340  1.00  0.00    -0.354 N 
ATOM     32  N   UNL A   1      45.756  28.903  29.108  1.00  0.00    -0.248 NA
ATOM     33  C   UNL A   1      48.033  29.428  29.075  1.00  0.00     0.031 C 
ATOM     34  C   UNL A   1      42.535  31.819  29.999  1.00  0.00     0.029 A 
ATOM     35  C   UNL A   1      43.555  30.937  29.685  1.00  0.00     0.049 A 
ATOM     36  H   UNL A   1      43.431  28.918  29.077  1.00  0.00     0.167 HD
ATOM     37  C   UNL A   1      45.920  30.243  29.426  1.00  0.00     0.074 A 
ATOM     38  C   UNL A   1      47.345  30.502  29.432  1.00  0.00     0.031 C 
ATOM     39  C   UNL A   1      44.974  31.177  29.681  1.00  0.00     0.031 A 
BRANCH  26  40
ATOM     40  C   UNL A   1      39.169  29.201  29.083  1.00  0.00    -0.014 A 
ATOM     41  C   UNL A   1      38.516  29.676  27.937  1.00  0.00     0.009 A 
ATOM     42  C   UNL A   1      38.412  28.961  30.243  1.00  0.00     0.009 A 
ATOM     43  C   UNL A   1      37.138  29.914  27.957  1.00  0.00     0.001 A 
ATOM     44  C   UNL A   1      37.033  29.175  30.252  1.00  0.00     0.001 A 
ATOM     45  C   UNL A   1      36.397  29.656  29.110  1.00  0.00     0.000 A 
ENDBRANCH  26  40
BRANCH  27  46
ATOM     46  C   UNL A   1      48.822  26.703  28.353  1.00  0.00    -0.014 A 
ATOM     47  C   UNL A   1      49.413  26.799  27.086  1.00  0.00     0.009 A 
ATOM     48  C   UNL A   1      49.603  26.262  29.435  1.00  0.00     0.009 A 
ATOM     49  C   UNL A   1      50.745  26.423  26.899  1.00  0.00     0.001 A 
ATOM     50  C   UNL A   1      50.945  25.926  29.253  1.00  0.00     0.001 A 
ATOM     51  C   UNL A   1      51.511  25.992  27.982  1.00  0.00     0.000 A 
ENDBRANCH  27  46
BRANCH  39  52
ATOM     52  C   UNL A   1      45.454  32.564  30.003  1.00  0.00    -0.014 A 
ATOM     53  C   UNL A   1      45.772  32.933  31.319  1.00  0.00     0.009 A 
ATOM     54  C   UNL A   1      45.631  33.498  28.970  1.00  0.00     0.009 A 
ATOM     55  C   UNL A   1      46.234  34.220  31.599  1.00  0.00     0.001 A 
ATOM     56  C   UNL A   1      46.124  34.772  29.248  1.00  0.00     0.001 A 
ATOM     57  C   UNL A   1      46.417  35.135  30.562  1.00  0.00     0.000 A 
ENDBRANCH  39  52
ENDBRANCH  13  14
ENDBRANCH   6   8
ENDBRANCH   3   4
ENDBRANCH   2   3
ENDBRANCH   1   2
BRANCH   1  58
ATOM     58  C   UNL A   1      36.530  21.874  24.531  1.00  0.00     0.116 C 
BRANCH  58  59
ATOM     59  N   UNL A   1      35.550  20.818  24.801  1.00  0.00    -0.352 N 
ATOM     60  C   UNL A   1      34.203  20.587  24.607  1.00  0.00     0.252 C 
ATOM     61  H   UNL A   1      35.976  20.053  25.252  1.00  0.00     0.163 HD
ATOM     62  O   UNL A   1      33.851  19.408  24.531  1.00  0.00    -0.269 OA
BRANCH  60  63
ATOM     63  C   UNL A   1      33.085  21.636  24.680  1.00  0.00     0.060 A 
ATOM     64  C   UNL A   1      31.781  22.562  23.446  1.00  0.00     0.043 A 
ATOM     65  C   UNL A   1      32.871  22.035  26.446  1.00  0.00     0.055 A 
ATOM     66  C   UNL A   1      30.711  23.775  23.954  1.00  0.00     0.060 A 
ATOM     67  C   UNL A   1      31.608  23.221  26.901  1.00  0.00     0.044 A 
ATOM     68  Cl  UNL A   1      33.779  21.296  27.704  1.00  0.00    -0.083 Cl
ATOM     69  C   UNL A   1      30.590  24.062  25.681  1.00  0.00     0.066 A 
ATOM     70  Cl  UNL A   1      29.649  25.404  26.226  1.00  0.00    -0.082 Cl
BRANCH  66  71
ATOM     71  N   UNL A   1      30.582  24.726  22.906  1.00  0.00    -0.331 N 
ATOM     72  H   UNL A   1      30.154  24.375  22.092  1.00  0.00     0.169 HD
BRANCH  71  73
ATOM     73  C   UNL A   1      30.951  26.058  22.827  1.00  0.00     0.177 C 
ATOM     74  S   UNL A   1      29.821  27.167  23.403  1.00  0.00    -0.040 S 
BRANCH  73  75
ATOM     75  N   UNL A   1      32.171  26.648  22.356  1.00  0.00    -0.299 N 
ATOM     76  C   UNL A   1      33.473  27.351  22.520  1.00  0.00     0.258 C 
ATOM     77  H   UNL A   1      32.118  26.512  21.382  1.00  0.00     0.172 HD
ATOM     78  O   UNL A   1      34.183  27.602  21.552  1.00  0.00    -0.269 OA
BRANCH  76  79
ATOM     79  C   UNL A   1      33.896  27.854  23.868  1.00  0.00     0.058 A 
ATOM     80  C   UNL A   1      33.103  29.422  23.950  1.00  0.00     0.015 A 
ATOM     81  C   UNL A   1      33.824  26.614  25.171  1.00  0.00     0.053 A 
ATOM     82  C   UNL A   1      31.957  29.681  25.262  1.00  0.00     0.001 A 
ATOM     83  C   UNL A   1      32.715  26.753  26.554  1.00  0.00     0.021 A 
ATOM     84  Cl  UNL A   1      34.457  25.036  24.847  1.00  0.00    -0.083 Cl
ATOM     85  C   UNL A   1      31.680  28.231  26.651  1.00  0.00     0.002 A 
ENDBRANCH  76  79
ENDBRANCH  73  75
ENDBRANCH  71  73
ENDBRANCH  66  71
ENDBRANCH  60  63
ENDBRANCH  58  59
ENDBRANCH   1  58
TORSDOF 15
ENDMDL
MODEL 2
REMARK VINA RESULT:     -11.8      0.748      5.819
REMARK SMILES O=C(NCCCCNC(=O)c1cc(NC(=S)NC(=O)c2ccccc2Cl)c(Cl)cc1Cl)c1ccc(-c2c3nc(c(-c4ccccc4)c4ccc([nH]4)c(-c4ccccc4)c4nc(c(-c5ccccc5)c5ccc2[nH]5)C=C4)C=C3)cc1
REMARK SMILES IDX 6 1 5 2 4 3 3 4 1 5 2 6 32 8 33 9 79 10 34 11 78 12 35 13
REMARK SMILES IDX 36 14 37 15 72 16 38 17 77 18 71 19 73 20 39 21 76 22 70 23
REMARK SMILES IDX 69 24 40 26 62 27 47 28 61 29 48 30 51 31 60 32 74 33 49 34
REMARK SMILES IDX 50 35 59 37 75 38 52 39 41 40 42 41 46 42 43 43 45 44 44 45
REMARK SMILES IDX 63 46 64 47 68 48 65 49 67 50 66 51 53 52 54 53 58 54 55 55
REMARK SMILES IDX 57 56 56 57 7 58 8 59 9 60 10 62 11 63 12 64 30 65 13 66
REMARK SMILES IDX 29 67 31 68 27 69 28 70 14 71 15 73 16 74 17 75 18 76 19 78
REMARK SMILES IDX 20 79 21 80 25 81 22 82 24 83 26 84 23 85
REMARK H PARENT 3 7 73 25 51 36 8 61 14 72 17 77
REMARK Flexibility Score: inf
ROOT
ATOM      1  C   UNL A   1      37.893  22.189  25.707  1.00  0.00     0.023 C 
ENDROOT
BRANCH   1   2
ATOM      2  C   UNL A   1      38.925  21.137  25.290  1.00  0.00     0.023 C 
BRANCH   2   3
ATOM      3  C   UNL A   1      39.395  20.188  26.391  1.00  0.00     0.116 C 
BRANCH   3   4
ATOM      4  N   UNL A   1      40.486  19.304  26.019  1.00  0.00    -0.352 N 
ATOM      5  O   UNL A   1      42.676  18.798  25.665  1.00  0.00    -0.269 OA
ATOM      6  C   UNL A   1      41.834  19.601  26.047  1.00  0.00     0.251 C 
ATOM      7  H   UNL A   1      40.239  18.399  25.715  1.00  0.00     0.163 HD
BRANCH   6   8
ATOM      8  C   UNL A   1      42.236  20.945  26.514  1.00  0.00     0.039 A 
ATOM      9  C   UNL A   1      42.186  21.245  27.878  1.00  0.00     0.014 A 
ATOM     10  C   UNL A   1      42.553  21.932  25.577  1.00  0.00     0.014 A 
ATOM     11  C   UNL A   1      42.308  22.566  28.291  1.00  0.00     0.010 A 
ATOM     12  C   UNL A   1      42.775  23.243  26.010  1.00  0.00     0.010 A 
ATOM     13  C   UNL A   1      42.637  23.572  27.368  1.00  0.00    -0.014 A 
BRANCH  13  14
ATOM     14  C   UNL A   1      42.976  24.929  27.865  1.00  0.00     0.031 A 
ATOM     15  C   UNL A   1      44.380  25.313  28.236  1.00  0.00     0.074 A 
ATOM     16  C   UNL A   1      41.967  25.813  28.000  1.00  0.00     0.049 A 
ATOM     17  N   UNL A   1      44.811  26.443  28.741  1.00  0.00    -0.248 NA
ATOM     18  C   UNL A   1      45.436  24.311  28.024  1.00  0.00     0.031 C 
ATOM     19  C   UNL A   1      40.562  25.541  27.674  1.00  0.00     0.029 A 
ATOM     20  N   UNL A   1      41.957  27.109  28.441  1.00  0.00    -0.354 N 
ATOM     21  C   UNL A   1      46.177  26.280  28.934  1.00  0.00     0.074 A 
ATOM     22  C   UNL A   1      46.507  24.940  28.496  1.00  0.00     0.031 C 
ATOM     23  C   UNL A   1      39.835  26.643  27.899  1.00  0.00     0.029 A 
ATOM     24  C   UNL A   1      40.701  27.666  28.467  1.00  0.00     0.049 A 
ATOM     25  H   UNL A   1      42.770  27.594  28.711  1.00  0.00     0.167 HD
ATOM     26  C   UNL A   1      47.066  27.170  29.439  1.00  0.00     0.031 A 
ATOM     27  C   UNL A   1      40.276  28.848  28.944  1.00  0.00     0.031 A 
ATOM     28  C   UNL A   1      46.722  28.502  29.867  1.00  0.00     0.049 A 
ATOM     29  C   UNL A   1      41.279  29.783  29.549  1.00  0.00     0.074 A 
ATOM     30  C   UNL A   1      47.563  29.500  30.331  1.00  0.00     0.029 A 
ATOM     31  N   UNL A   1      45.434  29.017  29.904  1.00  0.00    -0.354 N 
ATOM     32  N   UNL A   1      42.578  29.641  29.655  1.00  0.00    -0.248 NA
ATOM     33  C   UNL A   1      40.759  31.036  30.108  1.00  0.00     0.031 C 
ATOM     34  C   UNL A   1      46.777  30.587  30.724  1.00  0.00     0.029 A 
ATOM     35  C   UNL A   1      45.454  30.296  30.436  1.00  0.00     0.049 A 
ATOM     36  H   UNL A   1      44.627  28.543  29.596  1.00  0.00     0.167 HD
ATOM     37  C   UNL A   1      43.031  30.792  30.281  1.00  0.00     0.074 A 
ATOM     38  C   UNL A   1      41.874  31.635  30.500  1.00  0.00     0.031 C 
ATOM     39  C   UNL A   1      44.292  31.118  30.650  1.00  0.00     0.031 A 
BRANCH  26  40
ATOM     40  C   UNL A   1      48.498  26.739  29.605  1.00  0.00    -0.014 A 
ATOM     41  C   UNL A   1      48.941  26.083  30.763  1.00  0.00     0.009 A 
ATOM     42  C   UNL A   1      49.393  26.898  28.533  1.00  0.00     0.009 A 
ATOM     43  C   UNL A   1      50.254  25.607  30.847  1.00  0.00     0.001 A 
ATOM     44  C   UNL A   1      50.694  26.399  28.610  1.00  0.00     0.001 A 
ATOM     45  C   UNL A   1      51.125  25.757  29.768  1.00  0.00     0.000 A 
ENDBRANCH  26  40
BRANCH  27  46
ATOM     46  C   UNL A   1      38.826  29.176  28.937  1.00  0.00    -0.014 A 
ATOM     47  C   UNL A   1      38.217  29.722  27.799  1.00  0.00     0.009 A 
ATOM     48  C   UNL A   1      38.045  28.958  30.086  1.00  0.00     0.009 A 
ATOM     49  C   UNL A   1      36.867  30.078  27.823  1.00  0.00     0.001 A 
ATOM     50  C   UNL A   1      36.687  29.277  30.094  1.00  0.00     0.001 A 
ATOM     51  C   UNL A   1      36.102  29.851  28.968  1.00  0.00     0.000 A 
ENDBRANCH  27  46
BRANCH  39  52
ATOM     52  C   UNL A   1      44.486  32.451  31.315  1.00  0.00    -0.014 A 
ATOM     53  C   UNL A   1      44.724  33.609  30.561  1.00  0.00     0.009 A 
ATOM     54  C   UNL A   1      44.385  32.554  32.712  1.00  0.00     0.009 A 
ATOM     55  C   UNL A   1      44.884  34.843  31.194  1.00  0.00     0.001 A 
ATOM     56  C   UNL A   1      44.511  33.793  33.339  1.00  0.00     0.001 A 
ATOM     57  C   UNL A   1      44.769  34.935  32.581  1.00  0.00     0.000 A 
ENDBRANCH  39  52
ENDBRANCH  13  14
ENDBRANCH   6   8
ENDBRANCH   3   4
ENDBRANCH   2   3
ENDBRANCH   1   2
BRANCH   1  58
ATOM     58  C   UNL A   1      36.671  22.199  24.789  1.00  0.00     0.116 C 
BRANCH  58  59
ATOM     59  N   UNL A   1      35.745  21.069  24.910  1.00  0.00    -0.352 N 
ATOM     60  C   UNL A   1      34.428  20.779  24.613  1.00  0.00     0.252 C 
ATOM     61  H   UNL A   1      36.191  20.293  25.321  1.00  0.00     0.163 HD
ATOM     62  O   UNL A   1      34.155  19.592  24.418  1.00  0.00    -0.269 OA
BRANCH  60  63
ATOM     63  C   UNL A   1      33.245  21.752  24.701  1.00  0.00     0.060 A 
ATOM     64  C   UNL A   1      31.879  22.607  23.483  1.00  0.00     0.043 A 
ATOM     65  C   UNL A   1      33.011  22.114  26.473  1.00  0.00     0.055 A 
ATOM     66  C   UNL A   1      30.735  23.741  24.008  1.00  0.00     0.060 A 
ATOM     67  C   UNL A   1      31.676  23.210  26.946  1.00  0.00     0.044 A 
ATOM     68  Cl  UNL A   1      33.970  21.420  27.720  1.00  0.00    -0.083 Cl
ATOM     69  C   UNL A   1      30.601  23.998  25.740  1.00  0.00     0.066 A 
ATOM     70  Cl  UNL A   1      29.577  25.269  26.304  1.00  0.00    -0.082 Cl
BRANCH  66  71
ATOM     71  N   UNL A   1      30.541  24.694  22.974  1.00  0.00    -0.331 N 
ATOM     72  H   UNL A   1      30.048  24.350  22.194  1.00  0.00     0.169 HD
BRANCH  71  73
ATOM     73  C   UNL A   1      30.921  26.021  22.866  1.00  0.00     0.177 C 
ATOM     74  S   UNL A   1      29.802  27.152  23.417  1.00  0.00    -0.040 S 
BRANCH  73  75
ATOM     75  N   UNL A   1      32.147  26.589  22.383  1.00  0.00    -0.299 N 
ATOM     76  C   UNL A   1      33.451  27.293  22.533  1.00  0.00     0.258 C 
ATOM     77  H   UNL A   1      32.099  26.422  21.414  1.00  0.00     0.172 HD
ATOM     78  O   UNL A   1      34.169  27.508  21.561  1.00  0.00    -0.269 OA
BRANCH  76  79
ATOM     79  C   UNL A   1      33.867  27.839  23.866  1.00  0.00     0.058 A 
ATOM     80  C   UNL A   1      33.032  29.386  23.916  1.00  0.00     0.015 A 
ATOM     81  C   UNL A   1      33.837  26.629  25.198  1.00  0.00     0.053 A 
ATOM     82  C   UNL A   1      31.887  29.644  25.228  1.00  0.00     0.001 A 
ATOM     83  C   UNL A   1      32.732  26.770  26.584  1.00  0.00     0.021 A 
ATOM     84  Cl  UNL A   1      34.511  25.062  24.907  1.00  0.00    -0.083 Cl
ATOM     85  C   UNL A   1      31.658  28.221  26.653  1.00  0.00     0.002 A 
ENDBRANCH  76  79
ENDBRANCH  73  75
ENDBRANCH  71  73
ENDBRANCH  66  71
ENDBRANCH  60  63
ENDBRANCH  58  59
ENDBRANCH   1  58
TORSDOF 15
ENDMDL
MODEL 3
REMARK VINA RESULT:     -11.5      1.926      2.607
REMARK SMILES O=C(NCCCCNC(=O)c1cc(NC(=S)NC(=O)c2ccccc2Cl)c(Cl)cc1Cl)c1ccc(-c2c3nc(c(-c4ccccc4)c4ccc([nH]4)c(-c4ccccc4)c4nc(c(-c5ccccc5)c5ccc2[nH]5)C=C4)C=C3)cc1
REMARK SMILES IDX 6 1 5 2 4 3 3 4 1 5 2 6 32 8 33 9 79 10 34 11 78 12 35 13
REMARK SMILES IDX 36 14 37 15 72 16 38 17 77 18 71 19 73 20 39 21 76 22 70 23
REMARK SMILES IDX 69 24 40 26 62 27 47 28 61 29 48 30 51 31 60 32 74 33 49 34
REMARK SMILES IDX 50 35 59 37 75 38 52 39 41 40 42 41 46 42 43 43 45 44 44 45
REMARK SMILES IDX 63 46 64 47 68 48 65 49 67 50 66 51 53 52 54 53 58 54 55 55
REMARK SMILES IDX 57 56 56 57 7 58 8 59 9 60 10 62 11 63 12 64 30 65 13 66
REMARK SMILES IDX 29 67 31 68 27 69 28 70 14 71 15 73 16 74 17 75 18 76 19 78
REMARK SMILES IDX 20 79 21 80 25 81 22 82 24 83 26 84 23 85
REMARK H PARENT 3 7 73 25 51 36 8 61 14 72 17 77
REMARK Flexibility Score: inf
ROOT
ATOM      1  C   UNL A   1      39.817  22.375  26.819  1.00  0.00     0.023 C 
ENDROOT
BRANCH   1   2
ATOM      2  C   UNL A   1      40.047  21.020  26.142  1.00  0.00     0.023 C 
BRANCH   2   3
ATOM      3  C   UNL A   1      41.166  20.162  26.727  1.00  0.00     0.116 C 
BRANCH   3   4
ATOM      4  N   UNL A   1      42.196  19.765  25.782  1.00  0.00    -0.352 N 
ATOM      5  O   UNL A   1      44.060  20.115  24.524  1.00  0.00    -0.269 OA
ATOM      6  C   UNL A   1      43.270  20.526  25.365  1.00  0.00     0.251 C 
ATOM      7  H   UNL A   1      42.121  18.859  25.400  1.00  0.00     0.163 HD
BRANCH   6   8
ATOM      8  C   UNL A   1      43.419  21.883  25.933  1.00  0.00     0.039 A 
ATOM      9  C   UNL A   1      43.553  22.041  27.315  1.00  0.00     0.014 A 
ATOM     10  C   UNL A   1      43.310  22.995  25.096  1.00  0.00     0.014 A 
ATOM     11  C   UNL A   1      43.430  23.307  27.873  1.00  0.00     0.010 A 
ATOM     12  C   UNL A   1      43.289  24.276  25.655  1.00  0.00     0.010 A 
ATOM     13  C   UNL A   1      43.331  24.440  27.049  1.00  0.00    -0.014 A 
BRANCH  13  14
ATOM     14  C   UNL A   1      43.422  25.790  27.659  1.00  0.00     0.031 A 
ATOM     15  C   UNL A   1      42.200  26.588  28.014  1.00  0.00     0.074 A 
ATOM     16  C   UNL A   1      44.654  26.297  27.867  1.00  0.00     0.049 A 
ATOM     17  N   UNL A   1      42.130  27.804  28.496  1.00  0.00    -0.248 NA
ATOM     18  C   UNL A   1      40.890  25.954  27.798  1.00  0.00     0.031 C 
ATOM     19  C   UNL A   1      45.911  25.608  27.552  1.00  0.00     0.029 A 
ATOM     20  N   UNL A   1      45.058  27.498  28.386  1.00  0.00    -0.354 N 
ATOM     21  C   UNL A   1      40.776  28.093  28.615  1.00  0.00     0.074 A 
ATOM     22  C   UNL A   1      40.055  26.926  28.150  1.00  0.00     0.031 C 
ATOM     23  C   UNL A   1      46.942  26.384  27.911  1.00  0.00     0.029 A 
ATOM     24  C   UNL A   1      46.423  27.655  28.394  1.00  0.00     0.049 A 
ATOM     25  H   UNL A   1      44.432  28.180  28.721  1.00  0.00     0.167 HD
ATOM     26  C   UNL A   1      40.197  29.233  29.064  1.00  0.00     0.031 A 
ATOM     27  C   UNL A   1      47.181  28.722  28.704  1.00  0.00     0.031 A 
ATOM     28  C   UNL A   1      40.930  30.384  29.527  1.00  0.00     0.049 A 
ATOM     29  C   UNL A   1      46.503  29.984  29.140  1.00  0.00     0.074 A 
ATOM     30  C   UNL A   1      40.433  31.561  30.062  1.00  0.00     0.029 A 
ATOM     31  N   UNL A   1      42.310  30.514  29.492  1.00  0.00    -0.354 N 
ATOM     32  N   UNL A   1      45.224  30.214  29.316  1.00  0.00    -0.248 NA
ATOM     33  C   UNL A   1      47.368  31.138  29.412  1.00  0.00     0.031 C 
ATOM     34  C   UNL A   1      41.504  32.432  30.274  1.00  0.00     0.029 A 
ATOM     35  C   UNL A   1      42.676  31.772  29.942  1.00  0.00     0.049 A 
ATOM     36  H   UNL A   1      42.936  29.815  29.192  1.00  0.00     0.167 HD
ATOM     37  C   UNL A   1      45.134  31.534  29.732  1.00  0.00     0.074 A 
ATOM     38  C   UNL A   1      46.487  32.042  29.814  1.00  0.00     0.031 C 
ATOM     39  C   UNL A   1      44.028  32.262  30.012  1.00  0.00     0.031 A 
BRANCH  26  40
ATOM     40  C   UNL A   1      38.695  29.331  29.046  1.00  0.00    -0.014 A 
ATOM     41  C   UNL A   1      37.930  29.151  30.207  1.00  0.00     0.009 A 
ATOM     42  C   UNL A   1      38.046  29.719  27.861  1.00  0.00     0.009 A 
ATOM     43  C   UNL A   1      36.545  29.346  30.178  1.00  0.00     0.001 A 
ATOM     44  C   UNL A   1      36.668  29.939  27.842  1.00  0.00     0.001 A 
ATOM     45  C   UNL A   1      35.918  29.748  29.000  1.00  0.00     0.000 A 
ENDBRANCH  26  40
BRANCH  27  46
ATOM     46  C   UNL A   1      48.657  28.660  28.537  1.00  0.00    -0.014 A 
ATOM     47  C   UNL A   1      49.484  28.249  29.590  1.00  0.00     0.009 A 
ATOM     48  C   UNL A   1      49.247  29.033  27.316  1.00  0.00     0.009 A 
ATOM     49  C   UNL A   1      50.873  28.249  29.439  1.00  0.00     0.001 A 
ATOM     50  C   UNL A   1      50.632  28.992  27.155  1.00  0.00     0.001 A 
ATOM     51  C   UNL A   1      51.445  28.616  28.222  1.00  0.00     0.000 A 
ENDBRANCH  27  46
BRANCH  39  52
ATOM     52  C   UNL A   1      44.239  33.684  30.448  1.00  0.00    -0.014 A 
ATOM     53  C   UNL A   1      44.229  34.736  29.520  1.00  0.00     0.009 A 
ATOM     54  C   UNL A   1      44.406  33.977  31.811  1.00  0.00     0.009 A 
ATOM     55  C   UNL A   1      44.410  36.053  29.945  1.00  0.00     0.001 A 
ATOM     56  C   UNL A   1      44.551  35.297  32.236  1.00  0.00     0.001 A 
ATOM     57  C   UNL A   1      44.562  36.333  31.302  1.00  0.00     0.000 A 
ENDBRANCH  39  52
ENDBRANCH  13  14
ENDBRANCH   6   8
ENDBRANCH   3   4
ENDBRANCH   2   3
ENDBRANCH   1   2
BRANCH   1  58
ATOM     58  C   UNL A   1      38.574  23.087  26.285  1.00  0.00     0.116 C 
BRANCH  58  59
ATOM     59  N   UNL A   1      38.021  22.591  25.021  1.00  0.00    -0.352 N 
ATOM     60  C   UNL A   1      36.905  22.796  24.233  1.00  0.00     0.252 C 
ATOM     61  H   UNL A   1      38.616  21.918  24.619  1.00  0.00     0.163 HD
ATOM     62  O   UNL A   1      37.030  22.558  23.030  1.00  0.00    -0.269 OA
BRANCH  60  63
ATOM     63  C   UNL A   1      35.486  23.092  24.734  1.00  0.00     0.060 A 
ATOM     64  C   UNL A   1      34.229  24.663  24.915  1.00  0.00     0.043 A 
ATOM     65  C   UNL A   1      34.757  21.483  25.186  1.00  0.00     0.055 A 
ATOM     66  C   UNL A   1      32.695  24.558  25.628  1.00  0.00     0.060 A 
ATOM     67  C   UNL A   1      33.071  21.455  25.791  1.00  0.00     0.044 A 
ATOM     68  Cl  UNL A   1      35.581  19.984  25.016  1.00  0.00    -0.083 Cl
ATOM     69  C   UNL A   1      32.100  22.952  26.013  1.00  0.00     0.066 A 
ATOM     70  Cl  UNL A   1      30.625  22.814  26.899  1.00  0.00    -0.082 Cl
BRANCH  66  71
ATOM     71  N   UNL A   1      32.444  25.767  26.331  1.00  0.00    -0.331 N 
ATOM     72  H   UNL A   1      33.079  25.949  27.061  1.00  0.00     0.169 HD
BRANCH  71  73
ATOM     73  C   UNL A   1      31.467  26.734  26.172  1.00  0.00     0.177 C 
ATOM     74  S   UNL A   1      31.708  28.167  27.022  1.00  0.00    -0.040 S 
BRANCH  73  75
ATOM     75  N   UNL A   1      30.283  26.719  25.363  1.00  0.00    -0.299 N 
ATOM     76  C   UNL A   1      29.536  26.765  24.074  1.00  0.00     0.258 C 
ATOM     77  H   UNL A   1      29.563  26.628  26.028  1.00  0.00     0.172 HD
ATOM     78  O   UNL A   1      28.313  26.679  24.048  1.00  0.00    -0.269 OA
BRANCH  76  79
ATOM     79  C   UNL A   1      30.264  27.017  22.788  1.00  0.00     0.058 A 
ATOM     80  C   UNL A   1      30.560  28.750  22.856  1.00  0.00     0.015 A 
ATOM     81  C   UNL A   1      31.522  25.790  22.402  1.00  0.00     0.053 A 
ATOM     82  C   UNL A   1      32.237  29.285  22.811  1.00  0.00     0.001 A 
ATOM     83  C   UNL A   1      33.251  26.196  22.321  1.00  0.00     0.021 A 
ATOM     84  Cl  UNL A   1      31.133  24.116  22.602  1.00  0.00    -0.083 Cl
ATOM     85  C   UNL A   1      33.719  27.922  22.583  1.00  0.00     0.002 A 
ENDBRANCH  76  79
ENDBRANCH  73  75
ENDBRANCH  71  73
ENDBRANCH  66  71
ENDBRANCH  60  63
ENDBRANCH  58  59
ENDBRANCH   1  58
TORSDOF 15
ENDMDL
