MODEL 1
REMARK VINA RESULT:     -12.2      0.000      0.000
REMARK SMILES Cc1cc(OCC(=O)N/C(=C/c2ccccc2Cl)C(=O)NCCCCNC(=O)c2ccc(-c3c4nc(c(-c5ccccc5)c5ccc([nH]5)c(-c5ccccc5)c5nc(c(-c6ccccc6)c6ccc3[nH]6)C=C5)C=C4)cc2)cc(C)c1Cl
REMARK SMILES IDX 22 1 21 2 19 3 20 4 10 6 11 7 9 8 7 9 8 10 6 12 5 13 4 14
REMARK SMILES IDX 1 15 2 16 3 17 80 18 78 19 81 20 77 21 79 22 12 23 13 24
REMARK SMILES IDX 17 25 14 26 16 27 18 28 15 29 23 30 24 31 25 32 26 33 27 34
REMARK SMILES IDX 28 36 29 37 30 38 76 39 31 40 75 41 32 42 33 43 34 44 69 45
REMARK SMILES IDX 35 46 74 47 68 48 70 49 36 50 73 51 67 52 66 53 37 55 59 56
REMARK SMILES IDX 44 57 58 58 45 59 48 60 57 61 71 62 46 63 47 64 56 66 72 67
REMARK SMILES IDX 49 68 38 69 39 70 43 71 40 72 42 73 41 74 60 75 61 76 65 77
REMARK SMILES IDX 62 78 64 79 63 80 50 81 51 82 55 83 52 84 54 85 53 86
REMARK H PARENT 21 5 9 11 26 35 70 54 48 65
REMARK Flexibility Score: inf
ROOT
ATOM      1  C   UNL A   1      32.262  26.338  26.462  1.00  0.00     0.116 C 
ENDROOT
BRANCH   1   2
ATOM      2  N   UNL A   1      31.802  25.076  26.971  1.00  0.00    -0.351 N 
ATOM      3  C   UNL A   1      30.877  24.286  26.360  1.00  0.00     0.267 C 
ATOM      4  O   UNL A   1      29.891  24.022  27.053  1.00  0.00    -0.268 OA
ATOM      5  H   UNL A   1      32.182  24.760  27.822  1.00  0.00     0.163 HD
BRANCH   3   6
ATOM      6  C   UNL A   1      30.971  23.763  24.923  1.00  0.00     0.107 C 
ATOM      7  C   UNL A   1      30.730  24.396  23.747  1.00  0.00     0.041 C 
BRANCH   6   8
ATOM      8  N   UNL A   1      31.247  22.402  24.764  1.00  0.00    -0.318 N 
ATOM      9  C   UNL A   1      32.097  21.511  25.359  1.00  0.00     0.262 C 
ATOM     10  O   UNL A   1      31.911  20.312  25.104  1.00  0.00    -0.271 OA
ATOM     11  H   UNL A   1      30.702  21.987  24.056  1.00  0.00     0.170 HD
BRANCH   9  12
ATOM     12  C   UNL A   1      33.311  21.925  26.197  1.00  0.00     0.329 C 
BRANCH  12  13
ATOM     13  O   UNL A   1      34.220  22.790  25.534  1.00  0.00    -0.484 OA
BRANCH  13  14
ATOM     14  C   UNL A   1      35.550  22.469  25.572  1.00  0.00     0.120 A 
ATOM     15  C   UNL A   1      38.065  19.698  24.902  1.00  0.00     0.046 C 
ATOM     16  C   UNL A   1      37.506  21.038  25.300  1.00  0.00    -0.029 A 
ATOM     17  C   UNL A   1      36.119  21.249  25.203  1.00  0.00     0.051 A 
ATOM     18  C   UNL A   1      38.325  22.079  25.774  1.00  0.00     0.047 A 
ATOM     19  C   UNL A   1      37.767  23.315  26.143  1.00  0.00    -0.029 A 
ATOM     20  Cl  UNL A   1      40.038  21.834  25.902  1.00  0.00    -0.084 Cl
ATOM     21  C   UNL A   1      36.377  23.489  26.041  1.00  0.00     0.051 A 
ATOM     22  C   UNL A   1      38.608  24.453  26.652  1.00  0.00     0.046 C 
ENDBRANCH  13  14
ENDBRANCH  12  13
ENDBRANCH   9  12
ENDBRANCH   6   8
BRANCH   7  23
ATOM     23  C   UNL A   1      30.358  25.769  23.379  1.00  0.00    -0.005 A 
ATOM     24  C   UNL A   1      29.092  26.239  23.779  1.00  0.00     0.010 A 
ATOM     25  C   UNL A   1      31.197  26.630  22.651  1.00  0.00     0.048 A 
ATOM     26  C   UNL A   1      28.723  27.570  23.563  1.00  0.00     0.001 A 
ATOM     27  C   UNL A   1      30.813  27.957  22.417  1.00  0.00     0.021 A 
ATOM     28  Cl  UNL A   1      32.737  26.114  22.063  1.00  0.00    -0.084 Cl
ATOM     29  C   UNL A   1      29.590  28.432  22.896  1.00  0.00     0.002 A 
ENDBRANCH   7  23
ENDBRANCH   3   6
ENDBRANCH   1   2
BRANCH   1  30
ATOM     30  C   UNL A   1      31.263  27.483  26.556  1.00  0.00     0.023 C 
BRANCH  30  31
ATOM     31  C   UNL A   1      31.769  28.762  27.211  1.00  0.00     0.023 C 
BRANCH  31  32
ATOM     32  C   UNL A   1      32.583  29.698  26.324  1.00  0.00     0.116 C 
BRANCH  32  33
ATOM     33  N   UNL A   1      32.452  31.108  26.669  1.00  0.00    -0.352 N 
ATOM     34  C   UNL A   1      33.310  31.941  27.349  1.00  0.00     0.251 C 
ATOM     35  H   UNL A   1      31.616  31.532  26.366  1.00  0.00     0.163 HD
ATOM     36  O   UNL A   1      32.985  33.095  27.593  1.00  0.00    -0.269 OA
BRANCH  34  37
ATOM     37  C   UNL A   1      34.610  31.419  27.821  1.00  0.00     0.039 A 
ATOM     38  C   UNL A   1      35.664  32.312  28.023  1.00  0.00     0.014 A 
ATOM     39  C   UNL A   1      34.770  30.063  28.112  1.00  0.00     0.014 A 
ATOM     40  C   UNL A   1      36.849  31.858  28.606  1.00  0.00     0.010 A 
ATOM     41  C   UNL A   1      35.908  29.635  28.786  1.00  0.00     0.010 A 
ATOM     42  C   UNL A   1      36.960  30.526  29.038  1.00  0.00    -0.014 A 
BRANCH  42  43
ATOM     43  C   UNL A   1      38.169  30.054  29.760  1.00  0.00     0.031 A 
ATOM     44  C   UNL A   1      38.399  30.447  31.194  1.00  0.00     0.074 A 
ATOM     45  C   UNL A   1      39.092  29.323  29.104  1.00  0.00     0.049 A 
ATOM     46  N   UNL A   1      39.394  30.138  31.986  1.00  0.00    -0.248 NA
ATOM     47  C   UNL A   1      37.395  31.331  31.811  1.00  0.00     0.031 C 
ATOM     48  C   UNL A   1      39.025  28.939  27.691  1.00  0.00     0.029 A 
ATOM     49  N   UNL A   1      40.269  28.767  29.540  1.00  0.00    -0.354 N 
ATOM     50  C   UNL A   1      39.145  30.803  33.181  1.00  0.00     0.074 A 
ATOM     51  C   UNL A   1      37.943  31.582  32.990  1.00  0.00     0.031 C 
ATOM     52  C   UNL A   1      40.086  28.172  27.392  1.00  0.00     0.029 A 
ATOM     53  C   UNL A   1      40.922  28.035  28.579  1.00  0.00     0.049 A 
ATOM     54  H   UNL A   1      40.611  28.881  30.456  1.00  0.00     0.167 HD
ATOM     55  C   UNL A   1      39.838  30.749  34.343  1.00  0.00     0.031 A 
ATOM     56  C   UNL A   1      42.062  27.322  28.650  1.00  0.00     0.031 A 
ATOM     57  C   UNL A   1      41.025  29.962  34.536  1.00  0.00     0.049 A 
ATOM     58  C   UNL A   1      42.792  27.247  29.961  1.00  0.00     0.074 A 
ATOM     59  C   UNL A   1      41.772  29.791  35.689  1.00  0.00     0.029 A 
ATOM     60  N   UNL A   1      41.639  29.211  33.546  1.00  0.00    -0.354 N 
ATOM     61  N   UNL A   1      42.499  27.817  31.105  1.00  0.00    -0.248 NA
ATOM     62  C   UNL A   1      44.000  26.412  29.993  1.00  0.00     0.031 C 
ATOM     63  C   UNL A   1      42.861  28.967  35.384  1.00  0.00     0.029 A 
ATOM     64  C   UNL A   1      42.762  28.582  34.056  1.00  0.00     0.049 A 
ATOM     65  H   UNL A   1      41.323  29.135  32.616  1.00  0.00     0.167 HD
ATOM     66  C   UNL A   1      43.468  27.385  32.002  1.00  0.00     0.074 A 
ATOM     67  C   UNL A   1      44.342  26.490  31.272  1.00  0.00     0.031 C 
ATOM     68  C   UNL A   1      43.623  27.701  33.311  1.00  0.00     0.031 A 
BRANCH  55  69
ATOM     69  C   UNL A   1      39.316  31.569  35.493  1.00  0.00    -0.014 A 
ATOM     70  C   UNL A   1      38.352  31.053  36.375  1.00  0.00     0.009 A 
ATOM     71  C   UNL A   1      39.805  32.866  35.709  1.00  0.00     0.009 A 
ATOM     72  C   UNL A   1      37.854  31.836  37.419  1.00  0.00     0.001 A 
ATOM     73  C   UNL A   1      39.329  33.636  36.772  1.00  0.00     0.001 A 
ATOM     74  C   UNL A   1      38.346  33.124  37.620  1.00  0.00     0.000 A 
ENDBRANCH  55  69
BRANCH  56  75
ATOM     75  C   UNL A   1      42.554  26.578  27.460  1.00  0.00    -0.014 A 
ATOM     76  C   UNL A   1      42.163  25.247  27.243  1.00  0.00     0.009 A 
ATOM     77  C   UNL A   1      43.418  27.188  26.538  1.00  0.00     0.009 A 
ATOM     78  C   UNL A   1      42.651  24.534  26.144  1.00  0.00     0.001 A 
ATOM     79  C   UNL A   1      43.880  26.482  25.425  1.00  0.00     0.001 A 
ATOM     80  C   UNL A   1      43.504  25.154  25.234  1.00  0.00     0.000 A 
ENDBRANCH  56  75
BRANCH  68  81
ATOM     81  C   UNL A   1      44.762  27.042  34.037  1.00  0.00    -0.014 A 
ATOM     82  C   UNL A   1      46.030  27.638  34.103  1.00  0.00     0.009 A 
ATOM     83  C   UNL A   1      44.556  25.807  34.671  1.00  0.00     0.009 A 
ATOM     84  C   UNL A   1      47.083  26.985  34.746  1.00  0.00     0.001 A 
ATOM     85  C   UNL A   1      45.601  25.172  35.342  1.00  0.00     0.001 A 
ATOM     86  C   UNL A   1      46.867  25.755  35.366  1.00  0.00     0.000 A 
ENDBRANCH  68  81
ENDBRANCH  42  43
ENDBRANCH  34  37
ENDBRANCH  32  33
ENDBRANCH  31  32
ENDBRANCH  30  31
ENDBRANCH   1  30
TORSDOF 16
ENDMDL
MODEL 2
REMARK VINA RESULT:     -12.1      3.979      9.147
REMARK SMILES Cc1cc(OCC(=O)N/C(=C/c2ccccc2Cl)C(=O)NCCCCNC(=O)c2ccc(-c3c4nc(c(-c5ccccc5)c5ccc([nH]5)c(-c5ccccc5)c5nc(c(-c6ccccc6)c6ccc3[nH]6)C=C5)C=C4)cc2)cc(C)c1Cl
REMARK SMILES IDX 22 1 21 2 19 3 20 4 10 6 11 7 9 8 7 9 8 10 6 12 5 13 4 14
REMARK SMILES IDX 1 15 2 16 3 17 80 18 78 19 81 20 77 21 79 22 12 23 13 24
REMARK SMILES IDX 17 25 14 26 16 27 18 28 15 29 23 30 24 31 25 32 26 33 27 34
REMARK SMILES IDX 28 36 29 37 30 38 76 39 31 40 75 41 32 42 33 43 34 44 69 45
REMARK SMILES IDX 35 46 74 47 68 48 70 49 36 50 73 51 67 52 66 53 37 55 59 56
REMARK SMILES IDX 44 57 58 58 45 59 48 60 57 61 71 62 46 63 47 64 56 66 72 67
REMARK SMILES IDX 49 68 38 69 39 70 43 71 40 72 42 73 41 74 60 75 61 76 65 77
REMARK SMILES IDX 62 78 64 79 63 80 50 81 51 82 55 83 52 84 54 85 53 86
REMARK H PARENT 21 5 9 11 26 35 70 54 48 65
REMARK Flexibility Score: inf
ROOT
ATOM      1  C   UNL A   1      36.182  21.771  25.546  1.00  0.00     0.116 C 
ENDROOT
BRANCH   1   2
ATOM      2  N   UNL A   1      35.332  22.810  25.032  1.00  0.00    -0.351 N 
ATOM      3  C   UNL A   1      34.068  22.616  24.568  1.00  0.00     0.267 C 
ATOM      4  O   UNL A   1      33.886  22.990  23.406  1.00  0.00    -0.268 OA
ATOM      5  H   UNL A   1      35.690  23.727  25.014  1.00  0.00     0.163 HD
BRANCH   3   6
ATOM      6  C   UNL A   1      32.927  21.963  25.354  1.00  0.00     0.107 C 
ATOM      7  C   UNL A   1      32.397  20.718  25.249  1.00  0.00     0.041 C 
BRANCH   6   8
ATOM      8  N   UNL A   1      32.236  22.776  26.257  1.00  0.00    -0.318 N 
ATOM      9  C   UNL A   1      31.218  23.684  26.157  1.00  0.00     0.262 C 
ATOM     10  O   UNL A   1      30.705  24.061  27.221  1.00  0.00    -0.271 OA
ATOM     11  H   UNL A   1      32.558  22.672  27.182  1.00  0.00     0.170 HD
BRANCH   9  12
ATOM     12  C   UNL A   1      30.786  24.334  24.839  1.00  0.00     0.329 C 
BRANCH  12  13
ATOM     13  O   UNL A   1      31.749  25.205  24.265  1.00  0.00    -0.484 OA
BRANCH  13  14
ATOM     14  C   UNL A   1      31.809  26.488  24.735  1.00  0.00     0.120 A 
ATOM     15  C   UNL A   1      33.429  28.740  27.334  1.00  0.00     0.046 C 
ATOM     16  C   UNL A   1      32.564  28.299  26.184  1.00  0.00    -0.029 A 
ATOM     17  C   UNL A   1      32.601  26.950  25.787  1.00  0.00     0.051 A 
ATOM     18  C   UNL A   1      31.715  29.190  25.501  1.00  0.00     0.047 A 
ATOM     19  C   UNL A   1      30.916  28.741  24.436  1.00  0.00    -0.029 A 
ATOM     20  Cl  UNL A   1      31.656  30.857  25.980  1.00  0.00    -0.084 Cl
ATOM     21  C   UNL A   1      30.972  27.386  24.070  1.00  0.00     0.051 A 
ATOM     22  C   UNL A   1      29.999  29.662  23.680  1.00  0.00     0.046 C 
ENDBRANCH  13  14
ENDBRANCH  12  13
ENDBRANCH   9  12
ENDBRANCH   6   8
BRANCH   7  23
ATOM     23  C   UNL A   1      32.709  19.536  24.433  1.00  0.00    -0.005 A 
ATOM     24  C   UNL A   1      33.321  18.439  25.070  1.00  0.00     0.010 A 
ATOM     25  C   UNL A   1      32.431  19.448  23.059  1.00  0.00     0.048 A 
ATOM     26  C   UNL A   1      33.538  17.243  24.380  1.00  0.00     0.001 A 
ATOM     27  C   UNL A   1      32.672  18.254  22.366  1.00  0.00     0.021 A 
ATOM     28  Cl  UNL A   1      31.746  20.771  22.185  1.00  0.00    -0.084 Cl
ATOM     29  C   UNL A   1      33.199  17.146  23.032  1.00  0.00     0.002 A 
ENDBRANCH   7  23
ENDBRANCH   3   6
ENDBRANCH   1   2
BRANCH   1  30
ATOM     30  C   UNL A   1      37.156  21.168  24.543  1.00  0.00     0.023 C 
BRANCH  30  31
ATOM     31  C   UNL A   1      37.961  19.970  25.029  1.00  0.00     0.023 C 
BRANCH  31  32
ATOM     32  C   UNL A   1      39.167  20.280  25.908  1.00  0.00     0.116 C 
BRANCH  32  33
ATOM     33  N   UNL A   1      40.213  19.266  25.864  1.00  0.00    -0.352 N 
ATOM     34  C   UNL A   1      41.555  19.359  26.146  1.00  0.00     0.251 C 
ATOM     35  H   UNL A   1      39.909  18.370  25.587  1.00  0.00     0.163 HD
ATOM     36  O   UNL A   1      42.288  18.392  25.987  1.00  0.00    -0.269 OA
BRANCH  34  37
ATOM     37  C   UNL A   1      42.116  20.649  26.602  1.00  0.00     0.039 A 
ATOM     38  C   UNL A   1      42.584  21.556  25.650  1.00  0.00     0.014 A 
ATOM     39  C   UNL A   1      42.132  20.979  27.958  1.00  0.00     0.014 A 
ATOM     40  C   UNL A   1      42.980  22.833  26.054  1.00  0.00     0.010 A 
ATOM     41  C   UNL A   1      42.427  22.281  28.344  1.00  0.00     0.010 A 
ATOM     42  C   UNL A   1      42.857  23.222  27.398  1.00  0.00    -0.014 A 
BRANCH  42  43
ATOM     43  C   UNL A   1      43.168  24.609  27.826  1.00  0.00     0.031 A 
ATOM     44  C   UNL A   1      44.597  25.064  27.943  1.00  0.00     0.074 A 
ATOM     45  C   UNL A   1      42.164  25.440  28.169  1.00  0.00     0.049 A 
ATOM     46  N   UNL A   1      45.065  26.232  28.304  1.00  0.00    -0.248 NA
ATOM     47  C   UNL A   1      45.640  24.067  27.648  1.00  0.00     0.031 C 
ATOM     48  C   UNL A   1      40.738  25.096  28.171  1.00  0.00     0.029 A 
ATOM     49  N   UNL A   1      42.186  26.750  28.579  1.00  0.00    -0.354 N 
ATOM     50  C   UNL A   1      46.449  26.103  28.297  1.00  0.00     0.074 A 
ATOM     51  C   UNL A   1      46.744  24.729  27.961  1.00  0.00     0.031 C 
ATOM     52  C   UNL A   1      40.024  26.179  28.517  1.00  0.00     0.029 A 
ATOM     53  C   UNL A   1      40.938  27.284  28.789  1.00  0.00     0.049 A 
ATOM     54  H   UNL A   1      43.019  27.259  28.709  1.00  0.00     0.167 HD
ATOM     55  C   UNL A   1      47.392  27.048  28.523  1.00  0.00     0.031 A 
ATOM     56  C   UNL A   1      40.570  28.527  29.148  1.00  0.00     0.031 A 
ATOM     57  C   UNL A   1      47.096  28.418  28.843  1.00  0.00     0.049 A 
ATOM     58  C   UNL A   1      41.633  29.569  29.356  1.00  0.00     0.074 A 
ATOM     59  C   UNL A   1      47.974  29.470  29.035  1.00  0.00     0.029 A 
ATOM     60  N   UNL A   1      45.818  28.926  29.018  1.00  0.00    -0.354 N 
ATOM     61  N   UNL A   1      42.936  29.449  29.266  1.00  0.00    -0.248 NA
ATOM     62  C   UNL A   1      41.172  30.921  29.694  1.00  0.00     0.031 C 
ATOM     63  C   UNL A   1      47.228  30.607  29.365  1.00  0.00     0.029 A 
ATOM     64  C   UNL A   1      45.883  30.274  29.326  1.00  0.00     0.049 A 
ATOM     65  H   UNL A   1      44.986  28.405  28.935  1.00  0.00     0.167 HD
ATOM     66  C   UNL A   1      43.449  30.718  29.507  1.00  0.00     0.074 A 
ATOM     67  C   UNL A   1      42.314  31.592  29.724  1.00  0.00     0.031 C 
ATOM     68  C   UNL A   1      44.742  31.125  29.546  1.00  0.00     0.031 A 
BRANCH  55  69
ATOM     69  C   UNL A   1      48.832  26.620  28.426  1.00  0.00    -0.014 A 
ATOM     70  C   UNL A   1      49.549  26.216  29.564  1.00  0.00     0.009 A 
ATOM     71  C   UNL A   1      49.475  26.605  27.180  1.00  0.00     0.009 A 
ATOM     72  C   UNL A   1      50.894  25.851  29.463  1.00  0.00     0.001 A 
ATOM     73  C   UNL A   1      50.811  26.210  27.075  1.00  0.00     0.001 A 
ATOM     74  C   UNL A   1      51.522  25.844  28.219  1.00  0.00     0.000 A 
ENDBRANCH  55  69
BRANCH  56  75
ATOM     75  C   UNL A   1      39.130  28.873  29.281  1.00  0.00    -0.014 A 
ATOM     76  C   UNL A   1      38.481  28.753  30.520  1.00  0.00     0.009 A 
ATOM     77  C   UNL A   1      38.394  29.321  28.172  1.00  0.00     0.009 A 
ATOM     78  C   UNL A   1      37.120  29.045  30.640  1.00  0.00     0.001 A 
ATOM     79  C   UNL A   1      37.041  29.640  28.302  1.00  0.00     0.001 A 
ATOM     80  C   UNL A   1      36.402  29.493  29.533  1.00  0.00     0.000 A 
ENDBRANCH  56  75
BRANCH  68  81
ATOM     81  C   UNL A   1      44.985  32.585  29.800  1.00  0.00    -0.014 A 
ATOM     82  C   UNL A   1      45.049  33.101  31.104  1.00  0.00     0.009 A 
ATOM     83  C   UNL A   1      45.162  33.457  28.714  1.00  0.00     0.009 A 
ATOM     84  C   UNL A   1      45.232  34.468  31.313  1.00  0.00     0.001 A 
ATOM     85  C   UNL A   1      45.379  34.818  28.927  1.00  0.00     0.001 A 
ATOM     86  C   UNL A   1      45.400  35.325  30.225  1.00  0.00     0.000 A 
ENDBRANCH  68  81
ENDBRANCH  42  43
ENDBRANCH  34  37
ENDBRANCH  32  33
ENDBRANCH  31  32
ENDBRANCH  30  31
ENDBRANCH   1  30
TORSDOF 16
ENDMDL
MODEL 3
REMARK VINA RESULT:     -11.8      4.188      8.575
REMARK SMILES Cc1cc(OCC(=O)N/C(=C/c2ccccc2Cl)C(=O)NCCCCNC(=O)c2ccc(-c3c4nc(c(-c5ccccc5)c5ccc([nH]5)c(-c5ccccc5)c5nc(c(-c6ccccc6)c6ccc3[nH]6)C=C5)C=C4)cc2)cc(C)c1Cl
REMARK SMILES IDX 22 1 21 2 19 3 20 4 10 6 11 7 9 8 7 9 8 10 6 12 5 13 4 14
REMARK SMILES IDX 1 15 2 16 3 17 80 18 78 19 81 20 77 21 79 22 12 23 13 24
REMARK SMILES IDX 17 25 14 26 16 27 18 28 15 29 23 30 24 31 25 32 26 33 27 34
REMARK SMILES IDX 28 36 29 37 30 38 76 39 31 40 75 41 32 42 33 43 34 44 69 45
REMARK SMILES IDX 35 46 74 47 68 48 70 49 36 50 73 51 67 52 66 53 37 55 59 56
REMARK SMILES IDX 44 57 58 58 45 59 48 60 57 61 71 62 46 63 47 64 56 66 72 67
REMARK SMILES IDX 49 68 38 69 39 70 43 71 40 72 42 73 41 74 60 75 61 76 65 77
REMARK SMILES IDX 62 78 64 79 63 80 50 81 51 82 55 83 52 84 54 85 53 86
REMARK H PARENT 21 5 9 11 26 35 70 54 48 65
REMARK Flexibility Score: inf
ROOT
ATOM      1  C   UNL A   1      35.975  21.509  25.734  1.00  0.00     0.116 C 
ENDROOT
BRANCH   1   2
ATOM      2  N   UNL A   1      35.118  22.613  25.400  1.00  0.00    -0.351 N 
ATOM      3  C   UNL A   1      33.863  22.491  24.888  1.00  0.00     0.267 C 
ATOM      4  O   UNL A   1      33.693  23.067  23.809  1.00  0.00    -0.268 OA
ATOM      5  H   UNL A   1      35.463  23.522  25.554  1.00  0.00     0.163 HD
BRANCH   3   6
ATOM      6  C   UNL A   1      32.720  21.695  25.524  1.00  0.00     0.107 C 
ATOM      7  C   UNL A   1      32.281  20.437  25.259  1.00  0.00     0.041 C 
BRANCH   6   8
ATOM      8  N   UNL A   1      31.921  22.368  26.452  1.00  0.00    -0.318 N 
ATOM      9  C   UNL A   1      30.960  23.337  26.377  1.00  0.00     0.262 C 
ATOM     10  O   UNL A   1      30.298  23.543  27.404  1.00  0.00    -0.271 OA
ATOM     11  H   UNL A   1      32.091  22.077  27.377  1.00  0.00     0.170 HD
BRANCH   9  12
ATOM     12  C   UNL A   1      30.760  24.243  25.157  1.00  0.00     0.329 C 
BRANCH  12  13
ATOM     13  O   UNL A   1      29.979  25.402  25.402  1.00  0.00    -0.484 OA
BRANCH  13  14
ATOM     14  C   UNL A   1      30.110  26.454  24.537  1.00  0.00     0.120 A 
ATOM     15  C   UNL A   1      32.630  28.648  22.723  1.00  0.00     0.046 C 
ATOM     16  C   UNL A   1      31.310  28.093  23.187  1.00  0.00    -0.029 A 
ATOM     17  C   UNL A   1      31.308  26.997  24.068  1.00  0.00     0.051 A 
ATOM     18  C   UNL A   1      30.081  28.641  22.773  1.00  0.00     0.047 A 
ATOM     19  C   UNL A   1      28.868  28.101  23.232  1.00  0.00    -0.029 A 
ATOM     20  Cl  UNL A   1      30.066  29.994  21.687  1.00  0.00    -0.084 Cl
ATOM     21  C   UNL A   1      28.902  27.011  24.118  1.00  0.00     0.051 A 
ATOM     22  C   UNL A   1      27.535  28.656  22.812  1.00  0.00     0.046 C 
ENDBRANCH  13  14
ENDBRANCH  12  13
ENDBRANCH   9  12
ENDBRANCH   6   8
BRANCH   7  23
ATOM     23  C   UNL A   1      32.722  19.366  24.355  1.00  0.00    -0.005 A 
ATOM     24  C   UNL A   1      33.389  18.262  24.918  1.00  0.00     0.010 A 
ATOM     25  C   UNL A   1      32.515  19.392  22.965  1.00  0.00     0.048 A 
ATOM     26  C   UNL A   1      33.731  17.157  24.132  1.00  0.00     0.001 A 
ATOM     27  C   UNL A   1      32.880  18.292  22.178  1.00  0.00     0.021 A 
ATOM     28  Cl  UNL A   1      31.768  20.739  22.183  1.00  0.00    -0.084 Cl
ATOM     29  C   UNL A   1      33.462  17.166  22.765  1.00  0.00     0.002 A 
ENDBRANCH   7  23
ENDBRANCH   3   6
ENDBRANCH   1   2
BRANCH   1  30
ATOM     30  C   UNL A   1      37.046  21.180  24.703  1.00  0.00     0.023 C 
BRANCH  30  31
ATOM     31  C   UNL A   1      37.939  19.988  25.023  1.00  0.00     0.023 C 
BRANCH  31  32
ATOM     32  C   UNL A   1      39.223  20.295  25.787  1.00  0.00     0.116 C 
BRANCH  32  33
ATOM     33  N   UNL A   1      40.165  19.184  25.838  1.00  0.00    -0.352 N 
ATOM     34  C   UNL A   1      41.513  19.172  26.110  1.00  0.00     0.251 C 
ATOM     35  H   UNL A   1      39.774  18.300  25.646  1.00  0.00     0.163 HD
ATOM     36  O   UNL A   1      42.147  18.128  26.042  1.00  0.00    -0.269 OA
BRANCH  34  37
ATOM     37  C   UNL A   1      42.200  20.438  26.444  1.00  0.00     0.039 A 
ATOM     38  C   UNL A   1      42.787  21.179  25.417  1.00  0.00     0.014 A 
ATOM     39  C   UNL A   1      42.219  20.914  27.756  1.00  0.00     0.014 A 
ATOM     40  C   UNL A   1      43.311  22.444  25.695  1.00  0.00     0.010 A 
ATOM     41  C   UNL A   1      42.645  22.212  28.010  1.00  0.00     0.010 A 
ATOM     42  C   UNL A   1      43.197  22.991  26.984  1.00  0.00    -0.014 A 
BRANCH  42  43
ATOM     43  C   UNL A   1      43.647  24.376  27.270  1.00  0.00     0.031 A 
ATOM     44  C   UNL A   1      42.655  25.423  27.700  1.00  0.00     0.074 A 
ATOM     45  C   UNL A   1      44.940  24.708  27.082  1.00  0.00     0.049 A 
ATOM     46  N   UNL A   1      42.857  26.683  27.989  1.00  0.00    -0.248 NA
ATOM     47  C   UNL A   1      41.244  25.008  27.785  1.00  0.00     0.031 C 
ATOM     48  C   UNL A   1      45.987  23.804  26.595  1.00  0.00     0.029 A 
ATOM     49  N   UNL A   1      45.598  25.896  27.283  1.00  0.00    -0.354 N 
ATOM     50  C   UNL A   1      41.603  27.212  28.270  1.00  0.00     0.074 A 
ATOM     51  C   UNL A   1      40.640  26.155  28.054  1.00  0.00     0.031 C 
ATOM     52  C   UNL A   1      47.161  24.457  26.581  1.00  0.00     0.029 A 
ATOM     53  C   UNL A   1      46.946  25.830  27.027  1.00  0.00     0.049 A 
ATOM     54  H   UNL A   1      45.146  26.718  27.582  1.00  0.00     0.167 HD
ATOM     55  C   UNL A   1      41.281  28.456  28.696  1.00  0.00     0.031 A 
ATOM     56  C   UNL A   1      47.904  26.766  27.151  1.00  0.00     0.031 A 
ATOM     57  C   UNL A   1      42.242  29.501  28.924  1.00  0.00     0.049 A 
ATOM     58  C   UNL A   1      47.528  28.129  27.662  1.00  0.00     0.074 A 
ATOM     59  C   UNL A   1      42.029  30.779  29.410  1.00  0.00     0.029 A 
ATOM     60  N   UNL A   1      43.601  29.385  28.682  1.00  0.00    -0.354 N 
ATOM     61  N   UNL A   1      46.347  28.588  28.000  1.00  0.00    -0.248 NA
ATOM     62  C   UNL A   1      48.623  29.094  27.827  1.00  0.00     0.031 C 
ATOM     63  C   UNL A   1      43.258  31.450  29.424  1.00  0.00     0.029 A 
ATOM     64  C   UNL A   1      44.241  30.572  28.997  1.00  0.00     0.049 A 
ATOM     65  H   UNL A   1      44.047  28.577  28.337  1.00  0.00     0.167 HD
ATOM     66  C   UNL A   1      46.561  29.886  28.448  1.00  0.00     0.074 A 
ATOM     67  C   UNL A   1      47.986  30.129  28.357  1.00  0.00     0.031 C 
ATOM     68  C   UNL A   1      45.659  30.796  28.893  1.00  0.00     0.031 A 
BRANCH  55  69
ATOM     69  C   UNL A   1      39.824  28.743  28.943  1.00  0.00    -0.014 A 
ATOM     70  C   UNL A   1      39.233  28.486  30.191  1.00  0.00     0.009 A 
ATOM     71  C   UNL A   1      39.035  29.292  27.921  1.00  0.00     0.009 A 
ATOM     72  C   UNL A   1      37.873  28.728  30.396  1.00  0.00     0.001 A 
ATOM     73  C   UNL A   1      37.681  29.563  28.137  1.00  0.00     0.001 A 
ATOM     74  C   UNL A   1      37.100  29.270  29.371  1.00  0.00     0.000 A 
ENDBRANCH  55  69
BRANCH  56  75
ATOM     75  C   UNL A   1      49.320  26.435  26.838  1.00  0.00    -0.014 A 
ATOM     76  C   UNL A   1      49.822  26.617  25.540  1.00  0.00     0.009 A 
ATOM     77  C   UNL A   1      50.175  25.932  27.831  1.00  0.00     0.009 A 
ATOM     78  C   UNL A   1      51.143  26.276  25.236  1.00  0.00     0.001 A 
ATOM     79  C   UNL A   1      51.503  25.618  27.530  1.00  0.00     0.001 A 
ATOM     80  C   UNL A   1      51.983  25.781  26.231  1.00  0.00     0.000 A 
ENDBRANCH  56  75
BRANCH  68  81
ATOM     81  C   UNL A   1      46.203  32.121  29.345  1.00  0.00    -0.014 A 
ATOM     82  C   UNL A   1      46.647  32.319  30.662  1.00  0.00     0.009 A 
ATOM     83  C   UNL A   1      46.278  33.186  28.434  1.00  0.00     0.009 A 
ATOM     84  C   UNL A   1      47.107  33.573  31.069  1.00  0.00     0.001 A 
ATOM     85  C   UNL A   1      46.769  34.428  28.835  1.00  0.00     0.001 A 
ATOM     86  C   UNL A   1      47.171  34.624  30.155  1.00  0.00     0.000 A 
ENDBRANCH  68  81
ENDBRANCH  42  43
ENDBRANCH  34  37
ENDBRANCH  32  33
ENDBRANCH  31  32
ENDBRANCH  30  31
ENDBRANCH   1  30
TORSDOF 16
ENDMDL
