MODEL 1
REMARK VINA RESULT:     -11.9      0.000      0.000
REMARK SMILES CC(=O)Nc1cccc(-c2cc(F)ccc2C(=O)NCCCCNC(=O)c2ccc(-c3c4nc(c(-c5ccccc5)c5ccc([nH]5)c(-c5ccccc5)c5nc(c(-c6ccccc6)c6ccc3[nH]6)C=C5)C=C4)cc2)c1
REMARK SMILES IDX 21 1 20 2 19 3 17 4 18 5 16 7 10 8 11 9 12 10 15 11 13 12
REMARK SMILES IDX 14 13 9 14 5 15 6 16 75 17 7 18 8 19 4 20 1 21 2 22 3 23
REMARK SMILES IDX 22 25 23 26 24 27 25 28 26 30 27 31 28 32 74 33 29 34 73 35
REMARK SMILES IDX 30 36 31 37 32 38 67 39 33 40 72 41 66 42 68 43 34 44 71 45
REMARK SMILES IDX 65 46 64 47 35 49 57 50 42 51 56 52 43 53 46 54 55 55 69 56
REMARK SMILES IDX 44 57 45 58 54 60 70 61 47 62 36 63 37 64 41 65 38 66 40 67
REMARK SMILES IDX 39 68 58 69 59 70 63 71 60 72 62 73 61 74 48 75 49 76 53 77
REMARK SMILES IDX 50 78 52 79 51 80
REMARK H PARENT 19 6 4 24 24 29 68 48 46 59
REMARK Flexibility Score: inf
ROOT
ATOM      1  C   UNL A   1      32.652  30.632  26.957  1.00  0.00     0.023 C 
ENDROOT
BRANCH   1   2
ATOM      2  C   UNL A   1      32.400  29.500  25.974  1.00  0.00     0.116 C 
BRANCH   2   3
ATOM      3  N   UNL A   1      31.612  28.389  26.433  1.00  0.00    -0.352 N 
ATOM      4  C   UNL A   1      31.305  27.193  25.825  1.00  0.00     0.251 C 
ATOM      5  O   UNL A   1      30.747  26.358  26.546  1.00  0.00    -0.269 OA
ATOM      6  H   UNL A   1      31.228  28.503  27.332  1.00  0.00     0.163 HD
BRANCH   4   7
ATOM      7  C   UNL A   1      31.497  26.831  24.371  1.00  0.00     0.047 A 
ATOM      8  C   UNL A   1      30.777  27.247  23.219  1.00  0.00    -0.003 A 
ATOM      9  C   UNL A   1      31.236  26.807  21.948  1.00  0.00     0.048 A 
ATOM     10  C   UNL A   1      32.353  25.997  21.805  1.00  0.00     0.123 A 
ATOM     11  C   UNL A   1      32.639  26.005  24.178  1.00  0.00     0.017 A 
ATOM     12  F   UNL A   1      32.743  25.615  20.583  1.00  0.00    -0.207 F 
ATOM     13  C   UNL A   1      33.064  25.590  22.914  1.00  0.00     0.040 A 
BRANCH   8  14
ATOM     14  C   UNL A   1      29.576  28.101  23.189  1.00  0.00    -0.015 A 
ATOM     15  C   UNL A   1      28.504  30.290  23.234  1.00  0.00     0.041 A 
ATOM     16  C   UNL A   1      27.257  29.662  23.369  1.00  0.00     0.026 A 
ATOM     17  C   UNL A   1      29.655  29.501  23.106  1.00  0.00     0.034 A 
ATOM     18  C   UNL A   1      27.151  28.275  23.384  1.00  0.00     0.003 A 
ATOM     19  C   UNL A   1      28.303  27.502  23.293  1.00  0.00     0.009 A 
BRANCH  15  20
ATOM     20  N   UNL A   1      28.509  31.684  23.411  1.00  0.00    -0.326 N 
ATOM     21  C   UNL A   1      28.050  32.544  21.117  1.00  0.00     0.114 C 
ATOM     22  C   UNL A   1      28.507  32.729  22.536  1.00  0.00     0.221 C 
ATOM     23  O   UNL A   1      28.857  33.839  22.943  1.00  0.00    -0.275 OA
ATOM     24  H   UNL A   1      28.516  31.961  24.356  1.00  0.00     0.169 HD
ENDBRANCH  15  20
ENDBRANCH   8  14
ENDBRANCH   4   7
ENDBRANCH   2   3
ENDBRANCH   1   2
BRANCH   1  25
ATOM     25  C   UNL A   1      31.648  31.783  26.995  1.00  0.00     0.023 C 
BRANCH  25  26
ATOM     26  C   UNL A   1      32.129  33.190  26.643  1.00  0.00     0.116 C 
BRANCH  26  27
ATOM     27  N   UNL A   1      32.051  34.179  27.710  1.00  0.00    -0.352 N 
ATOM     28  C   UNL A   1      33.027  34.531  28.627  1.00  0.00     0.251 C 
ATOM     29  H   UNL A   1      31.194  34.657  27.791  1.00  0.00     0.163 HD
ATOM     30  O   UNL A   1      32.873  35.489  29.365  1.00  0.00    -0.269 OA
BRANCH  28  31
ATOM     31  C   UNL A   1      34.236  33.683  28.734  1.00  0.00     0.039 A 
ATOM     32  C   UNL A   1      35.389  34.071  28.046  1.00  0.00     0.014 A 
ATOM     33  C   UNL A   1      34.265  32.607  29.621  1.00  0.00     0.014 A 
ATOM     34  C   UNL A   1      36.611  33.469  28.358  1.00  0.00     0.010 A 
ATOM     35  C   UNL A   1      35.493  32.060  29.982  1.00  0.00     0.010 A 
ATOM     36  C   UNL A   1      36.682  32.515  29.386  1.00  0.00    -0.014 A 
BRANCH  36  37
ATOM     37  C   UNL A   1      37.987  32.042  29.921  1.00  0.00     0.031 A 
ATOM     38  C   UNL A   1      38.595  30.765  29.418  1.00  0.00     0.074 A 
ATOM     39  C   UNL A   1      38.557  32.694  30.955  1.00  0.00     0.049 A 
ATOM     40  N   UNL A   1      39.640  30.116  29.865  1.00  0.00    -0.248 NA
ATOM     41  C   UNL A   1      37.920  30.117  28.283  1.00  0.00     0.031 C 
ATOM     42  C   UNL A   1      38.044  33.918  31.577  1.00  0.00     0.029 A 
ATOM     43  N   UNL A   1      39.684  32.404  31.685  1.00  0.00    -0.354 N 
ATOM     44  C   UNL A   1      39.727  28.967  29.090  1.00  0.00     0.074 A 
ATOM     45  C   UNL A   1      38.613  28.994  28.166  1.00  0.00     0.031 C 
ATOM     46  C   UNL A   1      38.857  34.277  32.583  1.00  0.00     0.029 A 
ATOM     47  C   UNL A   1      39.923  33.290  32.709  1.00  0.00     0.049 A 
ATOM     48  H   UNL A   1      40.266  31.633  31.493  1.00  0.00     0.167 HD
ATOM     49  C   UNL A   1      40.654  27.981  29.138  1.00  0.00     0.031 A 
ATOM     50  C   UNL A   1      40.881  33.301  33.656  1.00  0.00     0.031 A 
ATOM     51  C   UNL A   1      41.772  27.961  30.042  1.00  0.00     0.049 A 
ATOM     52  C   UNL A   1      41.907  32.204  33.679  1.00  0.00     0.074 A 
ATOM     53  C   UNL A   1      42.805  27.042  30.116  1.00  0.00     0.029 A 
ATOM     54  N   UNL A   1      42.001  28.902  31.034  1.00  0.00    -0.354 N 
ATOM     55  N   UNL A   1      42.018  31.163  32.892  1.00  0.00    -0.248 NA
ATOM     56  C   UNL A   1      42.945  32.287  34.718  1.00  0.00     0.031 C 
ATOM     57  C   UNL A   1      43.638  27.406  31.179  1.00  0.00     0.029 A 
ATOM     58  C   UNL A   1      43.148  28.576  31.737  1.00  0.00     0.049 A 
ATOM     59  H   UNL A   1      41.432  29.686  31.211  1.00  0.00     0.167 HD
ATOM     60  C   UNL A   1      43.147  30.481  33.322  1.00  0.00     0.074 A 
ATOM     61  C   UNL A   1      43.694  31.230  34.434  1.00  0.00     0.031 C 
ATOM     62  C   UNL A   1      43.683  29.335  32.837  1.00  0.00     0.031 A 
BRANCH  49  63
ATOM     63  C   UNL A   1      40.486  26.833  28.184  1.00  0.00    -0.014 A 
ATOM     64  C   UNL A   1      39.762  25.686  28.546  1.00  0.00     0.009 A 
ATOM     65  C   UNL A   1      41.044  26.908  26.898  1.00  0.00     0.009 A 
ATOM     66  C   UNL A   1      39.636  24.619  27.654  1.00  0.00     0.001 A 
ATOM     67  C   UNL A   1      40.893  25.850  25.999  1.00  0.00     0.001 A 
ATOM     68  C   UNL A   1      40.200  24.703  26.382  1.00  0.00     0.000 A 
ENDBRANCH  49  63
BRANCH  50  69
ATOM     69  C   UNL A   1      40.920  34.396  34.660  1.00  0.00    -0.014 A 
ATOM     70  C   UNL A   1      40.257  34.256  35.888  1.00  0.00     0.009 A 
ATOM     71  C   UNL A   1      41.625  35.581  34.400  1.00  0.00     0.009 A 
ATOM     72  C   UNL A   1      40.282  35.290  36.827  1.00  0.00     0.001 A 
ATOM     73  C   UNL A   1      41.668  36.604  35.350  1.00  0.00     0.001 A 
ATOM     74  C   UNL A   1      40.990  36.460  36.560  1.00  0.00     0.000 A 
ENDBRANCH  50  69
BRANCH  62  75
ATOM     75  C   UNL A   1      44.945  28.837  33.478  1.00  0.00    -0.014 A 
ATOM     76  C   UNL A   1      44.907  27.920  34.539  1.00  0.00     0.009 A 
ATOM     77  C   UNL A   1      46.189  29.244  32.969  1.00  0.00     0.009 A 
ATOM     78  C   UNL A   1      46.095  27.434  35.091  1.00  0.00     0.001 A 
ATOM     79  C   UNL A   1      47.372  28.739  33.508  1.00  0.00     0.001 A 
ATOM     80  C   UNL A   1      47.324  27.840  34.571  1.00  0.00     0.000 A 
ENDBRANCH  62  75
ENDBRANCH  36  37
ENDBRANCH  28  31
ENDBRANCH  26  27
ENDBRANCH  25  26
ENDBRANCH   1  25
TORSDOF 13
ENDMDL
MODEL 2
REMARK VINA RESULT:     -11.9      0.915      5.989
REMARK SMILES CC(=O)Nc1cccc(-c2cc(F)ccc2C(=O)NCCCCNC(=O)c2ccc(-c3c4nc(c(-c5ccccc5)c5ccc([nH]5)c(-c5ccccc5)c5nc(c(-c6ccccc6)c6ccc3[nH]6)C=C5)C=C4)cc2)c1
REMARK SMILES IDX 21 1 20 2 19 3 17 4 18 5 16 7 10 8 11 9 12 10 15 11 13 12
REMARK SMILES IDX 14 13 9 14 5 15 6 16 75 17 7 18 8 19 4 20 1 21 2 22 3 23
REMARK SMILES IDX 22 25 23 26 24 27 25 28 26 30 27 31 28 32 74 33 29 34 73 35
REMARK SMILES IDX 30 36 31 37 32 38 67 39 33 40 72 41 66 42 68 43 34 44 71 45
REMARK SMILES IDX 65 46 64 47 35 49 57 50 42 51 56 52 43 53 46 54 55 55 69 56
REMARK SMILES IDX 44 57 45 58 54 60 70 61 47 62 36 63 37 64 41 65 38 66 40 67
REMARK SMILES IDX 39 68 58 69 59 70 63 71 60 72 62 73 61 74 48 75 49 76 53 77
REMARK SMILES IDX 50 78 52 79 51 80
REMARK H PARENT 19 6 4 24 24 29 68 48 46 59
REMARK Flexibility Score: inf
ROOT
ATOM      1  C   UNL A   1      32.921  29.228  26.212  1.00  0.00     0.023 C 
ENDROOT
BRANCH   1   2
ATOM      2  C   UNL A   1      32.775  27.882  26.903  1.00  0.00     0.116 C 
BRANCH   2   3
ATOM      3  N   UNL A   1      31.481  27.257  26.865  1.00  0.00    -0.352 N 
ATOM      4  C   UNL A   1      30.863  26.528  25.875  1.00  0.00     0.251 C 
ATOM      5  O   UNL A   1      29.812  25.967  26.205  1.00  0.00    -0.269 OA
ATOM      6  H   UNL A   1      30.948  27.369  27.685  1.00  0.00     0.163 HD
BRANCH   4   7
ATOM      7  C   UNL A   1      31.282  26.414  24.428  1.00  0.00     0.047 A 
ATOM      8  C   UNL A   1      30.808  27.101  23.279  1.00  0.00    -0.003 A 
ATOM      9  C   UNL A   1      31.451  26.851  22.036  1.00  0.00     0.048 A 
ATOM     10  C   UNL A   1      32.515  25.968  21.919  1.00  0.00     0.123 A 
ATOM     11  C   UNL A   1      32.378  25.522  24.263  1.00  0.00     0.017 A 
ATOM     12  F   UNL A   1      33.086  25.773  20.725  1.00  0.00    -0.207 F 
ATOM     13  C   UNL A   1      32.988  25.298  23.027  1.00  0.00     0.040 A 
BRANCH   8  14
ATOM     14  C   UNL A   1      29.696  28.066  23.224  1.00  0.00    -0.015 A 
ATOM     15  C   UNL A   1      28.832  30.345  23.303  1.00  0.00     0.041 A 
ATOM     16  C   UNL A   1      27.526  29.835  23.352  1.00  0.00     0.026 A 
ATOM     17  C   UNL A   1      29.909  29.455  23.200  1.00  0.00     0.034 A 
ATOM     18  C   UNL A   1      27.290  28.465  23.305  1.00  0.00     0.003 A 
ATOM     19  C   UNL A   1      28.368  27.589  23.240  1.00  0.00     0.009 A 
BRANCH  15  20
ATOM     20  N   UNL A   1      28.958  31.725  23.537  1.00  0.00    -0.326 N 
ATOM     21  C   UNL A   1      28.102  32.733  21.423  1.00  0.00     0.114 C 
ATOM     22  C   UNL A   1      28.844  32.815  22.727  1.00  0.00     0.221 C 
ATOM     23  O   UNL A   1      29.336  33.883  23.102  1.00  0.00    -0.275 OA
ATOM     24  H   UNL A   1      29.171  31.949  24.471  1.00  0.00     0.169 HD
ENDBRANCH  15  20
ENDBRANCH   8  14
ENDBRANCH   4   7
ENDBRANCH   2   3
ENDBRANCH   1   2
BRANCH   1  25
ATOM     25  C   UNL A   1      32.339  30.457  26.909  1.00  0.00     0.023 C 
BRANCH  25  26
ATOM     26  C   UNL A   1      33.290  31.560  27.371  1.00  0.00     0.116 C 
BRANCH  26  27
ATOM     27  N   UNL A   1      32.678  32.846  27.678  1.00  0.00    -0.352 N 
ATOM     28  C   UNL A   1      33.236  33.926  28.340  1.00  0.00     0.251 C 
ATOM     29  H   UNL A   1      31.747  32.961  27.378  1.00  0.00     0.163 HD
ATOM     30  O   UNL A   1      32.655  34.997  28.386  1.00  0.00    -0.269 OA
BRANCH  28  31
ATOM     31  C   UNL A   1      34.526  33.736  29.042  1.00  0.00     0.039 A 
ATOM     32  C   UNL A   1      34.520  33.114  30.294  1.00  0.00     0.014 A 
ATOM     33  C   UNL A   1      35.728  34.033  28.400  1.00  0.00     0.014 A 
ATOM     34  C   UNL A   1      35.723  32.657  30.839  1.00  0.00     0.010 A 
ATOM     35  C   UNL A   1      36.914  33.513  28.911  1.00  0.00     0.010 A 
ATOM     36  C   UNL A   1      36.917  32.783  30.113  1.00  0.00    -0.014 A 
BRANCH  36  37
ATOM     37  C   UNL A   1      38.164  32.090  30.534  1.00  0.00     0.031 A 
ATOM     38  C   UNL A   1      39.133  32.768  31.458  1.00  0.00     0.074 A 
ATOM     39  C   UNL A   1      38.484  30.903  29.979  1.00  0.00     0.049 A 
ATOM     40  N   UNL A   1      40.334  32.389  31.817  1.00  0.00    -0.248 NA
ATOM     41  C   UNL A   1      38.708  34.054  32.030  1.00  0.00     0.031 C 
ATOM     42  C   UNL A   1      37.658  30.158  29.025  1.00  0.00     0.029 A 
ATOM     43  N   UNL A   1      39.608  30.124  30.117  1.00  0.00    -0.354 N 
ATOM     44  C   UNL A   1      40.821  33.408  32.625  1.00  0.00     0.074 A 
ATOM     45  C   UNL A   1      39.798  34.430  32.682  1.00  0.00     0.031 C 
ATOM     46  C   UNL A   1      38.296  29.029  28.674  1.00  0.00     0.029 A 
ATOM     47  C   UNL A   1      39.592  28.989  29.341  1.00  0.00     0.049 A 
ATOM     48  H   UNL A   1      40.354  30.356  30.716  1.00  0.00     0.167 HD
ATOM     49  C   UNL A   1      42.010  33.482  33.270  1.00  0.00     0.031 A 
ATOM     50  C   UNL A   1      40.522  28.030  29.168  1.00  0.00     0.031 A 
ATOM     51  C   UNL A   1      43.021  32.459  33.231  1.00  0.00     0.049 A 
ATOM     52  C   UNL A   1      41.827  28.127  29.906  1.00  0.00     0.074 A 
ATOM     53  C   UNL A   1      44.226  32.412  33.909  1.00  0.00     0.029 A 
ATOM     54  N   UNL A   1      42.945  31.305  32.467  1.00  0.00    -0.354 N 
ATOM     55  N   UNL A   1      42.243  29.061  30.725  1.00  0.00    -0.248 NA
ATOM     56  C   UNL A   1      42.790  27.035  29.699  1.00  0.00     0.031 C 
ATOM     57  C   UNL A   1      44.898  31.247  33.526  1.00  0.00     0.029 A 
ATOM     58  C   UNL A   1      44.090  30.548  32.643  1.00  0.00     0.049 A 
ATOM     59  H   UNL A   1      42.189  31.061  31.886  1.00  0.00     0.167 HD
ATOM     60  C   UNL A   1      43.501  28.659  31.151  1.00  0.00     0.074 A 
ATOM     61  C   UNL A   1      43.779  27.392  30.507  1.00  0.00     0.031 C 
ATOM     62  C   UNL A   1      44.350  29.286  32.001  1.00  0.00     0.031 A 
BRANCH  49  63
ATOM     63  C   UNL A   1      42.283  34.726  34.066  1.00  0.00    -0.014 A 
ATOM     64  C   UNL A   1      42.852  35.862  33.469  1.00  0.00     0.009 A 
ATOM     65  C   UNL A   1      41.949  34.768  35.429  1.00  0.00     0.009 A 
ATOM     66  C   UNL A   1      43.120  37.001  34.232  1.00  0.00     0.001 A 
ATOM     67  C   UNL A   1      42.193  35.918  36.182  1.00  0.00     0.001 A 
ATOM     68  C   UNL A   1      42.788  37.029  35.586  1.00  0.00     0.000 A 
ENDBRANCH  49  63
BRANCH  50  69
ATOM     69  C   UNL A   1      40.249  26.885  28.261  1.00  0.00    -0.014 A 
ATOM     70  C   UNL A   1      39.469  25.804  28.698  1.00  0.00     0.009 A 
ATOM     71  C   UNL A   1      40.760  26.869  26.954  1.00  0.00     0.009 A 
ATOM     72  C   UNL A   1      39.224  24.721  27.852  1.00  0.00     0.001 A 
ATOM     73  C   UNL A   1      40.493  25.795  26.101  1.00  0.00     0.001 A 
ATOM     74  C   UNL A   1      39.731  24.719  26.553  1.00  0.00     0.000 A 
ENDBRANCH  50  69
BRANCH  62  75
ATOM     75  C   UNL A   1      45.644  28.597  32.317  1.00  0.00    -0.014 A 
ATOM     76  C   UNL A   1      46.798  28.836  31.555  1.00  0.00     0.009 A 
ATOM     77  C   UNL A   1      45.724  27.746  33.430  1.00  0.00     0.009 A 
ATOM     78  C   UNL A   1      48.005  28.220  31.895  1.00  0.00     0.001 A 
ATOM     79  C   UNL A   1      46.936  27.150  33.779  1.00  0.00     0.001 A 
ATOM     80  C   UNL A   1      48.073  27.383  33.009  1.00  0.00     0.000 A 
ENDBRANCH  62  75
ENDBRANCH  36  37
ENDBRANCH  28  31
ENDBRANCH  26  27
ENDBRANCH  25  26
ENDBRANCH   1  25
TORSDOF 13
ENDMDL
MODEL 3
REMARK VINA RESULT:     -11.8      3.413      7.236
REMARK SMILES CC(=O)Nc1cccc(-c2cc(F)ccc2C(=O)NCCCCNC(=O)c2ccc(-c3c4nc(c(-c5ccccc5)c5ccc([nH]5)c(-c5ccccc5)c5nc(c(-c6ccccc6)c6ccc3[nH]6)C=C5)C=C4)cc2)c1
REMARK SMILES IDX 21 1 20 2 19 3 17 4 18 5 16 7 10 8 11 9 12 10 15 11 13 12
REMARK SMILES IDX 14 13 9 14 5 15 6 16 75 17 7 18 8 19 4 20 1 21 2 22 3 23
REMARK SMILES IDX 22 25 23 26 24 27 25 28 26 30 27 31 28 32 74 33 29 34 73 35
REMARK SMILES IDX 30 36 31 37 32 38 67 39 33 40 72 41 66 42 68 43 34 44 71 45
REMARK SMILES IDX 65 46 64 47 35 49 57 50 42 51 56 52 43 53 46 54 55 55 69 56
REMARK SMILES IDX 44 57 45 58 54 60 70 61 47 62 36 63 37 64 41 65 38 66 40 67
REMARK SMILES IDX 39 68 58 69 59 70 63 71 60 72 62 73 61 74 48 75 49 76 53 77
REMARK SMILES IDX 50 78 52 79 51 80
REMARK H PARENT 19 6 4 24 24 29 68 48 46 59
REMARK Flexibility Score: inf
ROOT
ATOM      1  C   UNL A   1      31.981  29.767  26.500  1.00  0.00     0.023 C 
ENDROOT
BRANCH   1   2
ATOM      2  C   UNL A   1      32.100  28.490  27.316  1.00  0.00     0.116 C 
BRANCH   2   3
ATOM      3  N   UNL A   1      31.063  27.507  27.159  1.00  0.00    -0.352 N 
ATOM      4  C   UNL A   1      30.801  26.635  26.128  1.00  0.00     0.251 C 
ATOM      5  O   UNL A   1      29.937  25.781  26.360  1.00  0.00    -0.269 OA
ATOM      6  H   UNL A   1      30.438  27.447  27.917  1.00  0.00     0.163 HD
BRANCH   4   7
ATOM      7  C   UNL A   1      31.385  26.665  24.735  1.00  0.00     0.047 A 
ATOM      8  C   UNL A   1      30.903  27.285  23.551  1.00  0.00    -0.003 A 
ATOM      9  C   UNL A   1      31.712  27.219  22.384  1.00  0.00     0.048 A 
ATOM     10  C   UNL A   1      32.943  26.577  22.373  1.00  0.00     0.123 A 
ATOM     11  C   UNL A   1      32.653  26.021  24.679  1.00  0.00     0.017 A 
ATOM     12  F   UNL A   1      33.665  26.548  21.247  1.00  0.00    -0.207 F 
ATOM     13  C   UNL A   1      33.424  25.975  23.516  1.00  0.00     0.040 A 
BRANCH   8  14
ATOM     14  C   UNL A   1      29.628  28.004  23.387  1.00  0.00    -0.015 A 
ATOM     15  C   UNL A   1      28.348  30.064  23.141  1.00  0.00     0.041 A 
ATOM     16  C   UNL A   1      27.163  29.335  23.318  1.00  0.00     0.026 A 
ATOM     17  C   UNL A   1      29.574  29.385  23.139  1.00  0.00     0.034 A 
ATOM     18  C   UNL A   1      27.191  27.955  23.495  1.00  0.00     0.003 A 
ATOM     19  C   UNL A   1      28.415  27.296  23.528  1.00  0.00     0.009 A 
BRANCH  15  20
ATOM     20  N   UNL A   1      28.212  31.463  23.151  1.00  0.00    -0.326 N 
ATOM     21  C   UNL A   1      28.074  32.031  20.728  1.00  0.00     0.114 C 
ATOM     22  C   UNL A   1      28.271  32.406  22.169  1.00  0.00     0.221 C 
ATOM     23  O   UNL A   1      28.458  33.582  22.491  1.00  0.00    -0.275 OA
ATOM     24  H   UNL A   1      28.038  31.836  24.045  1.00  0.00     0.169 HD
ENDBRANCH  15  20
ENDBRANCH   8  14
ENDBRANCH   4   7
ENDBRANCH   2   3
ENDBRANCH   1   2
BRANCH   1  25
ATOM     25  C   UNL A   1      32.872  30.947  26.883  1.00  0.00     0.023 C 
BRANCH  25  26
ATOM     26  C   UNL A   1      34.160  30.676  27.660  1.00  0.00     0.116 C 
BRANCH  26  27
ATOM     27  N   UNL A   1      34.301  31.375  28.930  1.00  0.00    -0.352 N 
ATOM     28  C   UNL A   1      35.393  31.397  29.781  1.00  0.00     0.251 C 
ATOM     29  H   UNL A   1      33.520  31.899  29.221  1.00  0.00     0.163 HD
ATOM     30  O   UNL A   1      35.425  32.154  30.735  1.00  0.00    -0.269 OA
BRANCH  28  31
ATOM     31  C   UNL A   1      36.494  30.436  29.542  1.00  0.00     0.039 A 
ATOM     32  C   UNL A   1      37.106  30.418  28.286  1.00  0.00     0.014 A 
ATOM     33  C   UNL A   1      37.007  29.677  30.594  1.00  0.00     0.014 A 
ATOM     34  C   UNL A   1      38.321  29.748  28.122  1.00  0.00     0.010 A 
ATOM     35  C   UNL A   1      38.252  29.072  30.448  1.00  0.00     0.010 A 
ATOM     36  C   UNL A   1      38.941  29.138  29.224  1.00  0.00    -0.014 A 
BRANCH  36  37
ATOM     37  C   UNL A   1      40.342  28.641  29.155  1.00  0.00     0.031 A 
ATOM     38  C   UNL A   1      41.492  29.590  29.332  1.00  0.00     0.074 A 
ATOM     39  C   UNL A   1      40.577  27.361  28.803  1.00  0.00     0.049 A 
ATOM     40  N   UNL A   1      42.771  29.376  29.160  1.00  0.00    -0.248 NA
ATOM     41  C   UNL A   1      41.155  30.966  29.726  1.00  0.00     0.031 C 
ATOM     42  C   UNL A   1      39.551  26.345  28.548  1.00  0.00     0.029 A 
ATOM     43  N   UNL A   1      41.758  26.698  28.571  1.00  0.00    -0.354 N 
ATOM     44  C   UNL A   1      43.388  30.600  29.387  1.00  0.00     0.074 A 
ATOM     45  C   UNL A   1      42.341  31.554  29.683  1.00  0.00     0.031 C 
ATOM     46  C   UNL A   1      40.146  25.191  28.208  1.00  0.00     0.029 A 
ATOM     47  C   UNL A   1      41.590  25.392  28.176  1.00  0.00     0.049 A 
ATOM     48  H   UNL A   1      42.641  27.119  28.677  1.00  0.00     0.167 HD
ATOM     49  C   UNL A   1      44.709  30.900  29.361  1.00  0.00     0.031 A 
ATOM     50  C   UNL A   1      42.493  24.462  27.810  1.00  0.00     0.031 A 
ATOM     51  C   UNL A   1      45.753  29.950  29.086  1.00  0.00     0.049 A 
ATOM     52  C   UNL A   1      43.954  24.815  27.803  1.00  0.00     0.074 A 
ATOM     53  C   UNL A   1      47.123  30.144  29.109  1.00  0.00     0.029 A 
ATOM     54  N   UNL A   1      45.541  28.626  28.735  1.00  0.00    -0.354 N 
ATOM     55  N   UNL A   1      44.526  25.957  28.093  1.00  0.00    -0.248 NA
ATOM     56  C   UNL A   1      44.893  23.749  27.424  1.00  0.00     0.031 C 
ATOM     57  C   UNL A   1      47.740  28.946  28.733  1.00  0.00     0.029 A 
ATOM     58  C   UNL A   1      46.755  27.995  28.519  1.00  0.00     0.049 A 
ATOM     59  H   UNL A   1      44.658  28.198  28.651  1.00  0.00     0.167 HD
ATOM     60  C   UNL A   1      45.891  25.742  27.956  1.00  0.00     0.074 A 
ATOM     61  C   UNL A   1      46.062  24.358  27.566  1.00  0.00     0.031 C 
ATOM     62  C   UNL A   1      46.910  26.616  28.138  1.00  0.00     0.031 A 
BRANCH  49  63
ATOM     63  C   UNL A   1      45.094  32.327  29.627  1.00  0.00    -0.014 A 
ATOM     64  C   UNL A   1      45.277  33.240  28.577  1.00  0.00     0.009 A 
ATOM     65  C   UNL A   1      45.257  32.769  30.950  1.00  0.00     0.009 A 
ATOM     66  C   UNL A   1      45.659  34.557  28.843  1.00  0.00     0.001 A 
ATOM     67  C   UNL A   1      45.612  34.094  31.214  1.00  0.00     0.001 A 
ATOM     68  C   UNL A   1      45.823  34.982  30.161  1.00  0.00     0.000 A 
ENDBRANCH  49  63
BRANCH  50  69
ATOM     69  C   UNL A   1      42.043  23.098  27.427  1.00  0.00    -0.014 A 
ATOM     70  C   UNL A   1      41.792  22.786  26.083  1.00  0.00     0.009 A 
ATOM     71  C   UNL A   1      41.867  22.103  28.400  1.00  0.00     0.009 A 
ATOM     72  C   UNL A   1      41.355  21.509  25.723  1.00  0.00     0.001 A 
ATOM     73  C   UNL A   1      41.452  20.820  28.035  1.00  0.00     0.001 A 
ATOM     74  C   UNL A   1      41.190  20.526  26.697  1.00  0.00     0.000 A 
ENDBRANCH  50  69
BRANCH  62  75
ATOM     75  C   UNL A   1      48.306  26.097  27.956  1.00  0.00    -0.014 A 
ATOM     76  C   UNL A   1      48.942  26.148  26.707  1.00  0.00     0.009 A 
ATOM     77  C   UNL A   1      49.014  25.608  29.065  1.00  0.00     0.009 A 
ATOM     78  C   UNL A   1      50.258  25.702  26.569  1.00  0.00     0.001 A 
ATOM     79  C   UNL A   1      50.336  25.184  28.929  1.00  0.00     0.001 A 
ATOM     80  C   UNL A   1      50.955  25.226  27.681  1.00  0.00     0.000 A 
ENDBRANCH  62  75
ENDBRANCH  36  37
ENDBRANCH  28  31
ENDBRANCH  26  27
ENDBRANCH  25  26
ENDBRANCH   1  25
TORSDOF 13
ENDMDL
