MODEL 1
REMARK VINA RESULT:     -12.1      0.000      0.000
REMARK SMILES Cc1ccc(Nc2c(C)cccc2Cl)c(CC(=O)NCCCCNC(=O)c2ccc(-c3c4nc(c(-c5ccccc5)c5ccc([nH]5)c(-c5ccccc5)c5nc(c(-c6ccccc6)c6ccc3[nH]6)C=C5)C=C4)cc2)c1
REMARK SMILES IDX 21 1 20 2 19 3 17 4 18 5 16 7 15 8 1 9 2 10 3 11 75 12 4 13
REMARK SMILES IDX 5 14 6 15 7 17 8 18 13 19 9 20 10 21 12 22 14 23 11 24 22 25
REMARK SMILES IDX 23 26 24 27 25 28 26 30 27 31 28 32 74 33 29 34 73 35 30 36
REMARK SMILES IDX 31 37 32 38 67 39 33 40 72 41 66 42 68 43 34 44 71 45 65 46
REMARK SMILES IDX 64 47 35 49 57 50 42 51 56 52 43 53 46 54 55 55 69 56 44 57
REMARK SMILES IDX 45 58 54 60 70 61 47 62 36 63 37 64 41 65 38 66 40 67 39 68
REMARK SMILES IDX 58 69 59 70 63 71 60 72 62 73 61 74 48 75 49 76 53 77 50 78
REMARK SMILES IDX 52 79 51 80
REMARK H PARENT 19 6 6 16 24 29 68 48 46 59
REMARK Flexibility Score: inf
ROOT
ATOM      1  C   UNL A   1      37.832  23.395  25.835  1.00  0.00     0.023 C 
ENDROOT
BRANCH   1   2
ATOM      2  C   UNL A   1      36.296  23.431  25.806  1.00  0.00     0.116 C 
BRANCH   2   3
ATOM      3  N   UNL A   1      35.672  22.486  26.716  1.00  0.00    -0.356 N 
ATOM      4  C   UNL A   1      34.372  22.376  27.112  1.00  0.00     0.224 C 
ATOM      5  O   UNL A   1      34.095  21.539  27.976  1.00  0.00    -0.275 OA
ATOM      6  H   UNL A   1      36.284  21.821  27.107  1.00  0.00     0.163 HD
BRANCH   4   7
ATOM      7  C   UNL A   1      33.288  23.264  26.530  1.00  0.00     0.137 C 
BRANCH   7   8
ATOM      8  C   UNL A   1      32.808  22.817  25.168  1.00  0.00    -0.015 A 
ATOM      9  C   UNL A   1      32.402  19.441  23.417  1.00  0.00     0.044 C 
ATOM     10  C   UNL A   1      32.413  20.918  23.672  1.00  0.00    -0.051 A 
ATOM     11  C   UNL A   1      32.185  21.812  22.628  1.00  0.00     0.005 A 
ATOM     12  C   UNL A   1      32.693  21.427  24.943  1.00  0.00     0.009 A 
ATOM     13  C   UNL A   1      32.239  23.191  22.855  1.00  0.00     0.026 A 
ATOM     14  C   UNL A   1      32.552  23.724  24.116  1.00  0.00     0.042 A 
BRANCH  14  15
ATOM     15  N   UNL A   1      32.564  25.121  24.332  1.00  0.00    -0.354 N 
ATOM     16  H   UNL A   1      33.335  25.463  24.840  1.00  0.00     0.167 HD
BRANCH  15  17
ATOM     17  C   UNL A   1      31.625  26.100  23.923  1.00  0.00     0.060 A 
ATOM     18  C   UNL A   1      30.382  26.266  24.575  1.00  0.00    -0.026 A 
ATOM     19  C   UNL A   1      31.894  26.888  22.780  1.00  0.00     0.064 A 
ATOM     20  C   UNL A   1      30.019  25.527  25.835  1.00  0.00     0.046 C 
ATOM     21  C   UNL A   1      29.435  27.160  24.042  1.00  0.00     0.005 A 
ATOM     22  C   UNL A   1      30.952  27.789  22.280  1.00  0.00     0.023 A 
ATOM     23  Cl  UNL A   1      33.398  26.742  21.931  1.00  0.00    -0.082 Cl
ATOM     24  C   UNL A   1      29.716  27.913  22.904  1.00  0.00     0.002 A 
ENDBRANCH  15  17
ENDBRANCH  14  15
ENDBRANCH   7   8
ENDBRANCH   4   7
ENDBRANCH   2   3
ENDBRANCH   1   2
BRANCH   1  25
ATOM     25  C   UNL A   1      38.471  22.015  25.671  1.00  0.00     0.023 C 
BRANCH  25  26
ATOM     26  C   UNL A   1      39.749  21.833  26.471  1.00  0.00     0.116 C 
BRANCH  26  27
ATOM     27  N   UNL A   1      40.629  20.777  25.984  1.00  0.00    -0.352 N 
ATOM     28  C   UNL A   1      42.013  20.703  26.021  1.00  0.00     0.251 C 
ATOM     29  H   UNL A   1      40.176  20.007  25.569  1.00  0.00     0.163 HD
ATOM     30  O   UNL A   1      42.596  19.762  25.507  1.00  0.00    -0.269 OA
BRANCH  28  31
ATOM     31  C   UNL A   1      42.770  21.699  26.822  1.00  0.00     0.039 A 
ATOM     32  C   UNL A   1      42.581  21.683  28.209  1.00  0.00     0.014 A 
ATOM     33  C   UNL A   1      43.419  22.771  26.216  1.00  0.00     0.014 A 
ATOM     34  C   UNL A   1      42.774  22.855  28.932  1.00  0.00     0.010 A 
ATOM     35  C   UNL A   1      43.508  23.963  26.906  1.00  0.00     0.010 A 
ATOM     36  C   UNL A   1      43.100  24.019  28.242  1.00  0.00    -0.014 A 
BRANCH  36  37
ATOM     37  C   UNL A   1      42.878  25.350  28.792  1.00  0.00     0.031 A 
ATOM     38  C   UNL A   1      41.745  26.171  28.338  1.00  0.00     0.074 A 
ATOM     39  C   UNL A   1      43.697  25.816  29.762  1.00  0.00     0.049 A 
ATOM     40  N   UNL A   1      41.685  27.450  28.498  1.00  0.00    -0.248 NA
ATOM     41  C   UNL A   1      40.622  25.632  27.576  1.00  0.00     0.031 C 
ATOM     42  C   UNL A   1      43.493  26.970  30.633  1.00  0.00     0.029 A 
ATOM     43  N   UNL A   1      45.029  25.454  29.975  1.00  0.00    -0.354 N 
ATOM     44  C   UNL A   1      40.412  27.840  28.173  1.00  0.00     0.074 A 
ATOM     45  C   UNL A   1      39.851  26.718  27.460  1.00  0.00     0.031 C 
ATOM     46  C   UNL A   1      44.687  27.385  31.087  1.00  0.00     0.029 A 
ATOM     47  C   UNL A   1      45.705  26.615  30.395  1.00  0.00     0.049 A 
ATOM     48  H   UNL A   1      45.419  24.558  29.855  1.00  0.00     0.167 HD
ATOM     49  C   UNL A   1      39.932  29.006  28.682  1.00  0.00     0.031 A 
ATOM     50  C   UNL A   1      46.706  27.149  29.635  1.00  0.00     0.031 A 
ATOM     51  C   UNL A   1      40.995  29.832  29.265  1.00  0.00     0.049 A 
ATOM     52  C   UNL A   1      46.437  28.555  29.128  1.00  0.00     0.074 A 
ATOM     53  C   UNL A   1      41.324  30.251  30.543  1.00  0.00     0.029 A 
ATOM     54  N   UNL A   1      42.081  30.169  28.465  1.00  0.00    -0.354 N 
ATOM     55  N   UNL A   1      45.324  29.213  29.299  1.00  0.00    -0.248 NA
ATOM     56  C   UNL A   1      47.383  29.285  28.284  1.00  0.00     0.031 C 
ATOM     57  C   UNL A   1      42.630  30.826  30.502  1.00  0.00     0.029 A 
ATOM     58  C   UNL A   1      43.079  30.784  29.195  1.00  0.00     0.049 A 
ATOM     59  H   UNL A   1      42.133  29.988  27.499  1.00  0.00     0.167 HD
ATOM     60  C   UNL A   1      45.357  30.377  28.572  1.00  0.00     0.074 A 
ATOM     61  C   UNL A   1      46.671  30.375  27.953  1.00  0.00     0.031 C 
ATOM     62  C   UNL A   1      44.283  31.220  28.497  1.00  0.00     0.031 A 
BRANCH  49  63
ATOM     63  C   UNL A   1      38.457  29.318  28.823  1.00  0.00    -0.014 A 
ATOM     64  C   UNL A   1      37.740  29.802  27.713  1.00  0.00     0.009 A 
ATOM     65  C   UNL A   1      37.741  29.273  30.034  1.00  0.00     0.009 A 
ATOM     66  C   UNL A   1      36.407  30.229  27.817  1.00  0.00     0.001 A 
ATOM     67  C   UNL A   1      36.402  29.668  30.141  1.00  0.00     0.001 A 
ATOM     68  C   UNL A   1      35.735  30.158  29.032  1.00  0.00     0.000 A 
ENDBRANCH  49  63
BRANCH  50  69
ATOM     69  C   UNL A   1      47.498  26.123  28.897  1.00  0.00    -0.014 A 
ATOM     70  C   UNL A   1      47.173  25.865  27.548  1.00  0.00     0.009 A 
ATOM     71  C   UNL A   1      48.735  25.678  29.382  1.00  0.00     0.009 A 
ATOM     72  C   UNL A   1      48.107  25.286  26.685  1.00  0.00     0.001 A 
ATOM     73  C   UNL A   1      49.661  25.082  28.516  1.00  0.00     0.001 A 
ATOM     74  C   UNL A   1      49.361  24.920  27.164  1.00  0.00     0.000 A 
ENDBRANCH  50  69
BRANCH  62  75
ATOM     75  C   UNL A   1      44.223  32.508  27.700  1.00  0.00    -0.014 A 
ATOM     76  C   UNL A   1      44.078  33.783  28.263  1.00  0.00     0.009 A 
ATOM     77  C   UNL A   1      44.227  32.449  26.287  1.00  0.00     0.009 A 
ATOM     78  C   UNL A   1      44.036  34.937  27.464  1.00  0.00     0.001 A 
ATOM     79  C   UNL A   1      44.159  33.592  25.485  1.00  0.00     0.001 A 
ATOM     80  C   UNL A   1      44.083  34.841  26.076  1.00  0.00     0.000 A 
ENDBRANCH  62  75
ENDBRANCH  36  37
ENDBRANCH  28  31
ENDBRANCH  26  27
ENDBRANCH  25  26
ENDBRANCH   1  25
TORSDOF 14
ENDMDL
MODEL 2
REMARK VINA RESULT:     -11.9      3.141      8.314
REMARK SMILES Cc1ccc(Nc2c(C)cccc2Cl)c(CC(=O)NCCCCNC(=O)c2ccc(-c3c4nc(c(-c5ccccc5)c5ccc([nH]5)c(-c5ccccc5)c5nc(c(-c6ccccc6)c6ccc3[nH]6)C=C5)C=C4)cc2)c1
REMARK SMILES IDX 21 1 20 2 19 3 17 4 18 5 16 7 15 8 1 9 2 10 3 11 75 12 4 13
REMARK SMILES IDX 5 14 6 15 7 17 8 18 13 19 9 20 10 21 12 22 14 23 11 24 22 25
REMARK SMILES IDX 23 26 24 27 25 28 26 30 27 31 28 32 74 33 29 34 73 35 30 36
REMARK SMILES IDX 31 37 32 38 67 39 33 40 72 41 66 42 68 43 34 44 71 45 65 46
REMARK SMILES IDX 64 47 35 49 57 50 42 51 56 52 43 53 46 54 55 55 69 56 44 57
REMARK SMILES IDX 45 58 54 60 70 61 47 62 36 63 37 64 41 65 38 66 40 67 39 68
REMARK SMILES IDX 58 69 59 70 63 71 60 72 62 73 61 74 48 75 49 76 53 77 50 78
REMARK SMILES IDX 52 79 51 80
REMARK H PARENT 19 6 6 16 24 29 68 48 46 59
REMARK Flexibility Score: inf
ROOT
ATOM      1  C   UNL A   1      33.442  28.355  26.783  1.00  0.00     0.023 C 
ENDROOT
BRANCH   1   2
ATOM      2  C   UNL A   1      32.081  27.952  26.194  1.00  0.00     0.116 C 
BRANCH   2   3
ATOM      3  N   UNL A   1      31.589  26.674  26.679  1.00  0.00    -0.356 N 
ATOM      4  C   UNL A   1      32.141  25.430  26.589  1.00  0.00     0.224 C 
ATOM      5  O   UNL A   1      31.485  24.470  27.002  1.00  0.00    -0.275 OA
ATOM      6  H   UNL A   1      30.724  26.712  27.145  1.00  0.00     0.163 HD
BRANCH   4   7
ATOM      7  C   UNL A   1      33.516  25.215  25.984  1.00  0.00     0.137 C 
BRANCH   7   8
ATOM      8  C   UNL A   1      33.477  24.677  24.571  1.00  0.00    -0.015 A 
ATOM      9  C   UNL A   1      32.074  25.927  21.240  1.00  0.00     0.044 C 
ATOM     10  C   UNL A   1      32.731  25.059  22.269  1.00  0.00    -0.051 A 
ATOM     11  C   UNL A   1      33.092  23.749  21.956  1.00  0.00     0.005 A 
ATOM     12  C   UNL A   1      32.955  25.523  23.568  1.00  0.00     0.009 A 
ATOM     13  C   UNL A   1      33.664  22.923  22.928  1.00  0.00     0.026 A 
ATOM     14  C   UNL A   1      33.867  23.359  24.248  1.00  0.00     0.042 A 
BRANCH  14  15
ATOM     15  N   UNL A   1      34.482  22.520  25.204  1.00  0.00    -0.354 N 
ATOM     16  H   UNL A   1      34.110  22.573  26.114  1.00  0.00     0.167 HD
BRANCH  15  17
ATOM     17  C   UNL A   1      35.557  21.611  25.041  1.00  0.00     0.060 A 
ATOM     18  C   UNL A   1      35.347  20.224  24.876  1.00  0.00    -0.026 A 
ATOM     19  C   UNL A   1      36.886  22.085  25.121  1.00  0.00     0.064 A 
ATOM     20  C   UNL A   1      33.978  19.620  24.714  1.00  0.00     0.046 C 
ATOM     21  C   UNL A   1      36.454  19.354  24.854  1.00  0.00     0.005 A 
ATOM     22  C   UNL A   1      37.974  21.210  25.071  1.00  0.00     0.023 A 
ATOM     23  Cl  UNL A   1      37.221  23.774  25.319  1.00  0.00    -0.082 Cl
ATOM     24  C   UNL A   1      37.755  19.842  24.952  1.00  0.00     0.002 A 
ENDBRANCH  15  17
ENDBRANCH  14  15
ENDBRANCH   7   8
ENDBRANCH   4   7
ENDBRANCH   2   3
ENDBRANCH   1   2
BRANCH   1  25
ATOM     25  C   UNL A   1      33.820  29.831  26.646  1.00  0.00     0.023 C 
BRANCH  25  26
ATOM     26  C   UNL A   1      33.690  30.618  27.938  1.00  0.00     0.116 C 
BRANCH  26  27
ATOM     27  N   UNL A   1      34.617  31.736  28.067  1.00  0.00    -0.352 N 
ATOM     28  C   UNL A   1      35.971  31.722  28.369  1.00  0.00     0.251 C 
ATOM     29  H   UNL A   1      34.227  32.628  27.920  1.00  0.00     0.163 HD
ATOM     30  O   UNL A   1      36.587  32.767  28.497  1.00  0.00    -0.269 OA
BRANCH  28  31
ATOM     31  C   UNL A   1      36.695  30.425  28.385  1.00  0.00     0.039 A 
ATOM     32  C   UNL A   1      36.895  29.818  29.630  1.00  0.00     0.014 A 
ATOM     33  C   UNL A   1      37.380  29.966  27.264  1.00  0.00     0.014 A 
ATOM     34  C   UNL A   1      37.981  28.968  29.802  1.00  0.00     0.010 A 
ATOM     35  C   UNL A   1      38.520  29.210  27.452  1.00  0.00     0.010 A 
ATOM     36  C   UNL A   1      38.863  28.788  28.740  1.00  0.00    -0.014 A 
BRANCH  36  37
ATOM     37  C   UNL A   1      40.232  28.321  28.922  1.00  0.00     0.031 A 
ATOM     38  C   UNL A   1      40.635  26.980  28.471  1.00  0.00     0.074 A 
ATOM     39  C   UNL A   1      41.150  29.148  29.470  1.00  0.00     0.049 A 
ATOM     40  N   UNL A   1      41.689  26.373  28.902  1.00  0.00    -0.248 NA
ATOM     41  C   UNL A   1      39.830  26.166  27.565  1.00  0.00     0.031 C 
ATOM     42  C   UNL A   1      42.603  28.997  29.482  1.00  0.00     0.029 A 
ATOM     43  N   UNL A   1      40.906  30.194  30.363  1.00  0.00    -0.354 N 
ATOM     44  C   UNL A   1      41.873  25.270  28.109  1.00  0.00     0.074 A 
ATOM     45  C   UNL A   1      40.621  25.100  27.413  1.00  0.00     0.031 C 
ATOM     46  C   UNL A   1      43.104  29.712  30.502  1.00  0.00     0.029 A 
ATOM     47  C   UNL A   1      41.980  30.213  31.272  1.00  0.00     0.049 A 
ATOM     48  H   UNL A   1      40.130  30.800  30.357  1.00  0.00     0.167 HD
ATOM     49  C   UNL A   1      43.117  24.727  28.019  1.00  0.00     0.031 A 
ATOM     50  C   UNL A   1      41.771  29.966  32.600  1.00  0.00     0.031 A 
ATOM     51  C   UNL A   1      44.018  25.239  29.057  1.00  0.00     0.049 A 
ATOM     52  C   UNL A   1      42.489  28.742  33.138  1.00  0.00     0.074 A 
ATOM     53  C   UNL A   1      45.154  26.030  29.068  1.00  0.00     0.029 A 
ATOM     54  N   UNL A   1      43.630  25.117  30.386  1.00  0.00    -0.354 N 
ATOM     55  N   UNL A   1      43.190  27.908  32.421  1.00  0.00    -0.248 NA
ATOM     56  C   UNL A   1      42.373  28.306  34.530  1.00  0.00     0.031 C 
ATOM     57  C   UNL A   1      45.430  26.397  30.419  1.00  0.00     0.029 A 
ATOM     58  C   UNL A   1      44.481  25.802  31.230  1.00  0.00     0.049 A 
ATOM     59  H   UNL A   1      42.844  24.607  30.687  1.00  0.00     0.167 HD
ATOM     60  C   UNL A   1      43.556  26.830  33.187  1.00  0.00     0.074 A 
ATOM     61  C   UNL A   1      43.018  27.128  34.503  1.00  0.00     0.031 C 
ATOM     62  C   UNL A   1      44.223  25.757  32.665  1.00  0.00     0.031 A 
BRANCH  49  63
ATOM     63  C   UNL A   1      43.576  23.864  26.863  1.00  0.00    -0.014 A 
ATOM     64  C   UNL A   1      44.225  24.460  25.765  1.00  0.00     0.009 A 
ATOM     65  C   UNL A   1      43.304  22.489  26.732  1.00  0.00     0.009 A 
ATOM     66  C   UNL A   1      44.556  23.731  24.612  1.00  0.00     0.001 A 
ATOM     67  C   UNL A   1      43.658  21.747  25.598  1.00  0.00     0.001 A 
ATOM     68  C   UNL A   1      44.277  22.372  24.530  1.00  0.00     0.000 A 
ENDBRANCH  49  63
BRANCH  50  69
ATOM     69  C   UNL A   1      40.448  30.452  33.089  1.00  0.00    -0.014 A 
ATOM     70  C   UNL A   1      40.213  31.843  33.121  1.00  0.00     0.009 A 
ATOM     71  C   UNL A   1      39.350  29.588  33.182  1.00  0.00     0.009 A 
ATOM     72  C   UNL A   1      38.911  32.349  33.125  1.00  0.00     0.001 A 
ATOM     73  C   UNL A   1      38.046  30.100  33.203  1.00  0.00     0.001 A 
ATOM     74  C   UNL A   1      37.827  31.476  33.139  1.00  0.00     0.000 A 
ENDBRANCH  50  69
BRANCH  62  75
ATOM     75  C   UNL A   1      44.641  24.516  33.429  1.00  0.00    -0.014 A 
ATOM     76  C   UNL A   1      43.802  23.426  33.692  1.00  0.00     0.009 A 
ATOM     77  C   UNL A   1      45.934  24.459  34.002  1.00  0.00     0.009 A 
ATOM     78  C   UNL A   1      44.259  22.304  34.403  1.00  0.00     0.001 A 
ATOM     79  C   UNL A   1      46.386  23.357  34.732  1.00  0.00     0.001 A 
ATOM     80  C   UNL A   1      45.552  22.267  34.917  1.00  0.00     0.000 A 
ENDBRANCH  62  75
ENDBRANCH  36  37
ENDBRANCH  28  31
ENDBRANCH  26  27
ENDBRANCH  25  26
ENDBRANCH   1  25
TORSDOF 14
ENDMDL
MODEL 3
REMARK VINA RESULT:     -11.9      3.264      7.978
REMARK SMILES Cc1ccc(Nc2c(C)cccc2Cl)c(CC(=O)NCCCCNC(=O)c2ccc(-c3c4nc(c(-c5ccccc5)c5ccc([nH]5)c(-c5ccccc5)c5nc(c(-c6ccccc6)c6ccc3[nH]6)C=C5)C=C4)cc2)c1
REMARK SMILES IDX 21 1 20 2 19 3 17 4 18 5 16 7 15 8 1 9 2 10 3 11 75 12 4 13
REMARK SMILES IDX 5 14 6 15 7 17 8 18 13 19 9 20 10 21 12 22 14 23 11 24 22 25
REMARK SMILES IDX 23 26 24 27 25 28 26 30 27 31 28 32 74 33 29 34 73 35 30 36
REMARK SMILES IDX 31 37 32 38 67 39 33 40 72 41 66 42 68 43 34 44 71 45 65 46
REMARK SMILES IDX 64 47 35 49 57 50 42 51 56 52 43 53 46 54 55 55 69 56 44 57
REMARK SMILES IDX 45 58 54 60 70 61 47 62 36 63 37 64 41 65 38 66 40 67 39 68
REMARK SMILES IDX 58 69 59 70 63 71 60 72 62 73 61 74 48 75 49 76 53 77 50 78
REMARK SMILES IDX 52 79 51 80
REMARK H PARENT 19 6 6 16 24 29 68 48 46 59
REMARK Flexibility Score: inf
ROOT
ATOM      1  C   UNL A   1      31.779  29.730  27.077  1.00  0.00     0.023 C 
ENDROOT
BRANCH   1   2
ATOM      2  C   UNL A   1      32.569  28.475  27.483  1.00  0.00     0.116 C 
BRANCH   2   3
ATOM      3  N   UNL A   1      31.839  27.235  27.282  1.00  0.00    -0.356 N 
ATOM      4  C   UNL A   1      32.140  26.156  26.505  1.00  0.00     0.224 C 
ATOM      5  O   UNL A   1      31.310  25.246  26.425  1.00  0.00    -0.275 OA
ATOM      6  H   UNL A   1      30.997  27.163  27.786  1.00  0.00     0.163 HD
BRANCH   4   7
ATOM      7  C   UNL A   1      33.448  26.069  25.740  1.00  0.00     0.137 C 
BRANCH   7   8
ATOM      8  C   UNL A   1      33.651  24.745  25.040  1.00  0.00    -0.015 A 
ATOM      9  C   UNL A   1      34.793  21.260  26.124  1.00  0.00     0.044 C 
ATOM     10  C   UNL A   1      34.340  22.406  25.272  1.00  0.00    -0.051 A 
ATOM     11  C   UNL A   1      34.314  22.281  23.884  1.00  0.00     0.005 A 
ATOM     12  C   UNL A   1      33.978  23.629  25.842  1.00  0.00     0.009 A 
ATOM     13  C   UNL A   1      33.934  23.363  23.084  1.00  0.00     0.026 A 
ATOM     14  C   UNL A   1      33.599  24.611  23.635  1.00  0.00     0.042 A 
BRANCH  14  15
ATOM     15  N   UNL A   1      33.181  25.681  22.810  1.00  0.00    -0.354 N 
ATOM     16  H   UNL A   1      33.677  25.781  21.966  1.00  0.00     0.167 HD
BRANCH  15  17
ATOM     17  C   UNL A   1      32.151  26.629  23.026  1.00  0.00     0.060 A 
ATOM     18  C   UNL A   1      32.414  28.014  23.122  1.00  0.00    -0.026 A 
ATOM     19  C   UNL A   1      30.825  26.182  23.231  1.00  0.00     0.064 A 
ATOM     20  C   UNL A   1      33.774  28.605  22.859  1.00  0.00     0.046 C 
ATOM     21  C   UNL A   1      31.373  28.894  23.471  1.00  0.00     0.005 A 
ATOM     22  C   UNL A   1      29.799  27.073  23.552  1.00  0.00     0.023 A 
ATOM     23  Cl  UNL A   1      30.426  24.499  23.126  1.00  0.00    -0.082 Cl
ATOM     24  C   UNL A   1      30.078  28.429  23.686  1.00  0.00     0.002 A 
ENDBRANCH  15  17
ENDBRANCH  14  15
ENDBRANCH   7   8
ENDBRANCH   4   7
ENDBRANCH   2   3
ENDBRANCH   1   2
BRANCH   1  25
ATOM     25  C   UNL A   1      32.551  31.049  27.123  1.00  0.00     0.023 C 
BRANCH  25  26
ATOM     26  C   UNL A   1      34.055  30.875  27.243  1.00  0.00     0.116 C 
BRANCH  26  27
ATOM     27  N   UNL A   1      34.689  31.722  28.246  1.00  0.00    -0.352 N 
ATOM     28  C   UNL A   1      35.782  31.453  29.057  1.00  0.00     0.251 C 
ATOM     29  H   UNL A   1      34.284  32.612  28.365  1.00  0.00     0.163 HD
ATOM     30  O   UNL A   1      36.146  32.264  29.893  1.00  0.00    -0.269 OA
BRANCH  28  31
ATOM     31  C   UNL A   1      36.595  30.237  28.796  1.00  0.00     0.039 A 
ATOM     32  C   UNL A   1      36.743  29.328  29.849  1.00  0.00     0.014 A 
ATOM     33  C   UNL A   1      37.394  30.133  27.662  1.00  0.00     0.014 A 
ATOM     34  C   UNL A   1      37.872  28.517  29.889  1.00  0.00     0.010 A 
ATOM     35  C   UNL A   1      38.568  29.412  27.748  1.00  0.00     0.010 A 
ATOM     36  C   UNL A   1      38.843  28.674  28.903  1.00  0.00    -0.014 A 
BRANCH  36  37
ATOM     37  C   UNL A   1      40.224  28.245  29.081  1.00  0.00     0.031 A 
ATOM     38  C   UNL A   1      40.668  26.927  28.600  1.00  0.00     0.074 A 
ATOM     39  C   UNL A   1      41.115  29.085  29.653  1.00  0.00     0.049 A 
ATOM     40  N   UNL A   1      41.737  26.341  29.022  1.00  0.00    -0.248 NA
ATOM     41  C   UNL A   1      39.891  26.111  27.672  1.00  0.00     0.031 C 
ATOM     42  C   UNL A   1      42.571  28.976  29.669  1.00  0.00     0.029 A 
ATOM     43  N   UNL A   1      40.835  30.101  30.569  1.00  0.00    -0.354 N 
ATOM     44  C   UNL A   1      41.958  25.264  28.204  1.00  0.00     0.074 A 
ATOM     45  C   UNL A   1      40.714  25.073  27.499  1.00  0.00     0.031 C 
ATOM     46  C   UNL A   1      43.046  29.682  30.708  1.00  0.00     0.029 A 
ATOM     47  C   UNL A   1      41.905  30.131  31.484  1.00  0.00     0.049 A 
ATOM     48  H   UNL A   1      40.042  30.685  30.574  1.00  0.00     0.167 HD
ATOM     49  C   UNL A   1      43.218  24.760  28.108  1.00  0.00     0.031 A 
ATOM     50  C   UNL A   1      41.697  29.846  32.804  1.00  0.00     0.031 A 
ATOM     51  C   UNL A   1      44.099  25.273  29.162  1.00  0.00     0.049 A 
ATOM     52  C   UNL A   1      42.450  28.631  33.318  1.00  0.00     0.074 A 
ATOM     53  C   UNL A   1      45.211  26.097  29.197  1.00  0.00     0.029 A 
ATOM     54  N   UNL A   1      43.709  25.108  30.486  1.00  0.00    -0.354 N 
ATOM     55  N   UNL A   1      43.177  27.836  32.584  1.00  0.00    -0.248 NA
ATOM     56  C   UNL A   1      42.340  28.159  34.698  1.00  0.00     0.031 C 
ATOM     57  C   UNL A   1      45.470  26.440  30.558  1.00  0.00     0.029 A 
ATOM     58  C   UNL A   1      44.536  25.798  31.350  1.00  0.00     0.049 A 
ATOM     59  H   UNL A   1      42.937  24.568  30.771  1.00  0.00     0.167 HD
ATOM     60  C   UNL A   1      43.572  26.751  33.326  1.00  0.00     0.074 A 
ATOM     61  C   UNL A   1      43.020  27.002  34.646  1.00  0.00     0.031 C 
ATOM     62  C   UNL A   1      44.273  25.711  32.782  1.00  0.00     0.031 A 
BRANCH  49  63
ATOM     63  C   UNL A   1      43.707  23.938  26.934  1.00  0.00    -0.014 A 
ATOM     64  C   UNL A   1      44.821  23.093  27.094  1.00  0.00     0.009 A 
ATOM     65  C   UNL A   1      43.200  24.031  25.624  1.00  0.00     0.009 A 
ATOM     66  C   UNL A   1      45.396  22.408  26.011  1.00  0.00     0.001 A 
ATOM     67  C   UNL A   1      43.749  23.328  24.544  1.00  0.00     0.001 A 
ATOM     68  C   UNL A   1      44.857  22.522  24.736  1.00  0.00     0.000 A 
ENDBRANCH  49  63
BRANCH  50  69
ATOM     69  C   UNL A   1      40.359  30.281  33.298  1.00  0.00    -0.014 A 
ATOM     70  C   UNL A   1      40.127  31.660  33.485  1.00  0.00     0.009 A 
ATOM     71  C   UNL A   1      39.255  29.420  33.248  1.00  0.00     0.009 A 
ATOM     72  C   UNL A   1      38.827  32.172  33.501  1.00  0.00     0.001 A 
ATOM     73  C   UNL A   1      37.953  29.936  33.282  1.00  0.00     0.001 A 
ATOM     74  C   UNL A   1      37.741  31.311  33.372  1.00  0.00     0.000 A 
ENDBRANCH  50  69
BRANCH  62  75
ATOM     75  C   UNL A   1      44.725  24.465  33.519  1.00  0.00    -0.014 A 
ATOM     76  C   UNL A   1      46.034  24.236  33.960  1.00  0.00     0.009 A 
ATOM     77  C   UNL A   1      43.807  23.408  33.719  1.00  0.00     0.009 A 
ATOM     78  C   UNL A   1      46.382  23.060  34.644  1.00  0.00     0.001 A 
ATOM     79  C   UNL A   1      44.153  22.224  34.376  1.00  0.00     0.001 A 
ATOM     80  C   UNL A   1      45.440  22.058  34.857  1.00  0.00     0.000 A 
ENDBRANCH  62  75
ENDBRANCH  36  37
ENDBRANCH  28  31
ENDBRANCH  26  27
ENDBRANCH  25  26
ENDBRANCH   1  25
TORSDOF 14
ENDMDL
