MODEL 1
REMARK VINA RESULT:     -11.7      0.000      0.000
REMARK SMILES Cc1cc(NS(=O)(=O)c2ccc(NC(=O)[C@@H]3CCCC[C@@H]3C(=O)NCCCCNC(=O)c3ccc(-c4c5nc(c(-c6ccccc6)c6ccc([nH]6)c(-c6ccccc6)c6nc(c(-c7ccccc7)c7ccc4[nH]7)C=C6)C=C5)cc3)cc2)no1
REMARK SMILES IDX 25 1 24 2 22 3 23 4 21 6 16 7 17 8 18 9 20 10 19 11 14 12
REMARK SMILES IDX 13 13 15 15 12 16 9 17 10 18 81 19 11 20 80 21 6 22 7 23
REMARK SMILES IDX 8 24 5 25 4 27 1 28 2 29 3 30 83 31 82 32 26 33 27 34 28 35
REMARK SMILES IDX 29 36 30 37 31 39 32 40 33 41 79 42 34 43 78 44 35 45 36 46
REMARK SMILES IDX 37 47 72 48 38 49 77 50 71 51 73 52 39 53 76 54 70 55 69 56
REMARK SMILES IDX 40 58 62 59 47 60 61 61 48 62 51 63 60 64 74 65 49 66 50 67
REMARK SMILES IDX 59 69 75 70 52 71 41 72 42 73 46 74 43 75 45 76 44 77 63 78
REMARK SMILES IDX 64 79 68 80 65 81 67 82 66 83 53 84 54 85 58 86 55 87 57 88
REMARK SMILES IDX 56 89
REMARK H PARENT 24 5 13 14 5 26 29 38 73 57 51 68
REMARK Flexibility Score: inf
ROOT
ATOM      1  C   UNL A   1      33.609  25.564  25.492  1.00  0.00     0.116 C 
ENDROOT
BRANCH   1   2
ATOM      2  N   UNL A   1      33.768  24.474  26.444  1.00  0.00    -0.356 N 
ATOM      3  C   UNL A   1      34.568  23.371  26.405  1.00  0.00     0.223 C 
ATOM      4  O   UNL A   1      34.562  22.621  27.382  1.00  0.00    -0.275 OA
ATOM      5  H   UNL A   1      33.204  24.545  27.248  1.00  0.00     0.163 HD
BRANCH   3   6
ATOM      6  C   UNL A   1      35.446  23.098  25.188  1.00  0.00     0.091 C 
ATOM      7  C   UNL A   1      35.446  21.630  24.697  1.00  0.00     0.091 C 
ATOM      8  C   UNL A   1      36.660  20.744  25.002  1.00  0.00     0.014 C 
ATOM      9  C   UNL A   1      37.978  21.487  25.151  1.00  0.00     0.001 C 
ATOM     10  C   UNL A   1      36.849  23.693  25.385  1.00  0.00     0.014 C 
ATOM     11  C   UNL A   1      37.832  22.725  26.020  1.00  0.00     0.001 C 
BRANCH   7  12
ATOM     12  C   UNL A   1      34.063  20.982  24.787  1.00  0.00     0.228 C 
ATOM     13  N   UNL A   1      32.924  21.301  24.122  1.00  0.00    -0.326 N 
ATOM     14  H   UNL A   1      32.238  20.596  24.174  1.00  0.00     0.169 HD
ATOM     15  O   UNL A   1      33.947  20.031  25.581  1.00  0.00    -0.274 OA
BRANCH  13  16
ATOM     16  C   UNL A   1      32.509  22.412  23.377  1.00  0.00     0.041 A 
ATOM     17  C   UNL A   1      31.893  24.989  22.543  1.00  0.00     0.088 A 
ATOM     18  C   UNL A   1      32.901  24.279  21.889  1.00  0.00     0.024 A 
ATOM     19  C   UNL A   1      31.054  24.347  23.454  1.00  0.00     0.024 A 
ATOM     20  C   UNL A   1      33.192  22.971  22.300  1.00  0.00     0.027 A 
ATOM     21  C   UNL A   1      31.354  23.048  23.853  1.00  0.00     0.027 A 
BRANCH  17  22
ATOM     22  S   UNL A   1      31.741  26.741  22.326  1.00  0.00     0.263 S 
ATOM     23  O   UNL A   1      31.036  27.000  21.086  1.00  0.00    -0.201 OA
ATOM     24  O   UNL A   1      33.054  27.308  22.555  1.00  0.00    -0.201 OA
BRANCH  22  25
ATOM     25  N   UNL A   1      30.791  27.293  23.584  1.00  0.00    -0.261 N 
ATOM     26  H   UNL A   1      30.663  26.675  24.340  1.00  0.00     0.182 HD
BRANCH  25  27
ATOM     27  C   UNL A   1      30.165  28.526  23.686  1.00  0.00     0.183 A 
ATOM     28  C   UNL A   1      27.653  31.107  22.963  1.00  0.00     0.091 C 
ATOM     29  C   UNL A   1      28.709  30.146  23.334  1.00  0.00     0.135 A 
ATOM     30  C   UNL A   1      28.898  28.802  23.124  1.00  0.00     0.096 A 
ATOM     31  O   UNL A   1      29.775  30.637  24.021  1.00  0.00    -0.360 OA
ATOM     32  N   UNL A   1      30.676  29.615  24.262  1.00  0.00    -0.061 NA
ENDBRANCH  25  27
ENDBRANCH  22  25
ENDBRANCH  17  22
ENDBRANCH  13  16
ENDBRANCH   7  12
ENDBRANCH   3   6
ENDBRANCH   1   2
BRANCH   1  33
ATOM     33  C   UNL A   1      34.260  26.859  25.978  1.00  0.00     0.023 C 
BRANCH  33  34
ATOM     34  C   UNL A   1      33.314  28.045  26.133  1.00  0.00     0.023 C 
BRANCH  34  35
ATOM     35  C   UNL A   1      33.185  28.578  27.551  1.00  0.00     0.116 C 
BRANCH  35  36
ATOM     36  N   UNL A   1      33.307  30.026  27.624  1.00  0.00    -0.352 N 
ATOM     37  C   UNL A   1      34.384  30.792  28.001  1.00  0.00     0.251 C 
ATOM     38  H   UNL A   1      32.502  30.530  27.366  1.00  0.00     0.163 HD
ATOM     39  O   UNL A   1      34.265  32.004  28.143  1.00  0.00    -0.269 OA
BRANCH  37  40
ATOM     40  C   UNL A   1      35.684  30.143  28.267  1.00  0.00     0.039 A 
ATOM     41  C   UNL A   1      36.634  30.084  27.246  1.00  0.00     0.014 A 
ATOM     42  C   UNL A   1      35.973  29.620  29.530  1.00  0.00     0.014 A 
ATOM     43  C   UNL A   1      37.904  29.571  27.514  1.00  0.00     0.010 A 
ATOM     44  C   UNL A   1      37.264  29.195  29.820  1.00  0.00     0.010 A 
ATOM     45  C   UNL A   1      38.241  29.160  28.815  1.00  0.00    -0.014 A 
BRANCH  45  46
ATOM     46  C   UNL A   1      39.606  28.684  29.146  1.00  0.00     0.031 A 
ATOM     47  C   UNL A   1      40.568  29.594  29.857  1.00  0.00     0.074 A 
ATOM     48  C   UNL A   1      40.006  27.462  28.742  1.00  0.00     0.049 A 
ATOM     49  N   UNL A   1      41.822  29.388  30.171  1.00  0.00    -0.248 NA
ATOM     50  C   UNL A   1      40.064  30.924  30.238  1.00  0.00     0.031 C 
ATOM     51  C   UNL A   1      39.185  26.499  28.005  1.00  0.00     0.029 A 
ATOM     52  N   UNL A   1      41.211  26.824  28.892  1.00  0.00    -0.354 N 
ATOM     53  C   UNL A   1      42.259  30.566  30.764  1.00  0.00     0.074 A 
ATOM     54  C   UNL A   1      41.156  31.500  30.715  1.00  0.00     0.031 C 
ATOM     55  C   UNL A   1      39.899  25.381  27.798  1.00  0.00     0.029 A 
ATOM     56  C   UNL A   1      41.237  25.563  28.348  1.00  0.00     0.049 A 
ATOM     57  H   UNL A   1      41.983  27.231  29.346  1.00  0.00     0.167 HD
ATOM     58  C   UNL A   1      43.463  30.841  31.319  1.00  0.00     0.031 A 
ATOM     59  C   UNL A   1      42.229  24.654  28.296  1.00  0.00     0.031 A 
ATOM     60  C   UNL A   1      44.555  29.908  31.382  1.00  0.00     0.049 A 
ATOM     61  C   UNL A   1      43.560  24.985  28.912  1.00  0.00     0.074 A 
ATOM     62  C   UNL A   1      45.794  30.067  31.979  1.00  0.00     0.029 A 
ATOM     63  N   UNL A   1      44.539  28.639  30.824  1.00  0.00    -0.354 N 
ATOM     64  N   UNL A   1      43.936  26.078  29.530  1.00  0.00    -0.248 NA
ATOM     65  C   UNL A   1      44.600  23.949  28.831  1.00  0.00     0.031 C 
ATOM     66  C   UNL A   1      46.545  28.911  31.740  1.00  0.00     0.029 A 
ATOM     67  C   UNL A   1      45.754  28.013  31.042  1.00  0.00     0.049 A 
ATOM     68  H   UNL A   1      43.776  28.241  30.345  1.00  0.00     0.167 HD
ATOM     69  C   UNL A   1      45.245  25.853  29.933  1.00  0.00     0.074 A 
ATOM     70  C   UNL A   1      45.593  24.514  29.502  1.00  0.00     0.031 C 
ATOM     71  C   UNL A   1      46.085  26.681  30.602  1.00  0.00     0.031 A 
BRANCH  58  72
ATOM     72  C   UNL A   1      43.656  32.216  31.896  1.00  0.00    -0.014 A 
ATOM     73  C   UNL A   1      44.097  33.284  31.098  1.00  0.00     0.009 A 
ATOM     74  C   UNL A   1      43.383  32.450  33.252  1.00  0.00     0.009 A 
ATOM     75  C   UNL A   1      44.306  34.547  31.657  1.00  0.00     0.001 A 
ATOM     76  C   UNL A   1      43.563  33.721  33.802  1.00  0.00     0.001 A 
ATOM     77  C   UNL A   1      44.035  34.764  33.007  1.00  0.00     0.000 A 
ENDBRANCH  58  72
BRANCH  59  78
ATOM     78  C   UNL A   1      41.994  23.333  27.660  1.00  0.00    -0.014 A 
ATOM     79  C   UNL A   1      41.363  22.304  28.376  1.00  0.00     0.009 A 
ATOM     80  C   UNL A   1      42.390  23.093  26.336  1.00  0.00     0.009 A 
ATOM     81  C   UNL A   1      41.153  21.056  27.787  1.00  0.00     0.001 A 
ATOM     82  C   UNL A   1      42.155  21.852  25.739  1.00  0.00     0.001 A 
ATOM     83  C   UNL A   1      41.544  20.832  26.468  1.00  0.00     0.000 A 
ENDBRANCH  59  78
BRANCH  71  84
ATOM     84  C   UNL A   1      47.450  26.151  30.936  1.00  0.00    -0.014 A 
ATOM     85  C   UNL A   1      48.483  26.148  29.987  1.00  0.00     0.009 A 
ATOM     86  C   UNL A   1      47.715  25.683  32.232  1.00  0.00     0.009 A 
ATOM     87  C   UNL A   1      49.748  25.659  30.321  1.00  0.00     0.001 A 
ATOM     88  C   UNL A   1      48.987  25.221  32.573  1.00  0.00     0.001 A 
ATOM     89  C   UNL A   1      49.999  25.201  31.614  1.00  0.00     0.000 A 
ENDBRANCH  71  84
ENDBRANCH  45  46
ENDBRANCH  37  40
ENDBRANCH  35  36
ENDBRANCH  34  35
ENDBRANCH  33  34
ENDBRANCH   1  33
TORSDOF 16
ENDMDL
MODEL 2
REMARK VINA RESULT:     -11.6      0.708      5.706
REMARK SMILES Cc1cc(NS(=O)(=O)c2ccc(NC(=O)[C@@H]3CCCC[C@@H]3C(=O)NCCCCNC(=O)c3ccc(-c4c5nc(c(-c6ccccc6)c6ccc([nH]6)c(-c6ccccc6)c6nc(c(-c7ccccc7)c7ccc4[nH]7)C=C6)C=C5)cc3)cc2)no1
REMARK SMILES IDX 25 1 24 2 22 3 23 4 21 6 16 7 17 8 18 9 20 10 19 11 14 12
REMARK SMILES IDX 13 13 15 15 12 16 9 17 10 18 81 19 11 20 80 21 6 22 7 23
REMARK SMILES IDX 8 24 5 25 4 27 1 28 2 29 3 30 83 31 82 32 26 33 27 34 28 35
REMARK SMILES IDX 29 36 30 37 31 39 32 40 33 41 79 42 34 43 78 44 35 45 36 46
REMARK SMILES IDX 37 47 72 48 38 49 77 50 71 51 73 52 39 53 76 54 70 55 69 56
REMARK SMILES IDX 40 58 62 59 47 60 61 61 48 62 51 63 60 64 74 65 49 66 50 67
REMARK SMILES IDX 59 69 75 70 52 71 41 72 42 73 46 74 43 75 45 76 44 77 63 78
REMARK SMILES IDX 64 79 68 80 65 81 67 82 66 83 53 84 54 85 58 86 55 87 57 88
REMARK SMILES IDX 56 89
REMARK H PARENT 24 5 13 14 5 26 29 38 73 57 51 68
REMARK Flexibility Score: inf
ROOT
ATOM      1  C   UNL A   1      33.146  25.598  25.944  1.00  0.00     0.116 C 
ENDROOT
BRANCH   1   2
ATOM      2  N   UNL A   1      33.410  24.400  26.729  1.00  0.00    -0.356 N 
ATOM      3  C   UNL A   1      34.324  23.404  26.549  1.00  0.00     0.223 C 
ATOM      4  O   UNL A   1      34.387  22.520  27.404  1.00  0.00    -0.275 OA
ATOM      5  H   UNL A   1      32.834  24.292  27.520  1.00  0.00     0.163 HD
BRANCH   3   6
ATOM      6  C   UNL A   1      35.239  23.409  25.328  1.00  0.00     0.091 C 
ATOM      7  C   UNL A   1      35.381  22.045  24.611  1.00  0.00     0.091 C 
ATOM      8  C   UNL A   1      36.667  21.232  24.806  1.00  0.00     0.014 C 
ATOM      9  C   UNL A   1      37.909  22.057  25.106  1.00  0.00     0.001 C 
ATOM     10  C   UNL A   1      36.578  24.087  25.655  1.00  0.00     0.014 C 
ATOM     11  C   UNL A   1      37.638  23.121  26.156  1.00  0.00     0.001 C 
BRANCH   7  12
ATOM     12  C   UNL A   1      34.062  21.270  24.560  1.00  0.00     0.228 C 
ATOM     13  N   UNL A   1      32.928  21.555  23.871  1.00  0.00    -0.326 N 
ATOM     14  H   UNL A   1      32.311  20.790  23.813  1.00  0.00     0.169 HD
ATOM     15  O   UNL A   1      34.001  20.233  25.245  1.00  0.00    -0.274 OA
BRANCH  13  16
ATOM     16  C   UNL A   1      32.444  22.698  23.222  1.00  0.00     0.041 A 
ATOM     17  C   UNL A   1      31.650  25.289  22.615  1.00  0.00     0.088 A 
ATOM     18  C   UNL A   1      32.720  24.720  21.923  1.00  0.00     0.024 A 
ATOM     19  C   UNL A   1      30.846  24.505  23.442  1.00  0.00     0.024 A 
ATOM     20  C   UNL A   1      33.102  23.405  22.219  1.00  0.00     0.027 A 
ATOM     21  C   UNL A   1      31.236  23.199  23.726  1.00  0.00     0.027 A 
BRANCH  17  22
ATOM     22  S   UNL A   1      31.370  27.039  22.558  1.00  0.00     0.263 S 
ATOM     23  O   UNL A   1      31.018  27.412  21.202  1.00  0.00    -0.201 OA
ATOM     24  O   UNL A   1      32.493  27.665  23.223  1.00  0.00    -0.201 OA
BRANCH  22  25
ATOM     25  N   UNL A   1      30.049  27.339  23.535  1.00  0.00    -0.261 N 
ATOM     26  H   UNL A   1      29.957  26.769  24.333  1.00  0.00     0.182 HD
BRANCH  25  27
ATOM     27  C   UNL A   1      29.069  28.302  23.351  1.00  0.00     0.183 A 
ATOM     28  C   UNL A   1      27.628  31.680  23.273  1.00  0.00     0.091 C 
ATOM     29  C   UNL A   1      28.101  30.283  23.264  1.00  0.00     0.135 A 
ATOM     30  C   UNL A   1      29.337  29.690  23.338  1.00  0.00     0.096 A 
ATOM     31  O   UNL A   1      27.152  29.313  23.191  1.00  0.00    -0.360 OA
ATOM     32  N   UNL A   1      27.762  28.071  23.221  1.00  0.00    -0.061 NA
ENDBRANCH  25  27
ENDBRANCH  22  25
ENDBRANCH  17  22
ENDBRANCH  13  16
ENDBRANCH   7  12
ENDBRANCH   3   6
ENDBRANCH   1   2
BRANCH   1  33
ATOM     33  C   UNL A   1      32.039  26.459  26.553  1.00  0.00     0.023 C 
BRANCH  33  34
ATOM     34  C   UNL A   1      32.292  27.962  26.523  1.00  0.00     0.023 C 
BRANCH  34  35
ATOM     35  C   UNL A   1      33.550  28.413  27.249  1.00  0.00     0.116 C 
BRANCH  35  36
ATOM     36  N   UNL A   1      33.524  29.824  27.603  1.00  0.00    -0.352 N 
ATOM     37  C   UNL A   1      34.509  30.601  28.163  1.00  0.00     0.251 C 
ATOM     38  H   UNL A   1      32.677  30.289  27.415  1.00  0.00     0.163 HD
ATOM     39  O   UNL A   1      34.265  31.745  28.530  1.00  0.00    -0.269 OA
BRANCH  37  40
ATOM     40  C   UNL A   1      35.862  30.039  28.351  1.00  0.00     0.039 A 
ATOM     41  C   UNL A   1      36.779  30.112  27.300  1.00  0.00     0.014 A 
ATOM     42  C   UNL A   1      36.233  29.468  29.570  1.00  0.00     0.014 A 
ATOM     43  C   UNL A   1      38.092  29.684  27.498  1.00  0.00     0.010 A 
ATOM     44  C   UNL A   1      37.561  29.128  29.796  1.00  0.00     0.010 A 
ATOM     45  C   UNL A   1      38.504  29.227  28.762  1.00  0.00    -0.014 A 
BRANCH  45  46
ATOM     46  C   UNL A   1      39.911  28.839  29.023  1.00  0.00     0.031 A 
ATOM     47  C   UNL A   1      40.400  27.473  28.629  1.00  0.00     0.074 A 
ATOM     48  C   UNL A   1      40.728  29.685  29.680  1.00  0.00     0.049 A 
ATOM     49  N   UNL A   1      41.571  26.923  28.834  1.00  0.00    -0.248 NA
ATOM     50  C   UNL A   1      39.437  26.597  27.942  1.00  0.00     0.031 C 
ATOM     51  C   UNL A   1      40.364  31.021  30.156  1.00  0.00     0.029 A 
ATOM     52  N   UNL A   1      42.037  29.541  30.065  1.00  0.00    -0.354 N 
ATOM     53  C   UNL A   1      41.474  25.635  28.322  1.00  0.00     0.074 A 
ATOM     54  C   UNL A   1      40.119  25.466  27.849  1.00  0.00     0.031 C 
ATOM     55  C   UNL A   1      41.434  31.586  30.739  1.00  0.00     0.029 A 
ATOM     56  C   UNL A   1      42.544  30.640  30.716  1.00  0.00     0.049 A 
ATOM     57  H   UNL A   1      42.563  28.727  29.893  1.00  0.00     0.167 HD
ATOM     58  C   UNL A   1      42.434  24.684  28.233  1.00  0.00     0.031 A 
ATOM     59  C   UNL A   1      43.765  30.860  31.237  1.00  0.00     0.031 A 
ATOM     60  C   UNL A   1      43.787  24.856  28.690  1.00  0.00     0.049 A 
ATOM     61  C   UNL A   1      44.812  29.786  31.134  1.00  0.00     0.074 A 
ATOM     62  C   UNL A   1      44.851  23.977  28.588  1.00  0.00     0.029 A 
ATOM     63  N   UNL A   1      44.260  25.987  29.337  1.00  0.00    -0.354 N 
ATOM     64  N   UNL A   1      44.726  28.599  30.585  1.00  0.00    -0.248 NA
ATOM     65  C   UNL A   1      46.128  30.090  31.714  1.00  0.00     0.031 C 
ATOM     66  C   UNL A   1      45.957  24.557  29.218  1.00  0.00     0.029 A 
ATOM     67  C   UNL A   1      45.595  25.818  29.663  1.00  0.00     0.049 A 
ATOM     68  H   UNL A   1      43.728  26.791  29.535  1.00  0.00     0.167 HD
ATOM     69  C   UNL A   1      45.981  28.023  30.731  1.00  0.00     0.074 A 
ATOM     70  C   UNL A   1      46.814  28.998  31.407  1.00  0.00     0.031 C 
ATOM     71  C   UNL A   1      46.408  26.798  30.340  1.00  0.00     0.031 A 
BRANCH  58  72
ATOM     72  C   UNL A   1      42.041  23.367  27.623  1.00  0.00    -0.014 A 
ATOM     73  C   UNL A   1      41.481  22.342  28.402  1.00  0.00     0.009 A 
ATOM     74  C   UNL A   1      42.225  23.152  26.249  1.00  0.00     0.009 A 
ATOM     75  C   UNL A   1      41.155  21.112  27.826  1.00  0.00     0.001 A 
ATOM     76  C   UNL A   1      41.869  21.932  25.670  1.00  0.00     0.001 A 
ATOM     77  C   UNL A   1      41.347  20.909  26.461  1.00  0.00     0.000 A 
ENDBRANCH  58  72
BRANCH  59  78
ATOM     78  C   UNL A   1      44.074  32.162  31.880  1.00  0.00    -0.014 A 
ATOM     79  C   UNL A   1      44.576  33.228  31.117  1.00  0.00     0.009 A 
ATOM     80  C   UNL A   1      43.864  32.353  33.254  1.00  0.00     0.009 A 
ATOM     81  C   UNL A   1      44.882  34.449  31.720  1.00  0.00     0.001 A 
ATOM     82  C   UNL A   1      44.145  33.584  33.851  1.00  0.00     0.001 A 
ATOM     83  C   UNL A   1      44.661  34.628  33.085  1.00  0.00     0.000 A 
ENDBRANCH  59  78
BRANCH  71  84
ATOM     84  C   UNL A   1      47.846  26.454  30.604  1.00  0.00    -0.014 A 
ATOM     85  C   UNL A   1      48.238  25.826  31.796  1.00  0.00     0.009 A 
ATOM     86  C   UNL A   1      48.816  26.728  29.628  1.00  0.00     0.009 A 
ATOM     87  C   UNL A   1      49.579  25.507  32.017  1.00  0.00     0.001 A 
ATOM     88  C   UNL A   1      50.152  26.383  29.839  1.00  0.00     0.001 A 
ATOM     89  C   UNL A   1      50.533  25.781  31.037  1.00  0.00     0.000 A 
ENDBRANCH  71  84
ENDBRANCH  45  46
ENDBRANCH  37  40
ENDBRANCH  35  36
ENDBRANCH  34  35
ENDBRANCH  33  34
ENDBRANCH   1  33
TORSDOF 16
ENDMDL
MODEL 3
REMARK VINA RESULT:     -11.1      2.081      6.967
REMARK SMILES Cc1cc(NS(=O)(=O)c2ccc(NC(=O)[C@@H]3CCCC[C@@H]3C(=O)NCCCCNC(=O)c3ccc(-c4c5nc(c(-c6ccccc6)c6ccc([nH]6)c(-c6ccccc6)c6nc(c(-c7ccccc7)c7ccc4[nH]7)C=C6)C=C5)cc3)cc2)no1
REMARK SMILES IDX 25 1 24 2 22 3 23 4 21 6 16 7 17 8 18 9 20 10 19 11 14 12
REMARK SMILES IDX 13 13 15 15 12 16 9 17 10 18 81 19 11 20 80 21 6 22 7 23
REMARK SMILES IDX 8 24 5 25 4 27 1 28 2 29 3 30 83 31 82 32 26 33 27 34 28 35
REMARK SMILES IDX 29 36 30 37 31 39 32 40 33 41 79 42 34 43 78 44 35 45 36 46
REMARK SMILES IDX 37 47 72 48 38 49 77 50 71 51 73 52 39 53 76 54 70 55 69 56
REMARK SMILES IDX 40 58 62 59 47 60 61 61 48 62 51 63 60 64 74 65 49 66 50 67
REMARK SMILES IDX 59 69 75 70 52 71 41 72 42 73 46 74 43 75 45 76 44 77 63 78
REMARK SMILES IDX 64 79 68 80 65 81 67 82 66 83 53 84 54 85 58 86 55 87 57 88
REMARK SMILES IDX 56 89
REMARK H PARENT 24 5 13 14 5 26 29 38 73 57 51 68
REMARK Flexibility Score: inf
ROOT
ATOM      1  C   UNL A   1      35.643  19.613  24.696  1.00  0.00     0.116 C 
ENDROOT
BRANCH   1   2
ATOM      2  N   UNL A   1      35.586  21.068  24.638  1.00  0.00    -0.356 N 
ATOM      3  C   UNL A   1      34.622  21.936  25.059  1.00  0.00     0.223 C 
ATOM      4  O   UNL A   1      34.847  23.141  24.951  1.00  0.00    -0.275 OA
ATOM      5  H   UNL A   1      36.372  21.494  24.228  1.00  0.00     0.163 HD
BRANCH   3   6
ATOM      6  C   UNL A   1      33.320  21.411  25.656  1.00  0.00     0.091 C 
ATOM      7  C   UNL A   1      32.039  21.809  24.882  1.00  0.00     0.091 C 
ATOM      8  C   UNL A   1      31.138  22.911  25.452  1.00  0.00     0.014 C 
ATOM      9  C   UNL A   1      31.178  23.056  26.966  1.00  0.00     0.001 C 
ATOM     10  C   UNL A   1      33.256  21.700  27.163  1.00  0.00     0.014 C 
ATOM     11  C   UNL A   1      32.602  23.030  27.497  1.00  0.00     0.001 C 
BRANCH   7  12
ATOM     12  C   UNL A   1      32.238  21.779  23.365  1.00  0.00     0.228 C 
ATOM     13  N   UNL A   1      32.537  22.799  22.521  1.00  0.00    -0.326 N 
ATOM     14  H   UNL A   1      32.845  22.490  21.638  1.00  0.00     0.169 HD
ATOM     15  O   UNL A   1      32.106  20.674  22.810  1.00  0.00    -0.274 OA
BRANCH  13  16
ATOM     16  C   UNL A   1      32.506  24.195  22.631  1.00  0.00     0.041 A 
ATOM     17  C   UNL A   1      32.162  26.794  23.547  1.00  0.00     0.088 A 
ATOM     18  C   UNL A   1      33.448  26.329  23.270  1.00  0.00     0.024 A 
ATOM     19  C   UNL A   1      31.045  26.051  23.164  1.00  0.00     0.024 A 
ATOM     20  C   UNL A   1      33.613  25.024  22.787  1.00  0.00     0.027 A 
ATOM     21  C   UNL A   1      31.223  24.757  22.685  1.00  0.00     0.027 A 
BRANCH  17  22
ATOM     22  S   UNL A   1      31.925  28.270  24.499  1.00  0.00     0.263 S 
ATOM     23  O   UNL A   1      32.817  29.298  24.000  1.00  0.00    -0.201 OA
ATOM     24  O   UNL A   1      31.962  27.880  25.893  1.00  0.00    -0.201 OA
BRANCH  22  25
ATOM     25  N   UNL A   1      30.355  28.768  24.218  1.00  0.00    -0.261 N 
ATOM     26  H   UNL A   1      29.677  28.462  24.863  1.00  0.00     0.182 HD
BRANCH  25  27
ATOM     27  C   UNL A   1      29.900  29.565  23.179  1.00  0.00     0.183 A 
ATOM     28  C   UNL A   1      28.116  32.362  21.601  1.00  0.00     0.091 C 
ATOM     29  C   UNL A   1      28.871  31.208  22.125  1.00  0.00     0.135 A 
ATOM     30  C   UNL A   1      29.280  30.820  23.377  1.00  0.00     0.096 A 
ATOM     31  O   UNL A   1      29.260  30.267  21.224  1.00  0.00    -0.360 OA
ATOM     32  N   UNL A   1      29.927  29.249  21.883  1.00  0.00    -0.061 NA
ENDBRANCH  25  27
ENDBRANCH  22  25
ENDBRANCH  17  22
ENDBRANCH  13  16
ENDBRANCH   7  12
ENDBRANCH   3   6
ENDBRANCH   1   2
BRANCH   1  33
ATOM     33  C   UNL A   1      37.063  19.097  24.931  1.00  0.00     0.023 C 
BRANCH  33  34
ATOM     34  C   UNL A   1      38.166  20.140  24.791  1.00  0.00     0.023 C 
BRANCH  34  35
ATOM     35  C   UNL A   1      39.108  20.238  25.980  1.00  0.00     0.116 C 
BRANCH  35  36
ATOM     36  N   UNL A   1      40.207  19.286  25.911  1.00  0.00    -0.352 N 
ATOM     37  C   UNL A   1      41.553  19.494  26.085  1.00  0.00     0.251 C 
ATOM     38  H   UNL A   1      39.947  18.358  25.710  1.00  0.00     0.163 HD
ATOM     39  O   UNL A   1      42.357  18.599  25.847  1.00  0.00    -0.269 OA
BRANCH  37  40
ATOM     40  C   UNL A   1      42.035  20.817  26.532  1.00  0.00     0.039 A 
ATOM     41  C   UNL A   1      42.422  21.757  25.575  1.00  0.00     0.014 A 
ATOM     42  C   UNL A   1      42.076  21.138  27.891  1.00  0.00     0.014 A 
ATOM     43  C   UNL A   1      42.775  23.046  25.976  1.00  0.00     0.010 A 
ATOM     44  C   UNL A   1      42.339  22.445  28.282  1.00  0.00     0.010 A 
ATOM     45  C   UNL A   1      42.696  23.412  27.331  1.00  0.00    -0.014 A 
BRANCH  45  46
ATOM     46  C   UNL A   1      42.991  24.795  27.777  1.00  0.00     0.031 A 
ATOM     47  C   UNL A   1      44.411  25.216  28.033  1.00  0.00     0.074 A 
ATOM     48  C   UNL A   1      41.979  25.649  28.023  1.00  0.00     0.049 A 
ATOM     49  N   UNL A   1      44.865  26.355  28.491  1.00  0.00    -0.248 NA
ATOM     50  C   UNL A   1      45.457  24.215  27.768  1.00  0.00     0.031 C 
ATOM     51  C   UNL A   1      40.554  25.351  27.858  1.00  0.00     0.029 A 
ATOM     52  N   UNL A   1      41.996  26.946  28.472  1.00  0.00    -0.354 N 
ATOM     53  C   UNL A   1      46.242  26.197  28.590  1.00  0.00     0.074 A 
ATOM     54  C   UNL A   1      46.543  24.838  28.198  1.00  0.00     0.031 C 
ATOM     55  C   UNL A   1      39.838  26.443  28.168  1.00  0.00     0.029 A 
ATOM     56  C   UNL A   1      40.746  27.503  28.593  1.00  0.00     0.049 A 
ATOM     57  H   UNL A   1      42.825  27.430  28.687  1.00  0.00     0.167 HD
ATOM     58  C   UNL A   1      47.177  27.107  28.953  1.00  0.00     0.031 A 
ATOM     59  C   UNL A   1      40.372  28.730  29.002  1.00  0.00     0.031 A 
ATOM     60  C   UNL A   1      46.880  28.463  29.329  1.00  0.00     0.049 A 
ATOM     61  C   UNL A   1      41.427  29.721  29.409  1.00  0.00     0.074 A 
ATOM     62  C   UNL A   1      47.760  29.481  29.653  1.00  0.00     0.029 A 
ATOM     63  N   UNL A   1      45.602  28.989  29.433  1.00  0.00    -0.354 N 
ATOM     64  N   UNL A   1      42.730  29.579  29.430  1.00  0.00    -0.248 NA
ATOM     65  C   UNL A   1      40.957  31.046  29.837  1.00  0.00     0.031 C 
ATOM     66  C   UNL A   1      47.011  30.611  29.999  1.00  0.00     0.029 A 
ATOM     67  C   UNL A   1      45.668  30.311  29.839  1.00  0.00     0.049 A 
ATOM     68  H   UNL A   1      44.770  28.497  29.244  1.00  0.00     0.167 HD
ATOM     69  C   UNL A   1      43.236  30.801  29.850  1.00  0.00     0.074 A 
ATOM     70  C   UNL A   1      42.101  31.678  30.057  1.00  0.00     0.031 C 
ATOM     71  C   UNL A   1      44.527  31.167  30.045  1.00  0.00     0.031 A 
BRANCH  58  72
ATOM     72  C   UNL A   1      48.610  26.652  28.967  1.00  0.00    -0.014 A 
ATOM     73  C   UNL A   1      49.204  26.152  30.137  1.00  0.00     0.009 A 
ATOM     74  C   UNL A   1      49.374  26.715  27.792  1.00  0.00     0.009 A 
ATOM     75  C   UNL A   1      50.547  25.768  30.141  1.00  0.00     0.001 A 
ATOM     76  C   UNL A   1      50.707  26.301  27.791  1.00  0.00     0.001 A 
ATOM     77  C   UNL A   1      51.296  25.840  28.968  1.00  0.00     0.000 A 
ENDBRANCH  58  72
BRANCH  59  78
ATOM     78  C   UNL A   1      38.934  29.100  29.022  1.00  0.00    -0.014 A 
ATOM     79  C   UNL A   1      38.334  29.669  27.888  1.00  0.00     0.009 A 
ATOM     80  C   UNL A   1      38.152  28.882  30.166  1.00  0.00     0.009 A 
ATOM     81  C   UNL A   1      36.985  30.032  27.908  1.00  0.00     0.001 A 
ATOM     82  C   UNL A   1      36.798  29.222  30.174  1.00  0.00     0.001 A 
ATOM     83  C   UNL A   1      36.217  29.804  29.048  1.00  0.00     0.000 A 
ENDBRANCH  59  78
BRANCH  71  84
ATOM     84  C   UNL A   1      44.782  32.584  30.475  1.00  0.00    -0.014 A 
ATOM     85  C   UNL A   1      44.876  32.927  31.833  1.00  0.00     0.009 A 
ATOM     86  C   UNL A   1      44.969  33.581  29.506  1.00  0.00     0.009 A 
ATOM     87  C   UNL A   1      45.122  34.249  32.210  1.00  0.00     0.001 A 
ATOM     88  C   UNL A   1      45.243  34.896  29.885  1.00  0.00     0.001 A 
ATOM     89  C   UNL A   1      45.310  35.229  31.237  1.00  0.00     0.000 A 
ENDBRANCH  71  84
ENDBRANCH  45  46
ENDBRANCH  37  40
ENDBRANCH  35  36
ENDBRANCH  34  35
ENDBRANCH  33  34
ENDBRANCH   1  33
TORSDOF 16
ENDMDL
