MODEL 1
REMARK VINA RESULT:     -11.4      0.000      0.000
REMARK SMILES CC[C@@H](C)c1ccccc1NC(=O)[C@@H]1[C@@H](C(=O)NCCCCNC(=O)c2ccc(-c3c4nc(c(-c5ccccc5)c5ccc([nH]5)c(-c5ccccc5)c5nc(c(-c6ccccc6)c6ccc3[nH]6)C=C5)C=C4)cc2)[C@@H]2C=C[C@H]1C2
REMARK SMILES IDX 19 1 18 2 16 3 17 4 15 6 14 7 77 8 74 9 76 10 78 11 75 12
REMARK SMILES IDX 12 13 11 14 13 16 10 17 5 18 6 19 7 20 9 21 8 22 3 23 4 24
REMARK SMILES IDX 2 25 1 26 20 27 21 28 22 29 23 30 24 31 25 33 26 34 27 35
REMARK SMILES IDX 73 36 28 37 72 38 29 39 30 40 31 41 66 42 32 43 71 44 65 45
REMARK SMILES IDX 67 46 33 47 70 48 64 49 63 50 34 52 56 53 41 54 55 55 42 56
REMARK SMILES IDX 45 57 54 58 68 59 43 60 44 61 53 63 69 64 46 65 35 66 36 67
REMARK SMILES IDX 40 68 37 69 39 70 38 71 57 72 58 73 62 74 59 75 61 76 60 77
REMARK SMILES IDX 47 78 48 79 52 80 49 81 51 82 50 83
REMARK H PARENT 18 5 11 15 23 32 67 51 45 62
REMARK Flexibility Score: inf
ROOT
ATOM      1  C   UNL A   1      33.611  29.172  26.469  1.00  0.00     0.116 C 
ENDROOT
BRANCH   1   2
ATOM      2  N   UNL A   1      33.813  29.329  25.042  1.00  0.00    -0.356 N 
ATOM      3  C   UNL A   1      33.347  28.651  23.957  1.00  0.00     0.224 C 
ATOM      4  O   UNL A   1      33.649  29.149  22.863  1.00  0.00    -0.275 OA
ATOM      5  H   UNL A   1      34.407  30.079  24.809  1.00  0.00     0.163 HD
BRANCH   3   6
ATOM      6  C   UNL A   1      32.601  27.309  23.967  1.00  0.00     0.098 C 
ATOM      7  C   UNL A   1      33.352  26.001  24.357  1.00  0.00     0.099 C 
ATOM      8  C   UNL A   1      33.217  25.147  23.063  1.00  0.00     0.025 C 
ATOM      9  C   UNL A   1      32.098  26.999  22.526  1.00  0.00     0.025 C 
ATOM     10  C   UNL A   1      31.774  24.747  22.894  1.00  0.00    -0.027 C 
ATOM     11  C   UNL A   1      33.274  26.208  21.956  1.00  0.00     0.017 C 
ATOM     12  C   UNL A   1      31.096  25.863  22.588  1.00  0.00    -0.027 C 
BRANCH   7  13
ATOM     13  C   UNL A   1      32.861  25.326  25.639  1.00  0.00     0.228 C 
ATOM     14  N   UNL A   1      33.501  24.208  26.124  1.00  0.00    -0.326 N 
ATOM     15  H   UNL A   1      33.119  23.825  26.946  1.00  0.00     0.169 HD
ATOM     16  O   UNL A   1      31.898  25.755  26.278  1.00  0.00    -0.274 OA
BRANCH  14  17
ATOM     17  C   UNL A   1      34.625  23.532  25.610  1.00  0.00     0.044 A 
ATOM     18  C   UNL A   1      34.454  22.323  24.908  1.00  0.00    -0.022 A 
ATOM     19  C   UNL A   1      35.538  21.862  24.136  1.00  0.00     0.006 A 
ATOM     20  C   UNL A   1      36.785  22.490  24.176  1.00  0.00     0.000 A 
ATOM     21  C   UNL A   1      35.911  24.072  25.751  1.00  0.00     0.026 A 
ATOM     22  C   UNL A   1      36.987  23.563  25.030  1.00  0.00     0.002 A 
BRANCH  18  23
ATOM     23  C   UNL A   1      33.147  21.531  24.964  1.00  0.00     0.018 C 
ATOM     24  C   UNL A   1      33.278  20.219  25.755  1.00  0.00     0.013 C 
BRANCH  23  25
ATOM     25  C   UNL A   1      32.555  21.300  23.561  1.00  0.00     0.005 C 
ATOM     26  C   UNL A   1      32.346  19.823  23.241  1.00  0.00     0.004 C 
ENDBRANCH  23  25
ENDBRANCH  18  23
ENDBRANCH  14  17
ENDBRANCH   7  13
ENDBRANCH   3   6
ENDBRANCH   1   2
BRANCH   1  27
ATOM     27  C   UNL A   1      32.244  29.614  26.972  1.00  0.00     0.023 C 
BRANCH  27  28
ATOM     28  C   UNL A   1      31.942  31.101  26.837  1.00  0.00     0.023 C 
BRANCH  28  29
ATOM     29  C   UNL A   1      33.058  32.049  27.262  1.00  0.00     0.116 C 
BRANCH  29  30
ATOM     30  N   UNL A   1      32.599  33.378  27.626  1.00  0.00    -0.352 N 
ATOM     31  C   UNL A   1      33.181  34.291  28.491  1.00  0.00     0.251 C 
ATOM     32  H   UNL A   1      31.762  33.672  27.199  1.00  0.00     0.163 HD
ATOM     33  O   UNL A   1      32.637  35.352  28.740  1.00  0.00    -0.269 OA
BRANCH  31  34
ATOM     34  C   UNL A   1      34.452  33.923  29.150  1.00  0.00     0.039 A 
ATOM     35  C   UNL A   1      34.403  33.225  30.358  1.00  0.00     0.014 A 
ATOM     36  C   UNL A   1      35.669  34.172  28.517  1.00  0.00     0.014 A 
ATOM     37  C   UNL A   1      35.578  32.676  30.880  1.00  0.00     0.010 A 
ATOM     38  C   UNL A   1      36.823  33.561  28.996  1.00  0.00     0.010 A 
ATOM     39  C   UNL A   1      36.785  32.790  30.170  1.00  0.00    -0.014 A 
BRANCH  39  40
ATOM     40  C   UNL A   1      38.019  32.093  30.610  1.00  0.00     0.031 A 
ATOM     41  C   UNL A   1      38.919  32.735  31.627  1.00  0.00     0.074 A 
ATOM     42  C   UNL A   1      38.384  30.937  30.021  1.00  0.00     0.049 A 
ATOM     43  N   UNL A   1      40.102  32.357  32.039  1.00  0.00    -0.248 NA
ATOM     44  C   UNL A   1      38.436  33.983  32.240  1.00  0.00     0.031 C 
ATOM     45  C   UNL A   1      37.622  30.226  28.990  1.00  0.00     0.029 A 
ATOM     46  N   UNL A   1      39.505  30.163  30.195  1.00  0.00    -0.354 N 
ATOM     47  C   UNL A   1      40.518  33.336  32.932  1.00  0.00     0.074 A 
ATOM     48  C   UNL A   1      39.479  34.343  32.973  1.00  0.00     0.031 C 
ATOM     49  C   UNL A   1      38.288  29.114  28.640  1.00  0.00     0.029 A 
ATOM     50  C   UNL A   1      39.542  29.054  29.382  1.00  0.00     0.049 A 
ATOM     51  H   UNL A   1      40.216  30.382  30.839  1.00  0.00     0.167 HD
ATOM     52  C   UNL A   1      41.654  33.386  33.665  1.00  0.00     0.031 A 
ATOM     53  C   UNL A   1      40.485  28.104  29.243  1.00  0.00     0.031 A 
ATOM     54  C   UNL A   1      42.677  32.377  33.643  1.00  0.00     0.049 A 
ATOM     55  C   UNL A   1      41.740  28.183  30.065  1.00  0.00     0.074 A 
ATOM     56  C   UNL A   1      43.836  32.308  34.397  1.00  0.00     0.029 A 
ATOM     57  N   UNL A   1      42.662  31.258  32.827  1.00  0.00    -0.354 N 
ATOM     58  N   UNL A   1      42.091  29.085  30.949  1.00  0.00    -0.248 NA
ATOM     59  C   UNL A   1      42.727  27.110  29.874  1.00  0.00     0.031 C 
ATOM     60  C   UNL A   1      44.542  31.166  34.007  1.00  0.00     0.029 A 
ATOM     61  C   UNL A   1      43.800  30.501  33.044  1.00  0.00     0.049 A 
ATOM     62  H   UNL A   1      41.948  31.035  32.185  1.00  0.00     0.167 HD
ATOM     63  C   UNL A   1      43.323  28.674  31.440  1.00  0.00     0.074 A 
ATOM     64  C   UNL A   1      43.655  27.437  30.763  1.00  0.00     0.031 C 
ATOM     65  C   UNL A   1      44.110  29.268  32.370  1.00  0.00     0.031 A 
BRANCH  52  66
ATOM     66  C   UNL A   1      41.848  34.582  34.553  1.00  0.00    -0.014 A 
ATOM     67  C   UNL A   1      41.464  34.553  35.903  1.00  0.00     0.009 A 
ATOM     68  C   UNL A   1      42.444  35.744  34.039  1.00  0.00     0.009 A 
ATOM     69  C   UNL A   1      41.638  35.679  36.712  1.00  0.00     0.001 A 
ATOM     70  C   UNL A   1      42.643  36.857  34.857  1.00  0.00     0.001 A 
ATOM     71  C   UNL A   1      42.231  36.827  36.189  1.00  0.00     0.000 A 
ENDBRANCH  52  66
BRANCH  53  72
ATOM     72  C   UNL A   1      40.278  26.981  28.291  1.00  0.00    -0.014 A 
ATOM     73  C   UNL A   1      39.516  25.864  28.668  1.00  0.00     0.009 A 
ATOM     74  C   UNL A   1      40.847  27.013  27.008  1.00  0.00     0.009 A 
ATOM     75  C   UNL A   1      39.351  24.791  27.790  1.00  0.00     0.001 A 
ATOM     76  C   UNL A   1      40.658  25.949  26.123  1.00  0.00     0.001 A 
ATOM     77  C   UNL A   1      39.918  24.836  26.517  1.00  0.00     0.000 A 
ENDBRANCH  53  72
BRANCH  65  78
ATOM     78  C   UNL A   1      45.384  28.569  32.744  1.00  0.00    -0.014 A 
ATOM     79  C   UNL A   1      45.417  27.613  33.771  1.00  0.00     0.009 A 
ATOM     80  C   UNL A   1      46.557  28.831  32.018  1.00  0.00     0.009 A 
ATOM     81  C   UNL A   1      46.606  26.950  34.077  1.00  0.00     0.001 A 
ATOM     82  C   UNL A   1      47.738  28.149  32.310  1.00  0.00     0.001 A 
ATOM     83  C   UNL A   1      47.763  27.215  33.343  1.00  0.00     0.000 A 
ENDBRANCH  65  78
ENDBRANCH  39  40
ENDBRANCH  31  34
ENDBRANCH  29  30
ENDBRANCH  28  29
ENDBRANCH  27  28
ENDBRANCH   1  27
TORSDOF 15
ENDMDL
MODEL 2
REMARK VINA RESULT:     -11.4      3.495      8.648
REMARK SMILES CC[C@@H](C)c1ccccc1NC(=O)[C@@H]1[C@@H](C(=O)NCCCCNC(=O)c2ccc(-c3c4nc(c(-c5ccccc5)c5ccc([nH]5)c(-c5ccccc5)c5nc(c(-c6ccccc6)c6ccc3[nH]6)C=C5)C=C4)cc2)[C@@H]2C=C[C@H]1C2
REMARK SMILES IDX 19 1 18 2 16 3 17 4 15 6 14 7 77 8 74 9 76 10 78 11 75 12
REMARK SMILES IDX 12 13 11 14 13 16 10 17 5 18 6 19 7 20 9 21 8 22 3 23 4 24
REMARK SMILES IDX 2 25 1 26 20 27 21 28 22 29 23 30 24 31 25 33 26 34 27 35
REMARK SMILES IDX 73 36 28 37 72 38 29 39 30 40 31 41 66 42 32 43 71 44 65 45
REMARK SMILES IDX 67 46 33 47 70 48 64 49 63 50 34 52 56 53 41 54 55 55 42 56
REMARK SMILES IDX 45 57 54 58 68 59 43 60 44 61 53 63 69 64 46 65 35 66 36 67
REMARK SMILES IDX 40 68 37 69 39 70 38 71 57 72 58 73 62 74 59 75 61 76 60 77
REMARK SMILES IDX 47 78 48 79 52 80 49 81 51 82 50 83
REMARK H PARENT 18 5 11 15 23 32 67 51 45 62
REMARK Flexibility Score: inf
ROOT
ATOM      1  C   UNL A   1      36.690  23.507  25.837  1.00  0.00     0.116 C 
ENDROOT
BRANCH   1   2
ATOM      2  N   UNL A   1      35.741  22.984  26.800  1.00  0.00    -0.356 N 
ATOM      3  C   UNL A   1      34.396  22.776  26.761  1.00  0.00     0.224 C 
ATOM      4  O   UNL A   1      33.931  22.197  27.754  1.00  0.00    -0.275 OA
ATOM      5  H   UNL A   1      36.153  22.727  27.657  1.00  0.00     0.163 HD
BRANCH   3   6
ATOM      6  C   UNL A   1      33.424  23.275  25.684  1.00  0.00     0.098 C 
ATOM      7  C   UNL A   1      33.202  24.804  25.481  1.00  0.00     0.099 C 
ATOM      8  C   UNL A   1      31.683  24.958  25.780  1.00  0.00     0.025 C 
ATOM      9  C   UNL A   1      31.992  22.763  26.019  1.00  0.00     0.025 C 
ATOM     10  C   UNL A   1      30.901  24.288  24.679  1.00  0.00    -0.027 C 
ATOM     11  C   UNL A   1      31.450  23.908  26.873  1.00  0.00     0.017 C 
ATOM     12  C   UNL A   1      31.099  22.969  24.810  1.00  0.00    -0.027 C 
BRANCH   7  13
ATOM     13  C   UNL A   1      33.661  25.354  24.129  1.00  0.00     0.228 C 
ATOM     14  N   UNL A   1      33.610  26.706  23.876  1.00  0.00    -0.326 N 
ATOM     15  H   UNL A   1      33.912  26.980  22.980  1.00  0.00     0.169 HD
ATOM     16  O   UNL A   1      34.092  24.622  23.236  1.00  0.00    -0.274 OA
BRANCH  14  17
ATOM     17  C   UNL A   1      33.188  27.754  24.717  1.00  0.00     0.044 A 
ATOM     18  C   UNL A   1      31.909  28.319  24.543  1.00  0.00    -0.022 A 
ATOM     19  C   UNL A   1      31.403  29.112  25.591  1.00  0.00     0.006 A 
ATOM     20  C   UNL A   1      32.187  29.455  26.695  1.00  0.00     0.000 A 
ATOM     21  C   UNL A   1      34.010  28.214  25.755  1.00  0.00     0.026 A 
ATOM     22  C   UNL A   1      33.512  29.051  26.749  1.00  0.00     0.002 A 
BRANCH  18  23
ATOM     23  C   UNL A   1      31.085  28.084  23.277  1.00  0.00     0.018 C 
ATOM     24  C   UNL A   1      31.009  29.329  22.376  1.00  0.00     0.013 C 
BRANCH  23  25
ATOM     25  C   UNL A   1      29.688  27.520  23.597  1.00  0.00     0.005 C 
ATOM     26  C   UNL A   1      28.559  28.430  23.125  1.00  0.00     0.004 C 
ENDBRANCH  23  25
ENDBRANCH  18  23
ENDBRANCH  14  17
ENDBRANCH   7  13
ENDBRANCH   3   6
ENDBRANCH   1   2
BRANCH   1  27
ATOM     27  C   UNL A   1      36.914  22.623  24.618  1.00  0.00     0.023 C 
BRANCH  27  28
ATOM     28  C   UNL A   1      37.574  21.277  24.892  1.00  0.00     0.023 C 
BRANCH  28  29
ATOM     29  C   UNL A   1      38.808  21.312  25.787  1.00  0.00     0.116 C 
BRANCH  29  30
ATOM     30  N   UNL A   1      39.600  20.094  25.751  1.00  0.00    -0.352 N 
ATOM     31  C   UNL A   1      40.925  19.909  26.111  1.00  0.00     0.251 C 
ATOM     32  H   UNL A   1      39.132  19.291  25.426  1.00  0.00     0.163 HD
ATOM     33  O   UNL A   1      41.469  18.830  25.965  1.00  0.00    -0.269 OA
BRANCH  31  34
ATOM     34  C   UNL A   1      41.681  21.069  26.628  1.00  0.00     0.039 A 
ATOM     35  C   UNL A   1      42.202  21.989  25.716  1.00  0.00     0.014 A 
ATOM     36  C   UNL A   1      41.772  21.294  28.001  1.00  0.00     0.014 A 
ATOM     37  C   UNL A   1      42.721  23.200  26.185  1.00  0.00     0.010 A 
ATOM     38  C   UNL A   1      42.217  22.529  28.460  1.00  0.00     0.010 A 
ATOM     39  C   UNL A   1      42.677  23.501  27.556  1.00  0.00    -0.014 A 
BRANCH  39  40
ATOM     40  C   UNL A   1      43.075  24.833  28.077  1.00  0.00     0.031 A 
ATOM     41  C   UNL A   1      42.026  25.872  28.353  1.00  0.00     0.074 A 
ATOM     42  C   UNL A   1      44.381  25.143  28.201  1.00  0.00     0.049 A 
ATOM     43  N   UNL A   1      42.177  27.130  28.678  1.00  0.00    -0.248 NA
ATOM     44  C   UNL A   1      40.625  25.446  28.218  1.00  0.00     0.031 C 
ATOM     45  C   UNL A   1      45.503  24.240  27.927  1.00  0.00     0.029 A 
ATOM     46  N   UNL A   1      44.987  26.318  28.573  1.00  0.00    -0.354 N 
ATOM     47  C   UNL A   1      40.892  27.654  28.753  1.00  0.00     0.074 A 
ATOM     48  C   UNL A   1      39.979  26.587  28.403  1.00  0.00     0.031 C 
ATOM     49  C   UNL A   1      46.656  24.888  28.159  1.00  0.00     0.029 A 
ATOM     50  C   UNL A   1      46.361  26.261  28.553  1.00  0.00     0.049 A 
ATOM     51  H   UNL A   1      44.486  27.125  28.829  1.00  0.00     0.167 HD
ATOM     52  C   UNL A   1      40.506  28.904  29.098  1.00  0.00     0.031 A 
ATOM     53  C   UNL A   1      47.279  27.212  28.810  1.00  0.00     0.031 A 
ATOM     54  C   UNL A   1      41.409  29.958  29.467  1.00  0.00     0.049 A 
ATOM     55  C   UNL A   1      46.825  28.594  29.187  1.00  0.00     0.074 A 
ATOM     56  C   UNL A   1      41.109  31.240  29.893  1.00  0.00     0.029 A 
ATOM     57  N   UNL A   1      42.790  29.850  29.459  1.00  0.00    -0.354 N 
ATOM     58  N   UNL A   1      45.604  29.055  29.311  1.00  0.00    -0.248 NA
ATOM     59  C   UNL A   1      47.875  29.584  29.465  1.00  0.00     0.031 C 
ATOM     60  C   UNL A   1      42.312  31.922  30.104  1.00  0.00     0.029 A 
ATOM     61  C   UNL A   1      43.358  31.049  29.854  1.00  0.00     0.049 A 
ATOM     62  H   UNL A   1      43.293  29.042  29.208  1.00  0.00     0.167 HD
ATOM     63  C   UNL A   1      45.739  30.379  29.708  1.00  0.00     0.074 A 
ATOM     64  C   UNL A   1      47.159  30.644  29.814  1.00  0.00     0.031 C 
ATOM     65  C   UNL A   1      44.771  31.293  29.964  1.00  0.00     0.031 A 
BRANCH  52  66
ATOM     66  C   UNL A   1      39.032  29.196  29.086  1.00  0.00    -0.014 A 
ATOM     67  C   UNL A   1      38.376  29.571  27.902  1.00  0.00     0.009 A 
ATOM     68  C   UNL A   1      38.285  29.072  30.268  1.00  0.00     0.009 A 
ATOM     69  C   UNL A   1      37.008  29.852  27.911  1.00  0.00     0.001 A 
ATOM     70  C   UNL A   1      36.914  29.327  30.268  1.00  0.00     0.001 A 
ATOM     71  C   UNL A   1      36.278  29.726  29.092  1.00  0.00     0.000 A 
ENDBRANCH  52  66
BRANCH  53  72
ATOM     72  C   UNL A   1      48.728  26.891  28.731  1.00  0.00    -0.014 A 
ATOM     73  C   UNL A   1      49.405  26.393  29.856  1.00  0.00     0.009 A 
ATOM     74  C   UNL A   1      49.444  27.090  27.540  1.00  0.00     0.009 A 
ATOM     75  C   UNL A   1      50.775  26.126  29.796  1.00  0.00     0.001 A 
ATOM     76  C   UNL A   1      50.808  26.797  27.477  1.00  0.00     0.001 A 
ATOM     77  C   UNL A   1      51.473  26.323  28.606  1.00  0.00     0.000 A 
ENDBRANCH  53  72
BRANCH  65  78
ATOM     78  C   UNL A   1      45.212  32.652  30.425  1.00  0.00    -0.014 A 
ATOM     79  C   UNL A   1      45.431  33.695  29.512  1.00  0.00     0.009 A 
ATOM     80  C   UNL A   1      45.354  32.905  31.798  1.00  0.00     0.009 A 
ATOM     81  C   UNL A   1      45.806  34.961  29.967  1.00  0.00     0.001 A 
ATOM     82  C   UNL A   1      45.705  34.177  32.251  1.00  0.00     0.001 A 
ATOM     83  C   UNL A   1      45.937  35.201  31.335  1.00  0.00     0.000 A 
ENDBRANCH  65  78
ENDBRANCH  39  40
ENDBRANCH  31  34
ENDBRANCH  29  30
ENDBRANCH  28  29
ENDBRANCH  27  28
ENDBRANCH   1  27
TORSDOF 15
ENDMDL
MODEL 3
REMARK VINA RESULT:     -11.4      3.234      8.720
REMARK SMILES CC[C@@H](C)c1ccccc1NC(=O)[C@@H]1[C@@H](C(=O)NCCCCNC(=O)c2ccc(-c3c4nc(c(-c5ccccc5)c5ccc([nH]5)c(-c5ccccc5)c5nc(c(-c6ccccc6)c6ccc3[nH]6)C=C5)C=C4)cc2)[C@@H]2C=C[C@H]1C2
REMARK SMILES IDX 19 1 18 2 16 3 17 4 15 6 14 7 77 8 74 9 76 10 78 11 75 12
REMARK SMILES IDX 12 13 11 14 13 16 10 17 5 18 6 19 7 20 9 21 8 22 3 23 4 24
REMARK SMILES IDX 2 25 1 26 20 27 21 28 22 29 23 30 24 31 25 33 26 34 27 35
REMARK SMILES IDX 73 36 28 37 72 38 29 39 30 40 31 41 66 42 32 43 71 44 65 45
REMARK SMILES IDX 67 46 33 47 70 48 64 49 63 50 34 52 56 53 41 54 55 55 42 56
REMARK SMILES IDX 45 57 54 58 68 59 43 60 44 61 53 63 69 64 46 65 35 66 36 67
REMARK SMILES IDX 40 68 37 69 39 70 38 71 57 72 58 73 62 74 59 75 61 76 60 77
REMARK SMILES IDX 47 78 48 79 52 80 49 81 51 82 50 83
REMARK H PARENT 18 5 11 15 23 32 67 51 45 62
REMARK Flexibility Score: inf
ROOT
ATOM      1  C   UNL A   1      36.815  22.876  25.791  1.00  0.00     0.116 C 
ENDROOT
BRANCH   1   2
ATOM      2  N   UNL A   1      35.809  22.378  26.710  1.00  0.00    -0.356 N 
ATOM      3  C   UNL A   1      34.455  22.263  26.632  1.00  0.00     0.224 C 
ATOM      4  O   UNL A   1      33.928  21.675  27.587  1.00  0.00    -0.275 OA
ATOM      5  H   UNL A   1      36.181  22.056  27.563  1.00  0.00     0.163 HD
BRANCH   3   6
ATOM      6  C   UNL A   1      33.545  22.874  25.557  1.00  0.00     0.098 C 
ATOM      7  C   UNL A   1      33.339  24.417  25.494  1.00  0.00     0.099 C 
ATOM      8  C   UNL A   1      31.805  24.553  25.723  1.00  0.00     0.025 C 
ATOM      9  C   UNL A   1      32.095  22.343  25.760  1.00  0.00     0.025 C 
ATOM     10  C   UNL A   1      31.085  24.001  24.520  1.00  0.00    -0.027 C 
ATOM     11  C   UNL A   1      31.509  23.402  26.692  1.00  0.00     0.017 C 
ATOM     12  C   UNL A   1      31.272  22.673  24.530  1.00  0.00    -0.027 C 
BRANCH   7  13
ATOM     13  C   UNL A   1      33.873  25.095  24.231  1.00  0.00     0.228 C 
ATOM     14  N   UNL A   1      33.789  26.461  24.087  1.00  0.00    -0.326 N 
ATOM     15  H   UNL A   1      34.144  26.819  23.242  1.00  0.00     0.169 HD
ATOM     16  O   UNL A   1      34.395  24.454  23.316  1.00  0.00    -0.274 OA
BRANCH  14  17
ATOM     17  C   UNL A   1      33.267  27.419  24.977  1.00  0.00     0.044 A 
ATOM     18  C   UNL A   1      31.966  27.923  24.779  1.00  0.00    -0.022 A 
ATOM     19  C   UNL A   1      31.366  28.608  25.853  1.00  0.00     0.006 A 
ATOM     20  C   UNL A   1      32.076  28.913  27.016  1.00  0.00     0.000 A 
ATOM     21  C   UNL A   1      34.011  27.848  26.085  1.00  0.00     0.026 A 
ATOM     22  C   UNL A   1      33.419  28.581  27.108  1.00  0.00     0.002 A 
BRANCH  18  23
ATOM     23  C   UNL A   1      31.217  27.735  23.459  1.00  0.00     0.018 C 
ATOM     24  C   UNL A   1      31.401  28.920  22.495  1.00  0.00     0.013 C 
BRANCH  23  25
ATOM     25  C   UNL A   1      29.730  27.404  23.685  1.00  0.00     0.005 C 
ATOM     26  C   UNL A   1      28.791  28.430  23.059  1.00  0.00     0.004 C 
ENDBRANCH  23  25
ENDBRANCH  18  23
ENDBRANCH  14  17
ENDBRANCH   7  13
ENDBRANCH   3   6
ENDBRANCH   1   2
BRANCH   1  27
ATOM     27  C   UNL A   1      37.061  21.993  24.576  1.00  0.00     0.023 C 
BRANCH  27  28
ATOM     28  C   UNL A   1      37.817  20.698  24.845  1.00  0.00     0.023 C 
BRANCH  28  29
ATOM     29  C   UNL A   1      39.004  20.804  25.796  1.00  0.00     0.116 C 
BRANCH  29  30
ATOM     30  N   UNL A   1      39.933  19.691  25.710  1.00  0.00    -0.352 N 
ATOM     31  C   UNL A   1      41.278  19.656  26.040  1.00  0.00     0.251 C 
ATOM     32  H   UNL A   1      39.556  18.846  25.373  1.00  0.00     0.163 HD
ATOM     33  O   UNL A   1      41.942  18.652  25.853  1.00  0.00    -0.269 OA
BRANCH  31  34
ATOM     34  C   UNL A   1      41.903  20.884  26.574  1.00  0.00     0.039 A 
ATOM     35  C   UNL A   1      42.558  21.742  25.688  1.00  0.00     0.014 A 
ATOM     36  C   UNL A   1      41.742  21.229  27.915  1.00  0.00     0.014 A 
ATOM     37  C   UNL A   1      42.958  23.007  26.129  1.00  0.00     0.010 A 
ATOM     38  C   UNL A   1      42.070  22.515  28.331  1.00  0.00     0.010 A 
ATOM     39  C   UNL A   1      42.662  23.423  27.438  1.00  0.00    -0.014 A 
BRANCH  39  40
ATOM     40  C   UNL A   1      42.930  24.808  27.896  1.00  0.00     0.031 A 
ATOM     41  C   UNL A   1      44.325  25.212  28.282  1.00  0.00     0.074 A 
ATOM     42  C   UNL A   1      41.908  25.670  28.065  1.00  0.00     0.049 A 
ATOM     43  N   UNL A   1      44.740  26.323  28.834  1.00  0.00    -0.248 NA
ATOM     44  C   UNL A   1      45.387  24.223  28.043  1.00  0.00     0.031 C 
ATOM     45  C   UNL A   1      40.500  25.393  27.768  1.00  0.00     0.029 A 
ATOM     46  N   UNL A   1      41.895  26.955  28.551  1.00  0.00    -0.354 N 
ATOM     47  C   UNL A   1      46.104  26.154  29.037  1.00  0.00     0.074 A 
ATOM     48  C   UNL A   1      46.437  24.820  28.587  1.00  0.00     0.031 C 
ATOM     49  C   UNL A   1      39.766  26.480  28.057  1.00  0.00     0.029 A 
ATOM     50  C   UNL A   1      40.640  27.513  28.604  1.00  0.00     0.049 A 
ATOM     51  H   UNL A   1      42.708  27.431  28.835  1.00  0.00     0.167 HD
ATOM     52  C   UNL A   1      47.001  27.034  29.538  1.00  0.00     0.031 A 
ATOM     53  C   UNL A   1      40.236  28.716  29.054  1.00  0.00     0.031 A 
ATOM     54  C   UNL A   1      46.677  28.367  29.966  1.00  0.00     0.049 A 
ATOM     55  C   UNL A   1      41.251  29.674  29.610  1.00  0.00     0.074 A 
ATOM     56  C   UNL A   1      47.528  29.354  30.430  1.00  0.00     0.029 A 
ATOM     57  N   UNL A   1      45.398  28.900  29.978  1.00  0.00    -0.354 N 
ATOM     58  N   UNL A   1      42.547  29.520  29.740  1.00  0.00    -0.248 NA
ATOM     59  C   UNL A   1      40.749  30.975  30.075  1.00  0.00     0.031 C 
ATOM     60  C   UNL A   1      46.757  30.474  30.761  1.00  0.00     0.029 A 
ATOM     61  C   UNL A   1      45.434  30.198  30.458  1.00  0.00     0.049 A 
ATOM     62  H   UNL A   1      44.584  28.427  29.689  1.00  0.00     0.167 HD
ATOM     63  C   UNL A   1      43.017  30.712  30.275  1.00  0.00     0.074 A 
ATOM     64  C   UNL A   1      41.871  31.583  30.436  1.00  0.00     0.031 C 
ATOM     65  C   UNL A   1      44.287  31.054  30.603  1.00  0.00     0.031 A 
BRANCH  52  66
ATOM     66  C   UNL A   1      48.426  26.573  29.654  1.00  0.00    -0.014 A 
ATOM     67  C   UNL A   1      49.348  26.800  28.619  1.00  0.00     0.009 A 
ATOM     68  C   UNL A   1      48.858  25.924  30.821  1.00  0.00     0.009 A 
ATOM     69  C   UNL A   1      50.666  26.352  28.737  1.00  0.00     0.001 A 
ATOM     70  C   UNL A   1      50.182  25.502  30.946  1.00  0.00     0.001 A 
ATOM     71  C   UNL A   1      51.082  25.708  29.901  1.00  0.00     0.000 A 
ENDBRANCH  52  66
BRANCH  53  72
ATOM     72  C   UNL A   1      38.800  29.094  28.989  1.00  0.00    -0.014 A 
ATOM     73  C   UNL A   1      38.258  29.612  27.803  1.00  0.00     0.009 A 
ATOM     74  C   UNL A   1      37.968  28.950  30.111  1.00  0.00     0.009 A 
ATOM     75  C   UNL A   1      36.917  30.004  27.750  1.00  0.00     0.001 A 
ATOM     76  C   UNL A   1      36.623  29.318  30.046  1.00  0.00     0.001 A 
ATOM     77  C   UNL A   1      36.101  29.851  28.869  1.00  0.00     0.000 A 
ENDBRANCH  53  72
BRANCH  65  78
ATOM     78  C   UNL A   1      44.513  32.442  31.127  1.00  0.00    -0.014 A 
ATOM     79  C   UNL A   1      44.761  33.517  30.259  1.00  0.00     0.009 A 
ATOM     80  C   UNL A   1      44.420  32.686  32.506  1.00  0.00     0.009 A 
ATOM     81  C   UNL A   1      44.933  34.806  30.768  1.00  0.00     0.001 A 
ATOM     82  C   UNL A   1      44.568  33.978  33.009  1.00  0.00     0.001 A 
ATOM     83  C   UNL A   1      44.831  35.035  32.140  1.00  0.00     0.000 A 
ENDBRANCH  65  78
ENDBRANCH  39  40
ENDBRANCH  31  34
ENDBRANCH  29  30
ENDBRANCH  28  29
ENDBRANCH  27  28
ENDBRANCH   1  27
TORSDOF 15
ENDMDL
