MODEL 1
REMARK VINA RESULT:     -12.9      0.000      0.000
REMARK SMILES Cc1ccc(C(=O)N2C[C@@H](C(=O)NCCCCNC(=O)c3ccc(-c4c5nc(c(-c6ccccc6)c6ccc([nH]6)c(-c6ccccc6)c6nc(c(-c7ccccc7)c7ccc4[nH]7)C=C6)C=C5)cc3)C[C@H](C(=O)N3CCOCC3)C2)cc1F
REMARK SMILES IDX 15 1 14 2 13 3 11 4 12 5 10 7 8 8 9 9 79 10 70 11 69 12 6 13
REMARK SMILES IDX 7 14 5 15 1 16 2 17 3 18 81 19 4 20 80 21 82 22 71 23 72 24
REMARK SMILES IDX 73 25 74 26 78 27 75 28 77 29 76 30 16 31 17 32 18 33 19 34
REMARK SMILES IDX 20 36 21 37 22 38 68 39 23 40 67 41 24 42 25 43 26 44 61 45
REMARK SMILES IDX 27 46 66 47 60 48 62 49 28 50 65 51 59 52 58 53 29 55 51 56
REMARK SMILES IDX 36 57 50 58 37 59 40 60 49 61 63 62 38 63 39 64 48 66 64 67
REMARK SMILES IDX 41 68 30 69 31 70 35 71 32 72 34 73 33 74 52 75 53 76 57 77
REMARK SMILES IDX 54 78 56 79 55 80 42 81 43 82 47 83 44 84 46 85 45 86
REMARK H PARENT 13 6 18 35 62 54 40 65
REMARK Flexibility Score: inf
ROOT
ATOM      1  C   UNL A   1      38.856  22.734  26.253  1.00  0.00     0.023 C 
ENDROOT
BRANCH   1   2
ATOM      2  C   UNL A   1      37.554  23.464  25.955  1.00  0.00     0.116 C 
BRANCH   2   3
ATOM      3  N   UNL A   1      37.306  23.543  24.530  1.00  0.00    -0.356 N 
ATOM      4  C   UNL A   1      36.247  23.128  23.791  1.00  0.00     0.224 C 
ATOM      5  O   UNL A   1      36.321  23.240  22.566  1.00  0.00    -0.275 OA
ATOM      6  H   UNL A   1      38.027  23.968  24.010  1.00  0.00     0.163 HD
BRANCH   4   7
ATOM      7  C   UNL A   1      35.009  22.541  24.438  1.00  0.00     0.099 C 
ATOM      8  N   UNL A   1      33.368  22.923  26.272  1.00  0.00    -0.337 N 
ATOM      9  C   UNL A   1      34.404  23.511  25.439  1.00  0.00     0.133 C 
ATOM     10  C   UNL A   1      33.656  21.631  26.890  1.00  0.00     0.133 C 
ATOM     11  C   UNL A   1      34.140  20.578  25.876  1.00  0.00     0.099 C 
ATOM     12  C   UNL A   1      35.215  21.102  24.925  1.00  0.00     0.030 C 
BRANCH   8  13
ATOM     13  C   UNL A   1      32.262  23.721  26.547  1.00  0.00     0.254 C 
ATOM     14  O   UNL A   1      31.584  23.578  27.564  1.00  0.00    -0.269 OA
BRANCH  13  15
ATOM     15  C   UNL A   1      31.768  24.694  25.548  1.00  0.00     0.042 A 
ATOM     16  C   UNL A   1      29.416  27.526  23.324  1.00  0.00     0.047 C 
ATOM     17  C   UNL A   1      30.297  26.539  24.030  1.00  0.00    -0.015 A 
ATOM     18  C   UNL A   1      30.290  25.181  23.685  1.00  0.00     0.007 A 
ATOM     19  C   UNL A   1      31.085  26.958  25.106  1.00  0.00     0.126 A 
ATOM     20  C   UNL A   1      31.019  24.259  24.445  1.00  0.00     0.014 A 
ATOM     21  C   UNL A   1      31.812  26.053  25.868  1.00  0.00     0.053 A 
ATOM     22  F   UNL A   1      31.096  28.253  25.456  1.00  0.00    -0.207 F 
ENDBRANCH  13  15
ENDBRANCH   8  13
BRANCH  11  23
ATOM     23  C   UNL A   1      32.926  19.813  25.327  1.00  0.00     0.227 C 
ATOM     24  O   UNL A   1      31.906  20.459  25.061  1.00  0.00    -0.275 OA
ATOM     25  N   UNL A   1      33.066  18.521  24.882  1.00  0.00    -0.338 N 
ATOM     26  C   UNL A   1      33.461  17.362  25.680  1.00  0.00     0.148 C 
ATOM     27  C   UNL A   1      32.425  18.133  23.627  1.00  0.00     0.148 C 
ATOM     28  C   UNL A   1      34.383  16.457  24.853  1.00  0.00     0.181 C 
ATOM     29  C   UNL A   1      33.355  17.193  22.850  1.00  0.00     0.181 C 
ATOM     30  O   UNL A   1      33.720  16.048  23.642  1.00  0.00    -0.378 OA
ENDBRANCH  11  23
ENDBRANCH   4   7
ENDBRANCH   2   3
ENDBRANCH   1   2
BRANCH   1  31
ATOM     31  C   UNL A   1      38.969  21.358  25.599  1.00  0.00     0.023 C 
BRANCH  31  32
ATOM     32  C   UNL A   1      39.447  20.248  26.525  1.00  0.00     0.116 C 
BRANCH  32  33
ATOM     33  N   UNL A   1      40.538  19.467  25.961  1.00  0.00    -0.352 N 
ATOM     34  C   UNL A   1      41.860  19.815  25.836  1.00  0.00     0.251 C 
ATOM     35  H   UNL A   1      40.297  18.574  25.625  1.00  0.00     0.163 HD
ATOM     36  O   UNL A   1      42.645  19.092  25.234  1.00  0.00    -0.269 OA
BRANCH  34  37
ATOM     37  C   UNL A   1      42.307  21.098  26.405  1.00  0.00     0.039 A 
ATOM     38  C   UNL A   1      42.634  22.141  25.538  1.00  0.00     0.014 A 
ATOM     39  C   UNL A   1      42.320  21.284  27.790  1.00  0.00     0.014 A 
ATOM     40  C   UNL A   1      42.912  23.403  26.063  1.00  0.00     0.010 A 
ATOM     41  C   UNL A   1      42.519  22.559  28.305  1.00  0.00     0.010 A 
ATOM     42  C   UNL A   1      42.818  23.628  27.447  1.00  0.00    -0.014 A 
BRANCH  42  43
ATOM     43  C   UNL A   1      43.033  24.979  28.019  1.00  0.00     0.031 A 
ATOM     44  C   UNL A   1      44.406  25.391  28.469  1.00  0.00     0.074 A 
ATOM     45  C   UNL A   1      41.985  25.806  28.190  1.00  0.00     0.049 A 
ATOM     46  N   UNL A   1      44.788  26.505  29.040  1.00  0.00    -0.248 NA
ATOM     47  C   UNL A   1      45.488  24.409  28.283  1.00  0.00     0.031 C 
ATOM     48  C   UNL A   1      40.596  25.504  27.837  1.00  0.00     0.029 A 
ATOM     49  N   UNL A   1      41.926  27.073  28.714  1.00  0.00    -0.354 N 
ATOM     50  C   UNL A   1      46.144  26.350  29.295  1.00  0.00     0.074 A 
ATOM     51  C   UNL A   1      46.507  25.017  28.869  1.00  0.00     0.031 C 
ATOM     52  C   UNL A   1      39.829  26.567  28.124  1.00  0.00     0.029 A 
ATOM     53  C   UNL A   1      40.661  27.608  28.717  1.00  0.00     0.049 A 
ATOM     54  H   UNL A   1      42.715  27.553  29.055  1.00  0.00     0.167 HD
ATOM     55  C   UNL A   1      47.015  27.245  29.817  1.00  0.00     0.031 A 
ATOM     56  C   UNL A   1      40.222  28.805  29.151  1.00  0.00     0.031 A 
ATOM     57  C   UNL A   1      46.655  28.575  30.227  1.00  0.00     0.049 A 
ATOM     58  C   UNL A   1      41.207  29.780  29.732  1.00  0.00     0.074 A 
ATOM     59  C   UNL A   1      47.473  29.580  30.710  1.00  0.00     0.029 A 
ATOM     60  N   UNL A   1      45.364  29.083  30.205  1.00  0.00    -0.354 N 
ATOM     61  N   UNL A   1      42.501  29.647  29.898  1.00  0.00    -0.248 NA
ATOM     62  C   UNL A   1      40.672  31.075  30.174  1.00  0.00     0.031 C 
ATOM     63  C   UNL A   1      46.671  30.680  31.027  1.00  0.00     0.029 A 
ATOM     64  C   UNL A   1      45.361  30.381  30.688  1.00  0.00     0.049 A 
ATOM     65  H   UNL A   1      44.570  28.594  29.891  1.00  0.00     0.167 HD
ATOM     66  C   UNL A   1      42.939  30.849  30.437  1.00  0.00     0.074 A 
ATOM     67  C   UNL A   1      41.775  31.704  30.555  1.00  0.00     0.031 C 
ATOM     68  C   UNL A   1      44.192  31.214  30.800  1.00  0.00     0.031 A 
BRANCH  55  69
ATOM     69  C   UNL A   1      48.443  26.804  29.978  1.00  0.00    -0.014 A 
ATOM     70  C   UNL A   1      48.875  26.150  31.143  1.00  0.00     0.009 A 
ATOM     71  C   UNL A   1      49.365  27.027  28.944  1.00  0.00     0.009 A 
ATOM     72  C   UNL A   1      50.209  25.766  31.287  1.00  0.00     0.001 A 
ATOM     73  C   UNL A   1      50.691  26.614  29.077  1.00  0.00     0.001 A 
ATOM     74  C   UNL A   1      51.115  25.995  30.252  1.00  0.00     0.000 A 
ENDBRANCH  55  69
BRANCH  56  75
ATOM     75  C   UNL A   1      38.782  29.157  29.035  1.00  0.00    -0.014 A 
ATOM     76  C   UNL A   1      38.264  29.634  27.821  1.00  0.00     0.009 A 
ATOM     77  C   UNL A   1      37.920  29.020  30.134  1.00  0.00     0.009 A 
ATOM     78  C   UNL A   1      36.917  29.990  27.719  1.00  0.00     0.001 A 
ATOM     79  C   UNL A   1      36.568  29.350  30.020  1.00  0.00     0.001 A 
ATOM     80  C   UNL A   1      36.070  29.844  28.815  1.00  0.00     0.000 A 
ENDBRANCH  56  75
BRANCH  68  81
ATOM     81  C   UNL A   1      44.375  32.609  31.329  1.00  0.00    -0.014 A 
ATOM     82  C   UNL A   1      44.628  33.688  30.469  1.00  0.00     0.009 A 
ATOM     83  C   UNL A   1      44.248  32.850  32.706  1.00  0.00     0.009 A 
ATOM     84  C   UNL A   1      44.783  34.977  30.982  1.00  0.00     0.001 A 
ATOM     85  C   UNL A   1      44.374  34.144  33.213  1.00  0.00     0.001 A 
ATOM     86  C   UNL A   1      44.650  35.204  32.352  1.00  0.00     0.000 A 
ENDBRANCH  68  81
ENDBRANCH  42  43
ENDBRANCH  34  37
ENDBRANCH  32  33
ENDBRANCH  31  32
ENDBRANCH   1  31
TORSDOF 14
ENDMDL
MODEL 2
REMARK VINA RESULT:     -12.6      3.826      9.344
REMARK SMILES Cc1ccc(C(=O)N2C[C@@H](C(=O)NCCCCNC(=O)c3ccc(-c4c5nc(c(-c6ccccc6)c6ccc([nH]6)c(-c6ccccc6)c6nc(c(-c7ccccc7)c7ccc4[nH]7)C=C6)C=C5)cc3)C[C@H](C(=O)N3CCOCC3)C2)cc1F
REMARK SMILES IDX 15 1 14 2 13 3 11 4 12 5 10 7 8 8 9 9 79 10 70 11 69 12 6 13
REMARK SMILES IDX 7 14 5 15 1 16 2 17 3 18 81 19 4 20 80 21 82 22 71 23 72 24
REMARK SMILES IDX 73 25 74 26 78 27 75 28 77 29 76 30 16 31 17 32 18 33 19 34
REMARK SMILES IDX 20 36 21 37 22 38 68 39 23 40 67 41 24 42 25 43 26 44 61 45
REMARK SMILES IDX 27 46 66 47 60 48 62 49 28 50 65 51 59 52 58 53 29 55 51 56
REMARK SMILES IDX 36 57 50 58 37 59 40 60 49 61 63 62 38 63 39 64 48 66 64 67
REMARK SMILES IDX 41 68 30 69 31 70 35 71 32 72 34 73 33 74 52 75 53 76 57 77
REMARK SMILES IDX 54 78 56 79 55 80 42 81 43 82 47 83 44 84 46 85 45 86
REMARK H PARENT 13 6 18 35 62 54 40 65
REMARK Flexibility Score: inf
ROOT
ATOM      1  C   UNL A   1      34.484  30.645  27.595  1.00  0.00     0.023 C 
ENDROOT
BRANCH   1   2
ATOM      2  C   UNL A   1      34.280  29.293  26.923  1.00  0.00     0.116 C 
BRANCH   2   3
ATOM      3  N   UNL A   1      33.195  28.556  27.539  1.00  0.00    -0.356 N 
ATOM      4  C   UNL A   1      32.105  27.963  26.992  1.00  0.00     0.224 C 
ATOM      5  O   UNL A   1      31.277  27.464  27.755  1.00  0.00    -0.275 OA
ATOM      6  H   UNL A   1      33.259  28.472  28.519  1.00  0.00     0.163 HD
BRANCH   4   7
ATOM      7  C   UNL A   1      31.898  27.914  25.491  1.00  0.00     0.099 C 
ATOM      8  N   UNL A   1      33.019  27.269  23.363  1.00  0.00    -0.337 N 
ATOM      9  C   UNL A   1      33.019  27.146  24.811  1.00  0.00     0.133 C 
ATOM     10  C   UNL A   1      32.876  28.611  22.803  1.00  0.00     0.133 C 
ATOM     11  C   UNL A   1      31.661  29.369  23.370  1.00  0.00     0.099 C 
ATOM     12  C   UNL A   1      31.547  29.279  24.890  1.00  0.00     0.030 C 
BRANCH   8  13
ATOM     13  C   UNL A   1      33.328  26.121  22.640  1.00  0.00     0.254 C 
ATOM     14  O   UNL A   1      33.738  26.164  21.480  1.00  0.00    -0.269 OA
BRANCH  13  15
ATOM     15  C   UNL A   1      33.038  24.780  23.195  1.00  0.00     0.042 A 
ATOM     16  C   UNL A   1      32.437  20.558  23.743  1.00  0.00     0.047 C 
ATOM     17  C   UNL A   1      32.613  22.043  23.637  1.00  0.00    -0.015 A 
ATOM     18  C   UNL A   1      31.531  22.886  23.354  1.00  0.00     0.007 A 
ATOM     19  C   UNL A   1      33.892  22.599  23.743  1.00  0.00     0.126 A 
ATOM     20  C   UNL A   1      31.742  24.250  23.128  1.00  0.00     0.014 A 
ATOM     21  C   UNL A   1      34.115  23.952  23.519  1.00  0.00     0.053 A 
ATOM     22  F   UNL A   1      34.941  21.806  24.003  1.00  0.00    -0.207 F 
ENDBRANCH  13  15
ENDBRANCH   8  13
BRANCH  11  23
ATOM     23  C   UNL A   1      30.437  29.091  22.484  1.00  0.00     0.227 C 
ATOM     24  O   UNL A   1      30.362  27.990  21.926  1.00  0.00    -0.275 OA
ATOM     25  N   UNL A   1      29.341  29.917  22.541  1.00  0.00    -0.338 N 
ATOM     26  C   UNL A   1      29.298  31.336  22.189  1.00  0.00     0.148 C 
ATOM     27  C   UNL A   1      28.008  29.319  22.578  1.00  0.00     0.148 C 
ATOM     28  C   UNL A   1      28.393  32.083  23.177  1.00  0.00     0.181 C 
ATOM     29  C   UNL A   1      27.118  30.120  23.538  1.00  0.00     0.181 C 
ATOM     30  O   UNL A   1      27.072  31.510  23.169  1.00  0.00    -0.378 OA
ENDBRANCH  11  23
ENDBRANCH   4   7
ENDBRANCH   2   3
ENDBRANCH   1   2
BRANCH   1  31
ATOM     31  C   UNL A   1      33.214  31.483  27.719  1.00  0.00     0.023 C 
BRANCH  31  32
ATOM     32  C   UNL A   1      33.298  32.869  27.092  1.00  0.00     0.116 C 
BRANCH  32  33
ATOM     33  N   UNL A   1      32.738  33.911  27.939  1.00  0.00    -0.352 N 
ATOM     34  C   UNL A   1      33.244  34.425  29.106  1.00  0.00     0.251 C 
ATOM     35  H   UNL A   1      31.885  34.297  27.636  1.00  0.00     0.163 HD
ATOM     36  O   UNL A   1      32.598  35.227  29.771  1.00  0.00    -0.269 OA
BRANCH  34  37
ATOM     37  C   UNL A   1      34.563  33.961  29.567  1.00  0.00     0.039 A 
ATOM     38  C   UNL A   1      34.631  33.122  30.679  1.00  0.00     0.014 A 
ATOM     39  C   UNL A   1      35.714  34.292  28.846  1.00  0.00     0.014 A 
ATOM     40  C   UNL A   1      35.855  32.554  31.032  1.00  0.00     0.010 A 
ATOM     41  C   UNL A   1      36.915  33.664  29.151  1.00  0.00     0.010 A 
ATOM     42  C   UNL A   1      36.996  32.792  30.248  1.00  0.00    -0.014 A 
BRANCH  42  43
ATOM     43  C   UNL A   1      38.290  32.138  30.560  1.00  0.00     0.031 A 
ATOM     44  C   UNL A   1      39.263  32.809  31.486  1.00  0.00     0.074 A 
ATOM     45  C   UNL A   1      38.612  30.976  29.961  1.00  0.00     0.049 A 
ATOM     46  N   UNL A   1      40.463  32.425  31.842  1.00  0.00    -0.248 NA
ATOM     47  C   UNL A   1      38.848  34.098  32.065  1.00  0.00     0.031 C 
ATOM     48  C   UNL A   1      37.771  30.249  29.006  1.00  0.00     0.029 A 
ATOM     49  N   UNL A   1      39.741  30.204  30.065  1.00  0.00    -0.354 N 
ATOM     50  C   UNL A   1      40.948  33.431  32.668  1.00  0.00     0.074 A 
ATOM     51  C   UNL A   1      39.940  34.466  32.716  1.00  0.00     0.031 C 
ATOM     52  C   UNL A   1      38.402  29.122  28.637  1.00  0.00     0.029 A 
ATOM     53  C   UNL A   1      39.702  29.066  29.294  1.00  0.00     0.049 A 
ATOM     54  H   UNL A   1      40.507  30.441  30.635  1.00  0.00     0.167 HD
ATOM     55  C   UNL A   1      42.120  33.478  33.344  1.00  0.00     0.031 A 
ATOM     56  C   UNL A   1      40.614  28.088  29.137  1.00  0.00     0.031 A 
ATOM     57  C   UNL A   1      43.115  32.443  33.306  1.00  0.00     0.049 A 
ATOM     58  C   UNL A   1      41.910  28.167  29.894  1.00  0.00     0.074 A 
ATOM     59  C   UNL A   1      44.309  32.366  34.002  1.00  0.00     0.029 A 
ATOM     60  N   UNL A   1      43.034  31.301  32.522  1.00  0.00    -0.354 N 
ATOM     61  N   UNL A   1      42.324  29.088  30.731  1.00  0.00    -0.248 NA
ATOM     62  C   UNL A   1      42.860  27.063  29.693  1.00  0.00     0.031 C 
ATOM     63  C   UNL A   1      44.972  31.202  33.602  1.00  0.00     0.029 A 
ATOM     64  C   UNL A   1      44.167  30.526  32.701  1.00  0.00     0.049 A 
ATOM     65  H   UNL A   1      42.282  31.076  31.928  1.00  0.00     0.167 HD
ATOM     66  C   UNL A   1      43.567  28.662  31.178  1.00  0.00     0.074 A 
ATOM     67  C   UNL A   1      43.833  27.393  30.531  1.00  0.00     0.031 C 
ATOM     68  C   UNL A   1      44.414  29.267  32.046  1.00  0.00     0.031 A 
BRANCH  55  69
ATOM     69  C   UNL A   1      42.385  34.701  34.177  1.00  0.00    -0.014 A 
ATOM     70  C   UNL A   1      42.027  34.748  35.535  1.00  0.00     0.009 A 
ATOM     71  C   UNL A   1      43.018  35.814  33.604  1.00  0.00     0.009 A 
ATOM     72  C   UNL A   1      42.260  35.900  36.289  1.00  0.00     0.001 A 
ATOM     73  C   UNL A   1      43.278  36.953  34.368  1.00  0.00     0.001 A 
ATOM     74  C   UNL A   1      42.889  36.999  35.706  1.00  0.00     0.000 A 
ENDBRANCH  55  69
BRANCH  56  75
ATOM     75  C   UNL A   1      40.326  26.939  28.239  1.00  0.00    -0.014 A 
ATOM     76  C   UNL A   1      39.538  25.868  28.687  1.00  0.00     0.009 A 
ATOM     77  C   UNL A   1      40.838  26.906  26.932  1.00  0.00     0.009 A 
ATOM     78  C   UNL A   1      39.290  24.776  27.853  1.00  0.00     0.001 A 
ATOM     79  C   UNL A   1      40.564  25.825  26.092  1.00  0.00     0.001 A 
ATOM     80  C   UNL A   1      39.798  24.756  26.556  1.00  0.00     0.000 A 
ENDBRANCH  56  75
BRANCH  68  81
ATOM     81  C   UNL A   1      45.691  28.547  32.373  1.00  0.00    -0.014 A 
ATOM     82  C   UNL A   1      45.770  27.654  33.452  1.00  0.00     0.009 A 
ATOM     83  C   UNL A   1      46.820  28.735  31.559  1.00  0.00     0.009 A 
ATOM     84  C   UNL A   1      46.965  26.987  33.730  1.00  0.00     0.001 A 
ATOM     85  C   UNL A   1      48.005  28.045  31.822  1.00  0.00     0.001 A 
ATOM     86  C   UNL A   1      48.079  27.180  32.911  1.00  0.00     0.000 A 
ENDBRANCH  68  81
ENDBRANCH  42  43
ENDBRANCH  34  37
ENDBRANCH  32  33
ENDBRANCH  31  32
ENDBRANCH   1  31
TORSDOF 14
ENDMDL
MODEL 3
REMARK VINA RESULT:     -12.4      0.962      5.715
REMARK SMILES Cc1ccc(C(=O)N2C[C@@H](C(=O)NCCCCNC(=O)c3ccc(-c4c5nc(c(-c6ccccc6)c6ccc([nH]6)c(-c6ccccc6)c6nc(c(-c7ccccc7)c7ccc4[nH]7)C=C6)C=C5)cc3)C[C@H](C(=O)N3CCOCC3)C2)cc1F
REMARK SMILES IDX 15 1 14 2 13 3 11 4 12 5 10 7 8 8 9 9 79 10 70 11 69 12 6 13
REMARK SMILES IDX 7 14 5 15 1 16 2 17 3 18 81 19 4 20 80 21 82 22 71 23 72 24
REMARK SMILES IDX 73 25 74 26 78 27 75 28 77 29 76 30 16 31 17 32 18 33 19 34
REMARK SMILES IDX 20 36 21 37 22 38 68 39 23 40 67 41 24 42 25 43 26 44 61 45
REMARK SMILES IDX 27 46 66 47 60 48 62 49 28 50 65 51 59 52 58 53 29 55 51 56
REMARK SMILES IDX 36 57 50 58 37 59 40 60 49 61 63 62 38 63 39 64 48 66 64 67
REMARK SMILES IDX 41 68 30 69 31 70 35 71 32 72 34 73 33 74 52 75 53 76 57 77
REMARK SMILES IDX 54 78 56 79 55 80 42 81 43 82 47 83 44 84 46 85 45 86
REMARK H PARENT 13 6 18 35 62 54 40 65
REMARK Flexibility Score: inf
ROOT
ATOM      1  C   UNL A   1      38.938  22.901  26.389  1.00  0.00     0.023 C 
ENDROOT
BRANCH   1   2
ATOM      2  C   UNL A   1      37.552  23.440  26.062  1.00  0.00     0.116 C 
BRANCH   2   3
ATOM      3  N   UNL A   1      37.341  23.522  24.631  1.00  0.00    -0.356 N 
ATOM      4  C   UNL A   1      36.302  23.108  23.865  1.00  0.00     0.224 C 
ATOM      5  O   UNL A   1      36.406  23.222  22.643  1.00  0.00    -0.275 OA
ATOM      6  H   UNL A   1      38.075  23.949  24.131  1.00  0.00     0.163 HD
BRANCH   4   7
ATOM      7  C   UNL A   1      35.049  22.517  24.479  1.00  0.00     0.099 C 
ATOM      8  N   UNL A   1      33.392  22.863  26.306  1.00  0.00    -0.337 N 
ATOM      9  C   UNL A   1      34.445  23.462  25.504  1.00  0.00     0.133 C 
ATOM     10  C   UNL A   1      33.655  21.548  26.885  1.00  0.00     0.133 C 
ATOM     11  C   UNL A   1      34.137  20.521  25.843  1.00  0.00     0.099 C 
ATOM     12  C   UNL A   1      35.229  21.060  24.922  1.00  0.00     0.030 C 
BRANCH   8  13
ATOM     13  C   UNL A   1      32.294  23.667  26.595  1.00  0.00     0.254 C 
ATOM     14  O   UNL A   1      31.624  23.524  27.617  1.00  0.00    -0.269 OA
BRANCH  13  15
ATOM     15  C   UNL A   1      31.796  24.646  25.603  1.00  0.00     0.042 A 
ATOM     16  C   UNL A   1      29.431  27.482  23.399  1.00  0.00     0.047 C 
ATOM     17  C   UNL A   1      30.317  26.495  24.099  1.00  0.00    -0.015 A 
ATOM     18  C   UNL A   1      30.322  25.140  23.740  1.00  0.00     0.007 A 
ATOM     19  C   UNL A   1      31.096  26.909  25.183  1.00  0.00     0.126 A 
ATOM     20  C   UNL A   1      31.056  24.217  24.493  1.00  0.00     0.014 A 
ATOM     21  C   UNL A   1      31.827  26.002  25.939  1.00  0.00     0.053 A 
ATOM     22  F   UNL A   1      31.095  28.200  25.546  1.00  0.00    -0.207 F 
ENDBRANCH  13  15
ENDBRANCH   8  13
BRANCH  11  23
ATOM     23  C   UNL A   1      32.919  19.791  25.256  1.00  0.00     0.227 C 
ATOM     24  O   UNL A   1      31.902  20.455  25.022  1.00  0.00    -0.275 OA
ATOM     25  N   UNL A   1      33.052  18.522  24.748  1.00  0.00    -0.338 N 
ATOM     26  C   UNL A   1      33.439  17.322  25.488  1.00  0.00     0.148 C 
ATOM     27  C   UNL A   1      32.410  18.200  23.475  1.00  0.00     0.148 C 
ATOM     28  C   UNL A   1      34.358  16.455  24.618  1.00  0.00     0.181 C 
ATOM     29  C   UNL A   1      33.335  17.294  22.653  1.00  0.00     0.181 C 
ATOM     30  O   UNL A   1      33.693  16.110  23.388  1.00  0.00    -0.378 OA
ENDBRANCH  11  23
ENDBRANCH   4   7
ENDBRANCH   2   3
ENDBRANCH   1   2
BRANCH   1  31
ATOM     31  C   UNL A   1      39.202  21.489  25.868  1.00  0.00     0.023 C 
BRANCH  31  32
ATOM     32  C   UNL A   1      40.019  20.606  26.801  1.00  0.00     0.116 C 
BRANCH  32  33
ATOM     33  N   UNL A   1      41.024  19.817  26.104  1.00  0.00    -0.352 N 
ATOM     34  C   UNL A   1      42.308  20.172  25.774  1.00  0.00     0.251 C 
ATOM     35  H   UNL A   1      40.746  18.913  25.832  1.00  0.00     0.163 HD
ATOM     36  O   UNL A   1      43.004  19.438  25.083  1.00  0.00    -0.269 OA
BRANCH  34  37
ATOM     37  C   UNL A   1      42.818  21.475  26.234  1.00  0.00     0.039 A 
ATOM     38  C   UNL A   1      42.958  22.508  25.308  1.00  0.00     0.014 A 
ATOM     39  C   UNL A   1      43.076  21.687  27.591  1.00  0.00     0.014 A 
ATOM     40  C   UNL A   1      43.295  23.785  25.755  1.00  0.00     0.010 A 
ATOM     41  C   UNL A   1      43.332  22.975  28.044  1.00  0.00     0.010 A 
ATOM     42  C   UNL A   1      43.446  24.034  27.130  1.00  0.00    -0.014 A 
BRANCH  42  43
ATOM     43  C   UNL A   1      43.727  25.400  27.634  1.00  0.00     0.031 A 
ATOM     44  C   UNL A   1      42.590  26.312  27.997  1.00  0.00     0.074 A 
ATOM     45  C   UNL A   1      44.999  25.838  27.703  1.00  0.00     0.049 A 
ATOM     46  N   UNL A   1      42.628  27.555  28.406  1.00  0.00    -0.248 NA
ATOM     47  C   UNL A   1      41.230  25.767  27.853  1.00  0.00     0.031 C 
ATOM     48  C   UNL A   1      46.186  25.064  27.334  1.00  0.00     0.029 A 
ATOM     49  N   UNL A   1      45.503  27.049  28.104  1.00  0.00    -0.354 N 
ATOM     50  C   UNL A   1      41.302  27.942  28.549  1.00  0.00     0.074 A 
ATOM     51  C   UNL A   1      40.484  26.825  28.131  1.00  0.00     0.031 C 
ATOM     52  C   UNL A   1      47.281  25.809  27.555  1.00  0.00     0.029 A 
ATOM     53  C   UNL A   1      46.874  27.121  28.042  1.00  0.00     0.049 A 
ATOM     54  H   UNL A   1      44.938  27.796  28.406  1.00  0.00     0.167 HD
ATOM     55  C   UNL A   1      40.807  29.116  29.008  1.00  0.00     0.031 A 
ATOM     56  C   UNL A   1      47.708  28.135  28.344  1.00  0.00     0.031 A 
ATOM     57  C   UNL A   1      41.621  30.221  29.435  1.00  0.00     0.049 A 
ATOM     58  C   UNL A   1      47.134  29.430  28.847  1.00  0.00     0.074 A 
ATOM     59  C   UNL A   1      41.219  31.430  29.974  1.00  0.00     0.029 A 
ATOM     60  N   UNL A   1      43.006  30.251  29.367  1.00  0.00    -0.354 N 
ATOM     61  N   UNL A   1      45.881  29.756  29.048  1.00  0.00    -0.248 NA
ATOM     62  C   UNL A   1      48.095  30.493  29.175  1.00  0.00     0.031 C 
ATOM     63  C   UNL A   1      42.359  32.212  30.186  1.00  0.00     0.029 A 
ATOM     64  C   UNL A   1      43.473  31.468  29.834  1.00  0.00     0.049 A 
ATOM     65  H   UNL A   1      43.572  29.516  29.038  1.00  0.00     0.167 HD
ATOM     66  C   UNL A   1      45.902  31.049  29.552  1.00  0.00     0.074 A 
ATOM     67  C   UNL A   1      47.293  31.442  29.640  1.00  0.00     0.031 C 
ATOM     68  C   UNL A   1      44.862  31.841  29.911  1.00  0.00     0.031 A 
BRANCH  55  69
ATOM     69  C   UNL A   1      39.312  29.260  29.061  1.00  0.00    -0.014 A 
ATOM     70  C   UNL A   1      38.592  28.949  30.226  1.00  0.00     0.009 A 
ATOM     71  C   UNL A   1      38.614  29.730  27.939  1.00  0.00     0.009 A 
ATOM     72  C   UNL A   1      37.201  29.067  30.252  1.00  0.00     0.001 A 
ATOM     73  C   UNL A   1      37.227  29.877  27.977  1.00  0.00     0.001 A 
ATOM     74  C   UNL A   1      36.520  29.534  29.129  1.00  0.00     0.000 A 
ENDBRANCH  55  69
BRANCH  56  75
ATOM     75  C   UNL A   1      49.177  27.958  28.200  1.00  0.00    -0.014 A 
ATOM     76  C   UNL A   1      49.946  27.495  29.278  1.00  0.00     0.009 A 
ATOM     77  C   UNL A   1      49.817  28.253  26.986  1.00  0.00     0.009 A 
ATOM     78  C   UNL A   1      51.330  27.355  29.151  1.00  0.00     0.001 A 
ATOM     79  C   UNL A   1      51.197  28.084  26.854  1.00  0.00     0.001 A 
ATOM     80  C   UNL A   1      51.954  27.645  27.939  1.00  0.00     0.000 A 
ENDBRANCH  56  75
BRANCH  68  81
ATOM     81  C   UNL A   1      45.193  33.199  30.463  1.00  0.00    -0.014 A 
ATOM     82  C   UNL A   1      45.427  33.392  31.833  1.00  0.00     0.009 A 
ATOM     83  C   UNL A   1      45.313  34.291  29.590  1.00  0.00     0.009 A 
ATOM     84  C   UNL A   1      45.744  34.661  32.322  1.00  0.00     0.001 A 
ATOM     85  C   UNL A   1      45.659  35.553  30.077  1.00  0.00     0.001 A 
ATOM     86  C   UNL A   1      45.865  35.738  31.442  1.00  0.00     0.000 A 
ENDBRANCH  68  81
ENDBRANCH  42  43
ENDBRANCH  34  37
ENDBRANCH  32  33
ENDBRANCH  31  32
ENDBRANCH   1  31
TORSDOF 14
ENDMDL
