MODEL 1
REMARK VINA RESULT:     -10.2      0.000      0.000
REMARK SMILES COc1ccccc1N1CCN(C(=O)COCC(=O)NCCCCNC(=O)c2ccc(-c3c4nc(c(-c5ccccc5)c5ccc([nH]5)c(-c5ccccc5)c5nc(c(-c6ccccc6)c6ccc3[nH]6)C=C5)C=C4)cc2)CC1
REMARK SMILES IDX 21 1 20 2 18 3 19 4 17 6 16 7 15 8 13 9 9 10 10 11 77 12
REMARK SMILES IDX 11 13 76 14 12 15 14 16 8 17 3 18 4 19 5 20 7 21 6 22 2 23
REMARK SMILES IDX 1 24 22 25 23 26 24 27 25 28 26 29 27 31 28 32 29 33 75 34
REMARK SMILES IDX 30 35 74 36 31 37 32 38 33 39 68 40 34 41 73 42 67 43 69 44
REMARK SMILES IDX 35 45 72 46 66 47 65 48 36 50 58 51 43 52 57 53 44 54 47 55
REMARK SMILES IDX 56 56 70 57 45 58 46 59 55 61 71 62 48 63 37 64 38 65 42 66
REMARK SMILES IDX 39 67 41 68 40 69 59 70 60 71 64 72 61 73 63 74 62 75 49 76
REMARK SMILES IDX 50 77 54 78 51 79 53 80 52 81
REMARK H PARENT 20 5 25 30 69 49 47 60
REMARK Flexibility Score: inf
ROOT
ATOM      1  C   UNL A   1      37.816  23.176  26.116  1.00  0.00     0.116 C 
ENDROOT
BRANCH   1   2
ATOM      2  N   UNL A   1      37.493  23.368  24.715  1.00  0.00    -0.354 N 
ATOM      3  C   UNL A   1      36.710  22.582  23.916  1.00  0.00     0.246 C 
ATOM      4  O   UNL A   1      36.511  22.929  22.752  1.00  0.00    -0.272 OA
ATOM      5  H   UNL A   1      37.887  24.162  24.288  1.00  0.00     0.163 HD
BRANCH   3   6
ATOM      6  C   UNL A   1      36.089  21.313  24.505  1.00  0.00     0.260 C 
BRANCH   6   7
ATOM      7  O   UNL A   1      34.867  21.511  25.210  1.00  0.00    -0.362 OA
BRANCH   7   8
ATOM      8  C   UNL A   1      33.722  21.366  24.375  1.00  0.00     0.260 C 
BRANCH   8   9
ATOM      9  C   UNL A   1      32.422  21.939  24.956  1.00  0.00     0.248 C 
ATOM     10  N   UNL A   1      32.133  26.036  25.877  1.00  0.00    -0.365 N 
ATOM     11  C   UNL A   1      31.123  25.104  26.379  1.00  0.00     0.138 C 
ATOM     12  C   UNL A   1      33.469  25.473  25.661  1.00  0.00     0.138 C 
ATOM     13  C   UNL A   1      31.023  23.904  25.421  1.00  0.00     0.141 C 
ATOM     14  C   UNL A   1      33.383  24.270  24.707  1.00  0.00     0.141 C 
ATOM     15  N   UNL A   1      32.330  23.313  25.094  1.00  0.00    -0.337 N 
ATOM     16  O   UNL A   1      31.504  21.180  25.275  1.00  0.00    -0.272 OA
BRANCH  10  17
ATOM     17  C   UNL A   1      31.985  27.406  25.960  1.00  0.00     0.079 A 
ATOM     18  C   UNL A   1      31.560  28.175  24.855  1.00  0.00     0.142 A 
ATOM     19  C   UNL A   1      31.459  29.566  24.923  1.00  0.00     0.048 A 
ATOM     20  C   UNL A   1      31.748  30.223  26.116  1.00  0.00     0.004 A 
ATOM     21  C   UNL A   1      32.257  28.093  27.151  1.00  0.00     0.030 A 
ATOM     22  C   UNL A   1      32.144  29.487  27.231  1.00  0.00     0.002 A 
BRANCH  18  23
ATOM     23  O   UNL A   1      31.258  27.593  23.642  1.00  0.00    -0.495 OA
ATOM     24  C   UNL A   1      29.843  27.478  23.485  1.00  0.00     0.278 C 
ENDBRANCH  18  23
ENDBRANCH  10  17
ENDBRANCH   8   9
ENDBRANCH   7   8
ENDBRANCH   6   7
ENDBRANCH   3   6
ENDBRANCH   1   2
BRANCH   1  25
ATOM     25  C   UNL A   1      39.255  22.707  26.324  1.00  0.00     0.023 C 
BRANCH  25  26
ATOM     26  C   UNL A   1      39.554  21.296  25.810  1.00  0.00     0.023 C 
BRANCH  26  27
ATOM     27  C   UNL A   1      40.405  20.428  26.729  1.00  0.00     0.116 C 
BRANCH  27  28
ATOM     28  N   UNL A   1      41.604  19.915  26.087  1.00  0.00    -0.352 N 
ATOM     29  C   UNL A   1      42.807  20.546  25.861  1.00  0.00     0.251 C 
ATOM     30  H   UNL A   1      41.548  18.985  25.768  1.00  0.00     0.163 HD
ATOM     31  O   UNL A   1      43.675  19.997  25.199  1.00  0.00    -0.269 OA
BRANCH  29  32
ATOM     32  C   UNL A   1      43.032  21.909  26.392  1.00  0.00     0.039 A 
ATOM     33  C   UNL A   1      43.157  22.968  25.489  1.00  0.00     0.014 A 
ATOM     34  C   UNL A   1      43.108  22.147  27.767  1.00  0.00     0.014 A 
ATOM     35  C   UNL A   1      43.288  24.275  25.965  1.00  0.00     0.010 A 
ATOM     36  C   UNL A   1      43.166  23.456  28.240  1.00  0.00     0.010 A 
ATOM     37  C   UNL A   1      43.255  24.534  27.345  1.00  0.00    -0.014 A 
BRANCH  37  38
ATOM     38  C   UNL A   1      43.304  25.922  27.871  1.00  0.00     0.031 A 
ATOM     39  C   UNL A   1      44.618  26.535  28.271  1.00  0.00     0.074 A 
ATOM     40  C   UNL A   1      42.159  26.608  28.054  1.00  0.00     0.049 A 
ATOM     41  N   UNL A   1      44.852  27.705  28.811  1.00  0.00    -0.248 NA
ATOM     42  C   UNL A   1      45.824  25.719  28.058  1.00  0.00     0.031 C 
ATOM     43  C   UNL A   1      40.816  26.117  27.743  1.00  0.00     0.029 A 
ATOM     44  N   UNL A   1      41.943  27.868  28.555  1.00  0.00    -0.354 N 
ATOM     45  C   UNL A   1      46.225  27.757  29.018  1.00  0.00     0.074 A 
ATOM     46  C   UNL A   1      46.765  26.484  28.591  1.00  0.00     0.031 C 
ATOM     47  C   UNL A   1      39.918  27.072  28.036  1.00  0.00     0.029 A 
ATOM     48  C   UNL A   1      40.617  28.226  28.595  1.00  0.00     0.049 A 
ATOM     49  H   UNL A   1      42.669  28.459  28.858  1.00  0.00     0.167 HD
ATOM     50  C   UNL A   1      46.973  28.776  29.503  1.00  0.00     0.031 A 
ATOM     51  C   UNL A   1      40.027  29.351  29.040  1.00  0.00     0.031 A 
ATOM     52  C   UNL A   1      46.441  30.046  29.921  1.00  0.00     0.049 A 
ATOM     53  C   UNL A   1      40.878  30.461  29.592  1.00  0.00     0.074 A 
ATOM     54  C   UNL A   1      47.125  31.161  30.373  1.00  0.00     0.029 A 
ATOM     55  N   UNL A   1      45.093  30.369  29.938  1.00  0.00    -0.354 N 
ATOM     56  N   UNL A   1      42.182  30.518  29.718  1.00  0.00    -0.248 NA
ATOM     57  C   UNL A   1      40.174  31.667  30.052  1.00  0.00     0.031 C 
ATOM     58  C   UNL A   1      46.188  32.140  30.715  1.00  0.00     0.029 A 
ATOM     59  C   UNL A   1      44.923  31.656  30.419  1.00  0.00     0.049 A 
ATOM     60  H   UNL A   1      44.365  29.771  29.653  1.00  0.00     0.167 HD
ATOM     61  C   UNL A   1      42.455  31.775  30.244  1.00  0.00     0.074 A 
ATOM     62  C   UNL A   1      41.184  32.452  30.398  1.00  0.00     0.031 C 
ATOM     63  C   UNL A   1      43.653  32.318  30.567  1.00  0.00     0.031 A 
BRANCH  50  64
ATOM     64  C   UNL A   1      48.456  28.552  29.618  1.00  0.00    -0.014 A 
ATOM     65  C   UNL A   1      49.023  28.018  30.786  1.00  0.00     0.009 A 
ATOM     66  C   UNL A   1      49.293  28.847  28.530  1.00  0.00     0.009 A 
ATOM     67  C   UNL A   1      50.403  27.820  30.876  1.00  0.00     0.001 A 
ATOM     68  C   UNL A   1      50.668  28.620  28.612  1.00  0.00     0.001 A 
ATOM     69  C   UNL A   1      51.223  28.117  29.788  1.00  0.00     0.000 A 
ENDBRANCH  50  64
BRANCH  51  70
ATOM     70  C   UNL A   1      38.549  29.495  28.971  1.00  0.00    -0.014 A 
ATOM     71  C   UNL A   1      37.925  29.861  27.768  1.00  0.00     0.009 A 
ATOM     72  C   UNL A   1      37.755  29.279  30.109  1.00  0.00     0.009 A 
ATOM     73  C   UNL A   1      36.540  30.034  27.713  1.00  0.00     0.001 A 
ATOM     74  C   UNL A   1      36.368  29.424  30.042  1.00  0.00     0.001 A 
ATOM     75  C   UNL A   1      35.762  29.811  28.848  1.00  0.00     0.000 A 
ENDBRANCH  51  70
BRANCH  63  76
ATOM     76  C   UNL A   1      43.652  33.730  31.084  1.00  0.00    -0.014 A 
ATOM     77  C   UNL A   1      43.586  34.005  32.459  1.00  0.00     0.009 A 
ATOM     78  C   UNL A   1      43.759  34.799  30.180  1.00  0.00     0.009 A 
ATOM     79  C   UNL A   1      43.596  35.326  32.914  1.00  0.00     0.001 A 
ATOM     80  C   UNL A   1      43.798  36.116  30.640  1.00  0.00     0.001 A 
ATOM     81  C   UNL A   1      43.707  36.378  32.006  1.00  0.00     0.000 A 
ENDBRANCH  63  76
ENDBRANCH  37  38
ENDBRANCH  29  32
ENDBRANCH  27  28
ENDBRANCH  26  27
ENDBRANCH  25  26
ENDBRANCH   1  25
TORSDOF 16
ENDMDL
MODEL 2
REMARK VINA RESULT:     -10.1      2.879      8.755
REMARK SMILES COc1ccccc1N1CCN(C(=O)COCC(=O)NCCCCNC(=O)c2ccc(-c3c4nc(c(-c5ccccc5)c5ccc([nH]5)c(-c5ccccc5)c5nc(c(-c6ccccc6)c6ccc3[nH]6)C=C5)C=C4)cc2)CC1
REMARK SMILES IDX 21 1 20 2 18 3 19 4 17 6 16 7 15 8 13 9 9 10 10 11 77 12
REMARK SMILES IDX 11 13 76 14 12 15 14 16 8 17 3 18 4 19 5 20 7 21 6 22 2 23
REMARK SMILES IDX 1 24 22 25 23 26 24 27 25 28 26 29 27 31 28 32 29 33 75 34
REMARK SMILES IDX 30 35 74 36 31 37 32 38 33 39 68 40 34 41 73 42 67 43 69 44
REMARK SMILES IDX 35 45 72 46 66 47 65 48 36 50 58 51 43 52 57 53 44 54 47 55
REMARK SMILES IDX 56 56 70 57 45 58 46 59 55 61 71 62 48 63 37 64 38 65 42 66
REMARK SMILES IDX 39 67 41 68 40 69 59 70 60 71 64 72 61 73 63 74 62 75 49 76
REMARK SMILES IDX 50 77 54 78 51 79 53 80 52 81
REMARK H PARENT 20 5 25 30 69 49 47 60
REMARK Flexibility Score: inf
ROOT
ATOM      1  C   UNL A   1      34.277  29.149  27.285  1.00  0.00     0.116 C 
ENDROOT
BRANCH   1   2
ATOM      2  N   UNL A   1      33.030  28.598  27.778  1.00  0.00    -0.354 N 
ATOM      3  C   UNL A   1      31.996  28.073  27.053  1.00  0.00     0.246 C 
ATOM      4  O   UNL A   1      31.026  27.607  27.652  1.00  0.00    -0.272 OA
ATOM      5  H   UNL A   1      32.913  28.604  28.756  1.00  0.00     0.163 HD
BRANCH   3   6
ATOM      6  C   UNL A   1      32.095  28.058  25.526  1.00  0.00     0.260 C 
BRANCH   6   7
ATOM      7  O   UNL A   1      30.878  28.341  24.841  1.00  0.00    -0.362 OA
BRANCH   7   8
ATOM      8  C   UNL A   1      30.360  27.207  24.152  1.00  0.00     0.260 C 
BRANCH   8   9
ATOM      9  C   UNL A   1      31.335  26.548  23.168  1.00  0.00     0.248 C 
ATOM     10  N   UNL A   1      32.936  22.744  23.997  1.00  0.00    -0.365 N 
ATOM     11  C   UNL A   1      33.524  23.566  22.939  1.00  0.00     0.138 C 
ATOM     12  C   UNL A   1      32.302  23.476  25.096  1.00  0.00     0.138 C 
ATOM     13  C   UNL A   1      32.445  24.506  22.372  1.00  0.00     0.141 C 
ATOM     14  C   UNL A   1      31.222  24.421  24.542  1.00  0.00     0.141 C 
ATOM     15  N   UNL A   1      31.708  25.237  23.413  1.00  0.00    -0.337 N 
ATOM     16  O   UNL A   1      31.752  27.182  22.196  1.00  0.00    -0.272 OA
BRANCH  10  17
ATOM     17  C   UNL A   1      33.270  21.416  24.176  1.00  0.00     0.079 A 
ATOM     18  C   UNL A   1      34.506  21.032  24.741  1.00  0.00     0.142 A 
ATOM     19  C   UNL A   1      34.866  19.689  24.877  1.00  0.00     0.048 A 
ATOM     20  C   UNL A   1      33.979  18.693  24.480  1.00  0.00     0.004 A 
ATOM     21  C   UNL A   1      32.393  20.391  23.799  1.00  0.00     0.030 A 
ATOM     22  C   UNL A   1      32.742  19.042  23.944  1.00  0.00     0.002 A 
BRANCH  18  23
ATOM     23  O   UNL A   1      35.433  21.964  25.155  1.00  0.00    -0.495 OA
ATOM     24  C   UNL A   1      36.722  21.362  25.283  1.00  0.00     0.278 C 
ENDBRANCH  18  23
ENDBRANCH  10  17
ENDBRANCH   8   9
ENDBRANCH   7   8
ENDBRANCH   6   7
ENDBRANCH   3   6
ENDBRANCH   1   2
BRANCH   1  25
ATOM     25  C   UNL A   1      34.418  30.639  27.593  1.00  0.00     0.023 C 
BRANCH  25  26
ATOM     26  C   UNL A   1      33.096  31.405  27.694  1.00  0.00     0.023 C 
BRANCH  26  27
ATOM     27  C   UNL A   1      33.043  32.728  26.938  1.00  0.00     0.116 C 
BRANCH  27  28
ATOM     28  N   UNL A   1      32.605  33.842  27.762  1.00  0.00    -0.352 N 
ATOM     29  C   UNL A   1      33.202  34.386  28.878  1.00  0.00     0.251 C 
ATOM     30  H   UNL A   1      31.761  34.268  27.484  1.00  0.00     0.163 HD
ATOM     31  O   UNL A   1      32.631  35.255  29.520  1.00  0.00    -0.269 OA
BRANCH  29  32
ATOM     32  C   UNL A   1      34.524  33.888  29.319  1.00  0.00     0.039 A 
ATOM     33  C   UNL A   1      34.592  33.095  30.468  1.00  0.00     0.014 A 
ATOM     34  C   UNL A   1      35.686  34.187  28.604  1.00  0.00     0.014 A 
ATOM     35  C   UNL A   1      35.815  32.545  30.860  1.00  0.00     0.010 A 
ATOM     36  C   UNL A   1      36.890  33.580  28.955  1.00  0.00     0.010 A 
ATOM     37  C   UNL A   1      36.967  32.751  30.084  1.00  0.00    -0.014 A 
BRANCH  37  38
ATOM     38  C   UNL A   1      38.258  32.105  30.433  1.00  0.00     0.031 A 
ATOM     39  C   UNL A   1      39.224  32.791  31.358  1.00  0.00     0.074 A 
ATOM     40  C   UNL A   1      38.592  30.929  29.864  1.00  0.00     0.049 A 
ATOM     41  N   UNL A   1      40.424  32.416  31.725  1.00  0.00    -0.248 NA
ATOM     42  C   UNL A   1      38.798  34.080  31.927  1.00  0.00     0.031 C 
ATOM     43  C   UNL A   1      37.763  30.176  28.922  1.00  0.00     0.029 A 
ATOM     44  N   UNL A   1      39.726  30.166  29.991  1.00  0.00    -0.354 N 
ATOM     45  C   UNL A   1      40.900  33.427  32.550  1.00  0.00     0.074 A 
ATOM     46  C   UNL A   1      39.881  34.453  32.592  1.00  0.00     0.031 C 
ATOM     47  C   UNL A   1      38.404  29.048  28.576  1.00  0.00     0.029 A 
ATOM     48  C   UNL A   1      39.705  29.018  29.236  1.00  0.00     0.049 A 
ATOM     49  H   UNL A   1      40.483  30.417  30.568  1.00  0.00     0.167 HD
ATOM     50  C   UNL A   1      42.071  33.490  33.227  1.00  0.00     0.031 A 
ATOM     51  C   UNL A   1      40.632  28.053  29.084  1.00  0.00     0.031 A 
ATOM     52  C   UNL A   1      43.083  32.468  33.195  1.00  0.00     0.049 A 
ATOM     53  C   UNL A   1      41.932  28.156  29.832  1.00  0.00     0.074 A 
ATOM     54  C   UNL A   1      44.279  32.416  33.892  1.00  0.00     0.029 A 
ATOM     55  N   UNL A   1      43.019  31.319  32.424  1.00  0.00    -0.354 N 
ATOM     56  N   UNL A   1      42.338  29.088  30.661  1.00  0.00    -0.248 NA
ATOM     57  C   UNL A   1      42.899  27.067  29.631  1.00  0.00     0.031 C 
ATOM     58  C   UNL A   1      44.962  31.261  33.501  1.00  0.00     0.029 A 
ATOM     59  C   UNL A   1      44.166  30.564  32.606  1.00  0.00     0.049 A 
ATOM     60  H   UNL A   1      42.271  31.076  31.832  1.00  0.00     0.167 HD
ATOM     61  C   UNL A   1      43.591  28.682  31.102  1.00  0.00     0.074 A 
ATOM     62  C   UNL A   1      43.872  27.414  30.460  1.00  0.00     0.031 C 
ATOM     63  C   UNL A   1      44.432  29.304  31.963  1.00  0.00     0.031 A 
BRANCH  50  64
ATOM     64  C   UNL A   1      42.325  34.719  34.057  1.00  0.00    -0.014 A 
ATOM     65  C   UNL A   1      41.994  34.757  35.422  1.00  0.00     0.009 A 
ATOM     66  C   UNL A   1      42.935  35.841  33.476  1.00  0.00     0.009 A 
ATOM     67  C   UNL A   1      42.233  35.907  36.176  1.00  0.00     0.001 A 
ATOM     68  C   UNL A   1      43.201  36.980  34.239  1.00  0.00     0.001 A 
ATOM     69  C   UNL A   1      42.840  37.015  35.586  1.00  0.00     0.000 A 
ENDBRANCH  50  64
BRANCH  51  70
ATOM     70  C   UNL A   1      40.362  26.893  28.195  1.00  0.00    -0.014 A 
ATOM     71  C   UNL A   1      39.626  25.794  28.664  1.00  0.00     0.009 A 
ATOM     72  C   UNL A   1      40.847  26.873  26.878  1.00  0.00     0.009 A 
ATOM     73  C   UNL A   1      39.405  24.687  27.841  1.00  0.00     0.001 A 
ATOM     74  C   UNL A   1      40.598  25.778  26.048  1.00  0.00     0.001 A 
ATOM     75  C   UNL A   1      39.887  24.682  26.533  1.00  0.00     0.000 A 
ENDBRANCH  51  70
BRANCH  63  76
ATOM     76  C   UNL A   1      45.721  28.603  32.293  1.00  0.00    -0.014 A 
ATOM     77  C   UNL A   1      45.803  27.682  33.349  1.00  0.00     0.009 A 
ATOM     78  C   UNL A   1      46.860  28.842  31.507  1.00  0.00     0.009 A 
ATOM     79  C   UNL A   1      47.010  27.037  33.629  1.00  0.00     0.001 A 
ATOM     80  C   UNL A   1      48.056  28.174  31.772  1.00  0.00     0.001 A 
ATOM     81  C   UNL A   1      48.133  27.280  32.838  1.00  0.00     0.000 A 
ENDBRANCH  63  76
ENDBRANCH  37  38
ENDBRANCH  29  32
ENDBRANCH  27  28
ENDBRANCH  26  27
ENDBRANCH  25  26
ENDBRANCH   1  25
TORSDOF 16
ENDMDL
MODEL 3
REMARK VINA RESULT:     -10.0      3.187      9.157
REMARK SMILES COc1ccccc1N1CCN(C(=O)COCC(=O)NCCCCNC(=O)c2ccc(-c3c4nc(c(-c5ccccc5)c5ccc([nH]5)c(-c5ccccc5)c5nc(c(-c6ccccc6)c6ccc3[nH]6)C=C5)C=C4)cc2)CC1
REMARK SMILES IDX 21 1 20 2 18 3 19 4 17 6 16 7 15 8 13 9 9 10 10 11 77 12
REMARK SMILES IDX 11 13 76 14 12 15 14 16 8 17 3 18 4 19 5 20 7 21 6 22 2 23
REMARK SMILES IDX 1 24 22 25 23 26 24 27 25 28 26 29 27 31 28 32 29 33 75 34
REMARK SMILES IDX 30 35 74 36 31 37 32 38 33 39 68 40 34 41 73 42 67 43 69 44
REMARK SMILES IDX 35 45 72 46 66 47 65 48 36 50 58 51 43 52 57 53 44 54 47 55
REMARK SMILES IDX 56 56 70 57 45 58 46 59 55 61 71 62 48 63 37 64 38 65 42 66
REMARK SMILES IDX 39 67 41 68 40 69 59 70 60 71 64 72 61 73 63 74 62 75 49 76
REMARK SMILES IDX 50 77 54 78 51 79 53 80 52 81
REMARK H PARENT 20 5 25 30 69 49 47 60
REMARK Flexibility Score: inf
ROOT
ATOM      1  C   UNL A   1      34.266  29.034  27.303  1.00  0.00     0.116 C 
ENDROOT
BRANCH   1   2
ATOM      2  N   UNL A   1      32.999  28.524  27.790  1.00  0.00    -0.354 N 
ATOM      3  C   UNL A   1      32.023  27.880  27.083  1.00  0.00     0.246 C 
ATOM      4  O   UNL A   1      31.024  27.476  27.679  1.00  0.00    -0.272 OA
ATOM      5  H   UNL A   1      32.820  28.660  28.749  1.00  0.00     0.163 HD
BRANCH   3   6
ATOM      6  C   UNL A   1      32.218  27.660  25.580  1.00  0.00     0.260 C 
BRANCH   6   7
ATOM      7  O   UNL A   1      31.078  27.946  24.776  1.00  0.00    -0.362 OA
BRANCH   7   8
ATOM      8  C   UNL A   1      30.651  26.825  24.009  1.00  0.00     0.260 C 
BRANCH   8   9
ATOM      9  C   UNL A   1      31.745  26.174  23.152  1.00  0.00     0.248 C 
ATOM     10  N   UNL A   1      32.779  22.136  23.738  1.00  0.00    -0.365 N 
ATOM     11  C   UNL A   1      33.648  23.001  22.940  1.00  0.00     0.138 C 
ATOM     12  C   UNL A   1      32.000  22.804  24.783  1.00  0.00     0.138 C 
ATOM     13  C   UNL A   1      32.803  24.123  22.310  1.00  0.00     0.141 C 
ATOM     14  C   UNL A   1      31.152  23.929  24.167  1.00  0.00     0.141 C 
ATOM     15  N   UNL A   1      31.936  24.808  23.280  1.00  0.00    -0.337 N 
ATOM     16  O   UNL A   1      32.413  26.864  22.378  1.00  0.00    -0.272 OA
BRANCH  10  17
ATOM     17  C   UNL A   1      32.944  20.766  23.792  1.00  0.00     0.079 A 
ATOM     18  C   UNL A   1      33.887  20.166  24.654  1.00  0.00     0.142 A 
ATOM     19  C   UNL A   1      34.090  18.784  24.674  1.00  0.00     0.048 A 
ATOM     20  C   UNL A   1      33.326  17.962  23.850  1.00  0.00     0.004 A 
ATOM     21  C   UNL A   1      32.180  19.912  22.984  1.00  0.00     0.030 A 
ATOM     22  C   UNL A   1      32.370  18.525  23.007  1.00  0.00     0.002 A 
BRANCH  18  23
ATOM     23  O   UNL A   1      34.678  20.917  25.496  1.00  0.00    -0.495 OA
ATOM     24  C   UNL A   1      36.042  20.865  25.076  1.00  0.00     0.278 C 
ENDBRANCH  18  23
ENDBRANCH  10  17
ENDBRANCH   8   9
ENDBRANCH   7   8
ENDBRANCH   6   7
ENDBRANCH   3   6
ENDBRANCH   1   2
BRANCH   1  25
ATOM     25  C   UNL A   1      34.481  30.503  27.662  1.00  0.00     0.023 C 
BRANCH  25  26
ATOM     26  C   UNL A   1      33.201  31.340  27.746  1.00  0.00     0.023 C 
BRANCH  26  27
ATOM     27  C   UNL A   1      33.230  32.664  26.992  1.00  0.00     0.116 C 
BRANCH  27  28
ATOM     28  N   UNL A   1      32.735  33.782  27.777  1.00  0.00    -0.352 N 
ATOM     29  C   UNL A   1      33.283  34.370  28.896  1.00  0.00     0.251 C 
ATOM     30  H   UNL A   1      31.887  34.175  27.466  1.00  0.00     0.163 HD
ATOM     31  O   UNL A   1      32.667  35.235  29.500  1.00  0.00    -0.269 OA
BRANCH  29  32
ATOM     32  C   UNL A   1      34.606  33.924  29.385  1.00  0.00     0.039 A 
ATOM     33  C   UNL A   1      34.663  33.123  30.529  1.00  0.00     0.014 A 
ATOM     34  C   UNL A   1      35.782  34.279  28.719  1.00  0.00     0.014 A 
ATOM     35  C   UNL A   1      35.891  32.621  30.965  1.00  0.00     0.010 A 
ATOM     36  C   UNL A   1      36.996  33.720  29.113  1.00  0.00     0.010 A 
ATOM     37  C   UNL A   1      37.064  32.884  30.237  1.00  0.00    -0.014 A 
BRANCH  37  38
ATOM     38  C   UNL A   1      38.366  32.289  30.632  1.00  0.00     0.031 A 
ATOM     39  C   UNL A   1      38.825  30.994  30.022  1.00  0.00     0.074 A 
ATOM     40  C   UNL A   1      39.107  32.880  31.591  1.00  0.00     0.049 A 
ATOM     41  N   UNL A   1      39.896  30.289  30.289  1.00  0.00    -0.248 NA
ATOM     42  C   UNL A   1      37.954  30.399  28.995  1.00  0.00     0.031 C 
ATOM     43  C   UNL A   1      38.760  34.119  32.289  1.00  0.00     0.029 A 
ATOM     44  N   UNL A   1      40.305  32.509  32.149  1.00  0.00    -0.354 N 
ATOM     45  C   UNL A   1      39.818  29.163  29.479  1.00  0.00     0.074 A 
ATOM     46  C   UNL A   1      38.574  29.254  28.746  1.00  0.00     0.031 C 
ATOM     47  C   UNL A   1      39.735  34.418  33.164  1.00  0.00     0.029 A 
ATOM     48  C   UNL A   1      40.753  33.373  33.119  1.00  0.00     0.049 A 
ATOM     49  H   UNL A   1      40.798  31.700  31.880  1.00  0.00     0.167 HD
ATOM     50  C   UNL A   1      40.709  28.153  29.341  1.00  0.00     0.031 A 
ATOM     51  C   UNL A   1      41.853  33.326  33.894  1.00  0.00     0.031 A 
ATOM     52  C   UNL A   1      41.951  28.063  30.061  1.00  0.00     0.049 A 
ATOM     53  C   UNL A   1      42.818  32.184  33.735  1.00  0.00     0.074 A 
ATOM     54  C   UNL A   1      42.946  27.106  29.949  1.00  0.00     0.029 A 
ATOM     55  N   UNL A   1      42.369  28.962  31.029  1.00  0.00    -0.354 N 
ATOM     56  N   UNL A   1      42.761  31.162  32.915  1.00  0.00    -0.248 NA
ATOM     57  C   UNL A   1      44.004  32.195  34.603  1.00  0.00     0.031 C 
ATOM     58  C   UNL A   1      43.941  27.398  30.887  1.00  0.00     0.029 A 
ATOM     59  C   UNL A   1      43.594  28.569  31.542  1.00  0.00     0.049 A 
ATOM     60  H   UNL A   1      41.868  29.761  31.312  1.00  0.00     0.167 HD
ATOM     61  C   UNL A   1      43.917  30.427  33.148  1.00  0.00     0.074 A 
ATOM     62  C   UNL A   1      44.661  31.127  34.174  1.00  0.00     0.031 C 
ATOM     63  C   UNL A   1      44.324  29.275  32.561  1.00  0.00     0.031 A 
BRANCH  50  64
ATOM     64  C   UNL A   1      40.363  27.052  28.377  1.00  0.00    -0.014 A 
ATOM     65  C   UNL A   1      40.850  27.058  27.059  1.00  0.00     0.009 A 
ATOM     66  C   UNL A   1      39.568  25.976  28.801  1.00  0.00     0.009 A 
ATOM     67  C   UNL A   1      40.516  26.030  26.176  1.00  0.00     0.001 A 
ATOM     68  C   UNL A   1      39.259  24.933  27.924  1.00  0.00     0.001 A 
ATOM     69  C   UNL A   1      39.725  24.966  26.611  1.00  0.00     0.000 A 
ENDBRANCH  50  64
BRANCH  51  70
ATOM     70  C   UNL A   1      42.114  34.404  34.884  1.00  0.00    -0.014 A 
ATOM     71  C   UNL A   1      41.633  34.295  36.197  1.00  0.00     0.009 A 
ATOM     72  C   UNL A   1      42.837  35.550  34.518  1.00  0.00     0.009 A 
ATOM     73  C   UNL A   1      41.845  35.326  37.116  1.00  0.00     0.001 A 
ATOM     74  C   UNL A   1      43.073  36.565  35.448  1.00  0.00     0.001 A 
ATOM     75  C   UNL A   1      42.569  36.457  36.743  1.00  0.00     0.000 A 
ENDBRANCH  51  70
BRANCH  63  76
ATOM     76  C   UNL A   1      45.655  28.720  32.987  1.00  0.00    -0.014 A 
ATOM     77  C   UNL A   1      46.843  29.086  32.335  1.00  0.00     0.009 A 
ATOM     78  C   UNL A   1      45.723  27.847  34.085  1.00  0.00     0.009 A 
ATOM     79  C   UNL A   1      48.068  28.563  32.756  1.00  0.00     0.001 A 
ATOM     80  C   UNL A   1      46.951  27.350  34.521  1.00  0.00     0.001 A 
ATOM     81  C   UNL A   1      48.121  27.701  33.850  1.00  0.00     0.000 A 
ENDBRANCH  63  76
ENDBRANCH  37  38
ENDBRANCH  29  32
ENDBRANCH  27  28
ENDBRANCH  26  27
ENDBRANCH  25  26
ENDBRANCH   1  25
TORSDOF 16
ENDMDL
