MODEL 1
REMARK VINA RESULT:     -11.5      0.000      0.000
REMARK SMILES CCOc1cccc(C(=O)Nc2ccc(Cl)c(C(=O)NCCCCNC(=O)c3ccc(-c4c5nc(c(-c6ccccc6)c6ccc([nH]6)c(-c6ccccc6)c6nc(c(-c7ccccc7)c7ccc4[nH]7)C=C6)C=C5)cc3)c2)c1
REMARK SMILES IDX 21 1 20 2 18 3 19 4 17 6 12 7 13 8 76 9 14 10 15 11 16 12
REMARK SMILES IDX 11 13 9 14 10 15 8 17 4 18 5 19 77 20 6 21 7 22 3 23 2 24
REMARK SMILES IDX 1 25 22 26 23 27 24 28 25 29 26 30 27 32 28 33 29 34 75 35
REMARK SMILES IDX 30 36 74 37 31 38 32 39 33 40 68 41 34 42 73 43 67 44 69 45
REMARK SMILES IDX 35 46 72 47 66 48 65 49 36 51 58 52 43 53 57 54 44 55 47 56
REMARK SMILES IDX 56 57 70 58 45 59 46 60 55 62 71 63 48 64 37 65 38 66 42 67
REMARK SMILES IDX 39 68 41 69 40 70 59 71 60 72 64 73 61 74 63 75 62 76 49 77
REMARK SMILES IDX 50 78 54 79 51 80 53 81 52 82
REMARK H PARENT 20 5 11 16 25 31 69 50 47 61
REMARK Flexibility Score: inf
ROOT
ATOM      1  C   UNL A   1      30.914  26.459  26.085  1.00  0.00     0.116 C 
ENDROOT
BRANCH   1   2
ATOM      2  N   UNL A   1      30.535  25.147  26.559  1.00  0.00    -0.352 N 
ATOM      3  C   UNL A   1      30.809  23.870  26.134  1.00  0.00     0.252 C 
ATOM      4  O   UNL A   1      30.129  22.990  26.660  1.00  0.00    -0.269 OA
ATOM      5  H   UNL A   1      29.958  25.174  27.356  1.00  0.00     0.163 HD
BRANCH   3   6
ATOM      6  C   UNL A   1      31.867  23.518  25.128  1.00  0.00     0.060 A 
ATOM      7  C   UNL A   1      32.800  23.645  22.865  1.00  0.00     0.042 A 
ATOM      8  C   UNL A   1      33.916  22.920  23.262  1.00  0.00     0.028 A 
ATOM      9  C   UNL A   1      31.744  23.836  23.764  1.00  0.00     0.041 A 
ATOM     10  C   UNL A   1      34.043  22.538  24.595  1.00  0.00     0.023 A 
ATOM     11  C   UNL A   1      33.051  22.865  25.533  1.00  0.00     0.053 A 
ATOM     12  Cl  UNL A   1      33.450  22.473  27.172  1.00  0.00    -0.083 Cl
BRANCH   7  13
ATOM     13  N   UNL A   1      32.801  24.185  21.573  1.00  0.00    -0.322 N 
ATOM     14  C   UNL A   1      32.485  25.448  21.109  1.00  0.00     0.255 C 
ATOM     15  O   UNL A   1      32.305  25.592  19.899  1.00  0.00    -0.269 OA
ATOM     16  H   UNL A   1      33.076  23.552  20.869  1.00  0.00     0.170 HD
BRANCH  14  17
ATOM     17  C   UNL A   1      32.457  26.667  21.981  1.00  0.00     0.043 A 
ATOM     18  C   UNL A   1      31.324  28.477  23.139  1.00  0.00     0.120 A 
ATOM     19  C   UNL A   1      32.555  29.017  23.510  1.00  0.00     0.046 A 
ATOM     20  C   UNL A   1      31.275  27.273  22.435  1.00  0.00     0.060 A 
ATOM     21  C   UNL A   1      33.736  28.360  23.175  1.00  0.00     0.005 A 
ATOM     22  C   UNL A   1      33.687  27.202  22.395  1.00  0.00     0.014 A 
BRANCH  18  23
ATOM     23  O   UNL A   1      30.242  29.296  23.309  1.00  0.00    -0.494 OA
BRANCH  23  24
ATOM     24  C   UNL A   1      29.125  29.097  22.444  1.00  0.00     0.226 C 
ATOM     25  C   UNL A   1      27.873  29.801  22.942  1.00  0.00     0.049 C 
ENDBRANCH  23  24
ENDBRANCH  18  23
ENDBRANCH  14  17
ENDBRANCH   7  13
ENDBRANCH   3   6
ENDBRANCH   1   2
BRANCH   1  26
ATOM     26  C   UNL A   1      32.325  26.803  26.563  1.00  0.00     0.023 C 
BRANCH  26  27
ATOM     27  C   UNL A   1      32.387  28.120  27.333  1.00  0.00     0.023 C 
BRANCH  27  28
ATOM     28  C   UNL A   1      33.654  28.929  27.080  1.00  0.00     0.116 C 
BRANCH  28  29
ATOM     29  N   UNL A   1      33.612  30.260  27.671  1.00  0.00    -0.352 N 
ATOM     30  C   UNL A   1      34.593  30.902  28.383  1.00  0.00     0.251 C 
ATOM     31  H   UNL A   1      32.775  30.761  27.542  1.00  0.00     0.163 HD
ATOM     32  O   UNL A   1      34.380  31.985  28.916  1.00  0.00    -0.269 OA
BRANCH  30  33
ATOM     33  C   UNL A   1      35.907  30.247  28.525  1.00  0.00     0.039 A 
ATOM     34  C   UNL A   1      36.824  30.334  27.477  1.00  0.00     0.014 A 
ATOM     35  C   UNL A   1      36.248  29.610  29.722  1.00  0.00     0.014 A 
ATOM     36  C   UNL A   1      38.114  29.832  27.654  1.00  0.00     0.010 A 
ATOM     37  C   UNL A   1      37.554  29.184  29.923  1.00  0.00     0.010 A 
ATOM     38  C   UNL A   1      38.498  29.287  28.890  1.00  0.00    -0.014 A 
BRANCH  38  39
ATOM     39  C   UNL A   1      39.884  28.818  29.123  1.00  0.00     0.031 A 
ATOM     40  C   UNL A   1      40.888  29.729  29.772  1.00  0.00     0.074 A 
ATOM     41  C   UNL A   1      40.257  27.596  28.693  1.00  0.00     0.049 A 
ATOM     42  N   UNL A   1      42.152  29.512  30.032  1.00  0.00    -0.248 NA
ATOM     43  C   UNL A   1      40.416  31.070  30.153  1.00  0.00     0.031 C 
ATOM     44  C   UNL A   1      39.389  26.635  28.009  1.00  0.00     0.029 A 
ATOM     45  N   UNL A   1      41.467  26.955  28.770  1.00  0.00    -0.354 N 
ATOM     46  C   UNL A   1      42.630  30.694  30.584  1.00  0.00     0.074 A 
ATOM     47  C   UNL A   1      41.535  31.641  30.573  1.00  0.00     0.031 C 
ATOM     48  C   UNL A   1      40.083  25.511  27.769  1.00  0.00     0.029 A 
ATOM     49  C   UNL A   1      41.452  25.688  28.243  1.00  0.00     0.049 A 
ATOM     50  H   UNL A   1      42.270  27.366  29.165  1.00  0.00     0.167 HD
ATOM     51  C   UNL A   1      43.862  30.963  31.076  1.00  0.00     0.031 A 
ATOM     52  C   UNL A   1      42.431  24.768  28.156  1.00  0.00     0.031 A 
ATOM     53  C   UNL A   1      44.944  30.018  31.100  1.00  0.00     0.049 A 
ATOM     54  C   UNL A   1      43.794  25.096  28.698  1.00  0.00     0.074 A 
ATOM     55  C   UNL A   1      46.209  30.167  31.643  1.00  0.00     0.029 A 
ATOM     56  N   UNL A   1      44.891  28.746  30.550  1.00  0.00    -0.354 N 
ATOM     57  N   UNL A   1      44.207  26.188  29.294  1.00  0.00    -0.248 NA
ATOM     58  C   UNL A   1      44.823  24.055  28.563  1.00  0.00     0.031 C 
ATOM     59  C   UNL A   1      46.939  29.004  31.373  1.00  0.00     0.029 A 
ATOM     60  C   UNL A   1      46.111  28.111  30.713  1.00  0.00     0.049 A 
ATOM     61  H   UNL A   1      44.103  28.354  30.109  1.00  0.00     0.167 HD
ATOM     62  C   UNL A   1      45.533  25.955  29.632  1.00  0.00     0.074 A 
ATOM     63  C   UNL A   1      45.851  24.613  29.186  1.00  0.00     0.031 C 
ATOM     64  C   UNL A   1      46.410  26.777  30.260  1.00  0.00     0.031 A 
BRANCH  51  65
ATOM     65  C   UNL A   1      44.100  32.348  31.613  1.00  0.00    -0.014 A 
ATOM     66  C   UNL A   1      43.969  32.633  32.982  1.00  0.00     0.009 A 
ATOM     67  C   UNL A   1      44.470  33.380  30.738  1.00  0.00     0.009 A 
ATOM     68  C   UNL A   1      44.157  33.933  33.456  1.00  0.00     0.001 A 
ATOM     69  C   UNL A   1      44.689  34.673  31.219  1.00  0.00     0.001 A 
ATOM     70  C   UNL A   1      44.520  34.952  32.574  1.00  0.00     0.000 A 
ENDBRANCH  51  65
BRANCH  52  71
ATOM     71  C   UNL A   1      42.151  23.433  27.567  1.00  0.00    -0.014 A 
ATOM     72  C   UNL A   1      42.498  23.164  26.234  1.00  0.00     0.009 A 
ATOM     73  C   UNL A   1      41.537  22.426  28.326  1.00  0.00     0.009 A 
ATOM     74  C   UNL A   1      42.212  21.920  25.666  1.00  0.00     0.001 A 
ATOM     75  C   UNL A   1      41.278  21.174  27.763  1.00  0.00     0.001 A 
ATOM     76  C   UNL A   1      41.607  20.925  26.431  1.00  0.00     0.000 A 
ENDBRANCH  52  71
BRANCH  64  77
ATOM     77  C   UNL A   1      47.785  26.233  30.533  1.00  0.00    -0.014 A 
ATOM     78  C   UNL A   1      48.780  26.235  29.543  1.00  0.00     0.009 A 
ATOM     79  C   UNL A   1      48.094  25.741  31.810  1.00  0.00     0.009 A 
ATOM     80  C   UNL A   1      50.049  25.723  29.820  1.00  0.00     0.001 A 
ATOM     81  C   UNL A   1      49.372  25.257  32.092  1.00  0.00     0.001 A 
ATOM     82  C   UNL A   1      50.346  25.239  31.094  1.00  0.00     0.000 A 
ENDBRANCH  64  77
ENDBRANCH  38  39
ENDBRANCH  30  33
ENDBRANCH  28  29
ENDBRANCH  27  28
ENDBRANCH  26  27
ENDBRANCH   1  26
TORSDOF 15
ENDMDL
MODEL 2
REMARK VINA RESULT:     -11.4      3.477      5.913
REMARK SMILES CCOc1cccc(C(=O)Nc2ccc(Cl)c(C(=O)NCCCCNC(=O)c3ccc(-c4c5nc(c(-c6ccccc6)c6ccc([nH]6)c(-c6ccccc6)c6nc(c(-c7ccccc7)c7ccc4[nH]7)C=C6)C=C5)cc3)c2)c1
REMARK SMILES IDX 21 1 20 2 18 3 19 4 17 6 12 7 13 8 76 9 14 10 15 11 16 12
REMARK SMILES IDX 11 13 9 14 10 15 8 17 4 18 5 19 77 20 6 21 7 22 3 23 2 24
REMARK SMILES IDX 1 25 22 26 23 27 24 28 25 29 26 30 27 32 28 33 29 34 75 35
REMARK SMILES IDX 30 36 74 37 31 38 32 39 33 40 68 41 34 42 73 43 67 44 69 45
REMARK SMILES IDX 35 46 72 47 66 48 65 49 36 51 58 52 43 53 57 54 44 55 47 56
REMARK SMILES IDX 56 57 70 58 45 59 46 60 55 62 71 63 48 64 37 65 38 66 42 67
REMARK SMILES IDX 39 68 41 69 40 70 59 71 60 72 64 73 61 74 63 75 62 76 49 77
REMARK SMILES IDX 50 78 54 79 51 80 53 81 52 82
REMARK H PARENT 20 5 11 16 25 31 69 50 47 61
REMARK Flexibility Score: inf
ROOT
ATOM      1  C   UNL A   1      33.078  30.108  26.526  1.00  0.00     0.116 C 
ENDROOT
BRANCH   1   2
ATOM      2  N   UNL A   1      33.616  29.726  25.240  1.00  0.00    -0.352 N 
ATOM      3  C   UNL A   1      33.365  28.688  24.377  1.00  0.00     0.252 C 
ATOM      4  O   UNL A   1      34.178  28.563  23.462  1.00  0.00    -0.269 OA
ATOM      5  H   UNL A   1      34.310  30.343  24.911  1.00  0.00     0.163 HD
BRANCH   3   6
ATOM      6  C   UNL A   1      32.186  27.762  24.481  1.00  0.00     0.060 A 
ATOM      7  C   UNL A   1      31.009  25.904  25.561  1.00  0.00     0.042 A 
ATOM      8  C   UNL A   1      29.915  26.082  24.723  1.00  0.00     0.028 A 
ATOM      9  C   UNL A   1      32.167  26.663  25.357  1.00  0.00     0.041 A 
ATOM     10  C   UNL A   1      29.924  27.127  23.803  1.00  0.00     0.023 A 
ATOM     11  C   UNL A   1      31.029  27.987  23.704  1.00  0.00     0.053 A 
ATOM     12  Cl  UNL A   1      30.801  29.335  22.640  1.00  0.00    -0.083 Cl
BRANCH   7  13
ATOM     13  N   UNL A   1      30.885  24.978  26.604  1.00  0.00    -0.322 N 
ATOM     14  C   UNL A   1      31.307  23.667  26.719  1.00  0.00     0.255 C 
ATOM     15  O   UNL A   1      30.837  22.985  27.631  1.00  0.00    -0.269 OA
ATOM     16  H   UNL A   1      30.413  25.322  27.398  1.00  0.00     0.170 HD
BRANCH  14  17
ATOM     17  C   UNL A   1      32.381  23.065  25.864  1.00  0.00     0.043 A 
ATOM     18  C   UNL A   1      34.699  22.667  25.255  1.00  0.00     0.120 A 
ATOM     19  C   UNL A   1      34.287  21.993  24.105  1.00  0.00     0.046 A 
ATOM     20  C   UNL A   1      33.749  23.142  26.162  1.00  0.00     0.060 A 
ATOM     21  C   UNL A   1      32.930  21.799  23.858  1.00  0.00     0.005 A 
ATOM     22  C   UNL A   1      31.982  22.351  24.722  1.00  0.00     0.014 A 
BRANCH  18  23
ATOM     23  O   UNL A   1      36.022  23.007  25.300  1.00  0.00    -0.494 OA
BRANCH  23  24
ATOM     24  C   UNL A   1      36.971  22.002  24.947  1.00  0.00     0.226 C 
ATOM     25  C   UNL A   1      38.252  22.104  25.758  1.00  0.00     0.049 C 
ENDBRANCH  23  24
ENDBRANCH  18  23
ENDBRANCH  14  17
ENDBRANCH   7  13
ENDBRANCH   3   6
ENDBRANCH   1   2
BRANCH   1  26
ATOM     26  C   UNL A   1      31.617  30.535  26.380  1.00  0.00     0.023 C 
BRANCH  26  27
ATOM     27  C   UNL A   1      31.416  32.037  26.560  1.00  0.00     0.023 C 
BRANCH  27  28
ATOM     28  C   UNL A   1      32.565  32.736  27.277  1.00  0.00     0.116 C 
BRANCH  28  29
ATOM     29  N   UNL A   1      32.277  34.126  27.604  1.00  0.00    -0.352 N 
ATOM     30  C   UNL A   1      32.930  34.940  28.495  1.00  0.00     0.251 C 
ATOM     31  H   UNL A   1      31.517  34.532  27.127  1.00  0.00     0.163 HD
ATOM     32  O   UNL A   1      32.509  36.062  28.751  1.00  0.00    -0.269 OA
BRANCH  30  33
ATOM     33  C   UNL A   1      34.137  34.425  29.168  1.00  0.00     0.039 A 
ATOM     34  C   UNL A   1      34.030  33.940  30.472  1.00  0.00     0.014 A 
ATOM     35  C   UNL A   1      35.353  34.363  28.480  1.00  0.00     0.014 A 
ATOM     36  C   UNL A   1      35.135  33.330  31.067  1.00  0.00     0.010 A 
ATOM     37  C   UNL A   1      36.426  33.686  29.045  1.00  0.00     0.010 A 
ATOM     38  C   UNL A   1      36.328  33.167  30.345  1.00  0.00    -0.014 A 
BRANCH  38  39
ATOM     39  C   UNL A   1      37.489  32.457  30.932  1.00  0.00     0.031 A 
ATOM     40  C   UNL A   1      38.091  32.939  32.222  1.00  0.00     0.074 A 
ATOM     41  C   UNL A   1      38.040  31.419  30.274  1.00  0.00     0.049 A 
ATOM     42  N   UNL A   1      39.124  32.472  32.876  1.00  0.00    -0.248 NA
ATOM     43  C   UNL A   1      37.470  34.119  32.844  1.00  0.00     0.031 C 
ATOM     44  C   UNL A   1      37.575  30.883  28.992  1.00  0.00     0.029 A 
ATOM     45  N   UNL A   1      39.113  30.628  30.595  1.00  0.00    -0.354 N 
ATOM     46  C   UNL A   1      39.288  33.312  33.970  1.00  0.00     0.074 A 
ATOM     47  C   UNL A   1      38.283  34.347  33.864  1.00  0.00     0.031 C 
ATOM     48  C   UNL A   1      38.333  29.826  28.659  1.00  0.00     0.029 A 
ATOM     49  C   UNL A   1      39.358  29.635  29.679  1.00  0.00     0.049 A 
ATOM     50  H   UNL A   1      39.657  30.761  31.405  1.00  0.00     0.167 HD
ATOM     51  C   UNL A   1      40.180  33.220  34.983  1.00  0.00     0.031 A 
ATOM     52  C   UNL A   1      40.301  28.674  29.666  1.00  0.00     0.031 A 
ATOM     53  C   UNL A   1      41.169  32.182  35.096  1.00  0.00     0.049 A 
ATOM     54  C   UNL A   1      41.288  28.601  30.797  1.00  0.00     0.074 A 
ATOM     55  C   UNL A   1      42.071  31.957  36.121  1.00  0.00     0.029 A 
ATOM     56  N   UNL A   1      41.389  31.199  34.144  1.00  0.00    -0.354 N 
ATOM     57  N   UNL A   1      41.376  29.352  31.867  1.00  0.00    -0.248 NA
ATOM     58  C   UNL A   1      42.299  27.537  30.719  1.00  0.00     0.031 C 
ATOM     59  C   UNL A   1      42.874  30.868  35.763  1.00  0.00     0.029 A 
ATOM     60  C   UNL A   1      42.434  30.382  34.543  1.00  0.00     0.049 A 
ATOM     61  H   UNL A   1      40.879  31.096  33.308  1.00  0.00     0.167 HD
ATOM     62  C   UNL A   1      42.432  28.834  32.606  1.00  0.00     0.074 A 
ATOM     63  C   UNL A   1      42.943  27.697  31.867  1.00  0.00     0.031 C 
ATOM     64  C   UNL A   1      42.932  29.258  33.793  1.00  0.00     0.031 A 
BRANCH  51  65
ATOM     65  C   UNL A   1      40.130  34.287  36.042  1.00  0.00    -0.014 A 
ATOM     66  C   UNL A   1      39.339  34.138  37.193  1.00  0.00     0.009 A 
ATOM     67  C   UNL A   1      40.893  35.455  35.891  1.00  0.00     0.009 A 
ATOM     68  C   UNL A   1      39.275  35.156  38.146  1.00  0.00     0.001 A 
ATOM     69  C   UNL A   1      40.853  36.459  36.861  1.00  0.00     0.001 A 
ATOM     70  C   UNL A   1      40.036  36.315  37.981  1.00  0.00     0.000 A 
ENDBRANCH  51  65
BRANCH  52  71
ATOM     71  C   UNL A   1      40.334  27.677  28.566  1.00  0.00    -0.014 A 
ATOM     72  C   UNL A   1      39.625  26.471  28.685  1.00  0.00     0.009 A 
ATOM     73  C   UNL A   1      41.071  27.918  27.397  1.00  0.00     0.009 A 
ATOM     74  C   UNL A   1      39.674  25.517  27.666  1.00  0.00     0.001 A 
ATOM     75  C   UNL A   1      41.096  26.973  26.368  1.00  0.00     0.001 A 
ATOM     76  C   UNL A   1      40.406  25.770  26.508  1.00  0.00     0.000 A 
ENDBRANCH  52  71
BRANCH  64  77
ATOM     77  C   UNL A   1      44.067  28.467  34.381  1.00  0.00    -0.014 A 
ATOM     78  C   UNL A   1      43.832  27.326  35.165  1.00  0.00     0.009 A 
ATOM     79  C   UNL A   1      45.390  28.852  34.118  1.00  0.00     0.009 A 
ATOM     80  C   UNL A   1      44.902  26.608  35.701  1.00  0.00     0.001 A 
ATOM     81  C   UNL A   1      46.458  28.115  34.630  1.00  0.00     0.001 A 
ATOM     82  C   UNL A   1      46.214  26.999  35.430  1.00  0.00     0.000 A 
ENDBRANCH  64  77
ENDBRANCH  38  39
ENDBRANCH  30  33
ENDBRANCH  28  29
ENDBRANCH  27  28
ENDBRANCH  26  27
ENDBRANCH   1  26
TORSDOF 15
ENDMDL
MODEL 3
REMARK VINA RESULT:     -11.3      2.675      7.160
REMARK SMILES CCOc1cccc(C(=O)Nc2ccc(Cl)c(C(=O)NCCCCNC(=O)c3ccc(-c4c5nc(c(-c6ccccc6)c6ccc([nH]6)c(-c6ccccc6)c6nc(c(-c7ccccc7)c7ccc4[nH]7)C=C6)C=C5)cc3)c2)c1
REMARK SMILES IDX 21 1 20 2 18 3 19 4 17 6 12 7 13 8 76 9 14 10 15 11 16 12
REMARK SMILES IDX 11 13 9 14 10 15 8 17 4 18 5 19 77 20 6 21 7 22 3 23 2 24
REMARK SMILES IDX 1 25 22 26 23 27 24 28 25 29 26 30 27 32 28 33 29 34 75 35
REMARK SMILES IDX 30 36 74 37 31 38 32 39 33 40 68 41 34 42 73 43 67 44 69 45
REMARK SMILES IDX 35 46 72 47 66 48 65 49 36 51 58 52 43 53 57 54 44 55 47 56
REMARK SMILES IDX 56 57 70 58 45 59 46 60 55 62 71 63 48 64 37 65 38 66 42 67
REMARK SMILES IDX 39 68 41 69 40 70 59 71 60 72 64 73 61 74 63 75 62 76 49 77
REMARK SMILES IDX 50 78 54 79 51 80 53 81 52 82
REMARK H PARENT 20 5 11 16 25 31 69 50 47 61
REMARK Flexibility Score: inf
ROOT
ATOM      1  C   UNL A   1      36.648  21.932  25.596  1.00  0.00     0.116 C 
ENDROOT
BRANCH   1   2
ATOM      2  N   UNL A   1      35.515  22.208  26.451  1.00  0.00    -0.352 N 
ATOM      3  C   UNL A   1      34.186  22.456  26.212  1.00  0.00     0.252 C 
ATOM      4  O   UNL A   1      33.551  22.867  27.183  1.00  0.00    -0.269 OA
ATOM      5  H   UNL A   1      35.745  22.220  27.408  1.00  0.00     0.163 HD
BRANCH   3   6
ATOM      6  C   UNL A   1      33.503  22.233  24.893  1.00  0.00     0.060 A 
ATOM      7  C   UNL A   1      33.002  22.921  22.595  1.00  0.00     0.042 A 
ATOM      8  C   UNL A   1      32.283  21.753  22.379  1.00  0.00     0.028 A 
ATOM      9  C   UNL A   1      33.502  23.199  23.872  1.00  0.00     0.041 A 
ATOM     10  C   UNL A   1      32.214  20.798  23.390  1.00  0.00     0.023 A 
ATOM     11  C   UNL A   1      32.849  21.011  24.624  1.00  0.00     0.053 A 
ATOM     12  Cl  UNL A   1      32.816  19.652  25.697  1.00  0.00    -0.083 Cl
BRANCH   7  13
ATOM     13  N   UNL A   1      33.219  23.763  21.497  1.00  0.00    -0.322 N 
ATOM     14  C   UNL A   1      32.899  25.091  21.285  1.00  0.00     0.255 C 
ATOM     15  O   UNL A   1      32.957  25.523  20.132  1.00  0.00    -0.269 OA
ATOM     16  H   UNL A   1      33.684  23.333  20.742  1.00  0.00     0.170 HD
BRANCH  14  17
ATOM     17  C   UNL A   1      32.591  26.055  22.390  1.00  0.00     0.043 A 
ATOM     18  C   UNL A   1      31.087  27.442  23.700  1.00  0.00     0.120 A 
ATOM     19  C   UNL A   1      32.173  27.963  24.404  1.00  0.00     0.046 A 
ATOM     20  C   UNL A   1      31.291  26.445  22.744  1.00  0.00     0.060 A 
ATOM     21  C   UNL A   1      33.459  27.495  24.151  1.00  0.00     0.005 A 
ATOM     22  C   UNL A   1      33.670  26.560  23.134  1.00  0.00     0.014 A 
BRANCH  18  23
ATOM     23  O   UNL A   1      29.906  28.115  23.850  1.00  0.00    -0.494 OA
BRANCH  23  24
ATOM     24  C   UNL A   1      29.890  29.499  23.504  1.00  0.00     0.226 C 
ATOM     25  C   UNL A   1      29.873  29.721  22.001  1.00  0.00     0.049 C 
ENDBRANCH  23  24
ENDBRANCH  18  23
ENDBRANCH  14  17
ENDBRANCH   7  13
ENDBRANCH   3   6
ENDBRANCH   1   2
BRANCH   1  26
ATOM     26  C   UNL A   1      36.564  20.504  25.056  1.00  0.00     0.023 C 
BRANCH  26  27
ATOM     27  C   UNL A   1      37.926  19.937  24.663  1.00  0.00     0.023 C 
BRANCH  27  28
ATOM     28  C   UNL A   1      39.022  20.181  25.694  1.00  0.00     0.116 C 
BRANCH  28  29
ATOM     29  N   UNL A   1      39.989  19.095  25.771  1.00  0.00    -0.352 N 
ATOM     30  C   UNL A   1      41.332  19.173  26.044  1.00  0.00     0.251 C 
ATOM     31  H   UNL A   1      39.635  18.191  25.607  1.00  0.00     0.163 HD
ATOM     32  O   UNL A   1      42.050  18.183  25.969  1.00  0.00    -0.269 OA
BRANCH  30  33
ATOM     33  C   UNL A   1      41.905  20.485  26.398  1.00  0.00     0.039 A 
ATOM     34  C   UNL A   1      42.327  21.337  25.376  1.00  0.00     0.014 A 
ATOM     35  C   UNL A   1      41.958  20.891  27.734  1.00  0.00     0.014 A 
ATOM     36  C   UNL A   1      42.746  22.629  25.693  1.00  0.00     0.010 A 
ATOM     37  C   UNL A   1      42.300  22.202  28.039  1.00  0.00     0.010 A 
ATOM     38  C   UNL A   1      42.701  23.082  27.022  1.00  0.00    -0.014 A 
BRANCH  38  39
ATOM     39  C   UNL A   1      43.071  24.474  27.371  1.00  0.00     0.031 A 
ATOM     40  C   UNL A   1      44.510  24.906  27.316  1.00  0.00     0.074 A 
ATOM     41  C   UNL A   1      42.123  25.330  27.798  1.00  0.00     0.049 A 
ATOM     42  N   UNL A   1      45.034  26.068  27.612  1.00  0.00    -0.248 NA
ATOM     43  C   UNL A   1      45.491  23.891  26.901  1.00  0.00     0.031 C 
ATOM     44  C   UNL A   1      40.698  25.019  27.939  1.00  0.00     0.029 A 
ATOM     45  N   UNL A   1      42.217  26.640  28.194  1.00  0.00    -0.354 N 
ATOM     46  C   UNL A   1      46.404  25.916  27.441  1.00  0.00     0.074 A 
ATOM     47  C   UNL A   1      46.635  24.537  27.067  1.00  0.00     0.031 C 
ATOM     48  C   UNL A   1      40.047  26.120  28.347  1.00  0.00     0.029 A 
ATOM     49  C   UNL A   1      41.011  27.200  28.535  1.00  0.00     0.049 A 
ATOM     50  H   UNL A   1      43.069  27.132  28.230  1.00  0.00     0.167 HD
ATOM     51  C   UNL A   1      47.382  26.844  27.563  1.00  0.00     0.031 A 
ATOM     52  C   UNL A   1      40.714  28.445  28.950  1.00  0.00     0.031 A 
ATOM     53  C   UNL A   1      47.150  28.217  27.921  1.00  0.00     0.049 A 
ATOM     54  C   UNL A   1      41.819  29.454  29.090  1.00  0.00     0.074 A 
ATOM     55  C   UNL A   1      48.064  29.254  28.000  1.00  0.00     0.029 A 
ATOM     56  N   UNL A   1      45.915  28.743  28.266  1.00  0.00    -0.354 N 
ATOM     57  N   UNL A   1      43.099  29.318  28.843  1.00  0.00    -0.248 NA
ATOM     58  C   UNL A   1      41.432  30.793  29.557  1.00  0.00     0.031 C 
ATOM     59  C   UNL A   1      47.389  30.395  28.446  1.00  0.00     0.029 A 
ATOM     60  C   UNL A   1      46.047  30.083  28.589  1.00  0.00     0.049 A 
ATOM     61  H   UNL A   1      45.070  28.238  28.279  1.00  0.00     0.167 HD
ATOM     62  C   UNL A   1      43.667  30.560  29.095  1.00  0.00     0.074 A 
ATOM     63  C   UNL A   1      42.588  31.439  29.501  1.00  0.00     0.031 C 
ATOM     64  C   UNL A   1      44.964  30.941  28.995  1.00  0.00     0.031 A 
BRANCH  51  65
ATOM     65  C   UNL A   1      48.795  26.389  27.321  1.00  0.00    -0.014 A 
ATOM     66  C   UNL A   1      49.616  25.959  28.377  1.00  0.00     0.009 A 
ATOM     67  C   UNL A   1      49.310  26.380  26.016  1.00  0.00     0.009 A 
ATOM     68  C   UNL A   1      50.937  25.577  28.137  1.00  0.00     0.001 A 
ATOM     69  C   UNL A   1      50.622  25.967  25.774  1.00  0.00     0.001 A 
ATOM     70  C   UNL A   1      51.438  25.578  26.835  1.00  0.00     0.000 A 
ENDBRANCH  51  65
BRANCH  52  71
ATOM     71  C   UNL A   1      39.304  28.824  29.224  1.00  0.00    -0.014 A 
ATOM     72  C   UNL A   1      38.507  29.365  28.202  1.00  0.00     0.009 A 
ATOM     73  C   UNL A   1      38.747  28.653  30.500  1.00  0.00     0.009 A 
ATOM     74  C   UNL A   1      37.189  29.748  28.460  1.00  0.00     0.001 A 
ATOM     75  C   UNL A   1      37.420  29.012  30.748  1.00  0.00     0.001 A 
ATOM     76  C   UNL A   1      36.646  29.568  29.730  1.00  0.00     0.000 A 
ENDBRANCH  52  71
BRANCH  64  77
ATOM     77  C   UNL A   1      45.281  32.380  29.296  1.00  0.00    -0.014 A 
ATOM     78  C   UNL A   1      45.585  32.803  30.599  1.00  0.00     0.009 A 
ATOM     79  C   UNL A   1      45.306  33.317  28.252  1.00  0.00     0.009 A 
ATOM     80  C   UNL A   1      45.874  34.144  30.854  1.00  0.00     0.001 A 
ATOM     81  C   UNL A   1      45.625  34.651  28.505  1.00  0.00     0.001 A 
ATOM     82  C   UNL A   1      45.899  35.066  29.807  1.00  0.00     0.000 A 
ENDBRANCH  64  77
ENDBRANCH  38  39
ENDBRANCH  30  33
ENDBRANCH  28  29
ENDBRANCH  27  28
ENDBRANCH  26  27
ENDBRANCH   1  26
TORSDOF 15
ENDMDL
