MODEL 1
REMARK VINA RESULT:     -11.4      0.000      0.000
REMARK SMILES O=C(NCCCCNC(=O)[C@H]1CC1(c1ccccc1)c1ccccc1)c1ccc(-c2c3nc(c(-c4ccccc4)c4ccc([nH]4)c(-c4ccccc4)c4nc(c(-c5ccccc5)c5ccc2[nH]5)C=C4)C=C3)cc1
REMARK SMILES IDX 5 1 4 2 3 3 1 4 2 5 26 7 27 8 73 9 28 10 72 11 29 12 30 13
REMARK SMILES IDX 31 14 66 15 32 16 71 17 65 18 67 19 33 20 70 21 64 22 63 23
REMARK SMILES IDX 34 25 56 26 41 27 55 28 42 29 45 30 54 31 68 32 43 33 44 34
REMARK SMILES IDX 53 36 69 37 46 38 35 39 36 40 40 41 37 42 39 43 38 44 57 45
REMARK SMILES IDX 58 46 62 47 59 48 61 49 60 50 47 51 48 52 52 53 49 54 51 55
REMARK SMILES IDX 50 56 6 57 7 58 8 59 9 60 10 62 11 63 12 64 13 65 14 66
REMARK SMILES IDX 15 67 19 68 16 69 18 70 17 71 20 72 21 73 25 74 22 75 24 76
REMARK SMILES IDX 23 77
REMARK H PARENT 3 6 67 24 45 35 8 61
REMARK Flexibility Score: inf
ROOT
ATOM      1  C   UNL A   1      31.966  28.351  27.518  1.00  0.00     0.023 C 
ENDROOT
BRANCH   1   2
ATOM      2  C   UNL A   1      33.344  28.953  27.294  1.00  0.00     0.116 C 
BRANCH   2   3
ATOM      3  N   UNL A   1      33.474  30.337  27.750  1.00  0.00    -0.352 N 
ATOM      4  O   UNL A   1      34.508  32.116  28.706  1.00  0.00    -0.269 OA
ATOM      5  C   UNL A   1      34.572  30.963  28.293  1.00  0.00     0.251 C 
ATOM      6  H   UNL A   1      32.668  30.895  27.654  1.00  0.00     0.163 HD
BRANCH   5   7
ATOM      7  C   UNL A   1      35.820  30.192  28.407  1.00  0.00     0.039 A 
ATOM      8  C   UNL A   1      36.133  29.586  29.624  1.00  0.00     0.014 A 
ATOM      9  C   UNL A   1      36.737  30.203  27.354  1.00  0.00     0.014 A 
ATOM     10  C   UNL A   1      37.437  29.193  29.861  1.00  0.00     0.010 A 
ATOM     11  C   UNL A   1      38.017  29.687  27.558  1.00  0.00     0.010 A 
ATOM     12  C   UNL A   1      38.393  29.231  28.830  1.00  0.00    -0.014 A 
BRANCH  12  13
ATOM     13  C   UNL A   1      39.765  28.749  29.121  1.00  0.00     0.031 A 
ATOM     14  C   UNL A   1      40.244  27.405  28.647  1.00  0.00     0.074 A 
ATOM     15  C   UNL A   1      40.606  29.587  29.758  1.00  0.00     0.049 A 
ATOM     16  N   UNL A   1      41.423  26.857  28.802  1.00  0.00    -0.248 NA
ATOM     17  C   UNL A   1      39.286  26.562  27.915  1.00  0.00     0.031 C 
ATOM     18  C   UNL A   1      40.250  30.921  30.254  1.00  0.00     0.029 A 
ATOM     19  N   UNL A   1      41.936  29.467  30.059  1.00  0.00    -0.354 N 
ATOM     20  C   UNL A   1      41.336  25.594  28.229  1.00  0.00     0.074 A 
ATOM     21  C   UNL A   1      39.988  25.453  27.721  1.00  0.00     0.031 C 
ATOM     22  C   UNL A   1      41.351  31.526  30.716  1.00  0.00     0.029 A 
ATOM     23  C   UNL A   1      42.467  30.595  30.633  1.00  0.00     0.049 A 
ATOM     24  H   UNL A   1      42.459  28.651  29.881  1.00  0.00     0.167 HD
ATOM     25  C   UNL A   1      42.294  24.640  28.143  1.00  0.00     0.031 A 
ATOM     26  C   UNL A   1      43.713  30.850  31.070  1.00  0.00     0.031 A 
ATOM     27  C   UNL A   1      43.641  24.797  28.627  1.00  0.00     0.049 A 
ATOM     28  C   UNL A   1      44.749  29.777  30.958  1.00  0.00     0.074 A 
ATOM     29  C   UNL A   1      44.689  23.895  28.570  1.00  0.00     0.029 A 
ATOM     30  N   UNL A   1      44.126  25.937  29.249  1.00  0.00    -0.354 N 
ATOM     31  N   UNL A   1      44.641  28.583  30.428  1.00  0.00    -0.248 NA
ATOM     32  C   UNL A   1      46.071  30.079  31.518  1.00  0.00     0.031 C 
ATOM     33  C   UNL A   1      45.800  24.476  29.191  1.00  0.00     0.029 A 
ATOM     34  C   UNL A   1      45.455  25.756  29.596  1.00  0.00     0.049 A 
ATOM     35  H   UNL A   1      43.605  26.754  29.419  1.00  0.00     0.167 HD
ATOM     36  C   UNL A   1      45.881  27.985  30.596  1.00  0.00     0.074 A 
ATOM     37  C   UNL A   1      46.732  28.962  31.246  1.00  0.00     0.031 C 
ATOM     38  C   UNL A   1      46.276  26.736  30.253  1.00  0.00     0.031 A 
BRANCH  25  39
ATOM     39  C   UNL A   1      41.916  23.319  27.532  1.00  0.00    -0.014 A 
ATOM     40  C   UNL A   1      42.219  23.015  26.196  1.00  0.00     0.009 A 
ATOM     41  C   UNL A   1      41.303  22.338  28.329  1.00  0.00     0.009 A 
ATOM     42  C   UNL A   1      41.899  21.762  25.667  1.00  0.00     0.001 A 
ATOM     43  C   UNL A   1      41.004  21.080  27.804  1.00  0.00     0.001 A 
ATOM     44  C   UNL A   1      41.298  20.795  26.472  1.00  0.00     0.000 A 
ENDBRANCH  25  39
BRANCH  26  45
ATOM     45  C   UNL A   1      44.020  32.167  31.678  1.00  0.00    -0.014 A 
ATOM     46  C   UNL A   1      43.878  32.368  33.058  1.00  0.00     0.009 A 
ATOM     47  C   UNL A   1      44.498  33.220  30.881  1.00  0.00     0.009 A 
ATOM     48  C   UNL A   1      44.201  33.603  33.626  1.00  0.00     0.001 A 
ATOM     49  C   UNL A   1      44.849  34.441  31.456  1.00  0.00     0.001 A 
ATOM     50  C   UNL A   1      44.693  34.635  32.826  1.00  0.00     0.000 A 
ENDBRANCH  26  45
BRANCH  38  51
ATOM     51  C   UNL A   1      47.694  26.373  30.572  1.00  0.00    -0.014 A 
ATOM     52  C   UNL A   1      48.714  26.554  29.625  1.00  0.00     0.009 A 
ATOM     53  C   UNL A   1      48.014  25.854  31.835  1.00  0.00     0.009 A 
ATOM     54  C   UNL A   1      50.026  26.190  29.927  1.00  0.00     0.001 A 
ATOM     55  C   UNL A   1      49.332  25.511  32.142  1.00  0.00     0.001 A 
ATOM     56  C   UNL A   1      50.333  25.670  31.185  1.00  0.00     0.000 A 
ENDBRANCH  38  51
ENDBRANCH  12  13
ENDBRANCH   5   7
ENDBRANCH   2   3
ENDBRANCH   1   2
BRANCH   1  57
ATOM     57  C   UNL A   1      31.507  27.456  26.382  1.00  0.00     0.023 C 
BRANCH  57  58
ATOM     58  C   UNL A   1      32.275  26.137  26.280  1.00  0.00     0.116 C 
BRANCH  58  59
ATOM     59  N   UNL A   1      31.458  25.095  26.842  1.00  0.00    -0.356 N 
ATOM     60  C   UNL A   1      31.729  23.760  26.902  1.00  0.00     0.224 C 
ATOM     61  H   UNL A   1      30.599  25.380  27.228  1.00  0.00     0.163 HD
ATOM     62  O   UNL A   1      30.817  22.982  27.169  1.00  0.00    -0.275 OA
BRANCH  60  63
ATOM     63  C   UNL A   1      33.137  23.291  26.858  1.00  0.00     0.095 C 
ATOM     64  C   UNL A   1      33.319  21.885  27.376  1.00  0.00     0.032 C 
ATOM     65  C   UNL A   1      33.854  22.237  25.991  1.00  0.00     0.033 C 
BRANCH  65  66
ATOM     66  C   UNL A   1      33.178  21.504  24.808  1.00  0.00    -0.037 A 
ATOM     67  C   UNL A   1      33.019  20.107  24.784  1.00  0.00     0.004 A 
ATOM     68  C   UNL A   1      32.792  22.175  23.635  1.00  0.00     0.004 A 
ATOM     69  C   UNL A   1      32.492  19.435  23.671  1.00  0.00     0.000 A 
ATOM     70  C   UNL A   1      32.267  21.521  22.515  1.00  0.00     0.000 A 
ATOM     71  C   UNL A   1      32.115  20.144  22.536  1.00  0.00     0.000 A 
ENDBRANCH  65  66
BRANCH  65  72
ATOM     72  C   UNL A   1      35.409  22.447  25.849  1.00  0.00    -0.037 A 
ATOM     73  C   UNL A   1      36.006  23.723  25.922  1.00  0.00     0.004 A 
ATOM     74  C   UNL A   1      36.305  21.376  25.659  1.00  0.00     0.004 A 
ATOM     75  C   UNL A   1      37.385  23.923  25.789  1.00  0.00     0.000 A 
ATOM     76  C   UNL A   1      37.689  21.561  25.552  1.00  0.00     0.000 A 
ATOM     77  C   UNL A   1      38.229  22.838  25.608  1.00  0.00     0.000 A 
ENDBRANCH  65  72
ENDBRANCH  60  63
ENDBRANCH  58  59
ENDBRANCH  57  58
ENDBRANCH   1  57
TORSDOF 13
ENDMDL
MODEL 2
REMARK VINA RESULT:     -11.4      0.448      6.028
REMARK SMILES O=C(NCCCCNC(=O)[C@H]1CC1(c1ccccc1)c1ccccc1)c1ccc(-c2c3nc(c(-c4ccccc4)c4ccc([nH]4)c(-c4ccccc4)c4nc(c(-c5ccccc5)c5ccc2[nH]5)C=C4)C=C3)cc1
REMARK SMILES IDX 5 1 4 2 3 3 1 4 2 5 26 7 27 8 73 9 28 10 72 11 29 12 30 13
REMARK SMILES IDX 31 14 66 15 32 16 71 17 65 18 67 19 33 20 70 21 64 22 63 23
REMARK SMILES IDX 34 25 56 26 41 27 55 28 42 29 45 30 54 31 68 32 43 33 44 34
REMARK SMILES IDX 53 36 69 37 46 38 35 39 36 40 40 41 37 42 39 43 38 44 57 45
REMARK SMILES IDX 58 46 62 47 59 48 61 49 60 50 47 51 48 52 52 53 49 54 51 55
REMARK SMILES IDX 50 56 6 57 7 58 8 59 9 60 10 62 11 63 12 64 13 65 14 66
REMARK SMILES IDX 15 67 19 68 16 69 18 70 17 71 20 72 21 73 25 74 22 75 24 76
REMARK SMILES IDX 23 77
REMARK H PARENT 3 6 67 24 45 35 8 61
REMARK Flexibility Score: inf
ROOT
ATOM      1  C   UNL A   1      31.908  28.266  27.577  1.00  0.00     0.023 C 
ENDROOT
BRANCH   1   2
ATOM      2  C   UNL A   1      33.274  28.896  27.354  1.00  0.00     0.116 C 
BRANCH   2   3
ATOM      3  N   UNL A   1      33.361  30.296  27.766  1.00  0.00    -0.352 N 
ATOM      4  O   UNL A   1      34.344  32.139  28.652  1.00  0.00    -0.269 OA
ATOM      5  C   UNL A   1      34.443  30.977  28.274  1.00  0.00     0.251 C 
ATOM      6  H   UNL A   1      32.535  30.823  27.665  1.00  0.00     0.163 HD
BRANCH   5   7
ATOM      7  C   UNL A   1      35.719  30.253  28.393  1.00  0.00     0.039 A 
ATOM      8  C   UNL A   1      36.051  29.664  29.613  1.00  0.00     0.014 A 
ATOM      9  C   UNL A   1      36.637  30.295  27.342  1.00  0.00     0.014 A 
ATOM     10  C   UNL A   1      37.369  29.321  29.855  1.00  0.00     0.010 A 
ATOM     11  C   UNL A   1      37.935  29.828  27.552  1.00  0.00     0.010 A 
ATOM     12  C   UNL A   1      38.325  29.391  28.827  1.00  0.00    -0.014 A 
BRANCH  12  13
ATOM     13  C   UNL A   1      39.714  28.963  29.122  1.00  0.00     0.031 A 
ATOM     14  C   UNL A   1      40.637  29.808  29.955  1.00  0.00     0.074 A 
ATOM     15  C   UNL A   1      40.106  27.750  28.688  1.00  0.00     0.049 A 
ATOM     16  N   UNL A   1      41.870  29.556  30.319  1.00  0.00    -0.248 NA
ATOM     17  C   UNL A   1      40.126  31.102  30.436  1.00  0.00     0.031 C 
ATOM     18  C   UNL A   1      39.286  26.839  27.880  1.00  0.00     0.029 A 
ATOM     19  N   UNL A   1      41.265  27.052  28.898  1.00  0.00    -0.354 N 
ATOM     20  C   UNL A   1      42.294  30.672  31.031  1.00  0.00     0.074 A 
ATOM     21  C   UNL A   1      41.189  31.606  31.049  1.00  0.00     0.031 C 
ATOM     22  C   UNL A   1      39.933  25.675  27.739  1.00  0.00     0.029 A 
ATOM     23  C   UNL A   1      41.243  25.788  28.365  1.00  0.00     0.049 A 
ATOM     24  H   UNL A   1      42.038  27.422  29.384  1.00  0.00     0.167 HD
ATOM     25  C   UNL A   1      43.498  30.895  31.608  1.00  0.00     0.031 A 
ATOM     26  C   UNL A   1      42.182  24.825  28.357  1.00  0.00     0.031 A 
ATOM     27  C   UNL A   1      44.585  29.950  31.609  1.00  0.00     0.049 A 
ATOM     28  C   UNL A   1      43.501  25.101  29.006  1.00  0.00     0.074 A 
ATOM     29  C   UNL A   1      45.838  30.076  32.182  1.00  0.00     0.029 A 
ATOM     30  N   UNL A   1      44.541  28.699  31.013  1.00  0.00    -0.354 N 
ATOM     31  N   UNL A   1      43.888  26.170  29.658  1.00  0.00    -0.248 NA
ATOM     32  C   UNL A   1      44.517  24.048  28.902  1.00  0.00     0.031 C 
ATOM     33  C   UNL A   1      46.567  28.915  31.901  1.00  0.00     0.029 A 
ATOM     34  C   UNL A   1      45.751  28.049  31.190  1.00  0.00     0.049 A 
ATOM     35  H   UNL A   1      43.765  28.327  30.534  1.00  0.00     0.167 HD
ATOM     36  C   UNL A   1      45.197  25.922  30.040  1.00  0.00     0.074 A 
ATOM     37  C   UNL A   1      45.524  24.588  29.575  1.00  0.00     0.031 C 
ATOM     38  C   UNL A   1      46.056  26.729  30.707  1.00  0.00     0.031 A 
BRANCH  25  39
ATOM     39  C   UNL A   1      43.727  32.230  32.262  1.00  0.00    -0.014 A 
ATOM     40  C   UNL A   1      43.470  32.431  33.627  1.00  0.00     0.009 A 
ATOM     41  C   UNL A   1      44.271  33.284  31.511  1.00  0.00     0.009 A 
ATOM     42  C   UNL A   1      43.737  33.667  34.220  1.00  0.00     0.001 A 
ATOM     43  C   UNL A   1      44.556  34.511  32.111  1.00  0.00     0.001 A 
ATOM     44  C   UNL A   1      44.284  34.704  33.464  1.00  0.00     0.000 A 
ENDBRANCH  25  39
BRANCH  26  45
ATOM     45  C   UNL A   1      41.902  23.536  27.681  1.00  0.00    -0.014 A 
ATOM     46  C   UNL A   1      42.294  23.325  26.352  1.00  0.00     0.009 A 
ATOM     47  C   UNL A   1      41.276  22.491  28.381  1.00  0.00     0.009 A 
ATOM     48  C   UNL A   1      42.055  22.095  25.734  1.00  0.00     0.001 A 
ATOM     49  C   UNL A   1      41.066  21.255  27.771  1.00  0.00     0.001 A 
ATOM     50  C   UNL A   1      41.449  21.059  26.446  1.00  0.00     0.000 A 
ENDBRANCH  26  45
BRANCH  38  51
ATOM     51  C   UNL A   1      47.423  26.177  30.972  1.00  0.00    -0.014 A 
ATOM     52  C   UNL A   1      48.399  26.154  29.963  1.00  0.00     0.009 A 
ATOM     53  C   UNL A   1      47.741  25.683  32.245  1.00  0.00     0.009 A 
ATOM     54  C   UNL A   1      49.660  25.616  30.217  1.00  0.00     0.001 A 
ATOM     55  C   UNL A   1      49.011  25.164  32.503  1.00  0.00     0.001 A 
ATOM     56  C   UNL A   1      49.965  25.122  31.486  1.00  0.00     0.000 A 
ENDBRANCH  38  51
ENDBRANCH  12  13
ENDBRANCH   5   7
ENDBRANCH   2   3
ENDBRANCH   1   2
BRANCH   1  57
ATOM     57  C   UNL A   1      31.464  27.370  26.436  1.00  0.00     0.023 C 
BRANCH  57  58
ATOM     58  C   UNL A   1      32.260  26.068  26.320  1.00  0.00     0.116 C 
BRANCH  58  59
ATOM     59  N   UNL A   1      31.468  25.005  26.878  1.00  0.00    -0.356 N 
ATOM     60  C   UNL A   1      31.780  23.680  26.953  1.00  0.00     0.224 C 
ATOM     61  H   UNL A   1      30.594  25.265  27.249  1.00  0.00     0.163 HD
ATOM     62  O   UNL A   1      30.889  22.875  27.212  1.00  0.00    -0.275 OA
BRANCH  60  63
ATOM     63  C   UNL A   1      33.202  23.256  26.934  1.00  0.00     0.095 C 
ATOM     64  C   UNL A   1      33.451  21.953  27.655  1.00  0.00     0.032 C 
ATOM     65  C   UNL A   1      33.933  22.104  26.215  1.00  0.00     0.033 C 
BRANCH  65  66
ATOM     66  C   UNL A   1      33.251  21.176  25.182  1.00  0.00    -0.037 A 
ATOM     67  C   UNL A   1      33.059  19.803  25.419  1.00  0.00     0.004 A 
ATOM     68  C   UNL A   1      32.894  21.622  23.897  1.00  0.00     0.004 A 
ATOM     69  C   UNL A   1      32.527  18.945  24.445  1.00  0.00     0.000 A 
ATOM     70  C   UNL A   1      32.364  20.780  22.913  1.00  0.00     0.000 A 
ATOM     71  C   UNL A   1      32.179  19.435  23.191  1.00  0.00     0.000 A 
ENDBRANCH  65  66
BRANCH  65  72
ATOM     72  C   UNL A   1      35.474  22.340  25.990  1.00  0.00    -0.037 A 
ATOM     73  C   UNL A   1      36.090  23.585  26.239  1.00  0.00     0.004 A 
ATOM     74  C   UNL A   1      36.341  21.321  25.543  1.00  0.00     0.004 A 
ATOM     75  C   UNL A   1      37.457  23.808  26.035  1.00  0.00     0.000 A 
ATOM     76  C   UNL A   1      37.715  21.526  25.362  1.00  0.00     0.000 A 
ATOM     77  C   UNL A   1      38.272  22.774  25.599  1.00  0.00     0.000 A 
ENDBRANCH  65  72
ENDBRANCH  60  63
ENDBRANCH  58  59
ENDBRANCH  57  58
ENDBRANCH   1  57
TORSDOF 13
ENDMDL
MODEL 3
REMARK VINA RESULT:     -10.9      2.345      7.510
REMARK SMILES O=C(NCCCCNC(=O)[C@H]1CC1(c1ccccc1)c1ccccc1)c1ccc(-c2c3nc(c(-c4ccccc4)c4ccc([nH]4)c(-c4ccccc4)c4nc(c(-c5ccccc5)c5ccc2[nH]5)C=C4)C=C3)cc1
REMARK SMILES IDX 5 1 4 2 3 3 1 4 2 5 26 7 27 8 73 9 28 10 72 11 29 12 30 13
REMARK SMILES IDX 31 14 66 15 32 16 71 17 65 18 67 19 33 20 70 21 64 22 63 23
REMARK SMILES IDX 34 25 56 26 41 27 55 28 42 29 45 30 54 31 68 32 43 33 44 34
REMARK SMILES IDX 53 36 69 37 46 38 35 39 36 40 40 41 37 42 39 43 38 44 57 45
REMARK SMILES IDX 58 46 62 47 59 48 61 49 60 50 47 51 48 52 52 53 49 54 51 55
REMARK SMILES IDX 50 56 6 57 7 58 8 59 9 60 10 62 11 63 12 64 13 65 14 66
REMARK SMILES IDX 15 67 19 68 16 69 18 70 17 71 20 72 21 73 25 74 22 75 24 76
REMARK SMILES IDX 23 77
REMARK H PARENT 3 6 67 24 45 35 8 61
REMARK Flexibility Score: inf
ROOT
ATOM      1  C   UNL A   1      39.004  20.137  25.293  1.00  0.00     0.023 C 
ENDROOT
BRANCH   1   2
ATOM      2  C   UNL A   1      39.857  19.346  26.272  1.00  0.00     0.116 C 
BRANCH   2   3
ATOM      3  N   UNL A   1      41.185  19.001  25.765  1.00  0.00    -0.352 N 
ATOM      4  O   UNL A   1      43.357  19.371  25.220  1.00  0.00    -0.269 OA
ATOM      5  C   UNL A   1      42.327  19.769  25.754  1.00  0.00     0.251 C 
ATOM      6  H   UNL A   1      41.275  18.098  25.382  1.00  0.00     0.163 HD
BRANCH   5   7
ATOM      7  C   UNL A   1      42.265  21.106  26.366  1.00  0.00     0.039 A 
ATOM      8  C   UNL A   1      42.352  22.230  25.544  1.00  0.00     0.014 A 
ATOM      9  C   UNL A   1      42.272  21.230  27.756  1.00  0.00     0.014 A 
ATOM     10  C   UNL A   1      42.672  23.450  26.111  1.00  0.00     0.010 A 
ATOM     11  C   UNL A   1      42.468  22.488  28.327  1.00  0.00     0.010 A 
ATOM     12  C   UNL A   1      42.726  23.597  27.508  1.00  0.00    -0.014 A 
BRANCH  12  13
ATOM     13  C   UNL A   1      43.022  24.939  28.067  1.00  0.00     0.031 A 
ATOM     14  C   UNL A   1      44.434  25.400  28.298  1.00  0.00     0.074 A 
ATOM     15  C   UNL A   1      41.987  25.771  28.291  1.00  0.00     0.049 A 
ATOM     16  N   UNL A   1      44.852  26.553  28.757  1.00  0.00    -0.248 NA
ATOM     17  C   UNL A   1      45.518  24.454  27.987  1.00  0.00     0.031 C 
ATOM     18  C   UNL A   1      40.574  25.431  28.090  1.00  0.00     0.029 A 
ATOM     19  N   UNL A   1      41.959  27.080  28.689  1.00  0.00    -0.354 N 
ATOM     20  C   UNL A   1      46.236  26.457  28.831  1.00  0.00     0.074 A 
ATOM     21  C   UNL A   1      46.592  25.132  28.369  1.00  0.00     0.031 C 
ATOM     22  C   UNL A   1      39.827  26.526  28.281  1.00  0.00     0.029 A 
ATOM     23  C   UNL A   1      40.694  27.616  28.704  1.00  0.00     0.049 A 
ATOM     24  H   UNL A   1      42.765  27.588  28.940  1.00  0.00     0.167 HD
ATOM     25  C   UNL A   1      47.125  27.388  29.252  1.00  0.00     0.031 A 
ATOM     26  C   UNL A   1      40.270  28.846  29.044  1.00  0.00     0.031 A 
ATOM     27  C   UNL A   1      46.765  28.714  29.684  1.00  0.00     0.049 A 
ATOM     28  C   UNL A   1      41.276  29.854  29.502  1.00  0.00     0.074 A 
ATOM     29  C   UNL A   1      47.594  29.737  30.113  1.00  0.00     0.029 A 
ATOM     30  N   UNL A   1      45.468  29.202  29.734  1.00  0.00    -0.354 N 
ATOM     31  N   UNL A   1      42.579  29.737  29.580  1.00  0.00    -0.248 NA
ATOM     32  C   UNL A   1      40.753  31.155  29.933  1.00  0.00     0.031 C 
ATOM     33  C   UNL A   1      46.795  30.832  30.457  1.00  0.00     0.029 A 
ATOM     34  C   UNL A   1      45.472  30.506  30.201  1.00  0.00     0.049 A 
ATOM     35  H   UNL A   1      44.664  28.698  29.476  1.00  0.00     0.167 HD
ATOM     36  C   UNL A   1      43.035  30.948  30.077  1.00  0.00     0.074 A 
ATOM     37  C   UNL A   1      41.871  31.795  30.248  1.00  0.00     0.031 C 
ATOM     38  C   UNL A   1      44.302  31.323  30.375  1.00  0.00     0.031 A 
BRANCH  25  39
ATOM     39  C   UNL A   1      48.577  27.002  29.302  1.00  0.00    -0.014 A 
ATOM     40  C   UNL A   1      49.099  26.249  30.365  1.00  0.00     0.009 A 
ATOM     41  C   UNL A   1      49.420  27.342  28.232  1.00  0.00     0.009 A 
ATOM     42  C   UNL A   1      50.441  25.863  30.363  1.00  0.00     0.001 A 
ATOM     43  C   UNL A   1      50.756  26.936  28.223  1.00  0.00     0.001 A 
ATOM     44  C   UNL A   1      51.266  26.201  29.291  1.00  0.00     0.000 A 
ENDBRANCH  25  39
BRANCH  26  45
ATOM     45  C   UNL A   1      38.822  29.161  28.989  1.00  0.00    -0.014 A 
ATOM     46  C   UNL A   1      38.011  28.997  30.120  1.00  0.00     0.009 A 
ATOM     47  C   UNL A   1      38.253  29.671  27.810  1.00  0.00     0.009 A 
ATOM     48  C   UNL A   1      36.655  29.328  30.067  1.00  0.00     0.001 A 
ATOM     49  C   UNL A   1      36.907  30.029  27.770  1.00  0.00     0.001 A 
ATOM     50  C   UNL A   1      36.106  29.851  28.896  1.00  0.00     0.000 A 
ENDBRANCH  26  45
BRANCH  38  51
ATOM     51  C   UNL A   1      44.480  32.712  30.908  1.00  0.00    -0.014 A 
ATOM     52  C   UNL A   1      44.683  33.795  30.038  1.00  0.00     0.009 A 
ATOM     53  C   UNL A   1      44.435  32.940  32.291  1.00  0.00     0.009 A 
ATOM     54  C   UNL A   1      44.871  35.079  30.549  1.00  0.00     0.001 A 
ATOM     55  C   UNL A   1      44.602  34.230  32.797  1.00  0.00     0.001 A 
ATOM     56  C   UNL A   1      44.829  35.295  31.927  1.00  0.00     0.000 A 
ENDBRANCH  38  51
ENDBRANCH  12  13
ENDBRANCH   5   7
ENDBRANCH   2   3
ENDBRANCH   1   2
BRANCH   1  57
ATOM     57  C   UNL A   1      38.710  21.552  25.755  1.00  0.00     0.023 C 
BRANCH  57  58
ATOM     58  C   UNL A   1      37.449  22.159  25.137  1.00  0.00     0.116 C 
BRANCH  58  59
ATOM     59  N   UNL A   1      36.655  22.723  26.197  1.00  0.00    -0.356 N 
ATOM     60  C   UNL A   1      35.334  22.510  26.457  1.00  0.00     0.224 C 
ATOM     61  H   UNL A   1      37.123  23.338  26.807  1.00  0.00     0.163 HD
ATOM     62  O   UNL A   1      34.752  23.269  27.227  1.00  0.00    -0.275 OA
BRANCH  60  63
ATOM     63  C   UNL A   1      34.682  21.264  25.983  1.00  0.00     0.095 C 
ATOM     64  C   UNL A   1      33.278  21.084  26.507  1.00  0.00     0.032 C 
ATOM     65  C   UNL A   1      33.520  21.007  25.002  1.00  0.00     0.033 C 
BRANCH  65  66
ATOM     66  C   UNL A   1      32.853  22.123  24.162  1.00  0.00    -0.037 A 
ATOM     67  C   UNL A   1      33.506  22.738  23.079  1.00  0.00     0.004 A 
ATOM     68  C   UNL A   1      31.606  22.672  24.505  1.00  0.00     0.004 A 
ATOM     69  C   UNL A   1      32.939  23.813  22.378  1.00  0.00     0.000 A 
ATOM     70  C   UNL A   1      31.026  23.745  23.819  1.00  0.00     0.000 A 
ATOM     71  C   UNL A   1      31.697  24.316  22.749  1.00  0.00     0.000 A 
ENDBRANCH  65  66
BRANCH  65  72
ATOM     72  C   UNL A   1      33.518  19.578  24.341  1.00  0.00    -0.037 A 
ATOM     73  C   UNL A   1      32.538  19.182  23.406  1.00  0.00     0.004 A 
ATOM     74  C   UNL A   1      34.502  18.609  24.625  1.00  0.00     0.004 A 
ATOM     75  C   UNL A   1      32.521  17.912  22.818  1.00  0.00     0.000 A 
ATOM     76  C   UNL A   1      34.510  17.345  24.022  1.00  0.00     0.000 A 
ATOM     77  C   UNL A   1      33.513  16.992  23.124  1.00  0.00     0.000 A 
ENDBRANCH  65  72
ENDBRANCH  60  63
ENDBRANCH  58  59
ENDBRANCH  57  58
ENDBRANCH   1  57
TORSDOF 13
ENDMDL
