MODEL 1
REMARK VINA RESULT:     -12.3      0.000      0.000
REMARK SMILES Cc1ccc(/C=C(\NC(=O)c2cccc(C)c2)C(=O)NCCCCNC(=O)c2ccc(-c3c4nc(c(-c5ccccc5)c5ccc([nH]5)c(-c5ccccc5)c5nc(c(-c6ccccc6)c6ccc3[nH]6)C=C5)C=C4)cc2)cc1
REMARK SMILES IDX 22 1 21 2 20 3 18 4 19 5 7 7 6 8 5 9 1 10 2 11 3 12 77 13
REMARK SMILES IDX 4 14 76 15 8 16 9 17 10 19 11 20 12 21 17 22 13 23 15 24
REMARK SMILES IDX 14 25 16 26 23 27 24 28 25 29 26 30 27 32 28 33 29 34 75 35
REMARK SMILES IDX 30 36 74 37 31 38 32 39 33 40 68 41 34 42 73 43 67 44 69 45
REMARK SMILES IDX 35 46 72 47 66 48 65 49 36 51 58 52 43 53 57 54 44 55 47 56
REMARK SMILES IDX 56 57 70 58 45 59 46 60 55 62 71 63 48 64 37 65 38 66 42 67
REMARK SMILES IDX 39 68 41 69 40 70 59 71 60 72 64 73 61 74 63 75 62 76 49 77
REMARK SMILES IDX 50 78 54 79 51 80 53 81 52 82
REMARK H PARENT 20 6 8 18 25 31 69 50 47 61
REMARK Flexibility Score: inf
ROOT
ATOM      1  C   UNL A   1      32.099  29.665  26.983  1.00  0.00     0.023 C 
ENDROOT
BRANCH   1   2
ATOM      2  C   UNL A   1      31.846  29.420  25.497  1.00  0.00     0.116 C 
BRANCH   2   3
ATOM      3  N   UNL A   1      32.960  29.685  24.604  1.00  0.00    -0.351 N 
ATOM      4  C   UNL A   1      33.734  28.838  23.850  1.00  0.00     0.267 C 
ATOM      5  O   UNL A   1      34.556  29.353  23.085  1.00  0.00    -0.268 OA
ATOM      6  H   UNL A   1      33.201  30.637  24.524  1.00  0.00     0.163 HD
BRANCH   4   7
ATOM      7  C   UNL A   1      33.664  27.324  23.990  1.00  0.00     0.107 C 
ATOM      8  C   UNL A   1      33.723  26.828  25.249  1.00  0.00     0.040 C 
BRANCH   8   9
ATOM      9  C   UNL A   1      33.676  25.417  25.731  1.00  0.00    -0.023 A 
ATOM     10  C   UNL A   1      33.862  21.441  27.471  1.00  0.00     0.044 C 
ATOM     11  C   UNL A   1      33.799  22.782  26.805  1.00  0.00    -0.051 A 
ATOM     12  C   UNL A   1      32.606  23.498  26.811  1.00  0.00     0.004 A 
ATOM     13  C   UNL A   1      34.920  23.360  26.205  1.00  0.00     0.004 A 
ATOM     14  C   UNL A   1      32.538  24.773  26.241  1.00  0.00     0.008 A 
ATOM     15  C   UNL A   1      34.858  24.661  25.679  1.00  0.00     0.008 A 
ENDBRANCH   8   9
BRANCH   7  16
ATOM     16  N   UNL A   1      33.519  26.473  22.925  1.00  0.00    -0.317 N 
ATOM     17  C   UNL A   1      32.417  26.085  22.206  1.00  0.00     0.255 C 
ATOM     18  H   UNL A   1      34.362  26.067  22.619  1.00  0.00     0.170 HD
ATOM     19  O   UNL A   1      32.571  25.333  21.244  1.00  0.00    -0.269 OA
BRANCH  17  20
ATOM     20  C   UNL A   1      31.058  26.495  22.600  1.00  0.00     0.040 A 
ATOM     21  C   UNL A   1      30.373  25.571  23.385  1.00  0.00     0.014 A 
ATOM     22  C   UNL A   1      30.507  27.756  22.340  1.00  0.00     0.017 A 
ATOM     23  C   UNL A   1      29.235  25.972  24.058  1.00  0.00     0.001 A 
ATOM     24  C   UNL A   1      29.315  28.134  22.971  1.00  0.00    -0.050 A 
ATOM     25  C   UNL A   1      28.701  27.241  23.850  1.00  0.00     0.003 A 
ATOM     26  C   UNL A   1      28.678  29.467  22.717  1.00  0.00     0.044 C 
ENDBRANCH  17  20
ENDBRANCH   7  16
ENDBRANCH   4   7
ENDBRANCH   2   3
ENDBRANCH   1   2
BRANCH   1  27
ATOM     27  C   UNL A   1      33.542  29.948  27.398  1.00  0.00     0.023 C 
BRANCH  27  28
ATOM     28  C   UNL A   1      34.056  31.379  27.236  1.00  0.00     0.116 C 
BRANCH  28  29
ATOM     29  N   UNL A   1      34.558  32.016  28.445  1.00  0.00    -0.352 N 
ATOM     30  C   UNL A   1      35.549  31.616  29.330  1.00  0.00     0.251 C 
ATOM     31  H   UNL A   1      34.124  32.871  28.670  1.00  0.00     0.163 HD
ATOM     32  O   UNL A   1      35.765  32.301  30.321  1.00  0.00    -0.269 OA
BRANCH  30  33
ATOM     33  C   UNL A   1      36.440  30.449  29.049  1.00  0.00     0.039 A 
ATOM     34  C   UNL A   1      36.536  29.444  30.028  1.00  0.00     0.014 A 
ATOM     35  C   UNL A   1      37.272  30.378  27.939  1.00  0.00     0.014 A 
ATOM     36  C   UNL A   1      37.606  28.544  30.013  1.00  0.00     0.010 A 
ATOM     37  C   UNL A   1      38.382  29.556  27.964  1.00  0.00     0.010 A 
ATOM     38  C   UNL A   1      38.596  28.697  29.046  1.00  0.00    -0.014 A 
BRANCH  38  39
ATOM     39  C   UNL A   1      39.961  28.196  29.194  1.00  0.00     0.031 A 
ATOM     40  C   UNL A   1      40.383  26.907  28.619  1.00  0.00     0.074 A 
ATOM     41  C   UNL A   1      40.898  29.035  29.693  1.00  0.00     0.049 A 
ATOM     42  N   UNL A   1      41.484  26.315  28.936  1.00  0.00    -0.248 NA
ATOM     43  C   UNL A   1      39.562  26.131  27.695  1.00  0.00     0.031 C 
ATOM     44  C   UNL A   1      42.350  28.965  29.526  1.00  0.00     0.029 A 
ATOM     45  N   UNL A   1      40.720  30.099  30.571  1.00  0.00    -0.354 N 
ATOM     46  C   UNL A   1      41.668  25.283  28.053  1.00  0.00     0.074 A 
ATOM     47  C   UNL A   1      40.389  25.119  27.408  1.00  0.00     0.031 C 
ATOM     48  C   UNL A   1      42.931  29.751  30.448  1.00  0.00     0.029 A 
ATOM     49  C   UNL A   1      41.881  30.219  31.337  1.00  0.00     0.049 A 
ATOM     50  H   UNL A   1      39.918  30.665  30.640  1.00  0.00     0.167 HD
ATOM     51  C   UNL A   1      42.924  24.785  27.871  1.00  0.00     0.031 A 
ATOM     52  C   UNL A   1      41.875  30.106  32.695  1.00  0.00     0.031 A 
ATOM     53  C   UNL A   1      43.865  25.319  28.862  1.00  0.00     0.049 A 
ATOM     54  C   UNL A   1      42.693  28.918  33.149  1.00  0.00     0.074 A 
ATOM     55  C   UNL A   1      44.903  26.232  28.793  1.00  0.00     0.029 A 
ATOM     56  N   UNL A   1      43.620  25.105  30.218  1.00  0.00    -0.354 N 
ATOM     57  N   UNL A   1      43.089  27.967  32.347  1.00  0.00    -0.248 NA
ATOM     58  C   UNL A   1      43.095  28.680  34.531  1.00  0.00     0.031 C 
ATOM     59  C   UNL A   1      45.209  26.646  30.121  1.00  0.00     0.029 A 
ATOM     60  C   UNL A   1      44.394  25.945  30.996  1.00  0.00     0.049 A 
ATOM     61  H   UNL A   1      42.981  24.445  30.573  1.00  0.00     0.167 HD
ATOM     62  C   UNL A   1      43.777  27.022  33.052  1.00  0.00     0.074 A 
ATOM     63  C   UNL A   1      43.755  27.513  34.420  1.00  0.00     0.031 C 
ATOM     64  C   UNL A   1      44.291  25.911  32.452  1.00  0.00     0.031 A 
BRANCH  51  65
ATOM     65  C   UNL A   1      43.360  23.979  26.664  1.00  0.00    -0.014 A 
ATOM     66  C   UNL A   1      43.118  22.592  26.630  1.00  0.00     0.009 A 
ATOM     67  C   UNL A   1      44.095  24.489  25.577  1.00  0.00     0.009 A 
ATOM     68  C   UNL A   1      43.591  21.775  25.590  1.00  0.00     0.001 A 
ATOM     69  C   UNL A   1      44.551  23.686  24.522  1.00  0.00     0.001 A 
ATOM     70  C   UNL A   1      44.306  22.324  24.533  1.00  0.00     0.000 A 
ENDBRANCH  51  65
BRANCH  52  71
ATOM     71  C   UNL A   1      40.612  30.586  33.323  1.00  0.00    -0.014 A 
ATOM     72  C   UNL A   1      40.366  31.975  33.299  1.00  0.00     0.009 A 
ATOM     73  C   UNL A   1      39.523  29.719  33.508  1.00  0.00     0.009 A 
ATOM     74  C   UNL A   1      39.062  32.476  33.335  1.00  0.00     0.001 A 
ATOM     75  C   UNL A   1      38.216  30.228  33.546  1.00  0.00     0.001 A 
ATOM     76  C   UNL A   1      37.985  31.599  33.425  1.00  0.00     0.000 A 
ENDBRANCH  52  71
BRANCH  64  77
ATOM     77  C   UNL A   1      44.810  24.700  33.183  1.00  0.00    -0.014 A 
ATOM     78  C   UNL A   1      46.131  24.566  33.632  1.00  0.00     0.009 A 
ATOM     79  C   UNL A   1      43.898  23.700  33.581  1.00  0.00     0.009 A 
ATOM     80  C   UNL A   1      46.532  23.464  34.397  1.00  0.00     0.001 A 
ATOM     81  C   UNL A   1      44.282  22.624  34.383  1.00  0.00     0.001 A 
ATOM     82  C   UNL A   1      45.606  22.499  34.781  1.00  0.00     0.000 A 
ENDBRANCH  64  77
ENDBRANCH  38  39
ENDBRANCH  30  33
ENDBRANCH  28  29
ENDBRANCH  27  28
ENDBRANCH   1  27
TORSDOF 14
ENDMDL
MODEL 2
REMARK VINA RESULT:     -12.3      1.294      1.971
REMARK SMILES Cc1ccc(/C=C(\NC(=O)c2cccc(C)c2)C(=O)NCCCCNC(=O)c2ccc(-c3c4nc(c(-c5ccccc5)c5ccc([nH]5)c(-c5ccccc5)c5nc(c(-c6ccccc6)c6ccc3[nH]6)C=C5)C=C4)cc2)cc1
REMARK SMILES IDX 22 1 21 2 20 3 18 4 19 5 7 7 6 8 5 9 1 10 2 11 3 12 77 13
REMARK SMILES IDX 4 14 76 15 8 16 9 17 10 19 11 20 12 21 17 22 13 23 15 24
REMARK SMILES IDX 14 25 16 26 23 27 24 28 25 29 26 30 27 32 28 33 29 34 75 35
REMARK SMILES IDX 30 36 74 37 31 38 32 39 33 40 68 41 34 42 73 43 67 44 69 45
REMARK SMILES IDX 35 46 72 47 66 48 65 49 36 51 58 52 43 53 57 54 44 55 47 56
REMARK SMILES IDX 56 57 70 58 45 59 46 60 55 62 71 63 48 64 37 65 38 66 42 67
REMARK SMILES IDX 39 68 41 69 40 70 59 71 60 72 64 73 61 74 63 75 62 76 49 77
REMARK SMILES IDX 50 78 54 79 51 80 53 81 52 82
REMARK H PARENT 20 6 8 18 25 31 69 50 47 61
REMARK Flexibility Score: inf
ROOT
ATOM      1  C   UNL A   1      32.019  28.629  27.356  1.00  0.00     0.023 C 
ENDROOT
BRANCH   1   2
ATOM      2  C   UNL A   1      32.034  27.482  26.349  1.00  0.00     0.116 C 
BRANCH   2   3
ATOM      3  N   UNL A   1      30.986  26.487  26.493  1.00  0.00    -0.351 N 
ATOM      4  C   UNL A   1      30.992  25.132  26.278  1.00  0.00     0.267 C 
ATOM      5  O   UNL A   1      29.974  24.504  26.589  1.00  0.00    -0.268 OA
ATOM      6  H   UNL A   1      30.122  26.848  26.799  1.00  0.00     0.163 HD
BRANCH   4   7
ATOM      7  C   UNL A   1      32.156  24.416  25.609  1.00  0.00     0.107 C 
ATOM      8  C   UNL A   1      33.222  24.124  26.393  1.00  0.00     0.040 C 
BRANCH   8   9
ATOM      9  C   UNL A   1      34.503  23.435  26.060  1.00  0.00    -0.023 A 
ATOM     10  C   UNL A   1      38.432  21.685  25.454  1.00  0.00     0.044 C 
ATOM     11  C   UNL A   1      37.070  22.295  25.591  1.00  0.00    -0.051 A 
ATOM     12  C   UNL A   1      35.990  21.494  25.950  1.00  0.00     0.004 A 
ATOM     13  C   UNL A   1      36.852  23.662  25.405  1.00  0.00     0.004 A 
ATOM     14  C   UNL A   1      34.722  22.052  26.134  1.00  0.00     0.008 A 
ATOM     15  C   UNL A   1      35.587  24.224  25.640  1.00  0.00     0.008 A 
ENDBRANCH   8   9
BRANCH   7  16
ATOM     16  N   UNL A   1      32.154  24.041  24.290  1.00  0.00    -0.317 N 
ATOM     17  C   UNL A   1      32.296  24.762  23.132  1.00  0.00     0.255 C 
ATOM     18  H   UNL A   1      32.029  23.074  24.148  1.00  0.00     0.170 HD
ATOM     19  O   UNL A   1      32.307  24.163  22.057  1.00  0.00    -0.269 OA
BRANCH  17  20
ATOM     20  C   UNL A   1      32.367  26.233  23.147  1.00  0.00     0.040 A 
ATOM     21  C   UNL A   1      33.646  26.754  23.325  1.00  0.00     0.014 A 
ATOM     22  C   UNL A   1      31.284  27.080  22.879  1.00  0.00     0.017 A 
ATOM     23  C   UNL A   1      33.873  28.090  23.050  1.00  0.00     0.001 A 
ATOM     24  C   UNL A   1      31.508  28.446  22.669  1.00  0.00    -0.050 A 
ATOM     25  C   UNL A   1      32.814  28.936  22.732  1.00  0.00     0.003 A 
ATOM     26  C   UNL A   1      30.382  29.396  22.391  1.00  0.00     0.044 C 
ENDBRANCH  17  20
ENDBRANCH   7  16
ENDBRANCH   4   7
ENDBRANCH   2   3
ENDBRANCH   1   2
BRANCH   1  27
ATOM     27  C   UNL A   1      33.371  29.230  27.736  1.00  0.00     0.023 C 
BRANCH  27  28
ATOM     28  C   UNL A   1      33.750  30.572  27.107  1.00  0.00     0.116 C 
BRANCH  28  29
ATOM     29  N   UNL A   1      34.421  31.520  27.984  1.00  0.00    -0.352 N 
ATOM     30  C   UNL A   1      35.594  31.398  28.716  1.00  0.00     0.251 C 
ATOM     31  H   UNL A   1      33.970  32.391  28.071  1.00  0.00     0.163 HD
ATOM     32  O   UNL A   1      35.940  32.326  29.434  1.00  0.00    -0.269 OA
BRANCH  30  33
ATOM     33  C   UNL A   1      36.507  30.224  28.560  1.00  0.00     0.039 A 
ATOM     34  C   UNL A   1      36.594  29.312  29.627  1.00  0.00     0.014 A 
ATOM     35  C   UNL A   1      37.365  30.067  27.479  1.00  0.00     0.014 A 
ATOM     36  C   UNL A   1      37.676  28.431  29.716  1.00  0.00     0.010 A 
ATOM     37  C   UNL A   1      38.486  29.268  27.603  1.00  0.00     0.010 A 
ATOM     38  C   UNL A   1      38.686  28.513  28.762  1.00  0.00    -0.014 A 
BRANCH  38  39
ATOM     39  C   UNL A   1      40.054  28.048  28.985  1.00  0.00     0.031 A 
ATOM     40  C   UNL A   1      40.548  26.783  28.414  1.00  0.00     0.074 A 
ATOM     41  C   UNL A   1      40.934  28.904  29.553  1.00  0.00     0.049 A 
ATOM     42  N   UNL A   1      41.645  26.217  28.788  1.00  0.00    -0.248 NA
ATOM     43  C   UNL A   1      39.808  26.000  27.429  1.00  0.00     0.031 C 
ATOM     44  C   UNL A   1      42.394  28.879  29.474  1.00  0.00     0.029 A 
ATOM     45  N   UNL A   1      40.671  29.946  30.437  1.00  0.00    -0.354 N 
ATOM     46  C   UNL A   1      41.913  25.207  27.901  1.00  0.00     0.074 A 
ATOM     47  C   UNL A   1      40.680  25.018  27.176  1.00  0.00     0.031 C 
ATOM     48  C   UNL A   1      42.895  29.664  30.443  1.00  0.00     0.029 A 
ATOM     49  C   UNL A   1      41.780  30.085  31.274  1.00  0.00     0.049 A 
ATOM     50  H   UNL A   1      39.851  30.488  30.466  1.00  0.00     0.167 HD
ATOM     51  C   UNL A   1      43.191  24.749  27.788  1.00  0.00     0.031 A 
ATOM     52  C   UNL A   1      41.695  29.946  32.627  1.00  0.00     0.031 A 
ATOM     53  C   UNL A   1      44.055  25.291  28.843  1.00  0.00     0.049 A 
ATOM     54  C   UNL A   1      42.519  28.774  33.111  1.00  0.00     0.074 A 
ATOM     55  C   UNL A   1      45.067  26.234  28.853  1.00  0.00     0.029 A 
ATOM     56  N   UNL A   1      43.735  25.045  30.177  1.00  0.00    -0.354 N 
ATOM     57  N   UNL A   1      42.991  27.850  32.318  1.00  0.00    -0.248 NA
ATOM     58  C   UNL A   1      42.843  28.522  34.510  1.00  0.00     0.031 C 
ATOM     59  C   UNL A   1      45.280  26.631  30.203  1.00  0.00     0.029 A 
ATOM     60  C   UNL A   1      44.435  25.892  31.015  1.00  0.00     0.049 A 
ATOM     61  H   UNL A   1      43.095  24.360  30.482  1.00  0.00     0.167 HD
ATOM     62  C   UNL A   1      43.662  26.913  33.048  1.00  0.00     0.074 A 
ATOM     63  C   UNL A   1      43.543  27.376  34.420  1.00  0.00     0.031 C 
ATOM     64  C   UNL A   1      44.245  25.828  32.462  1.00  0.00     0.031 A 
BRANCH  51  65
ATOM     65  C   UNL A   1      43.723  23.978  26.596  1.00  0.00    -0.014 A 
ATOM     66  C   UNL A   1      43.426  22.608  26.466  1.00  0.00     0.009 A 
ATOM     67  C   UNL A   1      44.596  24.500  25.623  1.00  0.00     0.009 A 
ATOM     68  C   UNL A   1      43.976  21.816  25.444  1.00  0.00     0.001 A 
ATOM     69  C   UNL A   1      45.132  23.724  24.585  1.00  0.00     0.001 A 
ATOM     70  C   UNL A   1      44.828  22.377  24.500  1.00  0.00     0.000 A 
ENDBRANCH  51  65
BRANCH  52  71
ATOM     71  C   UNL A   1      40.382  30.379  33.185  1.00  0.00    -0.014 A 
ATOM     72  C   UNL A   1      40.137  31.766  33.257  1.00  0.00     0.009 A 
ATOM     73  C   UNL A   1      39.283  29.505  33.204  1.00  0.00     0.009 A 
ATOM     74  C   UNL A   1      38.833  32.268  33.225  1.00  0.00     0.001 A 
ATOM     75  C   UNL A   1      37.977  30.015  33.175  1.00  0.00     0.001 A 
ATOM     76  C   UNL A   1      37.754  31.392  33.150  1.00  0.00     0.000 A 
ENDBRANCH  52  71
BRANCH  64  77
ATOM     77  C   UNL A   1      44.754  24.619  33.202  1.00  0.00    -0.014 A 
ATOM     78  C   UNL A   1      46.068  24.488  33.673  1.00  0.00     0.009 A 
ATOM     79  C   UNL A   1      43.837  23.617  33.587  1.00  0.00     0.009 A 
ATOM     80  C   UNL A   1      46.459  23.388  34.446  1.00  0.00     0.001 A 
ATOM     81  C   UNL A   1      44.211  22.543  34.396  1.00  0.00     0.001 A 
ATOM     82  C   UNL A   1      45.528  22.421  34.816  1.00  0.00     0.000 A 
ENDBRANCH  64  77
ENDBRANCH  38  39
ENDBRANCH  30  33
ENDBRANCH  28  29
ENDBRANCH  27  28
ENDBRANCH   1  27
TORSDOF 14
ENDMDL
MODEL 3
REMARK VINA RESULT:     -12.1      1.668      2.987
REMARK SMILES Cc1ccc(/C=C(\NC(=O)c2cccc(C)c2)C(=O)NCCCCNC(=O)c2ccc(-c3c4nc(c(-c5ccccc5)c5ccc([nH]5)c(-c5ccccc5)c5nc(c(-c6ccccc6)c6ccc3[nH]6)C=C5)C=C4)cc2)cc1
REMARK SMILES IDX 22 1 21 2 20 3 18 4 19 5 7 7 6 8 5 9 1 10 2 11 3 12 77 13
REMARK SMILES IDX 4 14 76 15 8 16 9 17 10 19 11 20 12 21 17 22 13 23 15 24
REMARK SMILES IDX 14 25 16 26 23 27 24 28 25 29 26 30 27 32 28 33 29 34 75 35
REMARK SMILES IDX 30 36 74 37 31 38 32 39 33 40 68 41 34 42 73 43 67 44 69 45
REMARK SMILES IDX 35 46 72 47 66 48 65 49 36 51 58 52 43 53 57 54 44 55 47 56
REMARK SMILES IDX 56 57 70 58 45 59 46 60 55 62 71 63 48 64 37 65 38 66 42 67
REMARK SMILES IDX 39 68 41 69 40 70 59 71 60 72 64 73 61 74 63 75 62 76 49 77
REMARK SMILES IDX 50 78 54 79 51 80 53 81 52 82
REMARK H PARENT 20 6 8 18 25 31 69 50 47 61
REMARK Flexibility Score: inf
ROOT
ATOM      1  C   UNL A   1      32.945  29.479  25.251  1.00  0.00     0.023 C 
ENDROOT
BRANCH   1   2
ATOM      2  C   UNL A   1      32.297  28.116  25.482  1.00  0.00     0.116 C 
BRANCH   2   3
ATOM      3  N   UNL A   1      31.913  27.378  24.291  1.00  0.00    -0.351 N 
ATOM      4  C   UNL A   1      32.115  26.067  23.937  1.00  0.00     0.267 C 
ATOM      5  O   UNL A   1      31.578  25.672  22.897  1.00  0.00    -0.268 OA
ATOM      6  H   UNL A   1      31.422  27.909  23.623  1.00  0.00     0.163 HD
BRANCH   4   7
ATOM      7  C   UNL A   1      33.026  25.139  24.727  1.00  0.00     0.107 C 
ATOM      8  C   UNL A   1      34.235  24.865  24.181  1.00  0.00     0.040 C 
BRANCH   8   9
ATOM      9  C   UNL A   1      35.350  24.012  24.687  1.00  0.00    -0.023 A 
ATOM     10  C   UNL A   1      38.841  21.661  25.763  1.00  0.00     0.044 C 
ATOM     11  C   UNL A   1      37.594  22.417  25.413  1.00  0.00    -0.051 A 
ATOM     12  C   UNL A   1      37.172  23.463  26.227  1.00  0.00     0.004 A 
ATOM     13  C   UNL A   1      36.855  22.126  24.264  1.00  0.00     0.004 A 
ATOM     14  C   UNL A   1      36.043  24.215  25.890  1.00  0.00     0.008 A 
ATOM     15  C   UNL A   1      35.751  22.916  23.906  1.00  0.00     0.008 A 
ENDBRANCH   8   9
BRANCH   7  16
ATOM     16  N   UNL A   1      32.690  24.610  25.947  1.00  0.00    -0.317 N 
ATOM     17  C   UNL A   1      32.456  23.320  26.354  1.00  0.00     0.255 C 
ATOM     18  H   UNL A   1      32.602  25.279  26.664  1.00  0.00     0.170 HD
ATOM     19  O   UNL A   1      32.217  23.107  27.542  1.00  0.00    -0.269 OA
BRANCH  17  20
ATOM     20  C   UNL A   1      32.421  22.206  25.391  1.00  0.00     0.040 A 
ATOM     21  C   UNL A   1      31.680  22.452  24.238  1.00  0.00     0.014 A 
ATOM     22  C   UNL A   1      33.163  21.025  25.523  1.00  0.00     0.017 A 
ATOM     23  C   UNL A   1      31.831  21.613  23.150  1.00  0.00     0.001 A 
ATOM     24  C   UNL A   1      33.257  20.141  24.440  1.00  0.00    -0.050 A 
ATOM     25  C   UNL A   1      32.606  20.461  23.247  1.00  0.00     0.003 A 
ATOM     26  C   UNL A   1      34.028  18.859  24.534  1.00  0.00     0.044 C 
ENDBRANCH  17  20
ENDBRANCH   7  16
ENDBRANCH   4   7
ENDBRANCH   2   3
ENDBRANCH   1   2
BRANCH   1  27
ATOM     27  C   UNL A   1      32.743  30.531  26.340  1.00  0.00     0.023 C 
BRANCH  27  28
ATOM     28  C   UNL A   1      33.431  30.296  27.686  1.00  0.00     0.116 C 
BRANCH  28  29
ATOM     29  N   UNL A   1      34.236  31.399  28.191  1.00  0.00    -0.352 N 
ATOM     30  C   UNL A   1      35.525  31.413  28.705  1.00  0.00     0.251 C 
ATOM     31  H   UNL A   1      33.794  32.278  28.161  1.00  0.00     0.163 HD
ATOM     32  O   UNL A   1      35.981  32.468  29.123  1.00  0.00    -0.269 OA
BRANCH  30  33
ATOM     33  C   UNL A   1      36.412  30.211  28.653  1.00  0.00     0.039 A 
ATOM     34  C   UNL A   1      36.578  29.463  29.833  1.00  0.00     0.014 A 
ATOM     35  C   UNL A   1      37.179  29.880  27.543  1.00  0.00     0.014 A 
ATOM     36  C   UNL A   1      37.657  28.584  29.965  1.00  0.00     0.010 A 
ATOM     37  C   UNL A   1      38.300  29.086  27.694  1.00  0.00     0.010 A 
ATOM     38  C   UNL A   1      38.587  28.505  28.932  1.00  0.00    -0.014 A 
BRANCH  38  39
ATOM     39  C   UNL A   1      39.964  28.051  29.112  1.00  0.00     0.031 A 
ATOM     40  C   UNL A   1      40.435  26.762  28.576  1.00  0.00     0.074 A 
ATOM     41  C   UNL A   1      40.868  28.930  29.602  1.00  0.00     0.049 A 
ATOM     42  N   UNL A   1      41.549  26.213  28.924  1.00  0.00    -0.248 NA
ATOM     43  C   UNL A   1      39.652  25.936  27.661  1.00  0.00     0.031 C 
ATOM     44  C   UNL A   1      42.323  28.903  29.457  1.00  0.00     0.029 A 
ATOM     45  N   UNL A   1      40.644  30.010  30.450  1.00  0.00    -0.354 N 
ATOM     46  C   UNL A   1      41.778  25.164  28.070  1.00  0.00     0.074 A 
ATOM     47  C   UNL A   1      40.514  24.944  27.411  1.00  0.00     0.031 C 
ATOM     48  C   UNL A   1      42.866  29.729  30.366  1.00  0.00     0.029 A 
ATOM     49  C   UNL A   1      41.789  30.186  31.228  1.00  0.00     0.049 A 
ATOM     50  H   UNL A   1      39.824  30.553  30.493  1.00  0.00     0.167 HD
ATOM     51  C   UNL A   1      43.051  24.702  27.918  1.00  0.00     0.031 A 
ATOM     52  C   UNL A   1      41.766  30.107  32.588  1.00  0.00     0.031 A 
ATOM     53  C   UNL A   1      43.961  25.290  28.908  1.00  0.00     0.049 A 
ATOM     54  C   UNL A   1      42.615  28.957  33.085  1.00  0.00     0.074 A 
ATOM     55  C   UNL A   1      44.971  26.234  28.830  1.00  0.00     0.029 A 
ATOM     56  N   UNL A   1      43.703  25.103  30.265  1.00  0.00    -0.354 N 
ATOM     57  N   UNL A   1      43.052  27.999  32.313  1.00  0.00    -0.248 NA
ATOM     58  C   UNL A   1      43.003  28.767  34.478  1.00  0.00     0.031 C 
ATOM     59  C   UNL A   1      45.244  26.689  30.151  1.00  0.00     0.029 A 
ATOM     60  C   UNL A   1      44.439  25.986  31.032  1.00  0.00     0.049 A 
ATOM     61  H   UNL A   1      43.079  24.433  30.628  1.00  0.00     0.167 HD
ATOM     62  C   UNL A   1      43.758  27.095  33.052  1.00  0.00     0.074 A 
ATOM     63  C   UNL A   1      43.700  27.618  34.406  1.00  0.00     0.031 C 
ATOM     64  C   UNL A   1      44.315  25.985  32.487  1.00  0.00     0.031 A 
BRANCH  51  65
ATOM     65  C   UNL A   1      43.529  23.880  26.738  1.00  0.00    -0.014 A 
ATOM     66  C   UNL A   1      44.262  24.501  25.709  1.00  0.00     0.009 A 
ATOM     67  C   UNL A   1      43.216  22.525  26.521  1.00  0.00     0.009 A 
ATOM     68  C   UNL A   1      44.640  23.818  24.541  1.00  0.00     0.001 A 
ATOM     69  C   UNL A   1      43.609  21.827  25.370  1.00  0.00     0.001 A 
ATOM     70  C   UNL A   1      44.316  22.478  24.373  1.00  0.00     0.000 A 
ENDBRANCH  51  65
BRANCH  52  71
ATOM     71  C   UNL A   1      40.480  30.563  33.187  1.00  0.00    -0.014 A 
ATOM     72  C   UNL A   1      40.151  31.928  33.048  1.00  0.00     0.009 A 
ATOM     73  C   UNL A   1      39.446  29.651  33.456  1.00  0.00     0.009 A 
ATOM     74  C   UNL A   1      38.819  32.351  33.054  1.00  0.00     0.001 A 
ATOM     75  C   UNL A   1      38.111  30.083  33.464  1.00  0.00     0.001 A 
ATOM     76  C   UNL A   1      37.798  31.422  33.229  1.00  0.00     0.000 A 
ENDBRANCH  52  71
BRANCH  64  77
ATOM     77  C   UNL A   1      44.860  24.811  33.256  1.00  0.00    -0.014 A 
ATOM     78  C   UNL A   1      46.125  24.792  33.860  1.00  0.00     0.009 A 
ATOM     79  C   UNL A   1      44.011  23.715  33.524  1.00  0.00     0.009 A 
ATOM     80  C   UNL A   1      46.539  23.713  34.651  1.00  0.00     0.001 A 
ATOM     81  C   UNL A   1      44.402  22.660  34.349  1.00  0.00     0.001 A 
ATOM     82  C   UNL A   1      45.674  22.653  34.903  1.00  0.00     0.000 A 
ENDBRANCH  64  77
ENDBRANCH  38  39
ENDBRANCH  30  33
ENDBRANCH  28  29
ENDBRANCH  27  28
ENDBRANCH   1  27
TORSDOF 14
ENDMDL
