MODEL 1
REMARK VINA RESULT:     -11.6      0.000      0.000
REMARK SMILES Cc1ccccc1C(=O)N1CSC[C@H]1C(=O)NCCCCNC(=O)c1ccc(-c2c3nc(c(-c4ccccc4)c4ccc([nH]4)c(-c4ccccc4)c4nc(c(-c5ccccc5)c5ccc2[nH]5)C=C4)C=C3)cc1
REMARK SMILES IDX 19 1 18 2 17 3 15 4 16 5 14 7 10 8 11 9 12 10 13 11 8 12
REMARK SMILES IDX 9 13 7 14 1 15 2 16 3 17 4 18 6 19 5 20 20 21 21 22 22 23
REMARK SMILES IDX 23 24 24 26 25 27 26 28 72 29 27 30 71 31 28 32 29 33 30 34
REMARK SMILES IDX 65 35 31 36 70 37 64 38 66 39 32 40 69 41 63 42 62 43 33 45
REMARK SMILES IDX 55 46 40 47 54 48 41 49 44 50 53 51 67 52 42 53 43 54 52 56
REMARK SMILES IDX 68 57 45 58 34 59 35 60 39 61 36 62 38 63 37 64 56 65 57 66
REMARK SMILES IDX 61 67 58 68 60 69 59 70 46 71 47 72 51 73 48 74 50 75 49 76
REMARK H PARENT 17 6 22 25 66 44 44 55
REMARK Flexibility Score: inf
ROOT
ATOM      1  C   UNL A   1      37.845  23.190  25.761  1.00  0.00     0.023 C 
ENDROOT
BRANCH   1   2
ATOM      2  C   UNL A   1      36.335  23.254  25.521  1.00  0.00     0.116 C 
BRANCH   2   3
ATOM      3  N   UNL A   1      35.559  23.017  26.717  1.00  0.00    -0.354 N 
ATOM      4  C   UNL A   1      34.222  22.849  26.905  1.00  0.00     0.243 C 
ATOM      5  O   UNL A   1      33.893  22.370  27.999  1.00  0.00    -0.273 OA
ATOM      6  H   UNL A   1      36.092  22.969  27.543  1.00  0.00     0.163 HD
BRANCH   4   7
ATOM      7  C   UNL A   1      33.152  23.071  25.809  1.00  0.00     0.185 C 
ATOM      8  N   UNL A   1      32.974  24.420  25.257  1.00  0.00    -0.317 N 
ATOM      9  C   UNL A   1      33.471  24.613  23.917  1.00  0.00     0.190 C 
ATOM     10  S   UNL A   1      33.461  22.996  23.118  1.00  0.00    -0.138 SA
ATOM     11  C   UNL A   1      33.256  22.062  24.669  1.00  0.00     0.106 C 
BRANCH   8  12
ATOM     12  C   UNL A   1      32.234  25.316  26.012  1.00  0.00     0.255 C 
ATOM     13  O   UNL A   1      31.450  24.925  26.878  1.00  0.00    -0.269 OA
BRANCH  12  14
ATOM     14  C   UNL A   1      32.294  26.786  25.769  1.00  0.00     0.042 A 
ATOM     15  C   UNL A   1      30.182  26.894  24.284  1.00  0.00     0.045 C 
ATOM     16  C   UNL A   1      31.343  27.510  25.016  1.00  0.00    -0.038 A 
ATOM     17  C   UNL A   1      31.448  28.913  24.963  1.00  0.00     0.004 A 
ATOM     18  C   UNL A   1      32.406  29.595  25.711  1.00  0.00     0.000 A 
ATOM     19  C   UNL A   1      33.245  27.491  26.530  1.00  0.00     0.014 A 
ATOM     20  C   UNL A   1      33.296  28.885  26.508  1.00  0.00     0.001 A 
ENDBRANCH  12  14
ENDBRANCH   8  12
ENDBRANCH   4   7
ENDBRANCH   2   3
ENDBRANCH   1   2
BRANCH   1  21
ATOM     21  C   UNL A   1      38.466  21.800  25.633  1.00  0.00     0.023 C 
BRANCH  21  22
ATOM     22  C   UNL A   1      39.688  21.581  26.515  1.00  0.00     0.116 C 
BRANCH  22  23
ATOM     23  N   UNL A   1      40.634  20.581  26.037  1.00  0.00    -0.352 N 
ATOM     24  C   UNL A   1      42.023  20.596  26.051  1.00  0.00     0.251 C 
ATOM     25  H   UNL A   1      40.227  19.774  25.646  1.00  0.00     0.163 HD
ATOM     26  O   UNL A   1      42.643  19.692  25.513  1.00  0.00    -0.269 OA
BRANCH  24  27
ATOM     27  C   UNL A   1      42.752  21.623  26.846  1.00  0.00     0.039 A 
ATOM     28  C   UNL A   1      42.515  21.668  28.227  1.00  0.00     0.014 A 
ATOM     29  C   UNL A   1      43.448  22.656  26.232  1.00  0.00     0.014 A 
ATOM     30  C   UNL A   1      42.711  22.864  28.915  1.00  0.00     0.010 A 
ATOM     31  C   UNL A   1      43.517  23.875  26.873  1.00  0.00     0.010 A 
ATOM     32  C   UNL A   1      43.080  23.995  28.195  1.00  0.00    -0.014 A 
BRANCH  32  33
ATOM     33  C   UNL A   1      42.902  25.358  28.683  1.00  0.00     0.031 A 
ATOM     34  C   UNL A   1      41.753  26.170  28.240  1.00  0.00     0.074 A 
ATOM     35  C   UNL A   1      43.720  25.818  29.655  1.00  0.00     0.049 A 
ATOM     36  N   UNL A   1      41.679  27.451  28.367  1.00  0.00    -0.248 NA
ATOM     37  C   UNL A   1      40.607  25.596  27.543  1.00  0.00     0.031 C 
ATOM     38  C   UNL A   1      43.514  26.970  30.528  1.00  0.00     0.029 A 
ATOM     39  N   UNL A   1      45.040  25.436  29.895  1.00  0.00    -0.354 N 
ATOM     40  C   UNL A   1      40.383  27.815  28.092  1.00  0.00     0.074 A 
ATOM     41  C   UNL A   1      39.795  26.654  27.471  1.00  0.00     0.031 C 
ATOM     42  C   UNL A   1      44.702  27.364  31.015  1.00  0.00     0.029 A 
ATOM     43  C   UNL A   1      45.723  26.582  30.339  1.00  0.00     0.049 A 
ATOM     44  H   UNL A   1      45.420  24.536  29.776  1.00  0.00     0.167 HD
ATOM     45  C   UNL A   1      39.915  29.004  28.568  1.00  0.00     0.031 A 
ATOM     46  C   UNL A   1      46.746  27.115  29.607  1.00  0.00     0.031 A 
ATOM     47  C   UNL A   1      40.992  29.819  29.134  1.00  0.00     0.049 A 
ATOM     48  C   UNL A   1      46.491  28.530  29.130  1.00  0.00     0.074 A 
ATOM     49  C   UNL A   1      41.375  30.133  30.428  1.00  0.00     0.029 A 
ATOM     50  N   UNL A   1      42.039  30.216  28.310  1.00  0.00    -0.354 N 
ATOM     51  N   UNL A   1      45.316  29.096  29.111  1.00  0.00    -0.248 NA
ATOM     52  C   UNL A   1      47.534  29.404  28.598  1.00  0.00     0.031 C 
ATOM     53  C   UNL A   1      42.695  30.655  30.382  1.00  0.00     0.029 A 
ATOM     54  C   UNL A   1      43.100  30.688  29.058  1.00  0.00     0.049 A 
ATOM     55  H   UNL A   1      42.027  30.167  27.327  1.00  0.00     0.167 HD
ATOM     56  C   UNL A   1      45.414  30.353  28.572  1.00  0.00     0.074 A 
ATOM     57  C   UNL A   1      46.829  30.505  28.284  1.00  0.00     0.031 C 
ATOM     58  C   UNL A   1      44.315  31.144  28.394  1.00  0.00     0.031 A 
BRANCH  45  59
ATOM     59  C   UNL A   1      38.444  29.303  28.775  1.00  0.00    -0.014 A 
ATOM     60  C   UNL A   1      37.681  29.801  27.701  1.00  0.00     0.009 A 
ATOM     61  C   UNL A   1      37.766  29.208  30.002  1.00  0.00     0.009 A 
ATOM     62  C   UNL A   1      36.362  30.251  27.865  1.00  0.00     0.001 A 
ATOM     63  C   UNL A   1      36.456  29.673  30.182  1.00  0.00     0.001 A 
ATOM     64  C   UNL A   1      35.756  30.208  29.113  1.00  0.00     0.000 A 
ENDBRANCH  45  59
BRANCH  46  65
ATOM     65  C   UNL A   1      47.528  26.091  28.855  1.00  0.00    -0.014 A 
ATOM     66  C   UNL A   1      47.236  25.904  27.489  1.00  0.00     0.009 A 
ATOM     67  C   UNL A   1      48.748  25.611  29.351  1.00  0.00     0.009 A 
ATOM     68  C   UNL A   1      48.190  25.365  26.619  1.00  0.00     0.001 A 
ATOM     69  C   UNL A   1      49.694  25.056  28.477  1.00  0.00     0.001 A 
ATOM     70  C   UNL A   1      49.430  24.970  27.111  1.00  0.00     0.000 A 
ENDBRANCH  46  65
BRANCH  58  71
ATOM     71  C   UNL A   1      44.252  32.444  27.622  1.00  0.00    -0.014 A 
ATOM     72  C   UNL A   1      44.266  32.547  26.225  1.00  0.00     0.009 A 
ATOM     73  C   UNL A   1      44.033  33.646  28.336  1.00  0.00     0.009 A 
ATOM     74  C   UNL A   1      44.109  33.784  25.581  1.00  0.00     0.001 A 
ATOM     75  C   UNL A   1      43.829  34.873  27.699  1.00  0.00     0.001 A 
ATOM     76  C   UNL A   1      43.878  34.943  26.317  1.00  0.00     0.000 A 
ENDBRANCH  58  71
ENDBRANCH  32  33
ENDBRANCH  24  27
ENDBRANCH  22  23
ENDBRANCH  21  22
ENDBRANCH   1  21
TORSDOF 13
ENDMDL
MODEL 2
REMARK VINA RESULT:     -11.4      3.952      9.075
REMARK SMILES Cc1ccccc1C(=O)N1CSC[C@H]1C(=O)NCCCCNC(=O)c1ccc(-c2c3nc(c(-c4ccccc4)c4ccc([nH]4)c(-c4ccccc4)c4nc(c(-c5ccccc5)c5ccc2[nH]5)C=C4)C=C3)cc1
REMARK SMILES IDX 19 1 18 2 17 3 15 4 16 5 14 7 10 8 11 9 12 10 13 11 8 12
REMARK SMILES IDX 9 13 7 14 1 15 2 16 3 17 4 18 6 19 5 20 20 21 21 22 22 23
REMARK SMILES IDX 23 24 24 26 25 27 26 28 72 29 27 30 71 31 28 32 29 33 30 34
REMARK SMILES IDX 65 35 31 36 70 37 64 38 66 39 32 40 69 41 63 42 62 43 33 45
REMARK SMILES IDX 55 46 40 47 54 48 41 49 44 50 53 51 67 52 42 53 43 54 52 56
REMARK SMILES IDX 68 57 45 58 34 59 35 60 39 61 36 62 38 63 37 64 56 65 57 66
REMARK SMILES IDX 61 67 58 68 60 69 59 70 46 71 47 72 51 73 48 74 50 75 49 76
REMARK H PARENT 17 6 22 25 66 44 44 55
REMARK Flexibility Score: inf
ROOT
ATOM      1  C   UNL A   1      35.339  29.378  27.400  1.00  0.00     0.023 C 
ENDROOT
BRANCH   1   2
ATOM      2  C   UNL A   1      34.280  28.676  26.546  1.00  0.00     0.116 C 
BRANCH   2   3
ATOM      3  N   UNL A   1      32.999  28.566  27.205  1.00  0.00    -0.354 N 
ATOM      4  C   UNL A   1      31.889  27.842  26.901  1.00  0.00     0.243 C 
ATOM      5  O   UNL A   1      31.060  27.728  27.814  1.00  0.00    -0.273 OA
ATOM      6  H   UNL A   1      32.915  29.112  28.020  1.00  0.00     0.163 HD
BRANCH   4   7
ATOM      7  C   UNL A   1      31.693  27.058  25.580  1.00  0.00     0.185 C 
ATOM      8  N   UNL A   1      30.851  25.856  25.589  1.00  0.00    -0.317 N 
ATOM      9  C   UNL A   1      29.563  25.995  24.956  1.00  0.00     0.190 C 
ATOM     10  S   UNL A   1      29.717  27.324  23.746  1.00  0.00    -0.138 SA
ATOM     11  C   UNL A   1      31.288  27.958  24.415  1.00  0.00     0.106 C 
BRANCH   8  12
ATOM     12  C   UNL A   1      31.424  24.690  26.072  1.00  0.00     0.255 C 
ATOM     13  O   UNL A   1      31.342  24.386  27.263  1.00  0.00    -0.269 OA
BRANCH  12  14
ATOM     14  C   UNL A   1      32.223  23.785  25.198  1.00  0.00     0.042 A 
ATOM     15  C   UNL A   1      34.487  24.966  25.594  1.00  0.00     0.045 C 
ATOM     16  C   UNL A   1      33.619  23.886  25.009  1.00  0.00    -0.038 A 
ATOM     17  C   UNL A   1      34.273  22.894  24.251  1.00  0.00     0.004 A 
ATOM     18  C   UNL A   1      33.587  21.780  23.774  1.00  0.00     0.000 A 
ATOM     19  C   UNL A   1      31.548  22.646  24.721  1.00  0.00     0.014 A 
ATOM     20  C   UNL A   1      32.225  21.646  24.022  1.00  0.00     0.001 A 
ENDBRANCH  12  14
ENDBRANCH   8  12
ENDBRANCH   4   7
ENDBRANCH   2   3
ENDBRANCH   1   2
BRANCH   1  21
ATOM     21  C   UNL A   1      34.813  30.495  28.300  1.00  0.00     0.023 C 
BRANCH  21  22
ATOM     22  C   UNL A   1      34.911  31.886  27.688  1.00  0.00     0.116 C 
BRANCH  22  23
ATOM     23  N   UNL A   1      34.059  32.899  28.296  1.00  0.00    -0.352 N 
ATOM     24  C   UNL A   1      34.257  33.651  29.448  1.00  0.00     0.251 C 
ATOM     25  H   UNL A   1      33.216  33.078  27.820  1.00  0.00     0.163 HD
ATOM     26  O   UNL A   1      33.373  34.392  29.847  1.00  0.00    -0.269 OA
BRANCH  24  27
ATOM     27  C   UNL A   1      35.593  33.671  30.106  1.00  0.00     0.039 A 
ATOM     28  C   UNL A   1      36.672  34.190  29.377  1.00  0.00     0.014 A 
ATOM     29  C   UNL A   1      35.828  32.986  31.291  1.00  0.00     0.014 A 
ATOM     30  C   UNL A   1      37.966  33.769  29.679  1.00  0.00     0.010 A 
ATOM     31  C   UNL A   1      37.085  32.461  31.510  1.00  0.00     0.010 A 
ATOM     32  C   UNL A   1      38.140  32.797  30.658  1.00  0.00    -0.014 A 
BRANCH  32  33
ATOM     33  C   UNL A   1      39.336  31.971  30.775  1.00  0.00     0.031 A 
ATOM     34  C   UNL A   1      39.441  30.694  30.045  1.00  0.00     0.074 A 
ATOM     35  C   UNL A   1      40.405  32.457  31.443  1.00  0.00     0.049 A 
ATOM     36  N   UNL A   1      40.300  29.772  30.317  1.00  0.00    -0.248 NA
ATOM     37  C   UNL A   1      38.522  30.323  28.975  1.00  0.00     0.031 C 
ATOM     38  C   UNL A   1      41.787  31.988  31.384  1.00  0.00     0.029 A 
ATOM     39  N   UNL A   1      40.395  33.363  32.504  1.00  0.00    -0.354 N 
ATOM     40  C   UNL A   1      40.272  28.868  29.281  1.00  0.00     0.074 A 
ATOM     41  C   UNL A   1      39.076  29.187  28.543  1.00  0.00     0.031 C 
ATOM     42  C   UNL A   1      42.432  32.397  32.489  1.00  0.00     0.029 A 
ATOM     43  C   UNL A   1      41.442  32.995  33.368  1.00  0.00     0.049 A 
ATOM     44  H   UNL A   1      39.773  34.116  32.624  1.00  0.00     0.167 HD
ATOM     45  C   UNL A   1      41.351  28.060  29.081  1.00  0.00     0.031 A 
ATOM     46  C   UNL A   1      41.183  32.573  34.641  1.00  0.00     0.031 A 
ATOM     47  C   UNL A   1      42.308  28.153  30.187  1.00  0.00     0.049 A 
ATOM     48  C   UNL A   1      41.631  31.154  34.923  1.00  0.00     0.074 A 
ATOM     49  C   UNL A   1      43.542  28.763  30.335  1.00  0.00     0.029 A 
ATOM     50  N   UNL A   1      41.895  27.792  31.465  1.00  0.00    -0.354 N 
ATOM     51  N   UNL A   1      41.932  30.283  34.000  1.00  0.00    -0.248 NA
ATOM     52  C   UNL A   1      41.736  30.592  36.268  1.00  0.00     0.031 C 
ATOM     53  C   UNL A   1      43.835  28.832  31.723  1.00  0.00     0.029 A 
ATOM     54  C   UNL A   1      42.794  28.237  32.413  1.00  0.00     0.049 A 
ATOM     55  H   UNL A   1      41.073  27.289  31.666  1.00  0.00     0.167 HD
ATOM     56  C   UNL A   1      42.241  29.080  34.579  1.00  0.00     0.074 A 
ATOM     57  C   UNL A   1      42.122  29.331  36.004  1.00  0.00     0.031 C 
ATOM     58  C   UNL A   1      42.548  27.981  33.828  1.00  0.00     0.031 A 
BRANCH  45  59
ATOM     59  C   UNL A   1      41.672  27.404  27.754  1.00  0.00    -0.014 A 
ATOM     60  C   UNL A   1      41.882  26.013  27.702  1.00  0.00     0.009 A 
ATOM     61  C   UNL A   1      41.869  28.088  26.542  1.00  0.00     0.009 A 
ATOM     62  C   UNL A   1      42.340  25.367  26.543  1.00  0.00     0.001 A 
ATOM     63  C   UNL A   1      42.345  27.456  25.384  1.00  0.00     0.001 A 
ATOM     64  C   UNL A   1      42.594  26.094  25.389  1.00  0.00     0.000 A 
ENDBRANCH  45  59
BRANCH  46  65
ATOM     65  C   UNL A   1      39.984  33.223  35.245  1.00  0.00    -0.014 A 
ATOM     66  C   UNL A   1      38.742  32.568  35.125  1.00  0.00     0.009 A 
ATOM     67  C   UNL A   1      40.121  34.225  36.216  1.00  0.00     0.009 A 
ATOM     68  C   UNL A   1      37.708  32.819  36.032  1.00  0.00     0.001 A 
ATOM     69  C   UNL A   1      39.076  34.484  37.113  1.00  0.00     0.001 A 
ATOM     70  C   UNL A   1      37.888  33.756  37.045  1.00  0.00     0.000 A 
ENDBRANCH  46  65
BRANCH  58  71
ATOM     71  C   UNL A   1      42.693  26.559  34.323  1.00  0.00    -0.014 A 
ATOM     72  C   UNL A   1      41.779  25.904  35.158  1.00  0.00     0.009 A 
ATOM     73  C   UNL A   1      43.754  25.770  33.818  1.00  0.00     0.009 A 
ATOM     74  C   UNL A   1      41.937  24.552  35.499  1.00  0.00     0.001 A 
ATOM     75  C   UNL A   1      43.889  24.411  34.114  1.00  0.00     0.001 A 
ATOM     76  C   UNL A   1      42.983  23.803  34.967  1.00  0.00     0.000 A 
ENDBRANCH  58  71
ENDBRANCH  32  33
ENDBRANCH  24  27
ENDBRANCH  22  23
ENDBRANCH  21  22
ENDBRANCH   1  21
TORSDOF 13
ENDMDL
MODEL 3
REMARK VINA RESULT:     -11.3      3.224      8.401
REMARK SMILES Cc1ccccc1C(=O)N1CSC[C@H]1C(=O)NCCCCNC(=O)c1ccc(-c2c3nc(c(-c4ccccc4)c4ccc([nH]4)c(-c4ccccc4)c4nc(c(-c5ccccc5)c5ccc2[nH]5)C=C4)C=C3)cc1
REMARK SMILES IDX 19 1 18 2 17 3 15 4 16 5 14 7 10 8 11 9 12 10 13 11 8 12
REMARK SMILES IDX 9 13 7 14 1 15 2 16 3 17 4 18 6 19 5 20 20 21 21 22 22 23
REMARK SMILES IDX 23 24 24 26 25 27 26 28 72 29 27 30 71 31 28 32 29 33 30 34
REMARK SMILES IDX 65 35 31 36 70 37 64 38 66 39 32 40 69 41 63 42 62 43 33 45
REMARK SMILES IDX 55 46 40 47 54 48 41 49 44 50 53 51 67 52 42 53 43 54 52 56
REMARK SMILES IDX 68 57 45 58 34 59 35 60 39 61 36 62 38 63 37 64 56 65 57 66
REMARK SMILES IDX 61 67 58 68 60 69 59 70 46 71 47 72 51 73 48 74 50 75 49 76
REMARK H PARENT 17 6 22 25 66 44 44 55
REMARK Flexibility Score: inf
ROOT
ATOM      1  C   UNL A   1      31.755  30.605  25.929  1.00  0.00     0.023 C 
ENDROOT
BRANCH   1   2
ATOM      2  C   UNL A   1      32.178  29.220  25.434  1.00  0.00     0.116 C 
BRANCH   2   3
ATOM      3  N   UNL A   1      33.087  29.271  24.312  1.00  0.00    -0.354 N 
ATOM      4  C   UNL A   1      33.122  28.567  23.148  1.00  0.00     0.243 C 
ATOM      5  O   UNL A   1      33.843  29.041  22.260  1.00  0.00    -0.273 OA
ATOM      6  H   UNL A   1      33.810  29.933  24.406  1.00  0.00     0.163 HD
BRANCH   4   7
ATOM      7  C   UNL A   1      32.224  27.345  22.841  1.00  0.00     0.185 C 
ATOM      8  N   UNL A   1      32.420  26.112  23.612  1.00  0.00    -0.317 N 
ATOM      9  C   UNL A   1      31.396  25.818  24.585  1.00  0.00     0.190 C 
ATOM     10  S   UNL A   1      29.890  26.635  24.019  1.00  0.00    -0.138 SA
ATOM     11  C   UNL A   1      30.739  27.696  22.806  1.00  0.00     0.106 C 
BRANCH   8  12
ATOM     12  C   UNL A   1      33.476  25.296  23.239  1.00  0.00     0.255 C 
ATOM     13  O   UNL A   1      34.036  25.438  22.150  1.00  0.00    -0.269 OA
BRANCH  12  14
ATOM     14  C   UNL A   1      33.940  24.167  24.095  1.00  0.00     0.042 A 
ATOM     15  C   UNL A   1      32.492  22.357  22.953  1.00  0.00     0.045 C 
ATOM     16  C   UNL A   1      33.523  22.827  23.943  1.00  0.00    -0.038 A 
ATOM     17  C   UNL A   1      34.128  21.835  24.739  1.00  0.00     0.004 A 
ATOM     18  C   UNL A   1      35.185  22.140  25.594  1.00  0.00     0.000 A 
ATOM     19  C   UNL A   1      35.018  24.456  24.952  1.00  0.00     0.014 A 
ATOM     20  C   UNL A   1      35.643  23.449  25.689  1.00  0.00     0.001 A 
ENDBRANCH  12  14
ENDBRANCH   8  12
ENDBRANCH   4   7
ENDBRANCH   2   3
ENDBRANCH   1   2
BRANCH   1  21
ATOM     21  C   UNL A   1      32.411  31.059  27.232  1.00  0.00     0.023 C 
BRANCH  21  22
ATOM     22  C   UNL A   1      33.916  30.838  27.282  1.00  0.00     0.116 C 
BRANCH  22  23
ATOM     23  N   UNL A   1      34.657  31.755  28.136  1.00  0.00    -0.352 N 
ATOM     24  C   UNL A   1      35.802  31.537  28.892  1.00  0.00     0.251 C 
ATOM     25  H   UNL A   1      34.291  32.669  28.186  1.00  0.00     0.163 HD
ATOM     26  O   UNL A   1      36.223  32.419  29.624  1.00  0.00    -0.269 OA
BRANCH  24  27
ATOM     27  C   UNL A   1      36.599  30.293  28.698  1.00  0.00     0.039 A 
ATOM     28  C   UNL A   1      36.729  29.424  29.790  1.00  0.00     0.014 A 
ATOM     29  C   UNL A   1      37.390  30.107  27.572  1.00  0.00     0.014 A 
ATOM     30  C   UNL A   1      37.834  28.579  29.863  1.00  0.00     0.010 A 
ATOM     31  C   UNL A   1      38.552  29.376  27.697  1.00  0.00     0.010 A 
ATOM     32  C   UNL A   1      38.808  28.668  28.874  1.00  0.00    -0.014 A 
BRANCH  32  33
ATOM     33  C   UNL A   1      40.174  28.185  29.039  1.00  0.00     0.031 A 
ATOM     34  C   UNL A   1      40.565  26.854  28.538  1.00  0.00     0.074 A 
ATOM     35  C   UNL A   1      41.113  29.025  29.527  1.00  0.00     0.049 A 
ATOM     36  N   UNL A   1      41.634  26.229  28.898  1.00  0.00    -0.248 NA
ATOM     37  C   UNL A   1      39.731  26.082  27.624  1.00  0.00     0.031 C 
ATOM     38  C   UNL A   1      42.565  28.893  29.442  1.00  0.00     0.029 A 
ATOM     39  N   UNL A   1      40.915  30.086  30.410  1.00  0.00    -0.354 N 
ATOM     40  C   UNL A   1      41.794  25.165  28.041  1.00  0.00     0.074 A 
ATOM     41  C   UNL A   1      40.532  25.048  27.355  1.00  0.00     0.031 C 
ATOM     42  C   UNL A   1      43.126  29.643  30.405  1.00  0.00     0.029 A 
ATOM     43  C   UNL A   1      42.049  30.145  31.241  1.00  0.00     0.049 A 
ATOM     44  H   UNL A   1      40.131  30.680  30.446  1.00  0.00     0.167 HD
ATOM     45  C   UNL A   1      43.032  24.611  27.901  1.00  0.00     0.031 A 
ATOM     46  C   UNL A   1      41.945  29.922  32.584  1.00  0.00     0.031 A 
ATOM     47  C   UNL A   1      43.973  25.134  28.895  1.00  0.00     0.049 A 
ATOM     48  C   UNL A   1      42.738  28.728  33.074  1.00  0.00     0.074 A 
ATOM     49  C   UNL A   1      45.023  26.035  28.837  1.00  0.00     0.029 A 
ATOM     50  N   UNL A   1      43.705  24.933  30.245  1.00  0.00    -0.354 N 
ATOM     51  N   UNL A   1      43.212  27.794  32.296  1.00  0.00    -0.248 NA
ATOM     52  C   UNL A   1      43.023  28.470  34.483  1.00  0.00     0.031 C 
ATOM     53  C   UNL A   1      45.337  26.431  30.165  1.00  0.00     0.029 A 
ATOM     54  C   UNL A   1      44.498  25.748  31.028  1.00  0.00     0.049 A 
ATOM     55  H   UNL A   1      43.039  24.298  30.595  1.00  0.00     0.167 HD
ATOM     56  C   UNL A   1      43.828  26.829  33.050  1.00  0.00     0.074 A 
ATOM     57  C   UNL A   1      43.699  27.309  34.414  1.00  0.00     0.031 C 
ATOM     58  C   UNL A   1      44.370  25.712  32.480  1.00  0.00     0.031 A 
BRANCH  45  59
ATOM     59  C   UNL A   1      43.459  23.811  26.688  1.00  0.00    -0.014 A 
ATOM     60  C   UNL A   1      43.327  22.410  26.701  1.00  0.00     0.009 A 
ATOM     61  C   UNL A   1      44.074  24.347  25.543  1.00  0.00     0.009 A 
ATOM     62  C   UNL A   1      43.851  21.598  25.683  1.00  0.00     0.001 A 
ATOM     63  C   UNL A   1      44.619  23.545  24.530  1.00  0.00     0.001 A 
ATOM     64  C   UNL A   1      44.518  22.166  24.606  1.00  0.00     0.000 A 
ENDBRANCH  45  59
BRANCH  46  65
ATOM     65  C   UNL A   1      40.644  30.373  33.157  1.00  0.00    -0.014 A 
ATOM     66  C   UNL A   1      40.379  31.756  33.196  1.00  0.00     0.009 A 
ATOM     67  C   UNL A   1      39.570  29.481  33.294  1.00  0.00     0.009 A 
ATOM     68  C   UNL A   1      39.065  32.234  33.242  1.00  0.00     0.001 A 
ATOM     69  C   UNL A   1      38.257  29.966  33.358  1.00  0.00     0.001 A 
ATOM     70  C   UNL A   1      38.003  31.336  33.292  1.00  0.00     0.000 A 
ENDBRANCH  46  65
BRANCH  58  71
ATOM     71  C   UNL A   1      44.878  24.484  33.203  1.00  0.00    -0.014 A 
ATOM     72  C   UNL A   1      46.163  24.346  33.743  1.00  0.00     0.009 A 
ATOM     73  C   UNL A   1      43.968  23.435  33.479  1.00  0.00     0.009 A 
ATOM     74  C   UNL A   1      46.528  23.210  34.482  1.00  0.00     0.001 A 
ATOM     75  C   UNL A   1      44.311  22.325  34.254  1.00  0.00     0.001 A 
ATOM     76  C   UNL A   1      45.601  22.207  34.748  1.00  0.00     0.000 A 
ENDBRANCH  58  71
ENDBRANCH  32  33
ENDBRANCH  24  27
ENDBRANCH  22  23
ENDBRANCH  21  22
ENDBRANCH   1  21
TORSDOF 13
ENDMDL
