MODEL 1
REMARK VINA RESULT:     -10.9      0.000      0.000
REMARK SMILES CCc1ccsc1CNC(=O)N1[C@H]2CC[C@@H]1[C@H](C(=O)NCCCCNC(=O)c1ccc(-c3c4nc(c(-c5ccccc5)c5ccc([nH]5)c(-c5ccccc5)c5nc(c(-c6ccccc6)c6ccc3[nH]6)C=C5)C=C4)cc1)C2
REMARK SMILES IDX 21 1 20 2 18 3 19 4 17 6 12 7 13 8 16 9 14 10 76 11 15 12
REMARK SMILES IDX 10 13 9 14 11 16 8 17 7 18 3 19 4 20 5 21 6 22 2 23 1 24
REMARK SMILES IDX 22 25 23 26 24 27 25 28 26 29 27 31 28 32 29 33 75 34 30 35
REMARK SMILES IDX 74 36 31 37 32 38 33 39 68 40 34 41 73 42 67 43 69 44 35 45
REMARK SMILES IDX 72 46 66 47 65 48 36 50 58 51 43 52 57 53 44 54 47 55 56 56
REMARK SMILES IDX 70 57 45 58 46 59 55 61 71 62 48 63 37 64 38 65 42 66 39 67
REMARK SMILES IDX 41 68 40 69 59 70 60 71 64 72 61 73 63 74 62 75 49 76 50 77
REMARK SMILES IDX 54 78 51 79 53 80 52 81
REMARK H PARENT 20 5 9 15 25 30 69 49 47 60
REMARK Flexibility Score: inf
ROOT
ATOM      1  C   UNL A   1      33.737  28.079  26.751  1.00  0.00     0.116 C 
ENDROOT
BRANCH   1   2
ATOM      2  N   UNL A   1      33.758  27.927  25.316  1.00  0.00    -0.356 N 
ATOM      3  C   UNL A   1      33.553  26.872  24.496  1.00  0.00     0.225 C 
ATOM      4  O   UNL A   1      33.784  27.080  23.298  1.00  0.00    -0.275 OA
ATOM      5  H   UNL A   1      33.965  28.762  24.836  1.00  0.00     0.163 HD
BRANCH   3   6
ATOM      6  C   UNL A   1      33.098  25.488  24.925  1.00  0.00     0.103 C 
ATOM      7  N   UNL A   1      31.669  23.970  25.823  1.00  0.00    -0.318 N 
ATOM      8  C   UNL A   1      31.608  23.679  24.404  1.00  0.00     0.088 C 
ATOM      9  C   UNL A   1      31.811  25.414  25.770  1.00  0.00     0.099 C 
ATOM     10  C   UNL A   1      30.419  24.569  23.999  1.00  0.00     0.027 C 
ATOM     11  C   UNL A   1      32.935  24.308  23.936  1.00  0.00     0.040 C 
ATOM     12  C   UNL A   1      30.554  25.765  24.967  1.00  0.00     0.028 C 
BRANCH   7  13
ATOM     13  C   UNL A   1      31.133  23.285  26.861  1.00  0.00     0.318 C 
ATOM     14  N   UNL A   1      31.937  22.454  27.564  1.00  0.00    -0.333 N 
ATOM     15  H   UNL A   1      31.480  21.777  28.113  1.00  0.00     0.165 HD
ATOM     16  O   UNL A   1      29.966  23.431  27.218  1.00  0.00    -0.249 OA
BRANCH  14  17
ATOM     17  C   UNL A   1      33.382  22.436  27.614  1.00  0.00     0.165 C 
BRANCH  17  18
ATOM     18  C   UNL A   1      33.981  21.700  26.444  1.00  0.00     0.027 A 
ATOM     19  C   UNL A   1      35.161  21.986  25.761  1.00  0.00    -0.033 A 
ATOM     20  C   UNL A   1      35.440  20.974  24.779  1.00  0.00     0.016 A 
ATOM     21  C   UNL A   1      34.491  19.981  24.740  1.00  0.00     0.065 A 
ATOM     22  S   UNL A   1      33.273  20.228  25.899  1.00  0.00    -0.147 S 
BRANCH  19  23
ATOM     23  C   UNL A   1      36.068  23.156  26.050  1.00  0.00     0.033 C 
ATOM     24  C   UNL A   1      36.868  23.640  24.851  1.00  0.00     0.009 C 
ENDBRANCH  19  23
ENDBRANCH  17  18
ENDBRANCH  14  17
ENDBRANCH   7  13
ENDBRANCH   3   6
ENDBRANCH   1   2
BRANCH   1  25
ATOM     25  C   UNL A   1      32.497  28.843  27.212  1.00  0.00     0.023 C 
BRANCH  25  26
ATOM     26  C   UNL A   1      32.406  30.272  26.698  1.00  0.00     0.023 C 
BRANCH  26  27
ATOM     27  C   UNL A   1      33.254  31.283  27.456  1.00  0.00     0.116 C 
BRANCH  27  28
ATOM     28  N   UNL A   1      32.659  32.609  27.553  1.00  0.00    -0.352 N 
ATOM     29  C   UNL A   1      33.177  33.722  28.186  1.00  0.00     0.251 C 
ATOM     30  H   UNL A   1      31.784  32.727  27.116  1.00  0.00     0.163 HD
ATOM     31  O   UNL A   1      32.563  34.770  28.241  1.00  0.00    -0.269 OA
BRANCH  29  32
ATOM     32  C   UNL A   1      34.489  33.575  28.847  1.00  0.00     0.039 A 
ATOM     33  C   UNL A   1      34.549  32.936  30.085  1.00  0.00     0.014 A 
ATOM     34  C   UNL A   1      35.653  33.918  28.153  1.00  0.00     0.014 A 
ATOM     35  C   UNL A   1      35.790  32.545  30.589  1.00  0.00     0.010 A 
ATOM     36  C   UNL A   1      36.876  33.454  28.617  1.00  0.00     0.010 A 
ATOM     37  C   UNL A   1      36.954  32.750  29.830  1.00  0.00    -0.014 A 
BRANCH  37  38
ATOM     38  C   UNL A   1      38.268  32.220  30.266  1.00  0.00     0.031 A 
ATOM     39  C   UNL A   1      38.771  30.924  29.700  1.00  0.00     0.074 A 
ATOM     40  C   UNL A   1      38.956  32.845  31.241  1.00  0.00     0.049 A 
ATOM     41  N   UNL A   1      39.825  30.228  30.039  1.00  0.00    -0.248 NA
ATOM     42  C   UNL A   1      37.959  30.310  28.636  1.00  0.00     0.031 C 
ATOM     43  C   UNL A   1      38.550  34.082  31.916  1.00  0.00     0.029 A 
ATOM     44  N   UNL A   1      40.142  32.514  31.847  1.00  0.00    -0.354 N 
ATOM     45  C   UNL A   1      39.781  29.080  29.260  1.00  0.00     0.074 A 
ATOM     46  C   UNL A   1      38.578  29.152  28.460  1.00  0.00     0.031 C 
ATOM     47  C   UNL A   1      39.483  34.417  32.821  1.00  0.00     0.029 A 
ATOM     48  C   UNL A   1      40.533  33.404  32.818  1.00  0.00     0.049 A 
ATOM     49  H   UNL A   1      40.664  31.714  31.607  1.00  0.00     0.167 HD
ATOM     50  C   UNL A   1      40.672  28.063  29.203  1.00  0.00     0.031 A 
ATOM     51  C   UNL A   1      41.613  33.400  33.620  1.00  0.00     0.031 A 
ATOM     52  C   UNL A   1      41.888  28.009  29.964  1.00  0.00     0.049 A 
ATOM     53  C   UNL A   1      42.606  32.277  33.512  1.00  0.00     0.074 A 
ATOM     54  C   UNL A   1      42.895  27.061  29.915  1.00  0.00     0.029 A 
ATOM     55  N   UNL A   1      42.265  28.950  30.908  1.00  0.00    -0.354 N 
ATOM     56  N   UNL A   1      42.582  31.229  32.727  1.00  0.00    -0.248 NA
ATOM     57  C   UNL A   1      43.777  32.341  34.399  1.00  0.00     0.031 C 
ATOM     58  C   UNL A   1      43.871  27.416  30.853  1.00  0.00     0.029 A 
ATOM     59  C   UNL A   1      43.486  28.600  31.460  1.00  0.00     0.049 A 
ATOM     60  H   UNL A   1      41.744  29.749  31.150  1.00  0.00     0.167 HD
ATOM     61  C   UNL A   1      43.741  30.519  33.009  1.00  0.00     0.074 A 
ATOM     62  C   UNL A   1      44.452  31.262  34.029  1.00  0.00     0.031 C 
ATOM     63  C   UNL A   1      44.176  29.354  32.471  1.00  0.00     0.031 A 
BRANCH  50  64
ATOM     64  C   UNL A   1      40.351  26.927  28.275  1.00  0.00    -0.014 A 
ATOM     65  C   UNL A   1      40.866  26.891  26.969  1.00  0.00     0.009 A 
ATOM     66  C   UNL A   1      39.532  25.878  28.715  1.00  0.00     0.009 A 
ATOM     67  C   UNL A   1      40.532  25.844  26.108  1.00  0.00     0.001 A 
ATOM     68  C   UNL A   1      39.220  24.819  27.859  1.00  0.00     0.001 A 
ATOM     69  C   UNL A   1      39.712  24.808  26.555  1.00  0.00     0.000 A 
ENDBRANCH  50  64
BRANCH  51  70
ATOM     70  C   UNL A   1      41.828  34.508  34.585  1.00  0.00    -0.014 A 
ATOM     71  C   UNL A   1      41.374  34.388  35.908  1.00  0.00     0.009 A 
ATOM     72  C   UNL A   1      42.480  35.685  34.193  1.00  0.00     0.009 A 
ATOM     73  C   UNL A   1      41.551  35.436  36.814  1.00  0.00     0.001 A 
ATOM     74  C   UNL A   1      42.675  36.723  35.108  1.00  0.00     0.001 A 
ATOM     75  C   UNL A   1      42.204  36.600  36.414  1.00  0.00     0.000 A 
ENDBRANCH  51  70
BRANCH  63  76
ATOM     76  C   UNL A   1      45.493  28.827  32.957  1.00  0.00    -0.014 A 
ATOM     77  C   UNL A   1      46.690  29.170  32.313  1.00  0.00     0.009 A 
ATOM     78  C   UNL A   1      45.538  28.019  34.103  1.00  0.00     0.009 A 
ATOM     79  C   UNL A   1      47.910  28.694  32.798  1.00  0.00     0.001 A 
ATOM     80  C   UNL A   1      46.760  27.563  34.597  1.00  0.00     0.001 A 
ATOM     81  C   UNL A   1      47.944  27.896  33.941  1.00  0.00     0.000 A 
ENDBRANCH  63  76
ENDBRANCH  37  38
ENDBRANCH  29  32
ENDBRANCH  27  28
ENDBRANCH  26  27
ENDBRANCH  25  26
ENDBRANCH   1  25
TORSDOF 15
ENDMDL
MODEL 2
REMARK VINA RESULT:     -10.7      3.379      8.511
REMARK SMILES CCc1ccsc1CNC(=O)N1[C@H]2CC[C@@H]1[C@H](C(=O)NCCCCNC(=O)c1ccc(-c3c4nc(c(-c5ccccc5)c5ccc([nH]5)c(-c5ccccc5)c5nc(c(-c6ccccc6)c6ccc3[nH]6)C=C5)C=C4)cc1)C2
REMARK SMILES IDX 21 1 20 2 18 3 19 4 17 6 12 7 13 8 16 9 14 10 76 11 15 12
REMARK SMILES IDX 10 13 9 14 11 16 8 17 7 18 3 19 4 20 5 21 6 22 2 23 1 24
REMARK SMILES IDX 22 25 23 26 24 27 25 28 26 29 27 31 28 32 29 33 75 34 30 35
REMARK SMILES IDX 74 36 31 37 32 38 33 39 68 40 34 41 73 42 67 43 69 44 35 45
REMARK SMILES IDX 72 46 66 47 65 48 36 50 58 51 43 52 57 53 44 54 47 55 56 56
REMARK SMILES IDX 70 57 45 58 46 59 55 61 71 62 48 63 37 64 38 65 42 66 39 67
REMARK SMILES IDX 41 68 40 69 59 70 60 71 64 72 61 73 63 74 62 75 49 76 50 77
REMARK SMILES IDX 54 78 51 79 53 80 52 81
REMARK H PARENT 20 5 9 15 25 30 69 49 47 60
REMARK Flexibility Score: inf
ROOT
ATOM      1  C   UNL A   1      35.211  21.169  24.569  1.00  0.00     0.116 C 
ENDROOT
BRANCH   1   2
ATOM      2  N   UNL A   1      34.119  20.230  24.652  1.00  0.00    -0.356 N 
ATOM      3  C   UNL A   1      32.782  20.378  24.788  1.00  0.00     0.225 C 
ATOM      4  O   UNL A   1      32.148  19.329  24.958  1.00  0.00    -0.275 OA
ATOM      5  H   UNL A   1      34.406  19.289  24.600  1.00  0.00     0.163 HD
BRANCH   3   6
ATOM      6  C   UNL A   1      32.028  21.697  24.772  1.00  0.00     0.103 C 
ATOM      7  N   UNL A   1      31.120  23.568  25.680  1.00  0.00    -0.318 N 
ATOM      8  C   UNL A   1      32.266  24.079  24.954  1.00  0.00     0.088 C 
ATOM      9  C   UNL A   1      31.666  22.304  26.141  1.00  0.00     0.099 C 
ATOM     10  C   UNL A   1      33.327  24.043  26.070  1.00  0.00     0.027 C 
ATOM     11  C   UNL A   1      32.497  22.926  23.956  1.00  0.00     0.040 C 
ATOM     12  C   UNL A   1      32.891  22.818  26.904  1.00  0.00     0.028 C 
BRANCH   7  13
ATOM     13  C   UNL A   1      30.125  24.248  26.297  1.00  0.00     0.318 C 
ATOM     14  N   UNL A   1      29.686  25.396  25.728  1.00  0.00    -0.333 N 
ATOM     15  H   UNL A   1      29.180  26.000  26.318  1.00  0.00     0.165 HD
ATOM     16  O   UNL A   1      29.574  23.837  27.315  1.00  0.00    -0.249 OA
BRANCH  14  17
ATOM     17  C   UNL A   1      29.863  25.847  24.367  1.00  0.00     0.165 C 
BRANCH  17  18
ATOM     18  C   UNL A   1      30.129  27.328  24.289  1.00  0.00     0.027 A 
ATOM     19  C   UNL A   1      31.038  28.078  25.032  1.00  0.00    -0.033 A 
ATOM     20  C   UNL A   1      31.069  29.441  24.574  1.00  0.00     0.016 A 
ATOM     21  C   UNL A   1      30.205  29.681  23.531  1.00  0.00     0.065 A 
ATOM     22  S   UNL A   1      29.372  28.275  23.066  1.00  0.00    -0.147 S 
BRANCH  19  23
ATOM     23  C   UNL A   1      31.926  27.533  26.123  1.00  0.00     0.033 C 
ATOM     24  C   UNL A   1      31.774  28.235  27.463  1.00  0.00     0.009 C 
ENDBRANCH  19  23
ENDBRANCH  17  18
ENDBRANCH  14  17
ENDBRANCH   7  13
ENDBRANCH   3   6
ENDBRANCH   1   2
BRANCH   1  25
ATOM     25  C   UNL A   1      36.408  20.707  25.398  1.00  0.00     0.023 C 
BRANCH  25  26
ATOM     26  C   UNL A   1      37.762  21.129  24.847  1.00  0.00     0.023 C 
BRANCH  26  27
ATOM     27  C   UNL A   1      38.908  21.075  25.846  1.00  0.00     0.116 C 
BRANCH  27  28
ATOM     28  N   UNL A   1      39.755  19.897  25.723  1.00  0.00    -0.352 N 
ATOM     29  C   UNL A   1      41.093  19.782  26.047  1.00  0.00     0.251 C 
ATOM     30  H   UNL A   1      39.323  19.086  25.368  1.00  0.00     0.163 HD
ATOM     31  O   UNL A   1      41.710  18.752  25.855  1.00  0.00    -0.269 OA
BRANCH  29  32
ATOM     32  C   UNL A   1      41.765  20.981  26.585  1.00  0.00     0.039 A 
ATOM     33  C   UNL A   1      42.293  21.912  25.691  1.00  0.00     0.014 A 
ATOM     34  C   UNL A   1      41.709  21.246  27.955  1.00  0.00     0.014 A 
ATOM     35  C   UNL A   1      42.678  23.167  26.165  1.00  0.00     0.010 A 
ATOM     36  C   UNL A   1      42.015  22.522  28.409  1.00  0.00     0.010 A 
ATOM     37  C   UNL A   1      42.487  23.497  27.516  1.00  0.00    -0.014 A 
BRANCH  37  38
ATOM     38  C   UNL A   1      42.748  24.865  28.025  1.00  0.00     0.031 A 
ATOM     39  C   UNL A   1      44.133  25.241  28.468  1.00  0.00     0.074 A 
ATOM     40  C   UNL A   1      41.728  25.730  28.186  1.00  0.00     0.049 A 
ATOM     41  N   UNL A   1      44.543  26.334  29.058  1.00  0.00    -0.248 NA
ATOM     42  C   UNL A   1      45.189  24.238  28.252  1.00  0.00     0.031 C 
ATOM     43  C   UNL A   1      40.325  25.469  27.849  1.00  0.00     0.029 A 
ATOM     44  N   UNL A   1      41.713  27.005  28.692  1.00  0.00    -0.354 N 
ATOM     45  C   UNL A   1      45.892  26.134  29.318  1.00  0.00     0.074 A 
ATOM     46  C   UNL A   1      46.222  24.803  28.858  1.00  0.00     0.031 C 
ATOM     47  C   UNL A   1      39.594  26.559  28.132  1.00  0.00     0.029 A 
ATOM     48  C   UNL A   1      40.465  27.580  28.704  1.00  0.00     0.049 A 
ATOM     49  H   UNL A   1      42.521  27.466  29.015  1.00  0.00     0.167 HD
ATOM     50  C   UNL A   1      46.782  26.989  29.874  1.00  0.00     0.031 A 
ATOM     51  C   UNL A   1      40.067  28.792  29.133  1.00  0.00     0.031 A 
ATOM     52  C   UNL A   1      46.466  28.326  30.291  1.00  0.00     0.049 A 
ATOM     53  C   UNL A   1      41.081  29.736  29.713  1.00  0.00     0.074 A 
ATOM     54  C   UNL A   1      47.316  29.296  30.790  1.00  0.00     0.029 A 
ATOM     55  N   UNL A   1      45.197  28.882  30.250  1.00  0.00    -0.354 N 
ATOM     56  N   UNL A   1      42.365  29.555  29.897  1.00  0.00    -0.248 NA
ATOM     57  C   UNL A   1      40.589  31.053  30.143  1.00  0.00     0.031 C 
ATOM     58  C   UNL A   1      46.554  30.435  31.077  1.00  0.00     0.029 A 
ATOM     59  C   UNL A   1      45.238  30.181  30.726  1.00  0.00     0.049 A 
ATOM     60  H   UNL A   1      44.389  28.423  29.929  1.00  0.00     0.167 HD
ATOM     61  C   UNL A   1      42.840  30.740  30.443  1.00  0.00     0.074 A 
ATOM     62  C   UNL A   1      41.707  31.637  30.550  1.00  0.00     0.031 C 
ATOM     63  C   UNL A   1      44.101  31.056  30.822  1.00  0.00     0.031 A 
BRANCH  50  64
ATOM     64  C   UNL A   1      48.185  26.489  30.055  1.00  0.00    -0.014 A 
ATOM     65  C   UNL A   1      49.145  26.639  29.041  1.00  0.00     0.009 A 
ATOM     66  C   UNL A   1      48.555  25.869  31.258  1.00  0.00     0.009 A 
ATOM     67  C   UNL A   1      50.437  26.140  29.214  1.00  0.00     0.001 A 
ATOM     68  C   UNL A   1      49.855  25.394  31.436  1.00  0.00     0.001 A 
ATOM     69  C   UNL A   1      50.791  25.520  30.412  1.00  0.00     0.000 A 
ENDBRANCH  50  64
BRANCH  51  70
ATOM     70  C   UNL A   1      38.643  29.194  29.010  1.00  0.00    -0.014 A 
ATOM     71  C   UNL A   1      38.162  29.725  27.803  1.00  0.00     0.009 A 
ATOM     72  C   UNL A   1      37.761  29.054  30.092  1.00  0.00     0.009 A 
ATOM     73  C   UNL A   1      36.830  30.129  27.689  1.00  0.00     0.001 A 
ATOM     74  C   UNL A   1      36.424  29.438  29.968  1.00  0.00     0.001 A 
ATOM     75  C   UNL A   1      35.962  29.981  28.769  1.00  0.00     0.000 A 
ENDBRANCH  51  70
BRANCH  63  76
ATOM     76  C   UNL A   1      44.327  32.436  31.365  1.00  0.00    -0.014 A 
ATOM     77  C   UNL A   1      44.212  32.700  32.737  1.00  0.00     0.009 A 
ATOM     78  C   UNL A   1      44.707  33.470  30.496  1.00  0.00     0.009 A 
ATOM     79  C   UNL A   1      44.455  33.984  33.228  1.00  0.00     0.001 A 
ATOM     80  C   UNL A   1      44.969  34.747  30.993  1.00  0.00     0.001 A 
ATOM     81  C   UNL A   1      44.837  35.004  32.356  1.00  0.00     0.000 A 
ENDBRANCH  63  76
ENDBRANCH  37  38
ENDBRANCH  29  32
ENDBRANCH  27  28
ENDBRANCH  26  27
ENDBRANCH  25  26
ENDBRANCH   1  25
TORSDOF 15
ENDMDL
MODEL 3
REMARK VINA RESULT:     -10.7      0.557      5.882
REMARK SMILES CCc1ccsc1CNC(=O)N1[C@H]2CC[C@@H]1[C@H](C(=O)NCCCCNC(=O)c1ccc(-c3c4nc(c(-c5ccccc5)c5ccc([nH]5)c(-c5ccccc5)c5nc(c(-c6ccccc6)c6ccc3[nH]6)C=C5)C=C4)cc1)C2
REMARK SMILES IDX 21 1 20 2 18 3 19 4 17 6 12 7 13 8 16 9 14 10 76 11 15 12
REMARK SMILES IDX 10 13 9 14 11 16 8 17 7 18 3 19 4 20 5 21 6 22 2 23 1 24
REMARK SMILES IDX 22 25 23 26 24 27 25 28 26 29 27 31 28 32 29 33 75 34 30 35
REMARK SMILES IDX 74 36 31 37 32 38 33 39 68 40 34 41 73 42 67 43 69 44 35 45
REMARK SMILES IDX 72 46 66 47 65 48 36 50 58 51 43 52 57 53 44 54 47 55 56 56
REMARK SMILES IDX 70 57 45 58 46 59 55 61 71 62 48 63 37 64 38 65 42 66 39 67
REMARK SMILES IDX 41 68 40 69 59 70 60 71 64 72 61 73 63 74 62 75 49 76 50 77
REMARK SMILES IDX 54 78 51 79 53 80 52 81
REMARK H PARENT 20 5 9 15 25 30 69 49 47 60
REMARK Flexibility Score: inf
ROOT
ATOM      1  C   UNL A   1      33.880  28.911  26.763  1.00  0.00     0.116 C 
ENDROOT
BRANCH   1   2
ATOM      2  N   UNL A   1      33.909  28.818  25.323  1.00  0.00    -0.356 N 
ATOM      3  C   UNL A   1      33.707  27.797  24.459  1.00  0.00     0.225 C 
ATOM      4  O   UNL A   1      33.945  28.053  23.272  1.00  0.00    -0.275 OA
ATOM      5  H   UNL A   1      34.119  29.671  24.878  1.00  0.00     0.163 HD
BRANCH   3   6
ATOM      6  C   UNL A   1      33.248  26.397  24.830  1.00  0.00     0.103 C 
ATOM      7  N   UNL A   1      31.758  24.822  25.502  1.00  0.00    -0.318 N 
ATOM      8  C   UNL A   1      31.948  24.516  24.098  1.00  0.00     0.088 C 
ATOM      9  C   UNL A   1      31.843  26.271  25.450  1.00  0.00     0.099 C 
ATOM     10  C   UNL A   1      30.805  25.347  23.487  1.00  0.00     0.027 C 
ATOM     11  C   UNL A   1      33.305  25.202  23.847  1.00  0.00     0.040 C 
ATOM     12  C   UNL A   1      30.723  26.556  24.444  1.00  0.00     0.028 C 
BRANCH   7  13
ATOM     13  C   UNL A   1      31.087  24.123  26.447  1.00  0.00     0.318 C 
ATOM     14  N   UNL A   1      31.757  23.167  27.134  1.00  0.00    -0.333 N 
ATOM     15  H   UNL A   1      31.200  22.502  27.598  1.00  0.00     0.165 HD
ATOM     16  O   UNL A   1      29.917  24.359  26.740  1.00  0.00    -0.249 OA
BRANCH  14  17
ATOM     17  C   UNL A   1      33.186  23.001  27.274  1.00  0.00     0.165 C 
BRANCH  17  18
ATOM     18  C   UNL A   1      33.763  22.119  26.197  1.00  0.00     0.027 A 
ATOM     19  C   UNL A   1      34.979  22.258  25.531  1.00  0.00    -0.033 A 
ATOM     20  C   UNL A   1      35.212  21.142  24.656  1.00  0.00     0.016 A 
ATOM     21  C   UNL A   1      34.195  20.217  24.676  1.00  0.00     0.065 A 
ATOM     22  S   UNL A   1      32.966  20.655  25.765  1.00  0.00    -0.147 S 
BRANCH  19  23
ATOM     23  C   UNL A   1      35.959  23.384  25.744  1.00  0.00     0.033 C 
ATOM     24  C   UNL A   1      37.336  23.137  25.147  1.00  0.00     0.009 C 
ENDBRANCH  19  23
ENDBRANCH  17  18
ENDBRANCH  14  17
ENDBRANCH   7  13
ENDBRANCH   3   6
ENDBRANCH   1   2
BRANCH   1  25
ATOM     25  C   UNL A   1      32.540  29.451  27.259  1.00  0.00     0.023 C 
BRANCH  25  26
ATOM     26  C   UNL A   1      32.243  30.886  26.847  1.00  0.00     0.023 C 
BRANCH  26  27
ATOM     27  C   UNL A   1      33.269  31.912  27.304  1.00  0.00     0.116 C 
BRANCH  27  28
ATOM     28  N   UNL A   1      32.708  33.218  27.624  1.00  0.00    -0.352 N 
ATOM     29  C   UNL A   1      33.226  34.173  28.476  1.00  0.00     0.251 C 
ATOM     30  H   UNL A   1      31.860  33.447  27.178  1.00  0.00     0.163 HD
ATOM     31  O   UNL A   1      32.639  35.214  28.700  1.00  0.00    -0.269 OA
BRANCH  29  32
ATOM     32  C   UNL A   1      34.498  33.856  29.154  1.00  0.00     0.039 A 
ATOM     33  C   UNL A   1      34.469  33.054  30.295  1.00  0.00     0.014 A 
ATOM     34  C   UNL A   1      35.707  34.215  28.554  1.00  0.00     0.014 A 
ATOM     35  C   UNL A   1      35.663  32.522  30.782  1.00  0.00     0.010 A 
ATOM     36  C   UNL A   1      36.881  33.617  28.991  1.00  0.00     0.010 A 
ATOM     37  C   UNL A   1      36.867  32.754  30.099  1.00  0.00    -0.014 A 
BRANCH  37  38
ATOM     38  C   UNL A   1      38.129  32.088  30.502  1.00  0.00     0.031 A 
ATOM     39  C   UNL A   1      39.046  32.764  31.480  1.00  0.00     0.074 A 
ATOM     40  C   UNL A   1      38.500  30.934  29.914  1.00  0.00     0.049 A 
ATOM     41  N   UNL A   1      40.247  32.415  31.863  1.00  0.00    -0.248 NA
ATOM     42  C   UNL A   1      38.563  34.020  32.077  1.00  0.00     0.031 C 
ATOM     43  C   UNL A   1      37.727  30.203  28.905  1.00  0.00     0.029 A 
ATOM     44  N   UNL A   1      39.634  30.178  30.071  1.00  0.00    -0.354 N 
ATOM     45  C   UNL A   1      40.676  33.425  32.714  1.00  0.00     0.074 A 
ATOM     46  C   UNL A   1      39.625  34.419  32.760  1.00  0.00     0.031 C 
ATOM     47  C   UNL A   1      38.397  29.093  28.556  1.00  0.00     0.029 A 
ATOM     48  C   UNL A   1      39.660  29.052  29.284  1.00  0.00     0.049 A 
ATOM     49  H   UNL A   1      40.360  30.420  30.690  1.00  0.00     0.167 HD
ATOM     50  C   UNL A   1      41.834  33.511  33.408  1.00  0.00     0.031 A 
ATOM     51  C   UNL A   1      40.599  28.096  29.161  1.00  0.00     0.031 A 
ATOM     52  C   UNL A   1      42.859  32.506  33.398  1.00  0.00     0.049 A 
ATOM     53  C   UNL A   1      41.861  28.196  29.971  1.00  0.00     0.074 A 
ATOM     54  C   UNL A   1      44.032  32.463  34.131  1.00  0.00     0.029 A 
ATOM     55  N   UNL A   1      42.828  31.361  32.617  1.00  0.00    -0.354 N 
ATOM     56  N   UNL A   1      42.225  29.127  30.817  1.00  0.00    -0.248 NA
ATOM     57  C   UNL A   1      42.839  27.110  29.809  1.00  0.00     0.031 C 
ATOM     58  C   UNL A   1      44.726  31.302  33.772  1.00  0.00     0.029 A 
ATOM     59  C   UNL A   1      43.969  30.609  32.841  1.00  0.00     0.049 A 
ATOM     60  H   UNL A   1      42.104  31.119  31.997  1.00  0.00     0.167 HD
ATOM     61  C   UNL A   1      43.463  28.731  31.305  1.00  0.00     0.074 A 
ATOM     62  C   UNL A   1      43.782  27.468  30.668  1.00  0.00     0.031 C 
ATOM     63  C   UNL A   1      44.265  29.357  32.200  1.00  0.00     0.031 A 
BRANCH  50  64
ATOM     64  C   UNL A   1      42.040  34.743  34.241  1.00  0.00    -0.014 A 
ATOM     65  C   UNL A   1      42.642  35.890  33.701  1.00  0.00     0.009 A 
ATOM     66  C   UNL A   1      41.619  34.758  35.579  1.00  0.00     0.009 A 
ATOM     67  C   UNL A   1      42.856  37.016  34.498  1.00  0.00     0.001 A 
ATOM     68  C   UNL A   1      41.812  35.895  36.366  1.00  0.00     0.001 A 
ATOM     69  C   UNL A   1      42.438  37.018  35.829  1.00  0.00     0.000 A 
ENDBRANCH  50  64
BRANCH  51  70
ATOM     70  C   UNL A   1      40.376  26.946  28.249  1.00  0.00    -0.014 A 
ATOM     71  C   UNL A   1      40.887  26.973  26.942  1.00  0.00     0.009 A 
ATOM     72  C   UNL A   1      39.652  25.822  28.674  1.00  0.00     0.009 A 
ATOM     73  C   UNL A   1      40.660  25.905  26.071  1.00  0.00     0.001 A 
ATOM     74  C   UNL A   1      39.445  24.746  27.807  1.00  0.00     0.001 A 
ATOM     75  C   UNL A   1      39.942  24.792  26.505  1.00  0.00     0.000 A 
ENDBRANCH  51  70
BRANCH  63  76
ATOM     76  C   UNL A   1      45.550  28.674  32.561  1.00  0.00    -0.014 A 
ATOM     77  C   UNL A   1      46.734  28.947  31.861  1.00  0.00     0.009 A 
ATOM     78  C   UNL A   1      45.584  27.787  33.647  1.00  0.00     0.009 A 
ATOM     79  C   UNL A   1      47.928  28.325  32.231  1.00  0.00     0.001 A 
ATOM     80  C   UNL A   1      46.783  27.183  34.026  1.00  0.00     0.001 A 
ATOM     81  C   UNL A   1      47.952  27.448  33.315  1.00  0.00     0.000 A 
ENDBRANCH  63  76
ENDBRANCH  37  38
ENDBRANCH  29  32
ENDBRANCH  27  28
ENDBRANCH  26  27
ENDBRANCH  25  26
ENDBRANCH   1  25
TORSDOF 15
ENDMDL
