MODEL 1
REMARK VINA RESULT:     -11.3      0.000      0.000
REMARK SMILES CN1C(=O)N(CC(=O)NCCCCNC(=O)c2ccc(-c3c4nc(c(-c5ccccc5)c5ccc([nH]5)c(-c5ccccc5)c5nc(c(-c6ccccc6)c6ccc3[nH]6)C=C5)C=C4)cc2)C(=O)C12CCCCC2
REMARK SMILES IDX 12 1 11 2 10 3 9 4 7 5 8 6 6 8 5 9 1 10 2 11 3 12 67 13 4 14
REMARK SMILES IDX 65 15 68 16 72 17 66 18 69 19 71 20 70 21 13 22 14 23 15 24
REMARK SMILES IDX 16 26 17 27 18 28 64 29 19 30 63 31 20 32 21 33 22 34 57 35
REMARK SMILES IDX 23 36 62 37 56 38 58 39 24 40 61 41 55 42 54 43 25 45 47 46
REMARK SMILES IDX 32 47 46 48 33 49 36 50 45 51 59 52 34 53 35 54 44 56 60 57
REMARK SMILES IDX 37 58 26 59 27 60 31 61 28 62 30 63 29 64 48 65 49 66 53 67
REMARK SMILES IDX 50 68 52 69 51 70 38 71 39 72 43 73 40 74 42 75 41 76
REMARK H PARENT 9 7 14 25 58 44 36 55
REMARK Flexibility Score: inf
ROOT
ATOM      1  C   UNL A   1      37.438  21.141  24.609  1.00  0.00     0.023 C 
ENDROOT
BRANCH   1   2
ATOM      2  C   UNL A   1      36.049  20.753  25.070  1.00  0.00     0.023 C 
BRANCH   2   3
ATOM      3  C   UNL A   1      35.142  21.880  25.556  1.00  0.00     0.116 C 
BRANCH   3   4
ATOM      4  N   UNL A   1      33.918  21.944  24.793  1.00  0.00    -0.355 N 
ATOM      5  C   UNL A   1      33.541  22.793  23.792  1.00  0.00     0.240 C 
ATOM      6  O   UNL A   1      32.530  22.471  23.156  1.00  0.00    -0.273 OA
ATOM      7  H   UNL A   1      33.246  21.267  25.034  1.00  0.00     0.163 HD
BRANCH   5   8
ATOM      8  C   UNL A   1      34.409  23.973  23.326  1.00  0.00     0.230 C 
BRANCH   8   9
ATOM      9  N   UNL A   1      33.886  25.287  23.636  1.00  0.00    -0.253 N 
ATOM     10  C   UNL A   1      32.706  28.534  22.595  1.00  0.00     0.150 C 
ATOM     11  N   UNL A   1      33.160  27.366  23.318  1.00  0.00    -0.313 N 
ATOM     12  C   UNL A   1      33.601  26.215  22.681  1.00  0.00     0.327 C 
ATOM     13  C   UNL A   1      33.087  27.214  24.776  1.00  0.00     0.124 C 
ATOM     14  O   UNL A   1      33.718  26.068  21.478  1.00  0.00    -0.248 OA
ATOM     15  C   UNL A   1      33.850  25.865  24.876  1.00  0.00     0.257 C 
ATOM     16  C   UNL A   1      33.680  28.370  25.579  1.00  0.00     0.039 C 
ATOM     17  C   UNL A   1      31.639  26.950  25.191  1.00  0.00     0.039 C 
ATOM     18  O   UNL A   1      34.254  25.349  25.910  1.00  0.00    -0.272 OA
ATOM     19  C   UNL A   1      33.388  28.287  27.085  1.00  0.00     0.003 C 
ATOM     20  C   UNL A   1      31.419  26.789  26.683  1.00  0.00     0.003 C 
ATOM     21  C   UNL A   1      31.917  28.022  27.407  1.00  0.00     0.000 C 
ENDBRANCH   8   9
ENDBRANCH   5   8
ENDBRANCH   3   4
ENDBRANCH   2   3
ENDBRANCH   1   2
BRANCH   1  22
ATOM     22  C   UNL A   1      38.474  21.106  25.725  1.00  0.00     0.116 C 
BRANCH  22  23
ATOM     23  N   UNL A   1      39.388  19.961  25.669  1.00  0.00    -0.352 N 
ATOM     24  C   UNL A   1      40.727  19.888  25.981  1.00  0.00     0.251 C 
ATOM     25  H   UNL A   1      38.983  19.118  25.363  1.00  0.00     0.163 HD
ATOM     26  O   UNL A   1      41.364  18.863  25.769  1.00  0.00    -0.269 OA
BRANCH  24  27
ATOM     27  C   UNL A   1      41.391  21.081  26.534  1.00  0.00     0.039 A 
ATOM     28  C   UNL A   1      41.999  21.993  25.670  1.00  0.00     0.014 A 
ATOM     29  C   UNL A   1      41.312  21.342  27.902  1.00  0.00     0.014 A 
ATOM     30  C   UNL A   1      42.425  23.224  26.171  1.00  0.00     0.010 A 
ATOM     31  C   UNL A   1      41.607  22.611  28.367  1.00  0.00     0.010 A 
ATOM     32  C   UNL A   1      42.173  23.566  27.509  1.00  0.00    -0.014 A 
BRANCH  32  33
ATOM     33  C   UNL A   1      42.487  24.912  28.045  1.00  0.00     0.031 A 
ATOM     34  C   UNL A   1      43.887  25.224  28.502  1.00  0.00     0.074 A 
ATOM     35  C   UNL A   1      41.501  25.817  28.207  1.00  0.00     0.049 A 
ATOM     36  N   UNL A   1      44.345  26.306  29.076  1.00  0.00    -0.248 NA
ATOM     37  C   UNL A   1      44.900  24.166  28.329  1.00  0.00     0.031 C 
ATOM     38  C   UNL A   1      40.090  25.612  27.866  1.00  0.00     0.029 A 
ATOM     39  N   UNL A   1      41.535  27.094  28.711  1.00  0.00    -0.354 N 
ATOM     40  C   UNL A   1      45.681  26.045  29.356  1.00  0.00     0.074 A 
ATOM     41  C   UNL A   1      45.946  24.686  28.948  1.00  0.00     0.031 C 
ATOM     42  C   UNL A   1      39.404  26.734  28.137  1.00  0.00     0.029 A 
ATOM     43  C   UNL A   1      40.311  27.718  28.715  1.00  0.00     0.049 A 
ATOM     44  H   UNL A   1      42.359  27.522  29.037  1.00  0.00     0.167 HD
ATOM     45  C   UNL A   1      46.611  26.872  29.886  1.00  0.00     0.031 A 
ATOM     46  C   UNL A   1      39.957  28.944  29.147  1.00  0.00     0.031 A 
ATOM     47  C   UNL A   1      46.351  28.234  30.263  1.00  0.00     0.049 A 
ATOM     48  C   UNL A   1      41.015  29.846  29.722  1.00  0.00     0.074 A 
ATOM     49  C   UNL A   1      47.245  29.182  30.725  1.00  0.00     0.029 A 
ATOM     50  N   UNL A   1      45.105  28.838  30.224  1.00  0.00    -0.354 N 
ATOM     51  N   UNL A   1      42.295  29.618  29.887  1.00  0.00    -0.248 NA
ATOM     52  C   UNL A   1      40.580  31.181  30.157  1.00  0.00     0.031 C 
ATOM     53  C   UNL A   1      46.527  30.342  31.030  1.00  0.00     0.029 A 
ATOM     54  C   UNL A   1      45.199  30.138  30.689  1.00  0.00     0.049 A 
ATOM     55  H   UNL A   1      44.276  28.408  29.912  1.00  0.00     0.167 HD
ATOM     56  C   UNL A   1      42.823  30.789  30.417  1.00  0.00     0.074 A 
ATOM     57  C   UNL A   1      41.728  31.731  30.525  1.00  0.00     0.031 C 
ATOM     58  C   UNL A   1      44.099  31.061  30.785  1.00  0.00     0.031 A 
BRANCH  45  59
ATOM     59  C   UNL A   1      47.996  26.325  30.092  1.00  0.00    -0.014 A 
ATOM     60  C   UNL A   1      48.395  25.783  31.325  1.00  0.00     0.009 A 
ATOM     61  C   UNL A   1      48.901  26.309  29.019  1.00  0.00     0.009 A 
ATOM     62  C   UNL A   1      49.682  25.266  31.487  1.00  0.00     0.001 A 
ATOM     63  C   UNL A   1      50.176  25.762  29.176  1.00  0.00     0.001 A 
ATOM     64  C   UNL A   1      50.568  25.249  30.411  1.00  0.00     0.000 A 
ENDBRANCH  45  59
BRANCH  46  65
ATOM     65  C   UNL A   1      38.542  29.396  29.057  1.00  0.00    -0.014 A 
ATOM     66  C   UNL A   1      37.684  29.295  30.163  1.00  0.00     0.009 A 
ATOM     67  C   UNL A   1      38.032  29.908  27.852  1.00  0.00     0.009 A 
ATOM     68  C   UNL A   1      36.339  29.659  30.054  1.00  0.00     0.001 A 
ATOM     69  C   UNL A   1      36.697  30.304  27.757  1.00  0.00     0.001 A 
ATOM     70  C   UNL A   1      35.847  30.166  28.853  1.00  0.00     0.000 A 
ENDBRANCH  46  65
BRANCH  58  71
ATOM     71  C   UNL A   1      44.389  32.443  31.298  1.00  0.00    -0.014 A 
ATOM     72  C   UNL A   1      44.336  32.742  32.668  1.00  0.00     0.009 A 
ATOM     73  C   UNL A   1      44.770  33.450  30.396  1.00  0.00     0.009 A 
ATOM     74  C   UNL A   1      44.621  34.032  33.120  1.00  0.00     0.001 A 
ATOM     75  C   UNL A   1      45.089  34.727  30.854  1.00  0.00     0.001 A 
ATOM     76  C   UNL A   1      45.004  35.020  32.213  1.00  0.00     0.000 A 
ENDBRANCH  58  71
ENDBRANCH  32  33
ENDBRANCH  24  27
ENDBRANCH  22  23
ENDBRANCH   1  22
TORSDOF 12
ENDMDL
MODEL 2
REMARK VINA RESULT:     -11.2      0.377      6.034
REMARK SMILES CN1C(=O)N(CC(=O)NCCCCNC(=O)c2ccc(-c3c4nc(c(-c5ccccc5)c5ccc([nH]5)c(-c5ccccc5)c5nc(c(-c6ccccc6)c6ccc3[nH]6)C=C5)C=C4)cc2)C(=O)C12CCCCC2
REMARK SMILES IDX 12 1 11 2 10 3 9 4 7 5 8 6 6 8 5 9 1 10 2 11 3 12 67 13 4 14
REMARK SMILES IDX 65 15 68 16 72 17 66 18 69 19 71 20 70 21 13 22 14 23 15 24
REMARK SMILES IDX 16 26 17 27 18 28 64 29 19 30 63 31 20 32 21 33 22 34 57 35
REMARK SMILES IDX 23 36 62 37 56 38 58 39 24 40 61 41 55 42 54 43 25 45 47 46
REMARK SMILES IDX 32 47 46 48 33 49 36 50 45 51 59 52 34 53 35 54 44 56 60 57
REMARK SMILES IDX 37 58 26 59 27 60 31 61 28 62 30 63 29 64 48 65 49 66 53 67
REMARK SMILES IDX 50 68 52 69 51 70 38 71 39 72 43 73 40 74 42 75 41 76
REMARK H PARENT 9 7 14 25 58 44 36 55
REMARK Flexibility Score: inf
ROOT
ATOM      1  C   UNL A   1      37.403  21.465  24.586  1.00  0.00     0.023 C 
ENDROOT
BRANCH   1   2
ATOM      2  C   UNL A   1      36.049  20.892  24.946  1.00  0.00     0.023 C 
BRANCH   2   3
ATOM      3  C   UNL A   1      35.026  21.855  25.540  1.00  0.00     0.116 C 
BRANCH   3   4
ATOM      4  N   UNL A   1      33.862  21.985  24.694  1.00  0.00    -0.355 N 
ATOM      5  C   UNL A   1      33.563  22.909  23.735  1.00  0.00     0.240 C 
ATOM      6  O   UNL A   1      32.603  22.643  23.002  1.00  0.00    -0.273 OA
ATOM      7  H   UNL A   1      33.174  21.296  24.831  1.00  0.00     0.163 HD
BRANCH   5   8
ATOM      8  C   UNL A   1      34.464  24.116  23.427  1.00  0.00     0.230 C 
BRANCH   8   9
ATOM      9  N   UNL A   1      33.883  25.411  23.713  1.00  0.00    -0.253 N 
ATOM     10  C   UNL A   1      32.653  28.622  22.618  1.00  0.00     0.150 C 
ATOM     11  N   UNL A   1      33.107  27.467  23.362  1.00  0.00    -0.313 N 
ATOM     12  C   UNL A   1      33.618  26.333  22.746  1.00  0.00     0.327 C 
ATOM     13  C   UNL A   1      32.965  27.308  24.813  1.00  0.00     0.124 C 
ATOM     14  O   UNL A   1      33.801  26.194  21.550  1.00  0.00    -0.248 OA
ATOM     15  C   UNL A   1      33.765  25.984  24.950  1.00  0.00     0.257 C 
ATOM     16  C   UNL A   1      33.479  28.479  25.648  1.00  0.00     0.039 C 
ATOM     17  C   UNL A   1      31.507  26.996  25.153  1.00  0.00     0.039 C 
ATOM     18  O   UNL A   1      34.132  25.477  26.002  1.00  0.00    -0.272 OA
ATOM     19  C   UNL A   1      33.113  28.382  27.137  1.00  0.00     0.003 C 
ATOM     20  C   UNL A   1      31.217  26.823  26.632  1.00  0.00     0.003 C 
ATOM     21  C   UNL A   1      31.637  28.068  27.383  1.00  0.00     0.000 C 
ENDBRANCH   8   9
ENDBRANCH   5   8
ENDBRANCH   3   4
ENDBRANCH   2   3
ENDBRANCH   1   2
BRANCH   1  22
ATOM     22  C   UNL A   1      38.428  21.334  25.704  1.00  0.00     0.116 C 
BRANCH  22  23
ATOM     23  N   UNL A   1      39.260  20.129  25.628  1.00  0.00    -0.352 N 
ATOM     24  C   UNL A   1      40.588  19.956  25.946  1.00  0.00     0.251 C 
ATOM     25  H   UNL A   1      38.800  19.324  25.300  1.00  0.00     0.163 HD
ATOM     26  O   UNL A   1      41.153  18.894  25.715  1.00  0.00    -0.269 OA
BRANCH  24  27
ATOM     27  C   UNL A   1      41.330  21.086  26.531  1.00  0.00     0.039 A 
ATOM     28  C   UNL A   1      41.937  22.020  25.690  1.00  0.00     0.014 A 
ATOM     29  C   UNL A   1      41.326  21.271  27.913  1.00  0.00     0.014 A 
ATOM     30  C   UNL A   1      42.440  23.200  26.237  1.00  0.00     0.010 A 
ATOM     31  C   UNL A   1      41.699  22.498  28.433  1.00  0.00     0.010 A 
ATOM     32  C   UNL A   1      42.266  23.476  27.602  1.00  0.00    -0.014 A 
BRANCH  32  33
ATOM     33  C   UNL A   1      42.665  24.775  28.196  1.00  0.00     0.031 A 
ATOM     34  C   UNL A   1      41.629  25.844  28.414  1.00  0.00     0.074 A 
ATOM     35  C   UNL A   1      43.966  25.026  28.449  1.00  0.00     0.049 A 
ATOM     36  N   UNL A   1      41.787  27.071  28.838  1.00  0.00    -0.248 NA
ATOM     37  C   UNL A   1      40.235  25.505  28.072  1.00  0.00     0.031 C 
ATOM     38  C   UNL A   1      45.075  24.096  28.217  1.00  0.00     0.029 A 
ATOM     39  N   UNL A   1      44.577  26.147  28.951  1.00  0.00    -0.354 N 
ATOM     40  C   UNL A   1      40.525  27.652  28.784  1.00  0.00     0.074 A 
ATOM     41  C   UNL A   1      39.624  26.668  28.230  1.00  0.00     0.031 C 
ATOM     42  C   UNL A   1      46.222  24.672  28.609  1.00  0.00     0.029 A 
ATOM     43  C   UNL A   1      45.941  26.026  29.072  1.00  0.00     0.049 A 
ATOM     44  H   UNL A   1      44.085  26.963  29.201  1.00  0.00     0.167 HD
ATOM     45  C   UNL A   1      40.146  28.888  29.182  1.00  0.00     0.031 A 
ATOM     46  C   UNL A   1      46.862  26.911  29.498  1.00  0.00     0.031 A 
ATOM     47  C   UNL A   1      41.038  29.853  29.761  1.00  0.00     0.049 A 
ATOM     48  C   UNL A   1      46.409  28.275  29.945  1.00  0.00     0.074 A 
ATOM     49  C   UNL A   1      40.737  31.099  30.278  1.00  0.00     0.029 A 
ATOM     50  N   UNL A   1      42.407  29.680  29.894  1.00  0.00    -0.354 N 
ATOM     51  N   UNL A   1      45.197  28.772  29.981  1.00  0.00    -0.248 NA
ATOM     52  C   UNL A   1      47.452  29.193  30.423  1.00  0.00     0.031 C 
ATOM     53  C   UNL A   1      41.934  31.709  30.664  1.00  0.00     0.029 A 
ATOM     54  C   UNL A   1      42.971  30.813  30.453  1.00  0.00     0.049 A 
ATOM     55  H   UNL A   1      42.904  28.872  29.630  1.00  0.00     0.167 HD
ATOM     56  C   UNL A   1      45.328  30.049  30.512  1.00  0.00     0.074 A 
ATOM     57  C   UNL A   1      46.734  30.241  30.802  1.00  0.00     0.031 C 
ATOM     58  C   UNL A   1      44.371  30.983  30.738  1.00  0.00     0.031 A 
BRANCH  45  59
ATOM     59  C   UNL A   1      38.702  29.267  29.002  1.00  0.00    -0.014 A 
ATOM     60  C   UNL A   1      38.214  29.734  27.771  1.00  0.00     0.009 A 
ATOM     61  C   UNL A   1      37.806  29.108  30.070  1.00  0.00     0.009 A 
ATOM     62  C   UNL A   1      36.866  30.065  27.624  1.00  0.00     0.001 A 
ATOM     63  C   UNL A   1      36.452  29.408  29.910  1.00  0.00     0.001 A 
ATOM     64  C   UNL A   1      35.984  29.894  28.691  1.00  0.00     0.000 A 
ENDBRANCH  45  59
BRANCH  46  65
ATOM     65  C   UNL A   1      48.304  26.544  29.526  1.00  0.00    -0.014 A 
ATOM     66  C   UNL A   1      48.863  25.917  30.650  1.00  0.00     0.009 A 
ATOM     67  C   UNL A   1      49.138  26.844  28.436  1.00  0.00     0.009 A 
ATOM     68  C   UNL A   1      50.231  25.634  30.699  1.00  0.00     0.001 A 
ATOM     69  C   UNL A   1      50.497  26.528  28.474  1.00  0.00     0.001 A 
ATOM     70  C   UNL A   1      51.046  25.936  29.610  1.00  0.00     0.000 A 
ENDBRANCH  46  65
BRANCH  58  71
ATOM     71  C   UNL A   1      44.805  32.278  31.364  1.00  0.00    -0.014 A 
ATOM     72  C   UNL A   1      44.864  32.434  32.758  1.00  0.00     0.009 A 
ATOM     73  C   UNL A   1      45.207  33.343  30.542  1.00  0.00     0.009 A 
ATOM     74  C   UNL A   1      45.281  33.644  33.314  1.00  0.00     0.001 A 
ATOM     75  C   UNL A   1      45.657  34.538  31.102  1.00  0.00     0.001 A 
ATOM     76  C   UNL A   1      45.684  34.692  32.486  1.00  0.00     0.000 A 
ENDBRANCH  58  71
ENDBRANCH  32  33
ENDBRANCH  24  27
ENDBRANCH  22  23
ENDBRANCH   1  22
TORSDOF 12
ENDMDL
MODEL 3
REMARK VINA RESULT:     -11.2      3.747      9.022
REMARK SMILES CN1C(=O)N(CC(=O)NCCCCNC(=O)c2ccc(-c3c4nc(c(-c5ccccc5)c5ccc([nH]5)c(-c5ccccc5)c5nc(c(-c6ccccc6)c6ccc3[nH]6)C=C5)C=C4)cc2)C(=O)C12CCCCC2
REMARK SMILES IDX 12 1 11 2 10 3 9 4 7 5 8 6 6 8 5 9 1 10 2 11 3 12 67 13 4 14
REMARK SMILES IDX 65 15 68 16 72 17 66 18 69 19 71 20 70 21 13 22 14 23 15 24
REMARK SMILES IDX 16 26 17 27 18 28 64 29 19 30 63 31 20 32 21 33 22 34 57 35
REMARK SMILES IDX 23 36 62 37 56 38 58 39 24 40 61 41 55 42 54 43 25 45 47 46
REMARK SMILES IDX 32 47 46 48 33 49 36 50 45 51 59 52 34 53 35 54 44 56 60 57
REMARK SMILES IDX 37 58 26 59 27 60 31 61 28 62 30 63 29 64 48 65 49 66 53 67
REMARK SMILES IDX 50 68 52 69 51 70 38 71 39 72 43 73 40 74 42 75 41 76
REMARK H PARENT 9 7 14 25 58 44 36 55
REMARK Flexibility Score: inf
ROOT
ATOM      1  C   UNL A   1      31.681  31.773  26.837  1.00  0.00     0.023 C 
ENDROOT
BRANCH   1   2
ATOM      2  C   UNL A   1      32.041  30.306  26.731  1.00  0.00     0.023 C 
BRANCH   2   3
ATOM      3  C   UNL A   1      32.944  29.897  25.572  1.00  0.00     0.116 C 
BRANCH   3   4
ATOM      4  N   UNL A   1      32.182  29.610  24.379  1.00  0.00    -0.355 N 
ATOM      5  C   UNL A   1      32.474  28.810  23.311  1.00  0.00     0.240 C 
ATOM      6  O   UNL A   1      31.538  28.564  22.542  1.00  0.00    -0.273 OA
ATOM      7  H   UNL A   1      31.311  30.064  24.326  1.00  0.00     0.163 HD
BRANCH   5   8
ATOM      8  C   UNL A   1      33.818  28.079  23.158  1.00  0.00     0.230 C 
BRANCH   8   9
ATOM      9  N   UNL A   1      33.767  26.644  23.344  1.00  0.00    -0.253 N 
ATOM     10  C   UNL A   1      33.298  23.313  22.038  1.00  0.00     0.150 C 
ATOM     11  N   UNL A   1      33.486  24.491  22.857  1.00  0.00    -0.313 N 
ATOM     12  C   UNL A   1      33.498  25.775  22.330  1.00  0.00     0.327 C 
ATOM     13  C   UNL A   1      33.809  24.462  24.288  1.00  0.00     0.124 C 
ATOM     14  O   UNL A   1      33.298  26.069  21.166  1.00  0.00    -0.248 OA
ATOM     15  C   UNL A   1      33.715  25.991  24.546  1.00  0.00     0.257 C 
ATOM     16  C   UNL A   1      32.891  23.591  25.142  1.00  0.00     0.039 C 
ATOM     17  C   UNL A   1      35.272  24.057  24.474  1.00  0.00     0.039 C 
ATOM     18  O   UNL A   1      33.712  26.530  25.645  1.00  0.00    -0.272 OA
ATOM     19  C   UNL A   1      33.387  23.404  26.584  1.00  0.00     0.003 C 
ATOM     20  C   UNL A   1      35.734  23.972  25.916  1.00  0.00     0.003 C 
ATOM     21  C   UNL A   1      34.858  22.998  26.675  1.00  0.00     0.000 C 
ENDBRANCH   8   9
ENDBRANCH   5   8
ENDBRANCH   3   4
ENDBRANCH   2   3
ENDBRANCH   1   2
BRANCH   1  22
ATOM     22  C   UNL A   1      32.829  32.637  27.341  1.00  0.00     0.116 C 
BRANCH  22  23
ATOM     23  N   UNL A   1      32.454  34.018  27.663  1.00  0.00    -0.352 N 
ATOM     24  C   UNL A   1      33.006  34.889  28.574  1.00  0.00     0.251 C 
ATOM     25  H   UNL A   1      31.694  34.374  27.150  1.00  0.00     0.163 HD
ATOM     26  O   UNL A   1      32.490  35.980  28.788  1.00  0.00    -0.269 OA
BRANCH  24  27
ATOM     27  C   UNL A   1      34.205  34.470  29.319  1.00  0.00     0.039 A 
ATOM     28  C   UNL A   1      34.061  33.847  30.560  1.00  0.00     0.014 A 
ATOM     29  C   UNL A   1      35.463  34.601  28.731  1.00  0.00     0.014 A 
ATOM     30  C   UNL A   1      35.175  33.252  31.154  1.00  0.00     0.010 A 
ATOM     31  C   UNL A   1      36.532  33.893  29.253  1.00  0.00     0.010 A 
ATOM     32  C   UNL A   1      36.403  33.215  30.474  1.00  0.00    -0.014 A 
BRANCH  32  33
ATOM     33  C   UNL A   1      37.572  32.477  31.010  1.00  0.00     0.031 A 
ATOM     34  C   UNL A   1      38.270  32.982  32.244  1.00  0.00     0.074 A 
ATOM     35  C   UNL A   1      38.060  31.415  30.338  1.00  0.00     0.049 A 
ATOM     36  N   UNL A   1      39.355  32.533  32.820  1.00  0.00    -0.248 NA
ATOM     37  C   UNL A   1      37.698  34.175  32.896  1.00  0.00     0.031 C 
ATOM     38  C   UNL A   1      37.514  30.868  29.092  1.00  0.00     0.029 A 
ATOM     39  N   UNL A   1      39.137  30.607  30.607  1.00  0.00    -0.354 N 
ATOM     40  C   UNL A   1      39.607  33.401  33.874  1.00  0.00     0.074 A 
ATOM     41  C   UNL A   1      38.602  34.438  33.825  1.00  0.00     0.031 C 
ATOM     42  C   UNL A   1      38.236  29.797  28.727  1.00  0.00     0.029 A 
ATOM     43  C   UNL A   1      39.324  29.609  29.680  1.00  0.00     0.049 A 
ATOM     44  H   UNL A   1      39.720  30.730  31.390  1.00  0.00     0.167 HD
ATOM     45  C   UNL A   1      40.576  33.330  34.815  1.00  0.00     0.031 A 
ATOM     46  C   UNL A   1      40.272  28.656  29.602  1.00  0.00     0.031 A 
ATOM     47  C   UNL A   1      41.555  32.281  34.879  1.00  0.00     0.049 A 
ATOM     48  C   UNL A   1      41.331  28.594  30.669  1.00  0.00     0.074 A 
ATOM     49  C   UNL A   1      42.524  32.068  35.843  1.00  0.00     0.029 A 
ATOM     50  N   UNL A   1      41.692  31.272  33.939  1.00  0.00    -0.354 N 
ATOM     51  N   UNL A   1      41.495  29.365  31.716  1.00  0.00    -0.248 NA
ATOM     52  C   UNL A   1      42.328  27.521  30.549  1.00  0.00     0.031 C 
ATOM     53  C   UNL A   1      43.291  30.967  35.451  1.00  0.00     0.029 A 
ATOM     54  C   UNL A   1      42.754  30.453  34.281  1.00  0.00     0.049 A 
ATOM     55  H   UNL A   1      41.120  31.155  33.146  1.00  0.00     0.167 HD
ATOM     56  C   UNL A   1      42.594  28.853  32.395  1.00  0.00     0.074 A 
ATOM     57  C   UNL A   1      43.043  27.694  31.651  1.00  0.00     0.031 C 
ATOM     58  C   UNL A   1      43.182  29.302  33.530  1.00  0.00     0.031 A 
BRANCH  45  59
ATOM     59  C   UNL A   1      40.627  34.419  35.851  1.00  0.00    -0.014 A 
ATOM     60  C   UNL A   1      41.425  35.561  35.676  1.00  0.00     0.009 A 
ATOM     61  C   UNL A   1      39.823  34.322  36.997  1.00  0.00     0.009 A 
ATOM     62  C   UNL A   1      41.443  36.566  36.645  1.00  0.00     0.001 A 
ATOM     63  C   UNL A   1      39.818  35.345  37.947  1.00  0.00     0.001 A 
ATOM     64  C   UNL A   1      40.634  36.461  37.775  1.00  0.00     0.000 A 
ENDBRANCH  45  59
BRANCH  46  65
ATOM     65  C   UNL A   1      40.270  27.681  28.478  1.00  0.00    -0.014 A 
ATOM     66  C   UNL A   1      39.612  26.448  28.599  1.00  0.00     0.009 A 
ATOM     67  C   UNL A   1      40.952  27.968  27.284  1.00  0.00     0.009 A 
ATOM     68  C   UNL A   1      39.669  25.507  27.566  1.00  0.00     0.001 A 
ATOM     69  C   UNL A   1      40.977  27.041  26.239  1.00  0.00     0.001 A 
ATOM     70  C   UNL A   1      40.347  25.806  26.386  1.00  0.00     0.000 A 
ENDBRANCH  46  65
BRANCH  58  71
ATOM     71  C   UNL A   1      44.347  28.516  34.061  1.00  0.00    -0.014 A 
ATOM     72  C   UNL A   1      45.668  28.832  33.705  1.00  0.00     0.009 A 
ATOM     73  C   UNL A   1      44.119  27.471  34.971  1.00  0.00     0.009 A 
ATOM     74  C   UNL A   1      46.733  28.093  34.222  1.00  0.00     0.001 A 
ATOM     75  C   UNL A   1      45.188  26.758  35.513  1.00  0.00     0.001 A 
ATOM     76  C   UNL A   1      46.493  27.062  35.130  1.00  0.00     0.000 A 
ENDBRANCH  58  71
ENDBRANCH  32  33
ENDBRANCH  24  27
ENDBRANCH  22  23
ENDBRANCH   1  22
TORSDOF 12
ENDMDL
