MODEL 1
REMARK VINA RESULT:     -12.0      0.000      0.000
REMARK SMILES Cc1ccccc1-n1c(S[C@@H](C)C(=O)NCCCCNC(=O)c2ccc(-c3c4nc(c(-c5ccccc5)c5ccc([nH]5)c(-c5ccccc5)c5nc(c(-c6ccccc6)c6ccc3[nH]6)C=C5)C=C4)cc2)nc2sc3c(c2c1=O)C[C@@H](C(C)C)OC3
REMARK SMILES IDX 17 1 16 2 15 3 13 4 14 5 11 7 12 8 10 9 9 10 8 11 77 12
REMARK SMILES IDX 71 13 76 14 78 15 72 16 75 17 73 18 74 19 79 20 85 21 80 22
REMARK SMILES IDX 84 23 7 24 1 25 2 26 3 27 4 28 6 29 5 30 81 31 82 32 83 33
REMARK SMILES IDX 18 34 19 35 20 36 21 37 22 39 23 40 24 41 70 42 25 43 69 44
REMARK SMILES IDX 26 45 27 46 28 47 63 48 29 49 68 50 62 51 64 52 30 53 67 54
REMARK SMILES IDX 61 55 60 56 31 58 53 59 38 60 52 61 39 62 42 63 51 64 65 65
REMARK SMILES IDX 40 66 41 67 50 69 66 70 43 71 32 72 33 73 37 74 34 75 36 76
REMARK SMILES IDX 35 77 54 78 55 79 59 80 56 81 58 82 57 83 44 84 45 85 49 86
REMARK SMILES IDX 46 87 48 88 47 89
REMARK H PARENT 15 6 20 38 64 57 42 68
REMARK Flexibility Score: inf
ROOT
ATOM      1  C   UNL A   1      44.022  27.202  25.344  1.00  0.00     0.023 C 
ENDROOT
BRANCH   1   2
ATOM      2  C   UNL A   1      43.964  28.344  26.349  1.00  0.00     0.116 C 
BRANCH   2   3
ATOM      3  N   UNL A   1      44.686  29.572  26.169  1.00  0.00    -0.355 N 
ATOM      4  C   UNL A   1      46.008  29.848  26.408  1.00  0.00     0.233 C 
ATOM      5  O   UNL A   1      46.403  30.828  25.751  1.00  0.00    -0.274 OA
ATOM      6  H   UNL A   1      44.154  30.325  25.824  1.00  0.00     0.163 HD
BRANCH   4   7
ATOM      7  C   UNL A   1      46.936  29.278  27.514  1.00  0.00     0.140 C 
ATOM      8  C   UNL A   1      47.771  30.398  28.202  1.00  0.00     0.030 C 
BRANCH   7   9
ATOM      9  S   UNL A   1      48.094  27.914  27.479  1.00  0.00    -0.074 SA
BRANCH   9  10
ATOM     10  C   UNL A   1      47.496  26.445  26.791  1.00  0.00     0.177 A 
ATOM     11  N   UNL A   1      47.935  25.928  25.561  1.00  0.00    -0.255 N 
ATOM     12  C   UNL A   1      47.259  24.819  24.986  1.00  0.00     0.267 A 
ATOM     13  N   UNL A   1      46.604  25.892  27.554  1.00  0.00    -0.212 NA
ATOM     14  C   UNL A   1      46.158  24.288  25.799  1.00  0.00     0.081 A 
ATOM     15  O   UNL A   1      47.504  24.372  23.886  1.00  0.00    -0.268 OA
ATOM     16  C   UNL A   1      45.964  24.826  27.044  1.00  0.00     0.132 A 
ATOM     17  C   UNL A   1      45.136  23.328  25.496  1.00  0.00    -0.014 A 
ATOM     18  S   UNL A   1      44.708  24.070  27.914  1.00  0.00    -0.117 S 
ATOM     19  C   UNL A   1      44.321  23.083  26.589  1.00  0.00     0.037 A 
ATOM     20  C   UNL A   1      44.847  22.590  24.231  1.00  0.00     0.070 C 
ATOM     21  C   UNL A   1      43.244  22.044  26.662  1.00  0.00     0.207 C 
ATOM     22  C   UNL A   1      44.235  21.214  24.575  1.00  0.00     0.125 C 
ATOM     23  O   UNL A   1      43.046  21.420  25.376  1.00  0.00    -0.372 OA
BRANCH  11  24
ATOM     24  C   UNL A   1      48.908  26.624  24.759  1.00  0.00     0.054 A 
ATOM     25  C   UNL A   1      47.155  27.942  23.457  1.00  0.00     0.046 C 
ATOM     26  C   UNL A   1      48.545  27.405  23.651  1.00  0.00    -0.027 A 
ATOM     27  C   UNL A   1      49.531  27.757  22.707  1.00  0.00     0.005 A 
ATOM     28  C   UNL A   1      50.857  27.353  22.862  1.00  0.00     0.000 A 
ATOM     29  C   UNL A   1      50.277  26.392  24.986  1.00  0.00     0.027 A 
ATOM     30  C   UNL A   1      51.235  26.689  24.018  1.00  0.00     0.002 A 
ENDBRANCH  11  24
BRANCH  22  31
ATOM     31  C   UNL A   1      45.220  20.213  25.237  1.00  0.00     0.012 C 
ATOM     32  C   UNL A   1      44.608  18.811  25.299  1.00  0.00     0.010 C 
ATOM     33  C   UNL A   1      46.567  20.159  24.512  1.00  0.00     0.010 C 
ENDBRANCH  22  31
ENDBRANCH   9  10
ENDBRANCH   7   9
ENDBRANCH   4   7
ENDBRANCH   2   3
ENDBRANCH   1   2
BRANCH   1  34
ATOM     34  C   UNL A   1      42.857  26.207  25.075  1.00  0.00     0.023 C 
BRANCH  34  35
ATOM     35  C   UNL A   1      41.781  25.674  26.063  1.00  0.00     0.116 C 
BRANCH  35  36
ATOM     36  N   UNL A   1      40.564  26.413  26.435  1.00  0.00    -0.352 N 
ATOM     37  C   UNL A   1      39.705  25.998  27.471  1.00  0.00     0.251 C 
ATOM     38  H   UNL A   1      40.341  27.233  25.938  1.00  0.00     0.163 HD
ATOM     39  O   UNL A   1      39.354  24.829  27.599  1.00  0.00    -0.269 OA
BRANCH  37  40
ATOM     40  C   UNL A   1      39.277  27.035  28.522  1.00  0.00     0.039 A 
ATOM     41  C   UNL A   1      38.921  26.689  29.836  1.00  0.00     0.014 A 
ATOM     42  C   UNL A   1      39.480  28.394  28.293  1.00  0.00     0.014 A 
ATOM     43  C   UNL A   1      38.824  27.680  30.878  1.00  0.00     0.010 A 
ATOM     44  C   UNL A   1      39.387  29.367  29.335  1.00  0.00     0.010 A 
ATOM     45  C   UNL A   1      39.098  29.054  30.660  1.00  0.00    -0.014 A 
BRANCH  45  46
ATOM     46  C   UNL A   1      39.576  29.937  31.838  1.00  0.00     0.031 A 
ATOM     47  C   UNL A   1      40.602  30.889  31.140  1.00  0.00     0.074 A 
ATOM     48  C   UNL A   1      39.027  30.618  32.930  1.00  0.00     0.049 A 
ATOM     49  N   UNL A   1      40.245  31.841  30.320  1.00  0.00    -0.248 NA
ATOM     50  C   UNL A   1      42.058  30.668  31.092  1.00  0.00     0.031 C 
ATOM     51  C   UNL A   1      39.781  30.585  34.208  1.00  0.00     0.029 A 
ATOM     52  N   UNL A   1      37.852  31.329  33.352  1.00  0.00    -0.354 N 
ATOM     53  C   UNL A   1      41.399  32.564  29.981  1.00  0.00     0.074 A 
ATOM     54  C   UNL A   1      42.494  31.674  30.299  1.00  0.00     0.031 C 
ATOM     55  C   UNL A   1      39.201  31.351  35.161  1.00  0.00     0.029 A 
ATOM     56  C   UNL A   1      38.014  32.019  34.635  1.00  0.00     0.049 A 
ATOM     57  H   UNL A   1      37.018  31.352  32.829  1.00  0.00     0.167 HD
ATOM     58  C   UNL A   1      41.346  33.941  29.936  1.00  0.00     0.031 A 
ATOM     59  C   UNL A   1      37.477  33.181  35.211  1.00  0.00     0.031 A 
ATOM     60  C   UNL A   1      40.243  34.284  30.770  1.00  0.00     0.049 A 
ATOM     61  C   UNL A   1      36.481  33.949  34.387  1.00  0.00     0.074 A 
ATOM     62  C   UNL A   1      40.324  34.180  32.128  1.00  0.00     0.029 A 
ATOM     63  N   UNL A   1      38.957  34.543  30.360  1.00  0.00    -0.354 N 
ATOM     64  N   UNL A   1      36.844  34.952  33.627  1.00  0.00    -0.248 NA
ATOM     65  C   UNL A   1      35.050  33.674  34.261  1.00  0.00     0.031 C 
ATOM     66  C   UNL A   1      39.013  34.050  32.465  1.00  0.00     0.029 A 
ATOM     67  C   UNL A   1      38.126  34.291  31.432  1.00  0.00     0.049 A 
ATOM     68  H   UNL A   1      38.680  34.850  29.466  1.00  0.00     0.167 HD
ATOM     69  C   UNL A   1      36.055  34.738  32.531  1.00  0.00     0.074 A 
ATOM     70  C   UNL A   1      34.797  34.382  33.145  1.00  0.00     0.031 C 
ATOM     71  C   UNL A   1      36.654  34.209  31.407  1.00  0.00     0.031 A 
BRANCH  58  72
ATOM     72  C   UNL A   1      42.310  35.104  29.789  1.00  0.00    -0.014 A 
ATOM     73  C   UNL A   1      42.044  36.059  28.751  1.00  0.00     0.009 A 
ATOM     74  C   UNL A   1      43.550  35.205  30.404  1.00  0.00     0.009 A 
ATOM     75  C   UNL A   1      42.959  36.999  28.296  1.00  0.00     0.001 A 
ATOM     76  C   UNL A   1      44.480  36.171  29.955  1.00  0.00     0.001 A 
ATOM     77  C   UNL A   1      44.196  37.044  28.896  1.00  0.00     0.000 A 
ENDBRANCH  58  72
BRANCH  59  78
ATOM     78  C   UNL A   1      38.222  34.182  36.143  1.00  0.00    -0.014 A 
ATOM     79  C   UNL A   1      39.260  35.013  35.717  1.00  0.00     0.009 A 
ATOM     80  C   UNL A   1      38.148  34.007  37.559  1.00  0.00     0.009 A 
ATOM     81  C   UNL A   1      40.154  35.605  36.650  1.00  0.00     0.001 A 
ATOM     82  C   UNL A   1      39.039  34.564  38.483  1.00  0.00     0.001 A 
ATOM     83  C   UNL A   1      40.057  35.368  38.025  1.00  0.00     0.000 A 
ENDBRANCH  59  78
BRANCH  71  84
ATOM     84  C   UNL A   1      35.941  33.178  30.547  1.00  0.00    -0.014 A 
ATOM     85  C   UNL A   1      36.386  31.852  30.335  1.00  0.00     0.009 A 
ATOM     86  C   UNL A   1      34.872  33.574  29.746  1.00  0.00     0.009 A 
ATOM     87  C   UNL A   1      35.845  30.992  29.380  1.00  0.00     0.001 A 
ATOM     88  C   UNL A   1      34.327  32.718  28.792  1.00  0.00     0.001 A 
ATOM     89  C   UNL A   1      34.838  31.450  28.571  1.00  0.00     0.000 A 
ENDBRANCH  71  84
ENDBRANCH  45  46
ENDBRANCH  37  40
ENDBRANCH  35  36
ENDBRANCH  34  35
ENDBRANCH   1  34
TORSDOF 15
ENDMDL
MODEL 2
REMARK VINA RESULT:     -11.7      3.759     13.088
REMARK SMILES Cc1ccccc1-n1c(S[C@@H](C)C(=O)NCCCCNC(=O)c2ccc(-c3c4nc(c(-c5ccccc5)c5ccc([nH]5)c(-c5ccccc5)c5nc(c(-c6ccccc6)c6ccc3[nH]6)C=C5)C=C4)cc2)nc2sc3c(c2c1=O)C[C@@H](C(C)C)OC3
REMARK SMILES IDX 17 1 16 2 15 3 13 4 14 5 11 7 12 8 10 9 9 10 8 11 77 12
REMARK SMILES IDX 71 13 76 14 78 15 72 16 75 17 73 18 74 19 79 20 85 21 80 22
REMARK SMILES IDX 84 23 7 24 1 25 2 26 3 27 4 28 6 29 5 30 81 31 82 32 83 33
REMARK SMILES IDX 18 34 19 35 20 36 21 37 22 39 23 40 24 41 70 42 25 43 69 44
REMARK SMILES IDX 26 45 27 46 28 47 63 48 29 49 68 50 62 51 64 52 30 53 67 54
REMARK SMILES IDX 61 55 60 56 31 58 53 59 38 60 52 61 39 62 42 63 51 64 65 65
REMARK SMILES IDX 40 66 41 67 50 69 66 70 43 71 32 72 33 73 37 74 34 75 36 76
REMARK SMILES IDX 35 77 54 78 55 79 59 80 56 81 58 82 57 83 44 84 45 85 49 86
REMARK SMILES IDX 46 87 48 88 47 89
REMARK H PARENT 15 6 20 38 64 57 42 68
REMARK Flexibility Score: inf
ROOT
ATOM      1  C   UNL A   1      38.795  29.825  33.191  1.00  0.00     0.023 C 
ENDROOT
BRANCH   1   2
ATOM      2  C   UNL A   1      40.174  30.176  32.649  1.00  0.00     0.116 C 
BRANCH   2   3
ATOM      3  N   UNL A   1      40.398  30.548  31.282  1.00  0.00    -0.355 N 
ATOM      4  C   UNL A   1      41.494  31.144  30.709  1.00  0.00     0.233 C 
ATOM      5  O   UNL A   1      41.554  30.925  29.486  1.00  0.00    -0.274 OA
ATOM      6  H   UNL A   1      39.659  30.346  30.664  1.00  0.00     0.163 HD
BRANCH   4   7
ATOM      7  C   UNL A   1      42.460  32.193  31.321  1.00  0.00     0.140 C 
ATOM      8  C   UNL A   1      43.488  31.536  32.291  1.00  0.00     0.030 C 
BRANCH   7   9
ATOM      9  S   UNL A   1      42.130  33.756  32.127  1.00  0.00    -0.074 SA
BRANCH   9  10
ATOM     10  C   UNL A   1      40.461  34.125  32.384  1.00  0.00     0.177 A 
ATOM     11  N   UNL A   1      39.944  34.573  33.610  1.00  0.00    -0.255 N 
ATOM     12  C   UNL A   1      38.538  34.673  33.783  1.00  0.00     0.267 A 
ATOM     13  N   UNL A   1      39.763  33.936  31.306  1.00  0.00    -0.212 NA
ATOM     14  C   UNL A   1      37.751  34.323  32.594  1.00  0.00     0.081 A 
ATOM     15  O   UNL A   1      38.003  34.954  34.834  1.00  0.00    -0.268 OA
ATOM     16  C   UNL A   1      38.429  34.047  31.436  1.00  0.00     0.132 A 
ATOM     17  C   UNL A   1      36.343  34.114  32.419  1.00  0.00    -0.014 A 
ATOM     18  S   UNL A   1      37.400  33.733  30.114  1.00  0.00    -0.117 S 
ATOM     19  C   UNL A   1      36.023  33.845  31.098  1.00  0.00     0.037 A 
ATOM     20  C   UNL A   1      35.229  34.151  33.413  1.00  0.00     0.070 C 
ATOM     21  C   UNL A   1      34.638  33.710  30.544  1.00  0.00     0.207 C 
ATOM     22  C   UNL A   1      33.938  34.626  32.710  1.00  0.00     0.125 C 
ATOM     23  O   UNL A   1      33.657  33.738  31.602  1.00  0.00    -0.372 OA
BRANCH  11  24
ATOM     24  C   UNL A   1      40.785  34.725  34.769  1.00  0.00     0.054 A 
ATOM     25  C   UNL A   1      40.598  32.273  35.445  1.00  0.00     0.046 C 
ATOM     26  C   UNL A   1      40.928  33.711  35.729  1.00  0.00    -0.027 A 
ATOM     27  C   UNL A   1      41.457  34.035  36.995  1.00  0.00     0.005 A 
ATOM     28  C   UNL A   1      41.851  35.336  37.302  1.00  0.00     0.000 A 
ATOM     29  C   UNL A   1      41.361  35.979  35.041  1.00  0.00     0.027 A 
ATOM     30  C   UNL A   1      41.825  36.307  36.314  1.00  0.00     0.002 A 
ENDBRANCH  11  24
BRANCH  22  31
ATOM     31  C   UNL A   1      33.946  36.118  32.278  1.00  0.00     0.012 C 
ATOM     32  C   UNL A   1      32.721  36.439  31.417  1.00  0.00     0.010 C 
ATOM     33  C   UNL A   1      34.000  37.069  33.477  1.00  0.00     0.010 C 
ENDBRANCH  22  31
ENDBRANCH   9  10
ENDBRANCH   7   9
ENDBRANCH   4   7
ENDBRANCH   2   3
ENDBRANCH   1   2
BRANCH   1  34
ATOM     34  C   UNL A   1      37.472  30.503  32.733  1.00  0.00     0.023 C 
BRANCH  34  35
ATOM     35  C   UNL A   1      36.653  30.266  31.433  1.00  0.00     0.116 C 
BRANCH  35  36
ATOM     36  N   UNL A   1      36.940  29.200  30.460  1.00  0.00    -0.352 N 
ATOM     37  C   UNL A   1      37.331  29.463  29.132  1.00  0.00     0.251 C 
ATOM     38  H   UNL A   1      36.853  28.263  30.749  1.00  0.00     0.163 HD
ATOM     39  O   UNL A   1      36.770  30.308  28.442  1.00  0.00    -0.269 OA
BRANCH  37  40
ATOM     40  C   UNL A   1      38.561  28.727  28.577  1.00  0.00     0.039 A 
ATOM     41  C   UNL A   1      39.154  29.051  27.345  1.00  0.00     0.014 A 
ATOM     42  C   UNL A   1      39.303  27.879  29.396  1.00  0.00     0.014 A 
ATOM     43  C   UNL A   1      40.465  28.572  26.989  1.00  0.00     0.010 A 
ATOM     44  C   UNL A   1      40.605  27.414  29.034  1.00  0.00     0.010 A 
ATOM     45  C   UNL A   1      41.249  27.765  27.851  1.00  0.00    -0.014 A 
BRANCH  45  46
ATOM     46  C   UNL A   1      42.792  27.787  27.730  1.00  0.00     0.031 A 
ATOM     47  C   UNL A   1      43.242  27.434  29.186  1.00  0.00     0.074 A 
ATOM     48  C   UNL A   1      43.782  27.337  26.850  1.00  0.00     0.049 A 
ATOM     49  N   UNL A   1      43.108  26.243  29.702  1.00  0.00    -0.248 NA
ATOM     50  C   UNL A   1      43.599  28.422  30.220  1.00  0.00     0.031 C 
ATOM     51  C   UNL A   1      44.941  28.232  26.606  1.00  0.00     0.029 A 
ATOM     52  N   UNL A   1      44.090  26.275  25.932  1.00  0.00    -0.354 N 
ATOM     53  C   UNL A   1      43.720  26.255  30.965  1.00  0.00     0.074 A 
ATOM     54  C   UNL A   1      43.801  27.656  31.317  1.00  0.00     0.031 C 
ATOM     55  C   UNL A   1      45.873  27.654  25.813  1.00  0.00     0.029 A 
ATOM     56  C   UNL A   1      45.477  26.294  25.458  1.00  0.00     0.049 A 
ATOM     57  H   UNL A   1      43.433  25.599  25.648  1.00  0.00     0.167 HD
ATOM     58  C   UNL A   1      44.503  25.187  31.349  1.00  0.00     0.031 A 
ATOM     59  C   UNL A   1      46.396  25.319  25.042  1.00  0.00     0.031 A 
ATOM     60  C   UNL A   1      44.906  24.581  30.124  1.00  0.00     0.049 A 
ATOM     61  C   UNL A   1      45.918  23.892  25.040  1.00  0.00     0.074 A 
ATOM     62  C   UNL A   1      45.836  25.167  29.317  1.00  0.00     0.029 A 
ATOM     63  N   UNL A   1      44.309  23.507  29.508  1.00  0.00    -0.354 N 
ATOM     64  N   UNL A   1      46.117  23.098  26.062  1.00  0.00    -0.248 NA
ATOM     65  C   UNL A   1      45.148  23.228  23.989  1.00  0.00     0.031 C 
ATOM     66  C   UNL A   1      45.526  24.623  28.111  1.00  0.00     0.029 A 
ATOM     67  C   UNL A   1      44.619  23.580  28.166  1.00  0.00     0.049 A 
ATOM     68  H   UNL A   1      43.761  22.814  29.943  1.00  0.00     0.167 HD
ATOM     69  C   UNL A   1      44.925  22.429  26.097  1.00  0.00     0.074 A 
ATOM     70  C   UNL A   1      44.693  22.177  24.694  1.00  0.00     0.031 C 
ATOM     71  C   UNL A   1      44.022  22.784  27.077  1.00  0.00     0.031 A 
BRANCH  58  72
ATOM     72  C   UNL A   1      45.450  24.829  32.481  1.00  0.00    -0.014 A 
ATOM     73  C   UNL A   1      45.076  23.743  33.340  1.00  0.00     0.009 A 
ATOM     74  C   UNL A   1      46.521  25.601  32.907  1.00  0.00     0.009 A 
ATOM     75  C   UNL A   1      45.662  23.477  34.569  1.00  0.00     0.001 A 
ATOM     76  C   UNL A   1      47.134  25.324  34.151  1.00  0.00     0.001 A 
ATOM     77  C   UNL A   1      46.694  24.287  34.985  1.00  0.00     0.000 A 
ENDBRANCH  58  72
BRANCH  59  78
ATOM     78  C   UNL A   1      47.932  25.323  25.301  1.00  0.00    -0.014 A 
ATOM     79  C   UNL A   1      48.508  25.108  26.555  1.00  0.00     0.009 A 
ATOM     80  C   UNL A   1      48.800  25.941  24.350  1.00  0.00     0.009 A 
ATOM     81  C   UNL A   1      49.848  25.502  26.823  1.00  0.00     0.001 A 
ATOM     82  C   UNL A   1      50.110  26.355  24.613  1.00  0.00     0.001 A 
ATOM     83  C   UNL A   1      50.640  26.138  25.863  1.00  0.00     0.000 A 
ENDBRANCH  59  78
BRANCH  71  84
ATOM     84  C   UNL A   1      42.531  22.844  26.789  1.00  0.00    -0.014 A 
ATOM     85  C   UNL A   1      41.723  23.997  26.938  1.00  0.00     0.009 A 
ATOM     86  C   UNL A   1      41.833  21.666  26.536  1.00  0.00     0.009 A 
ATOM     87  C   UNL A   1      40.330  23.983  26.879  1.00  0.00     0.001 A 
ATOM     88  C   UNL A   1      40.442  21.648  26.473  1.00  0.00     0.001 A 
ATOM     89  C   UNL A   1      39.686  22.788  26.692  1.00  0.00     0.000 A 
ENDBRANCH  71  84
ENDBRANCH  45  46
ENDBRANCH  37  40
ENDBRANCH  35  36
ENDBRANCH  34  35
ENDBRANCH   1  34
TORSDOF 15
ENDMDL
MODEL 3
REMARK VINA RESULT:     -11.7      2.494      4.670
REMARK SMILES Cc1ccccc1-n1c(S[C@@H](C)C(=O)NCCCCNC(=O)c2ccc(-c3c4nc(c(-c5ccccc5)c5ccc([nH]5)c(-c5ccccc5)c5nc(c(-c6ccccc6)c6ccc3[nH]6)C=C5)C=C4)cc2)nc2sc3c(c2c1=O)C[C@@H](C(C)C)OC3
REMARK SMILES IDX 17 1 16 2 15 3 13 4 14 5 11 7 12 8 10 9 9 10 8 11 77 12
REMARK SMILES IDX 71 13 76 14 78 15 72 16 75 17 73 18 74 19 79 20 85 21 80 22
REMARK SMILES IDX 84 23 7 24 1 25 2 26 3 27 4 28 6 29 5 30 81 31 82 32 83 33
REMARK SMILES IDX 18 34 19 35 20 36 21 37 22 39 23 40 24 41 70 42 25 43 69 44
REMARK SMILES IDX 26 45 27 46 28 47 63 48 29 49 68 50 62 51 64 52 30 53 67 54
REMARK SMILES IDX 61 55 60 56 31 58 53 59 38 60 52 61 39 62 42 63 51 64 65 65
REMARK SMILES IDX 40 66 41 67 50 69 66 70 43 71 32 72 33 73 37 74 34 75 36 76
REMARK SMILES IDX 35 77 54 78 55 79 59 80 56 81 58 82 57 83 44 84 45 85 49 86
REMARK SMILES IDX 46 87 48 88 47 89
REMARK H PARENT 15 6 20 38 64 57 42 68
REMARK Flexibility Score: inf
ROOT
ATOM      1  C   UNL A   1      41.040  20.458  27.128  1.00  0.00     0.023 C 
ENDROOT
BRANCH   1   2
ATOM      2  C   UNL A   1      42.258  19.714  26.599  1.00  0.00     0.116 C 
BRANCH   2   3
ATOM      3  N   UNL A   1      42.949  20.108  25.405  1.00  0.00    -0.355 N 
ATOM      4  C   UNL A   1      43.902  21.079  25.229  1.00  0.00     0.233 C 
ATOM      5  O   UNL A   1      44.596  20.870  24.217  1.00  0.00    -0.274 OA
ATOM      6  H   UNL A   1      42.703  19.608  24.593  1.00  0.00     0.163 HD
BRANCH   4   7
ATOM      7  C   UNL A   1      44.043  22.445  25.952  1.00  0.00     0.140 C 
ATOM      8  C   UNL A   1      43.435  23.608  25.112  1.00  0.00     0.030 C 
BRANCH   7   9
ATOM      9  S   UNL A   1      45.464  23.228  26.706  1.00  0.00    -0.074 SA
BRANCH   9  10
ATOM     10  C   UNL A   1      45.144  24.122  28.151  1.00  0.00     0.177 A 
ATOM     11  N   UNL A   1      45.379  25.500  28.281  1.00  0.00    -0.255 N 
ATOM     12  C   UNL A   1      45.263  26.113  29.556  1.00  0.00     0.267 A 
ATOM     13  N   UNL A   1      44.663  23.358  29.083  1.00  0.00    -0.212 NA
ATOM     14  C   UNL A   1      44.850  25.206  30.633  1.00  0.00     0.081 A 
ATOM     15  O   UNL A   1      45.543  27.272  29.779  1.00  0.00    -0.268 OA
ATOM     16  C   UNL A   1      44.521  23.919  30.296  1.00  0.00     0.132 A 
ATOM     17  C   UNL A   1      44.806  25.384  32.056  1.00  0.00    -0.014 A 
ATOM     18  S   UNL A   1      43.985  22.994  31.623  1.00  0.00    -0.117 S 
ATOM     19  C   UNL A   1      44.297  24.268  32.699  1.00  0.00     0.037 A 
ATOM     20  C   UNL A   1      45.209  26.550  32.897  1.00  0.00     0.070 C 
ATOM     21  C   UNL A   1      43.990  24.165  34.162  1.00  0.00     0.207 C 
ATOM     22  C   UNL A   1      44.319  26.597  34.159  1.00  0.00     0.125 C 
ATOM     23  O   UNL A   1      44.446  25.339  34.865  1.00  0.00    -0.372 OA
BRANCH  11  24
ATOM     24  C   UNL A   1      45.948  26.269  27.204  1.00  0.00     0.054 A 
ATOM     25  C   UNL A   1      43.697  27.189  26.435  1.00  0.00     0.046 C 
ATOM     26  C   UNL A   1      45.155  26.891  26.227  1.00  0.00    -0.027 A 
ATOM     27  C   UNL A   1      45.755  27.312  25.023  1.00  0.00     0.005 A 
ATOM     28  C   UNL A   1      47.118  27.132  24.793  1.00  0.00     0.000 A 
ATOM     29  C   UNL A   1      47.343  26.271  27.024  1.00  0.00     0.027 A 
ATOM     30  C   UNL A   1      47.919  26.632  25.807  1.00  0.00     0.002 A 
ENDBRANCH  11  24
BRANCH  22  31
ATOM     31  C   UNL A   1      42.836  26.972  33.893  1.00  0.00     0.012 C 
ATOM     32  C   UNL A   1      42.113  27.289  35.205  1.00  0.00     0.010 C 
ATOM     33  C   UNL A   1      42.700  28.154  32.930  1.00  0.00     0.010 C 
ENDBRANCH  22  31
ENDBRANCH   9  10
ENDBRANCH   7   9
ENDBRANCH   4   7
ENDBRANCH   2   3
ENDBRANCH   1   2
BRANCH   1  34
ATOM     34  C   UNL A   1      41.098  21.821  27.875  1.00  0.00     0.023 C 
BRANCH  34  35
ATOM     35  C   UNL A   1      40.370  23.152  27.535  1.00  0.00     0.116 C 
BRANCH  35  36
ATOM     36  N   UNL A   1      40.841  24.481  27.957  1.00  0.00    -0.352 N 
ATOM     37  C   UNL A   1      40.435  25.672  27.324  1.00  0.00     0.251 C 
ATOM     38  H   UNL A   1      41.467  24.539  28.714  1.00  0.00     0.163 HD
ATOM     39  O   UNL A   1      40.396  25.781  26.102  1.00  0.00    -0.269 OA
BRANCH  37  40
ATOM     40  C   UNL A   1      39.939  26.831  28.203  1.00  0.00     0.039 A 
ATOM     41  C   UNL A   1      39.179  26.636  29.368  1.00  0.00     0.014 A 
ATOM     42  C   UNL A   1      40.448  28.116  28.027  1.00  0.00     0.014 A 
ATOM     43  C   UNL A   1      38.990  27.690  30.332  1.00  0.00     0.010 A 
ATOM     44  C   UNL A   1      40.258  29.152  28.992  1.00  0.00     0.010 A 
ATOM     45  C   UNL A   1      39.565  28.977  30.187  1.00  0.00    -0.014 A 
BRANCH  45  46
ATOM     46  C   UNL A   1      39.860  29.832  31.443  1.00  0.00     0.031 A 
ATOM     47  C   UNL A   1      40.869  30.892  30.890  1.00  0.00     0.074 A 
ATOM     48  C   UNL A   1      39.160  30.415  32.504  1.00  0.00     0.049 A 
ATOM     49  N   UNL A   1      40.518  31.855  30.081  1.00  0.00    -0.248 NA
ATOM     50  C   UNL A   1      42.337  30.781  30.974  1.00  0.00     0.031 C 
ATOM     51  C   UNL A   1      39.791  30.373  33.847  1.00  0.00     0.029 A 
ATOM     52  N   UNL A   1      37.898  31.015  32.841  1.00  0.00    -0.354 N 
ATOM     53  C   UNL A   1      41.639  32.678  29.887  1.00  0.00     0.074 A 
ATOM     54  C   UNL A   1      42.765  31.855  30.272  1.00  0.00     0.031 C 
ATOM     55  C   UNL A   1      39.066  31.044  34.772  1.00  0.00     0.029 A 
ATOM     56  C   UNL A   1      37.885  31.649  34.162  1.00  0.00     0.049 A 
ATOM     57  H   UNL A   1      37.118  31.003  32.241  1.00  0.00     0.167 HD
ATOM     58  C   UNL A   1      41.482  34.047  29.898  1.00  0.00     0.031 A 
ATOM     59  C   UNL A   1      37.208  32.737  34.733  1.00  0.00     0.031 A 
ATOM     60  C   UNL A   1      40.283  34.265  30.634  1.00  0.00     0.049 A 
ATOM     61  C   UNL A   1      36.236  33.471  33.851  1.00  0.00     0.074 A 
ATOM     62  C   UNL A   1      40.244  34.099  31.988  1.00  0.00     0.029 A 
ATOM     63  N   UNL A   1      39.025  34.449  30.113  1.00  0.00    -0.354 N 
ATOM     64  N   UNL A   1      36.589  34.535  33.174  1.00  0.00    -0.248 NA
ATOM     65  C   UNL A   1      34.848  33.098  33.574  1.00  0.00     0.031 C 
ATOM     66  C   UNL A   1      38.922  33.856  32.190  1.00  0.00     0.029 A 
ATOM     67  C   UNL A   1      38.119  34.083  31.087  1.00  0.00     0.049 A 
ATOM     68  H   UNL A   1      38.809  34.780  29.211  1.00  0.00     0.167 HD
ATOM     69  C   UNL A   1      35.925  34.319  31.998  1.00  0.00     0.074 A 
ATOM     70  C   UNL A   1      34.647  33.841  32.471  1.00  0.00     0.031 C 
ATOM     71  C   UNL A   1      36.666  33.893  30.916  1.00  0.00     0.031 A 
BRANCH  58  72
ATOM     72  C   UNL A   1      42.362  35.284  29.895  1.00  0.00    -0.014 A 
ATOM     73  C   UNL A   1      42.277  36.157  28.759  1.00  0.00     0.009 A 
ATOM     74  C   UNL A   1      43.410  35.528  30.772  1.00  0.00     0.009 A 
ATOM     75  C   UNL A   1      43.199  37.151  28.463  1.00  0.00     0.001 A 
ATOM     76  C   UNL A   1      44.343  36.550  30.483  1.00  0.00     0.001 A 
ATOM     77  C   UNL A   1      44.252  37.339  29.328  1.00  0.00     0.000 A 
ENDBRANCH  58  72
BRANCH  59  78
ATOM     78  C   UNL A   1      37.781  33.742  35.776  1.00  0.00    -0.014 A 
ATOM     79  C   UNL A   1      38.831  34.623  35.508  1.00  0.00     0.009 A 
ATOM     80  C   UNL A   1      37.529  33.528  37.165  1.00  0.00     0.009 A 
ATOM     81  C   UNL A   1      39.570  35.224  36.564  1.00  0.00     0.001 A 
ATOM     82  C   UNL A   1      38.267  34.094  38.210  1.00  0.00     0.001 A 
ATOM     83  C   UNL A   1      39.302  34.948  37.908  1.00  0.00     0.000 A 
ENDBRANCH  59  78
BRANCH  71  84
ATOM     84  C   UNL A   1      36.120  32.858  29.946  1.00  0.00    -0.014 A 
ATOM     85  C   UNL A   1      36.745  31.627  29.639  1.00  0.00     0.009 A 
ATOM     86  C   UNL A   1      35.027  33.179  29.144  1.00  0.00     0.009 A 
ATOM     87  C   UNL A   1      36.348  30.792  28.595  1.00  0.00     0.001 A 
ATOM     88  C   UNL A   1      34.625  32.347  28.102  1.00  0.00     0.001 A 
ATOM     89  C   UNL A   1      35.308  31.183  27.793  1.00  0.00     0.000 A 
ENDBRANCH  71  84
ENDBRANCH  45  46
ENDBRANCH  37  40
ENDBRANCH  35  36
ENDBRANCH  34  35
ENDBRANCH   1  34
TORSDOF 15
ENDMDL
