MODEL 1
REMARK VINA RESULT:     -11.0      0.000      0.000
REMARK SMILES O=C(NCCCCNC(=O)c1cc(S[C@H]2CCOC2=O)cs1)c1ccc(-c2c3nc(c(-c4ccccc4)c4ccc([nH]4)c(-c4ccccc4)c4nc(c(-c5ccccc5)c5ccc2[nH]5)C=C4)C=C3)cc1
REMARK SMILES IDX 5 1 4 2 3 3 1 4 2 5 23 7 24 8 70 9 25 10 69 11 26 12 27 13
REMARK SMILES IDX 28 14 63 15 29 16 68 17 62 18 64 19 30 20 67 21 61 22 60 23
REMARK SMILES IDX 31 25 53 26 38 27 52 28 39 29 42 30 51 31 65 32 40 33 41 34
REMARK SMILES IDX 50 36 66 37 43 38 32 39 33 40 37 41 34 42 36 43 35 44 54 45
REMARK SMILES IDX 55 46 59 47 56 48 58 49 57 50 44 51 45 52 49 53 46 54 48 55
REMARK SMILES IDX 47 56 6 57 7 58 8 59 9 60 10 62 11 63 12 64 22 65 13 66
REMARK SMILES IDX 21 67 14 68 15 69 16 70 19 71 17 72 18 73 20 74
REMARK H PARENT 3 6 64 24 42 35 8 61
REMARK Flexibility Score: inf
ROOT
ATOM      1  C   UNL A   1      33.005  27.610  26.258  1.00  0.00     0.023 C 
ENDROOT
BRANCH   1   2
ATOM      2  C   UNL A   1      34.179  28.355  26.873  1.00  0.00     0.116 C 
BRANCH   2   3
ATOM      3  N   UNL A   1      33.841  29.698  27.327  1.00  0.00    -0.352 N 
ATOM      4  O   UNL A   1      34.119  31.634  28.462  1.00  0.00    -0.269 OA
ATOM      5  C   UNL A   1      34.601  30.578  28.068  1.00  0.00     0.251 C 
ATOM      6  H   UNL A   1      32.947  30.021  27.070  1.00  0.00     0.163 HD
BRANCH   5   7
ATOM      7  C   UNL A   1      35.993  30.217  28.412  1.00  0.00     0.039 A 
ATOM      8  C   UNL A   1      37.002  30.352  27.459  1.00  0.00     0.014 A 
ATOM      9  C   UNL A   1      36.282  29.689  29.673  1.00  0.00     0.014 A 
ATOM     10  C   UNL A   1      38.240  29.774  27.690  1.00  0.00     0.010 A 
ATOM     11  C   UNL A   1      37.571  29.222  29.949  1.00  0.00     0.010 A 
ATOM     12  C   UNL A   1      38.553  29.224  28.946  1.00  0.00    -0.014 A 
BRANCH  12  13
ATOM     13  C   UNL A   1      39.937  28.736  29.177  1.00  0.00     0.031 A 
ATOM     14  C   UNL A   1      40.379  27.363  28.752  1.00  0.00     0.074 A 
ATOM     15  C   UNL A   1      40.825  29.592  29.723  1.00  0.00     0.049 A 
ATOM     16  N   UNL A   1      41.576  26.831  28.818  1.00  0.00    -0.248 NA
ATOM     17  C   UNL A   1      39.359  26.468  28.185  1.00  0.00     0.031 C 
ATOM     18  C   UNL A   1      40.512  30.948  30.187  1.00  0.00     0.029 A 
ATOM     19  N   UNL A   1      42.171  29.471  29.945  1.00  0.00    -0.354 N 
ATOM     20  C   UNL A   1      41.452  25.543  28.312  1.00  0.00     0.074 A 
ATOM     21  C   UNL A   1      40.056  25.359  27.975  1.00  0.00     0.031 C 
ATOM     22  C   UNL A   1      41.642  31.554  30.570  1.00  0.00     0.029 A 
ATOM     23  C   UNL A   1      42.743  30.608  30.462  1.00  0.00     0.049 A 
ATOM     24  H   UNL A   1      42.680  28.649  29.754  1.00  0.00     0.167 HD
ATOM     25  C   UNL A   1      42.414  24.604  28.134  1.00  0.00     0.031 A 
ATOM     26  C   UNL A   1      44.011  30.863  30.830  1.00  0.00     0.031 A 
ATOM     27  C   UNL A   1      43.801  24.786  28.486  1.00  0.00     0.049 A 
ATOM     28  C   UNL A   1      45.043  29.789  30.663  1.00  0.00     0.074 A 
ATOM     29  C   UNL A   1      44.852  23.895  28.341  1.00  0.00     0.029 A 
ATOM     30  N   UNL A   1      44.331  25.935  29.053  1.00  0.00    -0.354 N 
ATOM     31  N   UNL A   1      44.910  28.588  30.157  1.00  0.00    -0.248 NA
ATOM     32  C   UNL A   1      46.402  30.109  31.116  1.00  0.00     0.031 C 
ATOM     33  C   UNL A   1      46.004  24.485  28.871  1.00  0.00     0.029 A 
ATOM     34  C   UNL A   1      45.688  25.768  29.284  1.00  0.00     0.049 A 
ATOM     35  H   UNL A   1      43.819  26.749  29.262  1.00  0.00     0.167 HD
ATOM     36  C   UNL A   1      46.172  28.013  30.215  1.00  0.00     0.074 A 
ATOM     37  C   UNL A   1      47.061  29.012  30.772  1.00  0.00     0.031 C 
ATOM     38  C   UNL A   1      46.559  26.767  29.847  1.00  0.00     0.031 A 
BRANCH  25  39
ATOM     39  C   UNL A   1      42.002  23.282  27.545  1.00  0.00    -0.014 A 
ATOM     40  C   UNL A   1      42.131  23.025  26.170  1.00  0.00     0.009 A 
ATOM     41  C   UNL A   1      41.540  22.254  28.383  1.00  0.00     0.009 A 
ATOM     42  C   UNL A   1      41.779  21.779  25.644  1.00  0.00     0.001 A 
ATOM     43  C   UNL A   1      41.216  21.000  27.859  1.00  0.00     0.001 A 
ATOM     44  C   UNL A   1      41.328  20.766  26.489  1.00  0.00     0.000 A 
ENDBRANCH  25  39
BRANCH  26  45
ATOM     45  C   UNL A   1      44.360  32.177  31.432  1.00  0.00    -0.014 A 
ATOM     46  C   UNL A   1      44.792  33.247  30.634  1.00  0.00     0.009 A 
ATOM     47  C   UNL A   1      44.270  32.361  32.822  1.00  0.00     0.009 A 
ATOM     48  C   UNL A   1      45.161  34.460  31.220  1.00  0.00     0.001 A 
ATOM     49  C   UNL A   1      44.600  33.587  33.400  1.00  0.00     0.001 A 
ATOM     50  C   UNL A   1      45.059  34.630  32.601  1.00  0.00     0.000 A 
ENDBRANCH  26  45
BRANCH  38  51
ATOM     51  C   UNL A   1      48.016  26.437  30.010  1.00  0.00    -0.014 A 
ATOM     52  C   UNL A   1      48.512  25.876  31.199  1.00  0.00     0.009 A 
ATOM     53  C   UNL A   1      48.906  26.691  28.956  1.00  0.00     0.009 A 
ATOM     54  C   UNL A   1      49.878  25.625  31.345  1.00  0.00     0.001 A 
ATOM     55  C   UNL A   1      50.266  26.405  29.092  1.00  0.00     0.001 A 
ATOM     56  C   UNL A   1      50.752  25.886  30.291  1.00  0.00     0.000 A 
ENDBRANCH  38  51
ENDBRANCH  12  13
ENDBRANCH   5   7
ENDBRANCH   2   3
ENDBRANCH   1   2
BRANCH   1  57
ATOM     57  C   UNL A   1      33.241  26.122  26.033  1.00  0.00     0.023 C 
BRANCH  57  58
ATOM     58  C   UNL A   1      32.056  25.372  25.436  1.00  0.00     0.116 C 
BRANCH  58  59
ATOM     59  N   UNL A   1      31.169  24.816  26.445  1.00  0.00    -0.351 N 
ATOM     60  C   UNL A   1      30.972  23.490  26.773  1.00  0.00     0.261 C 
ATOM     61  H   UNL A   1      30.641  25.470  26.959  1.00  0.00     0.163 HD
ATOM     62  O   UNL A   1      30.051  23.212  27.538  1.00  0.00    -0.268 OA
BRANCH  60  63
ATOM     63  C   UNL A   1      31.871  22.523  26.185  1.00  0.00     0.093 A 
ATOM     64  C   UNL A   1      31.671  21.752  25.054  1.00  0.00     0.040 A 
ATOM     65  S   UNL A   1      33.371  22.186  26.919  1.00  0.00    -0.137 S 
ATOM     66  C   UNL A   1      32.632  20.716  24.932  1.00  0.00     0.020 A 
ATOM     67  C   UNL A   1      33.644  20.867  25.858  1.00  0.00     0.080 A 
BRANCH  66  68
ATOM     68  S   UNL A   1      32.619  19.372  23.795  1.00  0.00    -0.110 SA
BRANCH  68  69
ATOM     69  C   UNL A   1      33.407  17.952  24.595  1.00  0.00     0.165 C 
ATOM     70  C   UNL A   1      32.650  17.334  25.751  1.00  0.00     0.068 C 
ATOM     71  C   UNL A   1      33.661  16.799  23.662  1.00  0.00     0.319 C 
ATOM     72  C   UNL A   1      32.995  15.867  25.648  1.00  0.00     0.234 C 
ATOM     73  O   UNL A   1      33.351  15.623  24.289  1.00  0.00    -0.465 OA
ATOM     74  O   UNL A   1      34.095  16.856  22.526  1.00  0.00    -0.251 OA
ENDBRANCH  68  69
ENDBRANCH  66  68
ENDBRANCH  60  63
ENDBRANCH  58  59
ENDBRANCH  57  58
ENDBRANCH   1  57
TORSDOF 13
ENDMDL
MODEL 2
REMARK VINA RESULT:     -10.9      5.256      9.371
REMARK SMILES O=C(NCCCCNC(=O)c1cc(S[C@H]2CCOC2=O)cs1)c1ccc(-c2c3nc(c(-c4ccccc4)c4ccc([nH]4)c(-c4ccccc4)c4nc(c(-c5ccccc5)c5ccc2[nH]5)C=C4)C=C3)cc1
REMARK SMILES IDX 5 1 4 2 3 3 1 4 2 5 23 7 24 8 70 9 25 10 69 11 26 12 27 13
REMARK SMILES IDX 28 14 63 15 29 16 68 17 62 18 64 19 30 20 67 21 61 22 60 23
REMARK SMILES IDX 31 25 53 26 38 27 52 28 39 29 42 30 51 31 65 32 40 33 41 34
REMARK SMILES IDX 50 36 66 37 43 38 32 39 33 40 37 41 34 42 36 43 35 44 54 45
REMARK SMILES IDX 55 46 59 47 56 48 58 49 57 50 44 51 45 52 49 53 46 54 48 55
REMARK SMILES IDX 47 56 6 57 7 58 8 59 9 60 10 62 11 63 12 64 22 65 13 66
REMARK SMILES IDX 21 67 14 68 15 69 16 70 19 71 17 72 18 73 20 74
REMARK H PARENT 3 6 64 24 42 35 8 61
REMARK Flexibility Score: inf
ROOT
ATOM      1  C   UNL A   1      31.410  31.870  26.857  1.00  0.00     0.023 C 
ENDROOT
BRANCH   1   2
ATOM      2  C   UNL A   1      32.638  32.681  27.241  1.00  0.00     0.116 C 
BRANCH   2   3
ATOM      3  N   UNL A   1      32.336  34.061  27.597  1.00  0.00    -0.352 N 
ATOM      4  O   UNL A   1      32.512  35.986  28.771  1.00  0.00    -0.269 OA
ATOM      5  C   UNL A   1      32.966  34.877  28.511  1.00  0.00     0.251 C 
ATOM      6  H   UNL A   1      31.576  34.466  27.120  1.00  0.00     0.163 HD
BRANCH   5   7
ATOM      7  C   UNL A   1      34.179  34.387  29.201  1.00  0.00     0.039 A 
ATOM      8  C   UNL A   1      35.437  34.624  28.649  1.00  0.00     0.014 A 
ATOM      9  C   UNL A   1      34.055  33.637  30.374  1.00  0.00     0.014 A 
ATOM     10  C   UNL A   1      36.539  33.947  29.147  1.00  0.00     0.010 A 
ATOM     11  C   UNL A   1      35.192  33.060  30.950  1.00  0.00     0.010 A 
ATOM     12  C   UNL A   1      36.440  33.176  30.319  1.00  0.00    -0.014 A 
BRANCH  12  13
ATOM     13  C   UNL A   1      37.681  32.580  30.878  1.00  0.00     0.031 A 
ATOM     14  C   UNL A   1      38.300  33.083  32.153  1.00  0.00     0.074 A 
ATOM     15  C   UNL A   1      38.210  31.513  30.245  1.00  0.00     0.049 A 
ATOM     16  N   UNL A   1      39.338  32.609  32.801  1.00  0.00    -0.248 NA
ATOM     17  C   UNL A   1      37.691  34.263  32.783  1.00  0.00     0.031 C 
ATOM     18  C   UNL A   1      37.703  30.940  28.993  1.00  0.00     0.029 A 
ATOM     19  N   UNL A   1      39.258  30.697  30.579  1.00  0.00    -0.354 N 
ATOM     20  C   UNL A   1      39.510  33.435  33.905  1.00  0.00     0.074 A 
ATOM     21  C   UNL A   1      38.492  34.462  33.822  1.00  0.00     0.031 C 
ATOM     22  C   UNL A   1      38.394  29.830  28.705  1.00  0.00     0.029 A 
ATOM     23  C   UNL A   1      39.443  29.659  29.700  1.00  0.00     0.049 A 
ATOM     24  H   UNL A   1      39.823  30.841  31.373  1.00  0.00     0.167 HD
ATOM     25  C   UNL A   1      40.424  33.339  34.902  1.00  0.00     0.031 A 
ATOM     26  C   UNL A   1      40.368  28.682  29.677  1.00  0.00     0.031 A 
ATOM     27  C   UNL A   1      41.445  32.324  34.973  1.00  0.00     0.049 A 
ATOM     28  C   UNL A   1      41.393  28.631  30.769  1.00  0.00     0.074 A 
ATOM     29  C   UNL A   1      42.415  32.143  35.945  1.00  0.00     0.029 A 
ATOM     30  N   UNL A   1      41.632  31.319  34.035  1.00  0.00    -0.354 N 
ATOM     31  N   UNL A   1      41.521  29.406  31.818  1.00  0.00    -0.248 NA
ATOM     32  C   UNL A   1      42.400  27.567  30.674  1.00  0.00     0.031 C 
ATOM     33  C   UNL A   1      43.221  31.063  35.567  1.00  0.00     0.029 A 
ATOM     34  C   UNL A   1      42.712  30.529  34.395  1.00  0.00     0.049 A 
ATOM     35  H   UNL A   1      41.078  31.187  33.232  1.00  0.00     0.167 HD
ATOM     36  C   UNL A   1      42.613  28.913  32.518  1.00  0.00     0.074 A 
ATOM     37  C   UNL A   1      43.086  27.752  31.792  1.00  0.00     0.031 C 
ATOM     38  C   UNL A   1      43.178  29.383  33.658  1.00  0.00     0.031 A 
BRANCH  25  39
ATOM     39  C   UNL A   1      40.376  34.372  35.997  1.00  0.00    -0.014 A 
ATOM     40  C   UNL A   1      41.082  35.580  35.888  1.00  0.00     0.009 A 
ATOM     41  C   UNL A   1      39.563  34.164  37.123  1.00  0.00     0.009 A 
ATOM     42  C   UNL A   1      40.997  36.545  36.896  1.00  0.00     0.001 A 
ATOM     43  C   UNL A   1      39.458  35.141  38.115  1.00  0.00     0.001 A 
ATOM     44  C   UNL A   1      40.181  36.328  38.005  1.00  0.00     0.000 A 
ENDBRANCH  25  39
BRANCH  26  45
ATOM     45  C   UNL A   1      40.387  27.704  28.558  1.00  0.00    -0.014 A 
ATOM     46  C   UNL A   1      41.095  27.969  27.377  1.00  0.00     0.009 A 
ATOM     47  C   UNL A   1      39.679  26.495  28.668  1.00  0.00     0.009 A 
ATOM     48  C   UNL A   1      41.064  27.059  26.317  1.00  0.00     0.001 A 
ATOM     49  C   UNL A   1      39.684  25.571  27.623  1.00  0.00     0.001 A 
ATOM     50  C   UNL A   1      40.364  25.860  26.443  1.00  0.00     0.000 A 
ENDBRANCH  26  45
BRANCH  38  51
ATOM     51  C   UNL A   1      44.352  28.614  34.197  1.00  0.00    -0.014 A 
ATOM     52  C   UNL A   1      44.178  27.543  35.090  1.00  0.00     0.009 A 
ATOM     53  C   UNL A   1      45.651  28.967  33.804  1.00  0.00     0.009 A 
ATOM     54  C   UNL A   1      45.286  26.877  35.616  1.00  0.00     0.001 A 
ATOM     55  C   UNL A   1      46.756  28.275  34.305  1.00  0.00     0.001 A 
ATOM     56  C   UNL A   1      46.573  27.240  35.221  1.00  0.00     0.000 A 
ENDBRANCH  38  51
ENDBRANCH  12  13
ENDBRANCH   5   7
ENDBRANCH   2   3
ENDBRANCH   1   2
BRANCH   1  57
ATOM     57  C   UNL A   1      31.651  30.816  25.786  1.00  0.00     0.023 C 
BRANCH  57  58
ATOM     58  C   UNL A   1      32.686  29.758  26.153  1.00  0.00     0.116 C 
BRANCH  58  59
ATOM     59  N   UNL A   1      33.623  29.483  25.076  1.00  0.00    -0.351 N 
ATOM     60  C   UNL A   1      33.397  28.794  23.902  1.00  0.00     0.261 C 
ATOM     61  H   UNL A   1      34.535  29.833  25.201  1.00  0.00     0.163 HD
ATOM     62  O   UNL A   1      34.364  28.519  23.194  1.00  0.00    -0.268 OA
BRANCH  60  63
ATOM     63  C   UNL A   1      32.029  28.444  23.593  1.00  0.00     0.093 A 
ATOM     64  C   UNL A   1      31.101  29.184  22.882  1.00  0.00     0.040 A 
ATOM     65  S   UNL A   1      31.364  26.983  24.164  1.00  0.00    -0.137 S 
ATOM     66  C   UNL A   1      29.785  28.670  23.016  1.00  0.00     0.020 A 
ATOM     67  C   UNL A   1      29.795  27.445  23.651  1.00  0.00     0.080 A 
BRANCH  66  68
ATOM     68  S   UNL A   1      28.284  29.421  22.487  1.00  0.00    -0.110 SA
BRANCH  68  69
ATOM     69  C   UNL A   1      28.697  30.979  21.660  1.00  0.00     0.165 C 
ATOM     70  C   UNL A   1      27.856  31.335  20.453  1.00  0.00     0.068 C 
ATOM     71  C   UNL A   1      28.587  32.183  22.555  1.00  0.00     0.319 C 
ATOM     72  C   UNL A   1      27.788  32.843  20.510  1.00  0.00     0.234 C 
ATOM     73  O   UNL A   1      28.001  33.214  21.871  1.00  0.00    -0.465 OA
ATOM     74  O   UNL A   1      28.967  32.278  23.708  1.00  0.00    -0.251 OA
ENDBRANCH  68  69
ENDBRANCH  66  68
ENDBRANCH  60  63
ENDBRANCH  58  59
ENDBRANCH  57  58
ENDBRANCH   1  57
TORSDOF 13
ENDMDL
MODEL 3
REMARK VINA RESULT:     -10.8      1.955      7.117
REMARK SMILES O=C(NCCCCNC(=O)c1cc(S[C@H]2CCOC2=O)cs1)c1ccc(-c2c3nc(c(-c4ccccc4)c4ccc([nH]4)c(-c4ccccc4)c4nc(c(-c5ccccc5)c5ccc2[nH]5)C=C4)C=C3)cc1
REMARK SMILES IDX 5 1 4 2 3 3 1 4 2 5 23 7 24 8 70 9 25 10 69 11 26 12 27 13
REMARK SMILES IDX 28 14 63 15 29 16 68 17 62 18 64 19 30 20 67 21 61 22 60 23
REMARK SMILES IDX 31 25 53 26 38 27 52 28 39 29 42 30 51 31 65 32 40 33 41 34
REMARK SMILES IDX 50 36 66 37 43 38 32 39 33 40 37 41 34 42 36 43 35 44 54 45
REMARK SMILES IDX 55 46 59 47 56 48 58 49 57 50 44 51 45 52 49 53 46 54 48 55
REMARK SMILES IDX 47 56 6 57 7 58 8 59 9 60 10 62 11 63 12 64 22 65 13 66
REMARK SMILES IDX 21 67 14 68 15 69 16 70 19 71 17 72 18 73 20 74
REMARK H PARENT 3 6 64 24 42 35 8 61
REMARK Flexibility Score: inf
ROOT
ATOM      1  C   UNL A   1      37.878  20.397  24.808  1.00  0.00     0.023 C 
ENDROOT
BRANCH   1   2
ATOM      2  C   UNL A   1      38.926  20.500  25.905  1.00  0.00     0.116 C 
BRANCH   2   3
ATOM      3  N   UNL A   1      40.008  19.533  25.769  1.00  0.00    -0.352 N 
ATOM      4  O   UNL A   1      42.150  18.810  25.731  1.00  0.00    -0.269 OA
ATOM      5  C   UNL A   1      41.356  19.703  26.003  1.00  0.00     0.251 C 
ATOM      6  H   UNL A   1      39.740  18.635  25.468  1.00  0.00     0.163 HD
BRANCH   5   7
ATOM      7  C   UNL A   1      41.836  20.988  26.554  1.00  0.00     0.039 A 
ATOM      8  C   UNL A   1      41.897  21.174  27.934  1.00  0.00     0.014 A 
ATOM      9  C   UNL A   1      42.173  22.033  25.688  1.00  0.00     0.014 A 
ATOM     10  C   UNL A   1      42.092  22.448  28.443  1.00  0.00     0.010 A 
ATOM     11  C   UNL A   1      42.497  23.289  26.211  1.00  0.00     0.010 A 
ATOM     12  C   UNL A   1      42.419  23.519  27.593  1.00  0.00    -0.014 A 
BRANCH  12  13
ATOM     13  C   UNL A   1      42.745  24.833  28.207  1.00  0.00     0.031 A 
ATOM     14  C   UNL A   1      44.153  25.216  28.567  1.00  0.00     0.074 A 
ATOM     15  C   UNL A   1      41.740  25.718  28.372  1.00  0.00     0.049 A 
ATOM     16  N   UNL A   1      44.596  26.358  29.037  1.00  0.00    -0.248 NA
ATOM     17  C   UNL A   1      45.200  24.199  28.387  1.00  0.00     0.031 C 
ATOM     18  C   UNL A   1      40.329  25.458  28.069  1.00  0.00     0.029 A 
ATOM     19  N   UNL A   1      41.751  27.021  28.794  1.00  0.00    -0.354 N 
ATOM     20  C   UNL A   1      45.965  26.194  29.215  1.00  0.00     0.074 A 
ATOM     21  C   UNL A   1      46.276  24.832  28.836  1.00  0.00     0.031 C 
ATOM     22  C   UNL A   1      39.625  26.582  28.247  1.00  0.00     0.029 A 
ATOM     23  C   UNL A   1      40.514  27.617  28.756  1.00  0.00     0.049 A 
ATOM     24  H   UNL A   1      42.566  27.486  29.095  1.00  0.00     0.167 HD
ATOM     25  C   UNL A   1      46.879  27.100  29.642  1.00  0.00     0.031 A 
ATOM     26  C   UNL A   1      40.124  28.855  29.110  1.00  0.00     0.031 A 
ATOM     27  C   UNL A   1      46.563  28.451  30.032  1.00  0.00     0.049 A 
ATOM     28  C   UNL A   1      41.152  29.818  29.622  1.00  0.00     0.074 A 
ATOM     29  C   UNL A   1      47.421  29.444  30.477  1.00  0.00     0.029 A 
ATOM     30  N   UNL A   1      45.290  29.001  30.028  1.00  0.00    -0.354 N 
ATOM     31  N   UNL A   1      42.445  29.651  29.756  1.00  0.00    -0.248 NA
ATOM     32  C   UNL A   1      40.666  31.142  30.029  1.00  0.00     0.031 C 
ATOM     33  C   UNL A   1      46.660  30.574  30.792  1.00  0.00     0.029 A 
ATOM     34  C   UNL A   1      45.337  30.310  30.481  1.00  0.00     0.049 A 
ATOM     35  H   UNL A   1      44.473  28.530  29.745  1.00  0.00     0.167 HD
ATOM     36  C   UNL A   1      42.930  30.855  30.248  1.00  0.00     0.074 A 
ATOM     37  C   UNL A   1      41.797  31.752  30.352  1.00  0.00     0.031 C 
ATOM     38  C   UNL A   1      44.200  31.187  30.589  1.00  0.00     0.031 A 
BRANCH  25  39
ATOM     39  C   UNL A   1      48.316  26.657  29.728  1.00  0.00    -0.014 A 
ATOM     40  C   UNL A   1      48.802  25.980  30.858  1.00  0.00     0.009 A 
ATOM     41  C   UNL A   1      49.179  26.859  28.639  1.00  0.00     0.009 A 
ATOM     42  C   UNL A   1      50.128  25.541  30.907  1.00  0.00     0.001 A 
ATOM     43  C   UNL A   1      50.496  26.395  28.680  1.00  0.00     0.001 A 
ATOM     44  C   UNL A   1      50.972  25.744  29.817  1.00  0.00     0.000 A 
ENDBRANCH  25  39
BRANCH  26  45
ATOM     45  C   UNL A   1      38.689  29.232  29.031  1.00  0.00    -0.014 A 
ATOM     46  C   UNL A   1      38.128  29.697  27.833  1.00  0.00     0.009 A 
ATOM     47  C   UNL A   1      37.872  29.137  30.170  1.00  0.00     0.009 A 
ATOM     48  C   UNL A   1      36.789  30.093  27.787  1.00  0.00     0.001 A 
ATOM     49  C   UNL A   1      36.525  29.495  30.111  1.00  0.00     0.001 A 
ATOM     50  C   UNL A   1      35.988  29.986  28.924  1.00  0.00     0.000 A 
ENDBRANCH  26  45
BRANCH  38  51
ATOM     51  C   UNL A   1      44.423  32.592  31.075  1.00  0.00    -0.014 A 
ATOM     52  C   UNL A   1      44.335  32.917  32.439  1.00  0.00     0.009 A 
ATOM     53  C   UNL A   1      44.725  33.606  30.153  1.00  0.00     0.009 A 
ATOM     54  C   UNL A   1      44.497  34.238  32.862  1.00  0.00     0.001 A 
ATOM     55  C   UNL A   1      44.921  34.920  30.583  1.00  0.00     0.001 A 
ATOM     56  C   UNL A   1      44.793  35.237  31.935  1.00  0.00     0.000 A 
ENDBRANCH  38  51
ENDBRANCH  12  13
ENDBRANCH   5   7
ENDBRANCH   2   3
ENDBRANCH   1   2
BRANCH   1  57
ATOM     57  C   UNL A   1      36.488  20.871  25.208  1.00  0.00     0.023 C 
BRANCH  57  58
ATOM     58  C   UNL A   1      36.390  22.358  25.533  1.00  0.00     0.116 C 
BRANCH  58  59
ATOM     59  N   UNL A   1      35.580  22.629  26.710  1.00  0.00    -0.351 N 
ATOM     60  C   UNL A   1      34.209  22.540  26.843  1.00  0.00     0.261 C 
ATOM     61  H   UNL A   1      36.074  22.912  27.514  1.00  0.00     0.163 HD
ATOM     62  O   UNL A   1      33.696  22.977  27.871  1.00  0.00    -0.268 OA
BRANCH  60  63
ATOM     63  C   UNL A   1      33.477  21.936  25.753  1.00  0.00     0.093 A 
ATOM     64  C   UNL A   1      33.202  20.596  25.551  1.00  0.00     0.040 A 
ATOM     65  S   UNL A   1      32.872  22.900  24.485  1.00  0.00    -0.137 S 
ATOM     66  C   UNL A   1      32.716  20.336  24.244  1.00  0.00     0.020 A 
ATOM     67  C   UNL A   1      32.444  21.512  23.575  1.00  0.00     0.080 A 
BRANCH  66  68
ATOM     68  S   UNL A   1      32.468  18.767  23.486  1.00  0.00    -0.110 SA
BRANCH  68  69
ATOM     69  C   UNL A   1      33.195  17.504  24.561  1.00  0.00     0.165 C 
ATOM     70  C   UNL A   1      32.306  16.981  25.670  1.00  0.00     0.068 C 
ATOM     71  C   UNL A   1      33.634  16.267  23.826  1.00  0.00     0.319 C 
ATOM     72  C   UNL A   1      32.728  15.537  25.801  1.00  0.00     0.234 C 
ATOM     73  O   UNL A   1      33.290  15.156  24.547  1.00  0.00    -0.465 OA
ATOM     74  O   UNL A   1      34.227  16.216  22.764  1.00  0.00    -0.251 OA
ENDBRANCH  68  69
ENDBRANCH  66  68
ENDBRANCH  60  63
ENDBRANCH  58  59
ENDBRANCH  57  58
ENDBRANCH   1  57
TORSDOF 13
ENDMDL
