MODEL 1
REMARK VINA RESULT:      -9.7      0.000      0.000
REMARK SMILES O=C(NCCCCNC(=O)[C@H]1Cc2cc(Cl)ccc2O1)c1ccc(-c2c3nc(c(-c4ccccc4)c4ccc([nH]4)c(-c4ccccc4)c4nc(c(-c5ccccc5)c5ccc2[nH]5)C=C4)C=C3)cc1
REMARK SMILES IDX 4 1 3 2 1 3 2 4 21 6 22 7 68 8 23 9 67 10 24 11 25 12 26 13
REMARK SMILES IDX 61 14 27 15 66 16 60 17 62 18 28 19 65 20 59 21 58 22 29 24
REMARK SMILES IDX 51 25 36 26 50 27 37 28 40 29 49 30 63 31 38 32 39 33 48 35
REMARK SMILES IDX 64 36 41 37 30 38 31 39 35 40 32 41 34 42 33 43 52 44 53 45
REMARK SMILES IDX 57 46 54 47 56 48 55 49 42 50 43 51 47 52 44 53 46 54 45 55
REMARK SMILES IDX 5 56 6 57 7 58 8 59 9 60 10 62 11 63 12 64 20 65 13 66 19 67
REMARK SMILES IDX 14 68 18 69 15 70 17 71 16 72
REMARK H PARENT 3 5 62 23 40 34 8 61
REMARK Flexibility Score: inf
ROOT
ATOM      1  C   UNL A   1      33.616  36.412  29.273  1.00  0.00     0.116 C 
ENDROOT
BRANCH   1   2
ATOM      2  N   UNL A   1      32.798  35.416  28.601  1.00  0.00    -0.352 N 
ATOM      3  O   UNL A   1      32.383  33.476  27.523  1.00  0.00    -0.269 OA
ATOM      4  C   UNL A   1      33.141  34.144  28.223  1.00  0.00     0.251 C 
ATOM      5  H   UNL A   1      31.877  35.690  28.390  1.00  0.00     0.163 HD
BRANCH   4   6
ATOM      6  C   UNL A   1      34.435  33.585  28.653  1.00  0.00     0.039 A 
ATOM      7  C   UNL A   1      34.474  32.762  29.782  1.00  0.00     0.014 A 
ATOM      8  C   UNL A   1      35.606  33.889  27.954  1.00  0.00     0.014 A 
ATOM      9  C   UNL A   1      35.691  32.224  30.197  1.00  0.00     0.010 A 
ATOM     10  C   UNL A   1      36.803  33.292  28.323  1.00  0.00     0.010 A 
ATOM     11  C   UNL A   1      36.862  32.480  29.465  1.00  0.00    -0.014 A 
BRANCH  11  12
ATOM     12  C   UNL A   1      38.175  31.957  29.907  1.00  0.00     0.031 A 
ATOM     13  C   UNL A   1      38.651  30.626  29.399  1.00  0.00     0.074 A 
ATOM     14  C   UNL A   1      38.905  32.647  30.802  1.00  0.00     0.049 A 
ATOM     15  N   UNL A   1      39.730  29.962  29.719  1.00  0.00    -0.248 NA
ATOM     16  C   UNL A   1      37.788  29.939  28.423  1.00  0.00     0.031 C 
ATOM     17  C   UNL A   1      38.536  33.943  31.371  1.00  0.00     0.029 A 
ATOM     18  N   UNL A   1      40.109  32.351  31.389  1.00  0.00    -0.354 N 
ATOM     19  C   UNL A   1      39.661  28.772  29.005  1.00  0.00     0.074 A 
ATOM     20  C   UNL A   1      38.414  28.782  28.276  1.00  0.00     0.031 C 
ATOM     21  C   UNL A   1      39.508  34.345  32.204  1.00  0.00     0.029 A 
ATOM     22  C   UNL A   1      40.542  33.313  32.268  1.00  0.00     0.049 A 
ATOM     23  H   UNL A   1      40.615  31.528  31.200  1.00  0.00     0.167 HD
ATOM     24  C   UNL A   1      40.569  27.771  28.949  1.00  0.00     0.031 A 
ATOM     25  C   UNL A   1      41.641  33.360  33.047  1.00  0.00     0.031 A 
ATOM     26  C   UNL A   1      41.820  27.789  29.659  1.00  0.00     0.049 A 
ATOM     27  C   UNL A   1      42.623  32.224  32.997  1.00  0.00     0.074 A 
ATOM     28  C   UNL A   1      42.848  26.866  29.599  1.00  0.00     0.029 A 
ATOM     29  N   UNL A   1      42.208  28.770  30.559  1.00  0.00    -0.354 N 
ATOM     30  N   UNL A   1      42.584  31.138  32.262  1.00  0.00    -0.248 NA
ATOM     31  C   UNL A   1      43.798  32.314  33.874  1.00  0.00     0.031 C 
ATOM     32  C   UNL A   1      43.818  27.241  30.529  1.00  0.00     0.029 A 
ATOM     33  C   UNL A   1      43.436  28.443  31.106  1.00  0.00     0.049 A 
ATOM     34  H   UNL A   1      41.688  29.576  30.778  1.00  0.00     0.167 HD
ATOM     35  C   UNL A   1      43.731  30.420  32.577  1.00  0.00     0.074 A 
ATOM     36  C   UNL A   1      44.455  31.203  33.559  1.00  0.00     0.031 C 
ATOM     37  C   UNL A   1      44.141  29.222  32.095  1.00  0.00     0.031 A 
BRANCH  24  38
ATOM     38  C   UNL A   1      40.250  26.566  28.107  1.00  0.00    -0.014 A 
ATOM     39  C   UNL A   1      40.762  26.480  26.802  1.00  0.00     0.009 A 
ATOM     40  C   UNL A   1      39.384  25.559  28.561  1.00  0.00     0.009 A 
ATOM     41  C   UNL A   1      40.408  25.420  25.967  1.00  0.00     0.001 A 
ATOM     42  C   UNL A   1      39.061  24.479  27.737  1.00  0.00     0.001 A 
ATOM     43  C   UNL A   1      39.563  24.415  26.438  1.00  0.00     0.000 A 
ENDBRANCH  24  38
BRANCH  25  44
ATOM     44  C   UNL A   1      41.857  34.555  33.903  1.00  0.00    -0.014 A 
ATOM     45  C   UNL A   1      41.243  34.655  35.163  1.00  0.00     0.009 A 
ATOM     46  C   UNL A   1      42.577  35.655  33.413  1.00  0.00     0.009 A 
ATOM     47  C   UNL A   1      41.302  35.846  35.891  1.00  0.00     0.001 A 
ATOM     48  C   UNL A   1      42.658  36.835  34.157  1.00  0.00     0.001 A 
ATOM     49  C   UNL A   1      42.007  36.935  35.385  1.00  0.00     0.000 A 
ENDBRANCH  25  44
BRANCH  37  50
ATOM     50  C   UNL A   1      45.429  28.646  32.617  1.00  0.00    -0.014 A 
ATOM     51  C   UNL A   1      46.631  28.889  31.932  1.00  0.00     0.009 A 
ATOM     52  C   UNL A   1      45.428  27.737  33.686  1.00  0.00     0.009 A 
ATOM     53  C   UNL A   1      47.797  28.205  32.281  1.00  0.00     0.001 A 
ATOM     54  C   UNL A   1      46.604  27.079  34.053  1.00  0.00     0.001 A 
ATOM     55  C   UNL A   1      47.782  27.301  33.341  1.00  0.00     0.000 A 
ENDBRANCH  37  50
ENDBRANCH  11  12
ENDBRANCH   4   6
ENDBRANCH   1   2
BRANCH   1  56
ATOM     56  C   UNL A   1      33.071  36.797  30.643  1.00  0.00     0.023 C 
BRANCH  56  57
ATOM     57  C   UNL A   1      32.273  35.696  31.344  1.00  0.00     0.023 C 
BRANCH  57  58
ATOM     58  C   UNL A   1      33.052  34.956  32.431  1.00  0.00     0.116 C 
BRANCH  58  59
ATOM     59  N   UNL A   1      34.415  35.435  32.525  1.00  0.00    -0.353 N 
ATOM     60  C   UNL A   1      35.488  34.941  33.203  1.00  0.00     0.261 C 
ATOM     61  H   UNL A   1      34.595  36.257  32.014  1.00  0.00     0.163 HD
ATOM     62  O   UNL A   1      36.532  35.603  33.138  1.00  0.00    -0.271 OA
BRANCH  60  63
ATOM     63  C   UNL A   1      35.449  33.634  34.020  1.00  0.00     0.266 C 
ATOM     64  C   UNL A   1      36.017  32.401  33.303  1.00  0.00     0.095 C 
ATOM     65  O   UNL A   1      36.064  33.783  35.320  1.00  0.00    -0.480 OA
ATOM     66  C   UNL A   1      37.124  32.050  34.222  1.00  0.00    -0.000 A 
ATOM     67  C   UNL A   1      37.050  32.837  35.361  1.00  0.00     0.123 A 
ATOM     68  C   UNL A   1      38.149  31.134  34.062  1.00  0.00     0.028 A 
ATOM     69  C   UNL A   1      37.959  32.726  36.393  1.00  0.00     0.048 A 
ATOM     70  C   UNL A   1      39.096  31.024  35.086  1.00  0.00     0.041 A 
ATOM     71  C   UNL A   1      38.998  31.804  36.250  1.00  0.00     0.024 A 
ATOM     72  Cl  UNL A   1      40.417  29.936  34.906  1.00  0.00    -0.084 Cl
ENDBRANCH  60  63
ENDBRANCH  58  59
ENDBRANCH  57  58
ENDBRANCH  56  57
ENDBRANCH   1  56
TORSDOF 11
ENDMDL
MODEL 2
REMARK VINA RESULT:      -9.6      4.271      9.419
REMARK SMILES O=C(NCCCCNC(=O)[C@H]1Cc2cc(Cl)ccc2O1)c1ccc(-c2c3nc(c(-c4ccccc4)c4ccc([nH]4)c(-c4ccccc4)c4nc(c(-c5ccccc5)c5ccc2[nH]5)C=C4)C=C3)cc1
REMARK SMILES IDX 4 1 3 2 1 3 2 4 21 6 22 7 68 8 23 9 67 10 24 11 25 12 26 13
REMARK SMILES IDX 61 14 27 15 66 16 60 17 62 18 28 19 65 20 59 21 58 22 29 24
REMARK SMILES IDX 51 25 36 26 50 27 37 28 40 29 49 30 63 31 38 32 39 33 48 35
REMARK SMILES IDX 64 36 41 37 30 38 31 39 35 40 32 41 34 42 33 43 52 44 53 45
REMARK SMILES IDX 57 46 54 47 56 48 55 49 42 50 43 51 47 52 44 53 46 54 45 55
REMARK SMILES IDX 5 56 6 57 7 58 8 59 9 60 10 62 11 63 12 64 20 65 13 66 19 67
REMARK SMILES IDX 14 68 18 69 15 70 17 71 16 72
REMARK H PARENT 3 5 62 23 40 34 8 61
REMARK Flexibility Score: inf
ROOT
ATOM      1  C   UNL A   1      33.846  28.565  27.240  1.00  0.00     0.116 C 
ENDROOT
BRANCH   1   2
ATOM      2  N   UNL A   1      33.717  29.961  27.627  1.00  0.00    -0.352 N 
ATOM      3  O   UNL A   1      34.307  31.873  28.673  1.00  0.00    -0.269 OA
ATOM      4  C   UNL A   1      34.626  30.753  28.278  1.00  0.00     0.251 C 
ATOM      5  H   UNL A   1      32.866  30.394  27.390  1.00  0.00     0.163 HD
BRANCH   4   6
ATOM      6  C   UNL A   1      35.990  30.248  28.514  1.00  0.00     0.039 A 
ATOM      7  C   UNL A   1      36.299  29.688  29.757  1.00  0.00     0.014 A 
ATOM      8  C   UNL A   1      36.964  30.345  27.517  1.00  0.00     0.014 A 
ATOM      9  C   UNL A   1      37.585  29.204  29.992  1.00  0.00     0.010 A 
ATOM     10  C   UNL A   1      38.221  29.794  27.726  1.00  0.00     0.010 A 
ATOM     11  C   UNL A   1      38.551  29.247  28.974  1.00  0.00    -0.014 A 
BRANCH  11  12
ATOM     12  C   UNL A   1      39.936  28.780  29.208  1.00  0.00     0.031 A 
ATOM     13  C   UNL A   1      40.930  29.703  29.852  1.00  0.00     0.074 A 
ATOM     14  C   UNL A   1      40.311  27.556  28.792  1.00  0.00     0.049 A 
ATOM     15  N   UNL A   1      42.204  29.514  30.077  1.00  0.00    -0.248 NA
ATOM     16  C   UNL A   1      40.434  31.024  30.274  1.00  0.00     0.031 C 
ATOM     17  C   UNL A   1      39.434  26.580  28.145  1.00  0.00     0.029 A 
ATOM     18  N   UNL A   1      41.530  26.928  28.851  1.00  0.00    -0.354 N 
ATOM     19  C   UNL A   1      42.663  30.698  30.641  1.00  0.00     0.074 A 
ATOM     20  C   UNL A   1      41.548  31.615  30.679  1.00  0.00     0.031 C 
ATOM     21  C   UNL A   1      40.136  25.465  27.894  1.00  0.00     0.029 A 
ATOM     22  C   UNL A   1      41.522  25.666  28.312  1.00  0.00     0.049 A 
ATOM     23  H   UNL A   1      42.333  27.343  29.241  1.00  0.00     0.167 HD
ATOM     24  C   UNL A   1      43.902  30.982  31.104  1.00  0.00     0.031 A 
ATOM     25  C   UNL A   1      42.519  24.771  28.160  1.00  0.00     0.031 A 
ATOM     26  C   UNL A   1      44.995  30.048  31.086  1.00  0.00     0.049 A 
ATOM     27  C   UNL A   1      43.896  25.116  28.651  1.00  0.00     0.074 A 
ATOM     28  C   UNL A   1      46.263  30.209  31.613  1.00  0.00     0.029 A 
ATOM     29  N   UNL A   1      44.953  28.789  30.507  1.00  0.00    -0.354 N 
ATOM     30  N   UNL A   1      44.302  26.210  29.251  1.00  0.00    -0.248 NA
ATOM     31  C   UNL A   1      44.951  24.114  28.452  1.00  0.00     0.031 C 
ATOM     32  C   UNL A   1      47.015  29.084  31.274  1.00  0.00     0.029 A 
ATOM     33  C   UNL A   1      46.192  28.184  30.612  1.00  0.00     0.049 A 
ATOM     34  H   UNL A   1      44.161  28.386  30.083  1.00  0.00     0.167 HD
ATOM     35  C   UNL A   1      45.653  26.026  29.511  1.00  0.00     0.074 A 
ATOM     36  C   UNL A   1      45.996  24.706  29.018  1.00  0.00     0.031 C 
ATOM     37  C   UNL A   1      46.527  26.876  30.104  1.00  0.00     0.031 A 
BRANCH  24  38
ATOM     38  C   UNL A   1      44.154  32.358  31.661  1.00  0.00    -0.014 A 
ATOM     39  C   UNL A   1      43.899  32.611  33.019  1.00  0.00     0.009 A 
ATOM     40  C   UNL A   1      44.563  33.420  30.840  1.00  0.00     0.009 A 
ATOM     41  C   UNL A   1      44.037  33.898  33.540  1.00  0.00     0.001 A 
ATOM     42  C   UNL A   1      44.737  34.700  31.371  1.00  0.00     0.001 A 
ATOM     43  C   UNL A   1      44.463  34.941  32.717  1.00  0.00     0.000 A 
ENDBRANCH  24  38
BRANCH  25  44
ATOM     44  C   UNL A   1      42.207  23.455  27.542  1.00  0.00    -0.014 A 
ATOM     45  C   UNL A   1      41.751  22.384  28.330  1.00  0.00     0.009 A 
ATOM     46  C   UNL A   1      42.482  23.228  26.186  1.00  0.00     0.009 A 
ATOM     47  C   UNL A   1      41.625  21.104  27.785  1.00  0.00     0.001 A 
ATOM     48  C   UNL A   1      42.327  21.952  25.637  1.00  0.00     0.001 A 
ATOM     49  C   UNL A   1      41.916  20.890  26.440  1.00  0.00     0.000 A 
ENDBRANCH  25  44
BRANCH  37  50
ATOM     50  C   UNL A   1      47.958  26.438  30.253  1.00  0.00    -0.014 A 
ATOM     51  C   UNL A   1      48.831  26.521  29.155  1.00  0.00     0.009 A 
ATOM     52  C   UNL A   1      48.397  25.800  31.423  1.00  0.00     0.009 A 
ATOM     53  C   UNL A   1      50.098  25.939  29.211  1.00  0.00     0.001 A 
ATOM     54  C   UNL A   1      49.678  25.247  31.487  1.00  0.00     0.001 A 
ATOM     55  C   UNL A   1      50.521  25.302  30.377  1.00  0.00     0.000 A 
ENDBRANCH  37  50
ENDBRANCH  11  12
ENDBRANCH   4   6
ENDBRANCH   1   2
BRANCH   1  56
ATOM     56  C   UNL A   1      32.980  28.204  26.041  1.00  0.00     0.023 C 
BRANCH  56  57
ATOM     57  C   UNL A   1      31.496  28.012  26.359  1.00  0.00     0.023 C 
BRANCH  57  58
ATOM     58  C   UNL A   1      30.889  26.741  25.766  1.00  0.00     0.116 C 
BRANCH  58  59
ATOM     59  N   UNL A   1      31.037  25.614  26.662  1.00  0.00    -0.353 N 
ATOM     60  C   UNL A   1      31.786  24.481  26.555  1.00  0.00     0.261 C 
ATOM     61  H   UNL A   1      30.506  25.678  27.489  1.00  0.00     0.163 HD
ATOM     62  O   UNL A   1      31.671  23.657  27.470  1.00  0.00    -0.271 OA
BRANCH  60  63
ATOM     63  C   UNL A   1      32.737  24.200  25.373  1.00  0.00     0.266 C 
ATOM     64  C   UNL A   1      34.092  24.919  25.444  1.00  0.00     0.095 C 
ATOM     65  O   UNL A   1      32.932  22.786  25.153  1.00  0.00    -0.480 OA
ATOM     66  C   UNL A   1      35.005  23.753  25.468  1.00  0.00    -0.000 A 
ATOM     67  C   UNL A   1      34.283  22.592  25.243  1.00  0.00     0.123 A 
ATOM     68  C   UNL A   1      36.368  23.703  25.708  1.00  0.00     0.028 A 
ATOM     69  C   UNL A   1      34.880  21.348  25.213  1.00  0.00     0.048 A 
ATOM     70  C   UNL A   1      36.987  22.448  25.707  1.00  0.00     0.041 A 
ATOM     71  C   UNL A   1      36.254  21.279  25.449  1.00  0.00     0.024 A 
ATOM     72  Cl  UNL A   1      38.669  22.333  26.052  1.00  0.00    -0.084 Cl
ENDBRANCH  60  63
ENDBRANCH  58  59
ENDBRANCH  57  58
ENDBRANCH  56  57
ENDBRANCH   1  56
TORSDOF 11
ENDMDL
MODEL 3
REMARK VINA RESULT:      -9.4      1.021      6.340
REMARK SMILES O=C(NCCCCNC(=O)[C@H]1Cc2cc(Cl)ccc2O1)c1ccc(-c2c3nc(c(-c4ccccc4)c4ccc([nH]4)c(-c4ccccc4)c4nc(c(-c5ccccc5)c5ccc2[nH]5)C=C4)C=C3)cc1
REMARK SMILES IDX 4 1 3 2 1 3 2 4 21 6 22 7 68 8 23 9 67 10 24 11 25 12 26 13
REMARK SMILES IDX 61 14 27 15 66 16 60 17 62 18 28 19 65 20 59 21 58 22 29 24
REMARK SMILES IDX 51 25 36 26 50 27 37 28 40 29 49 30 63 31 38 32 39 33 48 35
REMARK SMILES IDX 64 36 41 37 30 38 31 39 35 40 32 41 34 42 33 43 52 44 53 45
REMARK SMILES IDX 57 46 54 47 56 48 55 49 42 50 43 51 47 52 44 53 46 54 45 55
REMARK SMILES IDX 5 56 6 57 7 58 8 59 9 60 10 62 11 63 12 64 20 65 13 66 19 67
REMARK SMILES IDX 14 68 18 69 15 70 17 71 16 72
REMARK H PARENT 3 5 62 23 40 34 8 61
REMARK Flexibility Score: inf
ROOT
ATOM      1  C   UNL A   1      33.511  36.490  30.225  1.00  0.00     0.116 C 
ENDROOT
BRANCH   1   2
ATOM      2  N   UNL A   1      32.728  35.676  29.310  1.00  0.00    -0.352 N 
ATOM      3  O   UNL A   1      32.376  34.056  27.778  1.00  0.00    -0.269 OA
ATOM      4  C   UNL A   1      33.106  34.544  28.638  1.00  0.00     0.251 C 
ATOM      5  H   UNL A   1      31.804  35.978  29.153  1.00  0.00     0.163 HD
BRANCH   4   6
ATOM      6  C   UNL A   1      34.405  33.918  28.946  1.00  0.00     0.039 A 
ATOM      7  C   UNL A   1      34.510  33.099  30.072  1.00  0.00     0.014 A 
ATOM      8  C   UNL A   1      35.516  34.158  28.133  1.00  0.00     0.014 A 
ATOM      9  C   UNL A   1      35.732  32.499  30.373  1.00  0.00     0.010 A 
ATOM     10  C   UNL A   1      36.711  33.500  28.391  1.00  0.00     0.010 A 
ATOM     11  C   UNL A   1      36.838  32.690  29.529  1.00  0.00    -0.014 A 
BRANCH  11  12
ATOM     12  C   UNL A   1      38.159  32.101  29.845  1.00  0.00     0.031 A 
ATOM     13  C   UNL A   1      39.150  32.894  30.648  1.00  0.00     0.074 A 
ATOM     14  C   UNL A   1      38.485  30.887  29.365  1.00  0.00     0.049 A 
ATOM     15  N   UNL A   1      40.380  32.591  30.969  1.00  0.00    -0.248 NA
ATOM     16  C   UNL A   1      38.709  34.213  31.132  1.00  0.00     0.031 C 
ATOM     17  C   UNL A   1      37.607  30.033  28.565  1.00  0.00     0.029 A 
ATOM     18  N   UNL A   1      39.645  30.164  29.480  1.00  0.00    -0.354 N 
ATOM     19  C   UNL A   1      40.866  33.690  31.667  1.00  0.00     0.074 A 
ATOM     20  C   UNL A   1      39.819  34.684  31.681  1.00  0.00     0.031 C 
ATOM     21  C   UNL A   1      38.250  28.889  28.286  1.00  0.00     0.029 A 
ATOM     22  C   UNL A   1      39.600  28.950  28.840  1.00  0.00     0.049 A 
ATOM     23  H   UNL A   1      40.435  30.485  29.972  1.00  0.00     0.167 HD
ATOM     24  C   UNL A   1      42.072  33.842  32.260  1.00  0.00     0.031 A 
ATOM     25  C   UNL A   1      40.542  27.995  28.704  1.00  0.00     0.031 A 
ATOM     26  C   UNL A   1      43.094  32.830  32.262  1.00  0.00     0.049 A 
ATOM     27  C   UNL A   1      41.887  28.196  29.342  1.00  0.00     0.074 A 
ATOM     28  C   UNL A   1      44.315  32.852  32.910  1.00  0.00     0.029 A 
ATOM     29  N   UNL A   1      43.019  31.625  31.580  1.00  0.00    -0.354 N 
ATOM     30  N   UNL A   1      42.310  29.207  30.064  1.00  0.00    -0.248 NA
ATOM     31  C   UNL A   1      42.884  27.132  29.155  1.00  0.00     0.031 C 
ATOM     32  C   UNL A   1      45.015  31.701  32.548  1.00  0.00     0.029 A 
ATOM     33  C   UNL A   1      44.197  30.920  31.744  1.00  0.00     0.049 A 
ATOM     34  H   UNL A   1      42.244  31.318  31.056  1.00  0.00     0.167 HD
ATOM     35  C   UNL A   1      43.615  28.899  30.426  1.00  0.00     0.074 A 
ATOM     36  C   UNL A   1      43.910  27.598  29.859  1.00  0.00     0.031 C 
ATOM     37  C   UNL A   1      44.486  29.632  31.162  1.00  0.00     0.031 A 
BRANCH  24  38
ATOM     38  C   UNL A   1      42.366  35.148  32.948  1.00  0.00    -0.014 A 
ATOM     39  C   UNL A   1      43.168  36.103  32.302  1.00  0.00     0.009 A 
ATOM     40  C   UNL A   1      41.925  35.407  34.254  1.00  0.00     0.009 A 
ATOM     41  C   UNL A   1      43.532  37.282  32.953  1.00  0.00     0.001 A 
ATOM     42  C   UNL A   1      42.258  36.605  34.890  1.00  0.00     0.001 A 
ATOM     43  C   UNL A   1      43.070  37.536  34.244  1.00  0.00     0.000 A 
ENDBRANCH  24  38
BRANCH  25  44
ATOM     44  C   UNL A   1      40.198  26.758  27.955  1.00  0.00    -0.014 A 
ATOM     45  C   UNL A   1      39.509  25.708  28.585  1.00  0.00     0.009 A 
ATOM     46  C   UNL A   1      40.667  26.571  26.647  1.00  0.00     0.009 A 
ATOM     47  C   UNL A   1      39.339  24.480  27.940  1.00  0.00     0.001 A 
ATOM     48  C   UNL A   1      40.471  25.351  25.993  1.00  0.00     0.001 A 
ATOM     49  C   UNL A   1      39.824  24.304  26.645  1.00  0.00     0.000 A 
ENDBRANCH  25  44
BRANCH  37  50
ATOM     50  C   UNL A   1      45.863  29.075  31.401  1.00  0.00    -0.014 A 
ATOM     51  C   UNL A   1      46.127  28.347  32.573  1.00  0.00     0.009 A 
ATOM     52  C   UNL A   1      46.929  29.406  30.553  1.00  0.00     0.009 A 
ATOM     53  C   UNL A   1      47.435  27.996  32.910  1.00  0.00     0.001 A 
ATOM     54  C   UNL A   1      48.233  29.025  30.876  1.00  0.00     0.001 A 
ATOM     55  C   UNL A   1      48.487  28.335  32.062  1.00  0.00     0.000 A 
ENDBRANCH  37  50
ENDBRANCH  11  12
ENDBRANCH   4   6
ENDBRANCH   1   2
BRANCH   1  56
ATOM     56  C   UNL A   1      32.854  36.640  31.592  1.00  0.00     0.023 C 
BRANCH  56  57
ATOM     57  C   UNL A   1      33.184  35.523  32.584  1.00  0.00     0.023 C 
BRANCH  57  58
ATOM     58  C   UNL A   1      34.651  35.479  33.009  1.00  0.00     0.116 C 
BRANCH  58  59
ATOM     59  N   UNL A   1      34.808  34.874  34.315  1.00  0.00    -0.353 N 
ATOM     60  C   UNL A   1      35.843  34.172  34.855  1.00  0.00     0.261 C 
ATOM     61  H   UNL A   1      34.034  34.991  34.913  1.00  0.00     0.163 HD
ATOM     62  O   UNL A   1      35.669  33.727  35.996  1.00  0.00    -0.271 OA
BRANCH  60  63
ATOM     63  C   UNL A   1      37.175  33.922  34.118  1.00  0.00     0.266 C 
ATOM     64  C   UNL A   1      38.436  34.274  34.919  1.00  0.00     0.095 C 
ATOM     65  O   UNL A   1      37.270  32.575  33.604  1.00  0.00    -0.480 OA
ATOM     66  C   UNL A   1      39.092  32.948  34.972  1.00  0.00    -0.000 A 
ATOM     67  C   UNL A   1      38.405  32.057  34.162  1.00  0.00     0.123 A 
ATOM     68  C   UNL A   1      40.190  32.533  35.706  1.00  0.00     0.028 A 
ATOM     69  C   UNL A   1      38.794  30.741  34.020  1.00  0.00     0.048 A 
ATOM     70  C   UNL A   1      40.585  31.196  35.595  1.00  0.00     0.041 A 
ATOM     71  C   UNL A   1      39.903  30.306  34.750  1.00  0.00     0.024 A 
ATOM     72  Cl  UNL A   1      41.913  30.624  36.530  1.00  0.00    -0.084 Cl
ENDBRANCH  60  63
ENDBRANCH  58  59
ENDBRANCH  57  58
ENDBRANCH  56  57
ENDBRANCH   1  56
TORSDOF 11
ENDMDL
