MODEL 1
REMARK VINA RESULT:     -11.6      0.000      0.000
REMARK SMILES CCc1cccc(C)c1Nc1ccccc1CC(=O)NCCCCNC(=O)c1ccc(-c2c3nc(c(-c4ccccc4)c4ccc([nH]4)c(-c4ccccc4)c4nc(c(-c5ccccc5)c5ccc2[nH]5)C=C4)C=C3)cc1
REMARK SMILES IDX 21 1 20 2 18 3 19 4 17 6 16 7 11 8 12 9 13 10 15 11 14 12
REMARK SMILES IDX 10 13 9 15 3 16 4 17 5 18 7 19 6 20 8 21 2 22 1 23 22 24
REMARK SMILES IDX 23 25 24 26 25 27 26 28 27 30 28 31 29 32 75 33 30 34 74 35
REMARK SMILES IDX 31 36 32 37 33 38 68 39 34 40 73 41 67 42 69 43 35 44 72 45
REMARK SMILES IDX 66 46 65 47 36 49 58 50 43 51 57 52 44 53 47 54 56 55 70 56
REMARK SMILES IDX 45 57 46 58 55 60 71 61 48 62 37 63 38 64 42 65 39 66 41 67
REMARK SMILES IDX 40 68 59 69 60 70 64 71 61 72 63 73 62 74 49 75 50 76 54 77
REMARK SMILES IDX 51 78 53 79 52 80
REMARK H PARENT 20 5 10 14 25 29 69 48 47 59
REMARK Flexibility Score: inf
ROOT
ATOM      1  C   UNL A   1      32.313  28.514  27.357  1.00  0.00     0.116 C 
ENDROOT
BRANCH   1   2
ATOM      2  N   UNL A   1      31.439  27.411  26.998  1.00  0.00    -0.356 N 
ATOM      3  C   UNL A   1      31.692  26.192  26.442  1.00  0.00     0.224 C 
ATOM      4  O   UNL A   1      30.812  25.333  26.570  1.00  0.00    -0.275 OA
ATOM      5  H   UNL A   1      30.488  27.575  27.191  1.00  0.00     0.163 HD
BRANCH   3   6
ATOM      6  C   UNL A   1      33.027  25.831  25.829  1.00  0.00     0.137 C 
BRANCH   6   7
ATOM      7  C   UNL A   1      33.029  25.162  24.471  1.00  0.00    -0.015 A 
ATOM      8  C   UNL A   1      33.379  23.811  24.250  1.00  0.00     0.042 A 
ATOM      9  C   UNL A   1      33.457  23.338  22.927  1.00  0.00     0.026 A 
ATOM     10  C   UNL A   1      33.114  24.144  21.843  1.00  0.00     0.002 A 
ATOM     11  C   UNL A   1      32.725  25.973  23.355  1.00  0.00     0.006 A 
ATOM     12  C   UNL A   1      32.745  25.464  22.057  1.00  0.00     0.000 A 
BRANCH   8  13
ATOM     13  N   UNL A   1      33.806  22.928  25.265  1.00  0.00    -0.355 N 
ATOM     14  H   UNL A   1      33.233  22.910  26.067  1.00  0.00     0.167 HD
BRANCH  13  15
ATOM     15  C   UNL A   1      34.925  22.066  25.313  1.00  0.00     0.045 A 
ATOM     16  C   UNL A   1      34.758  20.663  25.213  1.00  0.00    -0.024 A 
ATOM     17  C   UNL A   1      35.874  19.868  24.874  1.00  0.00     0.006 A 
ATOM     18  C   UNL A   1      37.144  20.415  24.747  1.00  0.00     0.001 A 
ATOM     19  C   UNL A   1      36.246  22.563  25.414  1.00  0.00    -0.027 A 
ATOM     20  C   UNL A   1      37.337  21.749  25.067  1.00  0.00     0.005 A 
ATOM     21  C   UNL A   1      36.539  23.932  25.958  1.00  0.00     0.046 C 
BRANCH  16  22
ATOM     22  C   UNL A   1      33.456  19.913  25.432  1.00  0.00     0.034 C 
ATOM     23  C   UNL A   1      32.868  19.189  24.222  1.00  0.00     0.009 C 
ENDBRANCH  16  22
ENDBRANCH  13  15
ENDBRANCH   8  13
ENDBRANCH   6   7
ENDBRANCH   3   6
ENDBRANCH   1   2
BRANCH   1  24
ATOM     24  C   UNL A   1      31.821  29.904  26.932  1.00  0.00     0.023 C 
BRANCH  24  25
ATOM     25  C   UNL A   1      32.741  31.079  27.265  1.00  0.00     0.023 C 
BRANCH  25  26
ATOM     26  C   UNL A   1      34.186  30.720  27.552  1.00  0.00     0.116 C 
BRANCH  26  27
ATOM     27  N   UNL A   1      34.787  31.495  28.643  1.00  0.00    -0.352 N 
ATOM     28  C   UNL A   1      35.950  31.203  29.341  1.00  0.00     0.251 C 
ATOM     29  H   UNL A   1      34.311  32.315  28.909  1.00  0.00     0.163 HD
ATOM     30  O   UNL A   1      36.417  31.958  30.176  1.00  0.00    -0.269 OA
BRANCH  28  31
ATOM     31  C   UNL A   1      36.675  29.978  28.939  1.00  0.00     0.039 A 
ATOM     32  C   UNL A   1      36.988  29.074  29.954  1.00  0.00     0.014 A 
ATOM     33  C   UNL A   1      37.369  29.988  27.730  1.00  0.00     0.014 A 
ATOM     34  C   UNL A   1      38.184  28.373  29.874  1.00  0.00     0.010 A 
ATOM     35  C   UNL A   1      38.599  29.359  27.690  1.00  0.00     0.010 A 
ATOM     36  C   UNL A   1      39.041  28.632  28.802  1.00  0.00    -0.014 A 
BRANCH  36  37
ATOM     37  C   UNL A   1      40.458  28.288  28.844  1.00  0.00     0.031 A 
ATOM     38  C   UNL A   1      40.908  26.982  28.333  1.00  0.00     0.074 A 
ATOM     39  C   UNL A   1      41.367  29.128  29.392  1.00  0.00     0.049 A 
ATOM     40  N   UNL A   1      41.909  26.320  28.809  1.00  0.00    -0.248 NA
ATOM     41  C   UNL A   1      40.190  26.279  27.279  1.00  0.00     0.031 C 
ATOM     42  C   UNL A   1      42.821  28.992  29.354  1.00  0.00     0.029 A 
ATOM     43  N   UNL A   1      41.148  30.150  30.319  1.00  0.00    -0.354 N 
ATOM     44  C   UNL A   1      42.158  25.288  27.938  1.00  0.00     0.074 A 
ATOM     45  C   UNL A   1      40.996  25.233  27.081  1.00  0.00     0.031 C 
ATOM     46  C   UNL A   1      43.337  29.628  30.417  1.00  0.00     0.029 A 
ATOM     47  C   UNL A   1      42.226  30.106  31.220  1.00  0.00     0.049 A 
ATOM     48  H   UNL A   1      40.390  30.776  30.337  1.00  0.00     0.167 HD
ATOM     49  C   UNL A   1      43.387  24.695  27.926  1.00  0.00     0.031 A 
ATOM     50  C   UNL A   1      42.088  29.952  32.568  1.00  0.00     0.031 A 
ATOM     51  C   UNL A   1      44.248  25.189  29.002  1.00  0.00     0.049 A 
ATOM     52  C   UNL A   1      42.824  28.748  33.116  1.00  0.00     0.074 A 
ATOM     53  C   UNL A   1      45.308  26.082  29.036  1.00  0.00     0.029 A 
ATOM     54  N   UNL A   1      43.884  24.964  30.324  1.00  0.00    -0.354 N 
ATOM     55  N   UNL A   1      43.366  27.828  32.369  1.00  0.00    -0.248 NA
ATOM     56  C   UNL A   1      42.936  28.440  34.540  1.00  0.00     0.031 C 
ATOM     57  C   UNL A   1      45.542  26.436  30.391  1.00  0.00     0.029 A 
ATOM     58  C   UNL A   1      44.639  25.744  31.178  1.00  0.00     0.049 A 
ATOM     59  H   UNL A   1      43.185  24.334  30.612  1.00  0.00     0.167 HD
ATOM     60  C   UNL A   1      43.852  26.816  33.158  1.00  0.00     0.074 A 
ATOM     61  C   UNL A   1      43.583  27.261  34.514  1.00  0.00     0.031 C 
ATOM     62  C   UNL A   1      44.405  25.691  32.616  1.00  0.00     0.031 A 
BRANCH  49  63
ATOM     63  C   UNL A   1      43.904  23.896  26.748  1.00  0.00    -0.014 A 
ATOM     64  C   UNL A   1      44.723  24.521  25.788  1.00  0.00     0.009 A 
ATOM     65  C   UNL A   1      43.568  22.559  26.479  1.00  0.00     0.009 A 
ATOM     66  C   UNL A   1      45.088  23.886  24.591  1.00  0.00     0.001 A 
ATOM     67  C   UNL A   1      43.891  21.930  25.269  1.00  0.00     0.001 A 
ATOM     68  C   UNL A   1      44.642  22.601  24.317  1.00  0.00     0.000 A 
ENDBRANCH  49  63
BRANCH  50  69
ATOM     69  C   UNL A   1      40.808  30.483  33.105  1.00  0.00    -0.014 A 
ATOM     70  C   UNL A   1      40.689  31.880  33.248  1.00  0.00     0.009 A 
ATOM     71  C   UNL A   1      39.642  29.706  33.067  1.00  0.00     0.009 A 
ATOM     72  C   UNL A   1      39.436  32.495  33.216  1.00  0.00     0.001 A 
ATOM     73  C   UNL A   1      38.388  30.329  33.045  1.00  0.00     0.001 A 
ATOM     74  C   UNL A   1      38.288  31.721  33.077  1.00  0.00     0.000 A 
ENDBRANCH  50  69
BRANCH  62  75
ATOM     75  C   UNL A   1      44.828  24.444  33.358  1.00  0.00    -0.014 A 
ATOM     76  C   UNL A   1      46.098  24.230  33.907  1.00  0.00     0.009 A 
ATOM     77  C   UNL A   1      43.852  23.455  33.627  1.00  0.00     0.009 A 
ATOM     78  C   UNL A   1      46.390  23.072  34.646  1.00  0.00     0.001 A 
ATOM     79  C   UNL A   1      44.125  22.323  34.400  1.00  0.00     0.001 A 
ATOM     80  C   UNL A   1      45.402  22.124  34.900  1.00  0.00     0.000 A 
ENDBRANCH  62  75
ENDBRANCH  36  37
ENDBRANCH  28  31
ENDBRANCH  26  27
ENDBRANCH  25  26
ENDBRANCH  24  25
ENDBRANCH   1  24
TORSDOF 15
ENDMDL
MODEL 2
REMARK VINA RESULT:     -11.5      3.514      8.715
REMARK SMILES CCc1cccc(C)c1Nc1ccccc1CC(=O)NCCCCNC(=O)c1ccc(-c2c3nc(c(-c4ccccc4)c4ccc([nH]4)c(-c4ccccc4)c4nc(c(-c5ccccc5)c5ccc2[nH]5)C=C4)C=C3)cc1
REMARK SMILES IDX 21 1 20 2 18 3 19 4 17 6 16 7 11 8 12 9 13 10 15 11 14 12
REMARK SMILES IDX 10 13 9 15 3 16 4 17 5 18 7 19 6 20 8 21 2 22 1 23 22 24
REMARK SMILES IDX 23 25 24 26 25 27 26 28 27 30 28 31 29 32 75 33 30 34 74 35
REMARK SMILES IDX 31 36 32 37 33 38 68 39 34 40 73 41 67 42 69 43 35 44 72 45
REMARK SMILES IDX 66 46 65 47 36 49 58 50 43 51 57 52 44 53 47 54 56 55 70 56
REMARK SMILES IDX 45 57 46 58 55 60 71 61 48 62 37 63 38 64 42 65 39 66 41 67
REMARK SMILES IDX 40 68 59 69 60 70 64 71 61 72 63 73 62 74 49 75 50 76 54 77
REMARK SMILES IDX 51 78 53 79 52 80
REMARK H PARENT 20 5 10 14 25 29 69 48 47 59
REMARK Flexibility Score: inf
ROOT
ATOM      1  C   UNL A   1      38.100  21.671  25.694  1.00  0.00     0.116 C 
ENDROOT
BRANCH   1   2
ATOM      2  N   UNL A   1      37.779  22.161  24.366  1.00  0.00    -0.356 N 
ATOM      3  C   UNL A   1      36.677  22.790  23.868  1.00  0.00     0.224 C 
ATOM      4  O   UNL A   1      36.820  23.395  22.799  1.00  0.00    -0.275 OA
ATOM      5  H   UNL A   1      38.490  22.011  23.701  1.00  0.00     0.163 HD
BRANCH   3   6
ATOM      6  C   UNL A   1      35.374  22.888  24.632  1.00  0.00     0.137 C 
BRANCH   6   7
ATOM      7  C   UNL A   1      34.319  21.832  24.378  1.00  0.00    -0.015 A 
ATOM      8  C   UNL A   1      33.042  22.098  23.833  1.00  0.00     0.042 A 
ATOM      9  C   UNL A   1      32.107  21.050  23.755  1.00  0.00     0.026 A 
ATOM     10  C   UNL A   1      32.439  19.746  24.122  1.00  0.00     0.002 A 
ATOM     11  C   UNL A   1      34.621  20.513  24.781  1.00  0.00     0.006 A 
ATOM     12  C   UNL A   1      33.700  19.476  24.633  1.00  0.00     0.000 A 
BRANCH   8  13
ATOM     13  N   UNL A   1      32.580  23.387  23.491  1.00  0.00    -0.355 N 
ATOM     14  H   UNL A   1      32.080  23.437  22.644  1.00  0.00     0.167 HD
BRANCH  13  15
ATOM     15  C   UNL A   1      32.723  24.617  24.172  1.00  0.00     0.045 A 
ATOM     16  C   UNL A   1      32.326  24.741  25.526  1.00  0.00    -0.024 A 
ATOM     17  C   UNL A   1      32.824  25.823  26.284  1.00  0.00     0.006 A 
ATOM     18  C   UNL A   1      33.599  26.820  25.706  1.00  0.00     0.001 A 
ATOM     19  C   UNL A   1      33.305  25.749  23.553  1.00  0.00    -0.027 A 
ATOM     20  C   UNL A   1      33.795  26.809  24.334  1.00  0.00     0.005 A 
ATOM     21  C   UNL A   1      33.356  25.899  22.060  1.00  0.00     0.046 C 
BRANCH  16  22
ATOM     22  C   UNL A   1      31.397  23.792  26.262  1.00  0.00     0.034 C 
ATOM     23  C   UNL A   1      32.011  22.974  27.397  1.00  0.00     0.009 C 
ENDBRANCH  16  22
ENDBRANCH  13  15
ENDBRANCH   8  13
ENDBRANCH   6   7
ENDBRANCH   3   6
ENDBRANCH   1   2
BRANCH   1  24
ATOM     24  C   UNL A   1      39.530  21.141  25.869  1.00  0.00     0.023 C 
BRANCH  24  25
ATOM     25  C   UNL A   1      40.434  21.931  26.816  1.00  0.00     0.023 C 
BRANCH  25  26
ATOM     26  C   UNL A   1      41.698  21.221  27.261  1.00  0.00     0.116 C 
BRANCH  26  27
ATOM     27  N   UNL A   1      42.253  20.305  26.258  1.00  0.00    -0.352 N 
ATOM     28  C   UNL A   1      43.310  20.545  25.393  1.00  0.00     0.251 C 
ATOM     29  H   UNL A   1      41.825  19.420  26.192  1.00  0.00     0.163 HD
ATOM     30  O   UNL A   1      43.756  19.685  24.652  1.00  0.00    -0.269 OA
BRANCH  28  31
ATOM     31  C   UNL A   1      43.963  21.869  25.495  1.00  0.00     0.039 A 
ATOM     32  C   UNL A   1      44.896  22.028  26.521  1.00  0.00     0.014 A 
ATOM     33  C   UNL A   1      43.337  22.962  24.900  1.00  0.00     0.014 A 
ATOM     34  C   UNL A   1      44.986  23.264  27.149  1.00  0.00     0.010 A 
ATOM     35  C   UNL A   1      43.361  24.165  25.580  1.00  0.00     0.010 A 
ATOM     36  C   UNL A   1      44.114  24.281  26.756  1.00  0.00    -0.014 A 
BRANCH  36  37
ATOM     37  C   UNL A   1      43.837  25.433  27.605  1.00  0.00     0.031 A 
ATOM     38  C   UNL A   1      42.546  26.133  27.488  1.00  0.00     0.074 A 
ATOM     39  C   UNL A   1      44.765  25.906  28.469  1.00  0.00     0.049 A 
ATOM     40  N   UNL A   1      42.385  27.400  27.678  1.00  0.00    -0.248 NA
ATOM     41  C   UNL A   1      41.335  25.448  27.057  1.00  0.00     0.031 C 
ATOM     42  C   UNL A   1      44.570  26.935  29.488  1.00  0.00     0.029 A 
ATOM     43  N   UNL A   1      46.149  25.730  28.430  1.00  0.00    -0.354 N 
ATOM     44  C   UNL A   1      41.032  27.633  27.711  1.00  0.00     0.074 A 
ATOM     45  C   UNL A   1      40.433  26.422  27.199  1.00  0.00     0.031 C 
ATOM     46  C   UNL A   1      45.751  27.523  29.733  1.00  0.00     0.029 A 
ATOM     47  C   UNL A   1      46.718  26.958  28.808  1.00  0.00     0.049 A 
ATOM     48  H   UNL A   1      46.632  24.907  28.185  1.00  0.00     0.167 HD
ATOM     49  C   UNL A   1      40.554  28.757  28.317  1.00  0.00     0.031 A 
ATOM     50  C   UNL A   1      47.596  27.662  28.038  1.00  0.00     0.031 A 
ATOM     51  C   UNL A   1      41.630  29.657  28.737  1.00  0.00     0.049 A 
ATOM     52  C   UNL A   1      47.129  29.067  27.723  1.00  0.00     0.074 A 
ATOM     53  C   UNL A   1      42.214  29.932  29.963  1.00  0.00     0.029 A 
ATOM     54  N   UNL A   1      42.452  30.232  27.774  1.00  0.00    -0.354 N 
ATOM     55  N   UNL A   1      45.928  29.506  27.975  1.00  0.00    -0.248 NA
ATOM     56  C   UNL A   1      47.943  30.059  27.024  1.00  0.00     0.031 C 
ATOM     57  C   UNL A   1      43.428  30.630  29.727  1.00  0.00     0.029 A 
ATOM     58  C   UNL A   1      43.568  30.795  28.361  1.00  0.00     0.049 A 
ATOM     59  H   UNL A   1      42.263  30.238  26.809  1.00  0.00     0.167 HD
ATOM     60  C   UNL A   1      45.781  30.771  27.467  1.00  0.00     0.074 A 
ATOM     61  C   UNL A   1      47.082  31.085  26.906  1.00  0.00     0.031 C 
ATOM     62  C   UNL A   1      44.586  31.432  27.532  1.00  0.00     0.031 A 
BRANCH  49  63
ATOM     63  C   UNL A   1      39.125  28.887  28.801  1.00  0.00    -0.014 A 
ATOM     64  C   UNL A   1      38.140  29.402  27.937  1.00  0.00     0.009 A 
ATOM     65  C   UNL A   1      38.694  28.597  30.107  1.00  0.00     0.009 A 
ATOM     66  C   UNL A   1      36.844  29.707  28.380  1.00  0.00     0.001 A 
ATOM     67  C   UNL A   1      37.416  28.937  30.570  1.00  0.00     0.001 A 
ATOM     68  C   UNL A   1      36.493  29.506  29.708  1.00  0.00     0.000 A 
ENDBRANCH  49  63
BRANCH  50  69
ATOM     69  C   UNL A   1      48.415  26.815  27.133  1.00  0.00    -0.014 A 
ATOM     70  C   UNL A   1      48.050  26.769  25.773  1.00  0.00     0.009 A 
ATOM     71  C   UNL A   1      49.712  26.428  27.497  1.00  0.00     0.009 A 
ATOM     72  C   UNL A   1      48.997  26.477  24.790  1.00  0.00     0.001 A 
ATOM     73  C   UNL A   1      50.655  26.127  26.507  1.00  0.00     0.001 A 
ATOM     74  C   UNL A   1      50.309  26.192  25.156  1.00  0.00     0.000 A 
ENDBRANCH  50  69
BRANCH  62  75
ATOM     75  C   UNL A   1      44.245  32.751  26.878  1.00  0.00    -0.014 A 
ATOM     76  C   UNL A   1      44.068  32.942  25.502  1.00  0.00     0.009 A 
ATOM     77  C   UNL A   1      43.968  33.863  27.707  1.00  0.00     0.009 A 
ATOM     78  C   UNL A   1      43.680  34.185  24.980  1.00  0.00     0.001 A 
ATOM     79  C   UNL A   1      43.537  35.091  27.197  1.00  0.00     0.001 A 
ATOM     80  C   UNL A   1      43.405  35.256  25.827  1.00  0.00     0.000 A 
ENDBRANCH  62  75
ENDBRANCH  36  37
ENDBRANCH  28  31
ENDBRANCH  26  27
ENDBRANCH  25  26
ENDBRANCH  24  25
ENDBRANCH   1  24
TORSDOF 15
ENDMDL
MODEL 3
REMARK VINA RESULT:     -11.5      3.131      8.351
REMARK SMILES CCc1cccc(C)c1Nc1ccccc1CC(=O)NCCCCNC(=O)c1ccc(-c2c3nc(c(-c4ccccc4)c4ccc([nH]4)c(-c4ccccc4)c4nc(c(-c5ccccc5)c5ccc2[nH]5)C=C4)C=C3)cc1
REMARK SMILES IDX 21 1 20 2 18 3 19 4 17 6 16 7 11 8 12 9 13 10 15 11 14 12
REMARK SMILES IDX 10 13 9 15 3 16 4 17 5 18 7 19 6 20 8 21 2 22 1 23 22 24
REMARK SMILES IDX 23 25 24 26 25 27 26 28 27 30 28 31 29 32 75 33 30 34 74 35
REMARK SMILES IDX 31 36 32 37 33 38 68 39 34 40 73 41 67 42 69 43 35 44 72 45
REMARK SMILES IDX 66 46 65 47 36 49 58 50 43 51 57 52 44 53 47 54 56 55 70 56
REMARK SMILES IDX 45 57 46 58 55 60 71 61 48 62 37 63 38 64 42 65 39 66 41 67
REMARK SMILES IDX 40 68 59 69 60 70 64 71 61 72 63 73 62 74 49 75 50 76 54 77
REMARK SMILES IDX 51 78 53 79 52 80
REMARK H PARENT 20 5 10 14 25 29 69 48 47 59
REMARK Flexibility Score: inf
ROOT
ATOM      1  C   UNL A   1      36.453  23.880  25.924  1.00  0.00     0.116 C 
ENDROOT
BRANCH   1   2
ATOM      2  N   UNL A   1      35.794  22.976  26.850  1.00  0.00    -0.356 N 
ATOM      3  C   UNL A   1      34.477  22.724  27.096  1.00  0.00     0.224 C 
ATOM      4  O   UNL A   1      34.215  21.667  27.682  1.00  0.00    -0.275 OA
ATOM      5  H   UNL A   1      36.414  22.446  27.401  1.00  0.00     0.163 HD
BRANCH   3   6
ATOM      6  C   UNL A   1      33.362  23.596  26.561  1.00  0.00     0.137 C 
BRANCH   6   7
ATOM      7  C   UNL A   1      32.972  23.439  25.106  1.00  0.00    -0.015 A 
ATOM      8  C   UNL A   1      32.223  24.389  24.376  1.00  0.00     0.042 A 
ATOM      9  C   UNL A   1      31.823  24.075  23.064  1.00  0.00     0.026 A 
ATOM     10  C   UNL A   1      32.220  22.891  22.444  1.00  0.00     0.002 A 
ATOM     11  C   UNL A   1      33.329  22.228  24.472  1.00  0.00     0.006 A 
ATOM     12  C   UNL A   1      32.977  21.966  23.148  1.00  0.00     0.000 A 
BRANCH   8  13
ATOM     13  N   UNL A   1      31.714  25.586  24.924  1.00  0.00    -0.355 N 
ATOM     14  H   UNL A   1      31.507  25.546  25.886  1.00  0.00     0.167 HD
BRANCH  13  15
ATOM     15  C   UNL A   1      31.455  26.832  24.310  1.00  0.00     0.045 A 
ATOM     16  C   UNL A   1      32.480  27.800  24.184  1.00  0.00    -0.024 A 
ATOM     17  C   UNL A   1      32.319  28.845  23.248  1.00  0.00     0.006 A 
ATOM     18  C   UNL A   1      31.139  29.004  22.533  1.00  0.00     0.001 A 
ATOM     19  C   UNL A   1      30.189  27.143  23.758  1.00  0.00    -0.027 A 
ATOM     20  C   UNL A   1      30.060  28.186  22.826  1.00  0.00     0.005 A 
ATOM     21  C   UNL A   1      28.938  26.434  24.193  1.00  0.00     0.046 C 
BRANCH  16  22
ATOM     22  C   UNL A   1      33.776  27.819  24.976  1.00  0.00     0.034 C 
ATOM     23  C   UNL A   1      33.651  27.943  26.494  1.00  0.00     0.009 C 
ENDBRANCH  16  22
ENDBRANCH  13  15
ENDBRANCH   8  13
ENDBRANCH   6   7
ENDBRANCH   3   6
ENDBRANCH   1   2
BRANCH   1  24
ATOM     24  C   UNL A   1      37.962  23.656  25.752  1.00  0.00     0.023 C 
BRANCH  24  25
ATOM     25  C   UNL A   1      38.500  22.297  26.199  1.00  0.00     0.023 C 
BRANCH  25  26
ATOM     26  C   UNL A   1      39.991  22.239  26.474  1.00  0.00     0.116 C 
BRANCH  26  27
ATOM     27  N   UNL A   1      40.667  21.093  25.855  1.00  0.00    -0.352 N 
ATOM     28  C   UNL A   1      42.013  20.768  25.933  1.00  0.00     0.251 C 
ATOM     29  H   UNL A   1      40.101  20.488  25.323  1.00  0.00     0.163 HD
ATOM     30  O   UNL A   1      42.466  19.743  25.454  1.00  0.00    -0.269 OA
BRANCH  28  31
ATOM     31  C   UNL A   1      42.867  21.668  26.739  1.00  0.00     0.039 A 
ATOM     32  C   UNL A   1      42.743  21.572  28.126  1.00  0.00     0.014 A 
ATOM     33  C   UNL A   1      43.385  22.809  26.128  1.00  0.00     0.014 A 
ATOM     34  C   UNL A   1      42.867  22.729  28.884  1.00  0.00     0.010 A 
ATOM     35  C   UNL A   1      43.422  23.974  26.870  1.00  0.00     0.010 A 
ATOM     36  C   UNL A   1      43.070  23.944  28.226  1.00  0.00    -0.014 A 
BRANCH  36  37
ATOM     37  C   UNL A   1      42.793  25.225  28.865  1.00  0.00     0.031 A 
ATOM     38  C   UNL A   1      41.638  26.026  28.423  1.00  0.00     0.074 A 
ATOM     39  C   UNL A   1      43.607  25.720  29.826  1.00  0.00     0.049 A 
ATOM     40  N   UNL A   1      41.604  27.316  28.427  1.00  0.00    -0.248 NA
ATOM     41  C   UNL A   1      40.446  25.411  27.856  1.00  0.00     0.031 C 
ATOM     42  C   UNL A   1      43.366  26.894  30.660  1.00  0.00     0.029 A 
ATOM     43  N   UNL A   1      44.945  25.403  30.069  1.00  0.00    -0.354 N 
ATOM     44  C   UNL A   1      40.304  27.684  28.176  1.00  0.00     0.074 A 
ATOM     45  C   UNL A   1      39.659  26.479  27.708  1.00  0.00     0.031 C 
ATOM     46  C   UNL A   1      44.550  27.391  31.051  1.00  0.00     0.029 A 
ATOM     47  C   UNL A   1      45.586  26.610  30.399  1.00  0.00     0.049 A 
ATOM     48  H   UNL A   1      45.358  24.511  30.020  1.00  0.00     0.167 HD
ATOM     49  C   UNL A   1      39.870  28.924  28.543  1.00  0.00     0.031 A 
ATOM     50  C   UNL A   1      46.665  27.109  29.731  1.00  0.00     0.031 A 
ATOM     51  C   UNL A   1      40.958  29.763  29.048  1.00  0.00     0.049 A 
ATOM     52  C   UNL A   1      46.435  28.496  29.167  1.00  0.00     0.074 A 
ATOM     53  C   UNL A   1      41.349  30.147  30.321  1.00  0.00     0.029 A 
ATOM     54  N   UNL A   1      41.999  30.114  28.197  1.00  0.00    -0.354 N 
ATOM     55  N   UNL A   1      45.272  29.082  29.134  1.00  0.00    -0.248 NA
ATOM     56  C   UNL A   1      47.474  29.295  28.522  1.00  0.00     0.031 C 
ATOM     57  C   UNL A   1      42.662  30.681  30.237  1.00  0.00     0.029 A 
ATOM     58  C   UNL A   1      43.057  30.640  28.912  1.00  0.00     0.049 A 
ATOM     59  H   UNL A   1      41.984  30.003  27.219  1.00  0.00     0.167 HD
ATOM     60  C   UNL A   1      45.371  30.273  28.461  1.00  0.00     0.074 A 
ATOM     61  C   UNL A   1      46.779  30.375  28.122  1.00  0.00     0.031 C 
ATOM     62  C   UNL A   1      44.274  31.051  28.221  1.00  0.00     0.031 A 
BRANCH  49  63
ATOM     63  C   UNL A   1      38.405  29.261  28.730  1.00  0.00    -0.014 A 
ATOM     64  C   UNL A   1      37.685  29.849  27.673  1.00  0.00     0.009 A 
ATOM     65  C   UNL A   1      37.695  29.100  29.932  1.00  0.00     0.009 A 
ATOM     66  C   UNL A   1      36.381  30.340  27.841  1.00  0.00     0.001 A 
ATOM     67  C   UNL A   1      36.410  29.625  30.122  1.00  0.00     0.001 A 
ATOM     68  C   UNL A   1      35.757  30.258  29.078  1.00  0.00     0.000 A 
ENDBRANCH  49  63
BRANCH  50  69
ATOM     69  C   UNL A   1      47.518  26.067  29.104  1.00  0.00    -0.014 A 
ATOM     70  C   UNL A   1      47.305  25.782  27.740  1.00  0.00     0.009 A 
ATOM     71  C   UNL A   1      48.736  25.695  29.689  1.00  0.00     0.009 A 
ATOM     72  C   UNL A   1      48.334  25.263  26.952  1.00  0.00     0.001 A 
ATOM     73  C   UNL A   1      49.760  25.166  28.895  1.00  0.00     0.001 A 
ATOM     74  C   UNL A   1      49.573  24.990  27.523  1.00  0.00     0.000 A 
ENDBRANCH  50  69
BRANCH  62  75
ATOM     75  C   UNL A   1      44.217  32.293  27.362  1.00  0.00    -0.014 A 
ATOM     76  C   UNL A   1      44.321  32.308  25.965  1.00  0.00     0.009 A 
ATOM     77  C   UNL A   1      43.923  33.530  27.982  1.00  0.00     0.009 A 
ATOM     78  C   UNL A   1      44.184  33.498  25.234  1.00  0.00     0.001 A 
ATOM     79  C   UNL A   1      43.741  34.710  27.256  1.00  0.00     0.001 A 
ATOM     80  C   UNL A   1      43.885  34.696  25.877  1.00  0.00     0.000 A 
ENDBRANCH  62  75
ENDBRANCH  36  37
ENDBRANCH  28  31
ENDBRANCH  26  27
ENDBRANCH  25  26
ENDBRANCH  24  25
ENDBRANCH   1  24
TORSDOF 15
ENDMDL
