MODEL 1
REMARK VINA RESULT:     -12.7      0.000      0.000
REMARK SMILES CCc1nn2c(nnc3c(=O)n([C@H](C(=O)NCCCCNC(=O)c4ccc(-c5c6nc(c(-c7ccccc7)c7ccc([nH]7)c(-c7ccccc7)c7nc(c(-c8ccccc8)c8ccc5[nH]8)C=C7)C=C6)cc4)C(C)C)ccc32)c1-c1ccc(Cl)cc1
REMARK SMILES IDX 18 1 17 2 16 3 14 4 15 5 13 7 12 8 3 9 4 10 78 11 5 12 6 13
REMARK SMILES IDX 77 14 7 15 9 16 76 17 8 18 10 19 75 20 11 21 2 22 1 23 79 24
REMARK SMILES IDX 80 25 85 26 81 27 84 28 82 29 83 30 72 31 73 32 74 33 19 34
REMARK SMILES IDX 20 35 21 36 22 37 23 39 24 40 25 41 71 42 26 43 70 44 27 45
REMARK SMILES IDX 28 46 29 47 64 48 30 49 69 50 63 51 65 52 31 53 68 54 62 55
REMARK SMILES IDX 61 56 32 58 54 59 39 60 53 61 40 62 43 63 52 64 66 65 41 66
REMARK SMILES IDX 42 67 51 69 67 70 44 71 33 72 34 73 38 74 35 75 37 76 36 77
REMARK SMILES IDX 55 78 56 79 60 80 57 81 59 82 58 83 45 84 46 85 50 86 47 87
REMARK SMILES IDX 49 88 48 89
REMARK H PARENT 16 6 21 38 65 57 43 68
REMARK Flexibility Score: inf
ROOT
ATOM      1  C   UNL A   1      32.668  30.664  26.369  1.00  0.00     0.023 C 
ENDROOT
BRANCH   1   2
ATOM      2  C   UNL A   1      32.385  29.380  25.581  1.00  0.00     0.116 C 
BRANCH   2   3
ATOM      3  N   UNL A   1      32.899  29.461  24.231  1.00  0.00    -0.354 N 
ATOM      4  C   UNL A   1      32.755  28.594  23.184  1.00  0.00     0.243 C 
ATOM      5  O   UNL A   1      33.500  28.775  22.219  1.00  0.00    -0.273 OA
ATOM      6  H   UNL A   1      33.435  30.263  24.036  1.00  0.00     0.163 HD
BRANCH   4   7
ATOM      7  C   UNL A   1      31.688  27.461  23.248  1.00  0.00     0.182 C 
BRANCH   7   8
ATOM      8  N   UNL A   1      32.365  26.175  23.590  1.00  0.00    -0.301 N 
ATOM      9  C   UNL A   1      35.574  20.931  25.054  1.00  0.00     0.073 A 
ATOM     10  N   UNL A   1      35.531  22.267  24.925  1.00  0.00    -0.170 NA
ATOM     11  C   UNL A   1      34.320  20.338  24.768  1.00  0.00     0.052 A 
ATOM     12  N   UNL A   1      34.259  22.542  24.507  1.00  0.00    -0.210 N 
ATOM     13  C   UNL A   1      33.504  21.381  24.394  1.00  0.00     0.186 A 
ATOM     14  C   UNL A   1      33.666  23.769  24.185  1.00  0.00     0.102 A 
ATOM     15  N   UNL A   1      32.208  21.430  23.976  1.00  0.00    -0.129 NA
ATOM     16  C   UNL A   1      32.396  23.710  23.741  1.00  0.00     0.177 A 
ATOM     17  C   UNL A   1      34.337  25.046  24.311  1.00  0.00     0.049 A 
ATOM     18  N   UNL A   1      31.692  22.525  23.641  1.00  0.00    -0.141 NA
ATOM     19  C   UNL A   1      31.697  24.970  23.325  1.00  0.00     0.281 A 
ATOM     20  C   UNL A   1      33.680  26.183  24.040  1.00  0.00     0.092 A 
ATOM     21  O   UNL A   1      30.589  24.904  22.800  1.00  0.00    -0.267 OA
BRANCH   9  22
ATOM     22  C   UNL A   1      36.826  20.189  25.420  1.00  0.00     0.055 C 
ATOM     23  C   UNL A   1      38.133  20.828  24.982  1.00  0.00     0.011 C 
ENDBRANCH   9  22
BRANCH  11  24
ATOM     24  C   UNL A   1      33.869  18.964  24.798  1.00  0.00    -0.013 A 
ATOM     25  C   UNL A   1      34.440  18.019  23.938  1.00  0.00     0.010 A 
ATOM     26  C   UNL A   1      32.912  18.560  25.737  1.00  0.00     0.010 A 
ATOM     27  C   UNL A   1      34.068  16.674  24.029  1.00  0.00     0.021 A 
ATOM     28  C   UNL A   1      32.538  17.217  25.825  1.00  0.00     0.021 A 
ATOM     29  C   UNL A   1      33.123  16.279  24.976  1.00  0.00     0.041 A 
ATOM     30  Cl  UNL A   1      32.685  14.621  25.106  1.00  0.00    -0.084 Cl
ENDBRANCH  11  24
ENDBRANCH   7   8
BRANCH   7  31
ATOM     31  C   UNL A   1      30.491  27.789  24.186  1.00  0.00     0.015 C 
ATOM     32  C   UNL A   1      29.163  27.879  23.416  1.00  0.00     0.010 C 
ATOM     33  C   UNL A   1      30.329  26.717  25.274  1.00  0.00     0.010 C 
ENDBRANCH   7  31
ENDBRANCH   4   7
ENDBRANCH   2   3
ENDBRANCH   1   2
BRANCH   1  34
ATOM     34  C   UNL A   1      33.692  30.546  27.510  1.00  0.00     0.023 C 
BRANCH  34  35
ATOM     35  C   UNL A   1      34.693  31.689  27.590  1.00  0.00     0.116 C 
BRANCH  35  36
ATOM     36  N   UNL A   1      34.638  32.402  28.862  1.00  0.00    -0.352 N 
ATOM     37  C   UNL A   1      35.274  32.084  30.047  1.00  0.00     0.251 C 
ATOM     38  H   UNL A   1      34.079  33.212  28.878  1.00  0.00     0.163 HD
ATOM     39  O   UNL A   1      34.863  32.516  31.113  1.00  0.00    -0.269 OA
BRANCH  37  40
ATOM     40  C   UNL A   1      36.471  31.221  30.008  1.00  0.00     0.039 A 
ATOM     41  C   UNL A   1      37.752  31.773  29.925  1.00  0.00     0.014 A 
ATOM     42  C   UNL A   1      36.294  29.840  30.032  1.00  0.00     0.014 A 
ATOM     43  C   UNL A   1      38.850  30.917  29.922  1.00  0.00     0.010 A 
ATOM     44  C   UNL A   1      37.374  29.005  30.175  1.00  0.00     0.010 A 
ATOM     45  C   UNL A   1      38.651  29.533  30.058  1.00  0.00    -0.014 A 
BRANCH  45  46
ATOM     46  C   UNL A   1      39.784  28.624  30.135  1.00  0.00     0.031 A 
ATOM     47  C   UNL A   1      40.375  28.471  31.486  1.00  0.00     0.074 A 
ATOM     48  C   UNL A   1      40.203  27.856  29.110  1.00  0.00     0.049 A 
ATOM     49  N   UNL A   1      41.501  28.950  31.894  1.00  0.00    -0.248 NA
ATOM     50  C   UNL A   1      39.582  27.811  32.533  1.00  0.00     0.031 C 
ATOM     51  C   UNL A   1      39.592  27.648  27.791  1.00  0.00     0.029 A 
ATOM     52  N   UNL A   1      41.271  27.017  29.078  1.00  0.00    -0.354 N 
ATOM     53  C   UNL A   1      41.656  28.507  33.201  1.00  0.00     0.074 A 
ATOM     54  C   UNL A   1      40.390  27.935  33.590  1.00  0.00     0.031 C 
ATOM     55  C   UNL A   1      40.177  26.590  27.180  1.00  0.00     0.029 A 
ATOM     56  C   UNL A   1      41.315  26.175  27.975  1.00  0.00     0.049 A 
ATOM     57  H   UNL A   1      41.958  27.006  29.783  1.00  0.00     0.167 HD
ATOM     58  C   UNL A   1      42.880  28.447  33.790  1.00  0.00     0.031 A 
ATOM     59  C   UNL A   1      42.238  25.211  27.745  1.00  0.00     0.031 A 
ATOM     60  C   UNL A   1      43.874  29.179  33.049  1.00  0.00     0.049 A 
ATOM     61  C   UNL A   1      43.443  25.583  28.523  1.00  0.00     0.074 A 
ATOM     62  C   UNL A   1      44.033  30.500  32.680  1.00  0.00     0.029 A 
ATOM     63  N   UNL A   1      44.690  28.454  32.213  1.00  0.00    -0.354 N 
ATOM     64  N   UNL A   1      44.162  26.639  28.271  1.00  0.00    -0.248 NA
ATOM     65  C   UNL A   1      43.608  25.011  29.849  1.00  0.00     0.031 C 
ATOM     66  C   UNL A   1      44.540  30.449  31.346  1.00  0.00     0.029 A 
ATOM     67  C   UNL A   1      44.721  29.106  31.006  1.00  0.00     0.049 A 
ATOM     68  H   UNL A   1      45.165  27.622  32.439  1.00  0.00     0.167 HD
ATOM     69  C   UNL A   1      44.534  27.116  29.518  1.00  0.00     0.074 A 
ATOM     70  C   UNL A   1      44.255  26.018  30.442  1.00  0.00     0.031 C 
ATOM     71  C   UNL A   1      44.777  28.443  29.722  1.00  0.00     0.031 A 
BRANCH  58  72
ATOM     72  C   UNL A   1      43.248  27.412  34.814  1.00  0.00    -0.014 A 
ATOM     73  C   UNL A   1      43.566  26.110  34.396  1.00  0.00     0.009 A 
ATOM     74  C   UNL A   1      43.033  27.609  36.193  1.00  0.00     0.009 A 
ATOM     75  C   UNL A   1      43.633  25.052  35.313  1.00  0.00     0.001 A 
ATOM     76  C   UNL A   1      43.137  26.565  37.112  1.00  0.00     0.001 A 
ATOM     77  C   UNL A   1      43.417  25.280  36.669  1.00  0.00     0.000 A 
ENDBRANCH  58  72
BRANCH  59  78
ATOM     78  C   UNL A   1      42.052  23.851  27.195  1.00  0.00    -0.014 A 
ATOM     79  C   UNL A   1      43.117  23.214  26.533  1.00  0.00     0.009 A 
ATOM     80  C   UNL A   1      40.962  23.059  27.595  1.00  0.00     0.009 A 
ATOM     81  C   UNL A   1      43.127  21.825  26.354  1.00  0.00     0.001 A 
ATOM     82  C   UNL A   1      40.969  21.671  27.408  1.00  0.00     0.001 A 
ATOM     83  C   UNL A   1      42.063  21.052  26.810  1.00  0.00     0.000 A 
ENDBRANCH  59  78
BRANCH  71  84
ATOM     84  C   UNL A   1      44.852  29.342  28.511  1.00  0.00    -0.014 A 
ATOM     85  C   UNL A   1      43.719  29.948  27.937  1.00  0.00     0.009 A 
ATOM     86  C   UNL A   1      46.118  29.728  28.051  1.00  0.00     0.009 A 
ATOM     87  C   UNL A   1      43.856  30.910  26.929  1.00  0.00     0.001 A 
ATOM     88  C   UNL A   1      46.255  30.699  27.057  1.00  0.00     0.001 A 
ATOM     89  C   UNL A   1      45.126  31.291  26.497  1.00  0.00     0.000 A 
ENDBRANCH  71  84
ENDBRANCH  45  46
ENDBRANCH  37  40
ENDBRANCH  35  36
ENDBRANCH  34  35
ENDBRANCH   1  34
TORSDOF 15
ENDMDL
MODEL 2
REMARK VINA RESULT:     -12.6      3.829      9.113
REMARK SMILES CCc1nn2c(nnc3c(=O)n([C@H](C(=O)NCCCCNC(=O)c4ccc(-c5c6nc(c(-c7ccccc7)c7ccc([nH]7)c(-c7ccccc7)c7nc(c(-c8ccccc8)c8ccc5[nH]8)C=C7)C=C6)cc4)C(C)C)ccc32)c1-c1ccc(Cl)cc1
REMARK SMILES IDX 18 1 17 2 16 3 14 4 15 5 13 7 12 8 3 9 4 10 78 11 5 12 6 13
REMARK SMILES IDX 77 14 7 15 9 16 76 17 8 18 10 19 75 20 11 21 2 22 1 23 79 24
REMARK SMILES IDX 80 25 85 26 81 27 84 28 82 29 83 30 72 31 73 32 74 33 19 34
REMARK SMILES IDX 20 35 21 36 22 37 23 39 24 40 25 41 71 42 26 43 70 44 27 45
REMARK SMILES IDX 28 46 29 47 64 48 30 49 69 50 63 51 65 52 31 53 68 54 62 55
REMARK SMILES IDX 61 56 32 58 54 59 39 60 53 61 40 62 43 63 52 64 66 65 41 66
REMARK SMILES IDX 42 67 51 69 67 70 44 71 33 72 34 73 38 74 35 75 37 76 36 77
REMARK SMILES IDX 55 78 56 79 60 80 57 81 59 82 58 83 45 84 46 85 50 86 47 87
REMARK SMILES IDX 49 88 48 89
REMARK H PARENT 16 6 21 38 65 57 43 68
REMARK Flexibility Score: inf
ROOT
ATOM      1  C   UNL A   1      45.346  26.191  25.948  1.00  0.00     0.023 C 
ENDROOT
BRANCH   1   2
ATOM      2  C   UNL A   1      43.843  25.901  25.857  1.00  0.00     0.116 C 
BRANCH   2   3
ATOM      3  N   UNL A   1      43.575  24.729  25.052  1.00  0.00    -0.354 N 
ATOM      4  C   UNL A   1      42.996  23.540  25.398  1.00  0.00     0.243 C 
ATOM      5  O   UNL A   1      43.114  22.620  24.587  1.00  0.00    -0.273 OA
ATOM      6  H   UNL A   1      43.853  24.798  24.110  1.00  0.00     0.163 HD
BRANCH   4   7
ATOM      7  C   UNL A   1      42.230  23.408  26.748  1.00  0.00     0.182 C 
BRANCH   7   8
ATOM      8  N   UNL A   1      40.819  23.007  26.467  1.00  0.00    -0.301 N 
ATOM      9  C   UNL A   1      34.986  20.967  25.141  1.00  0.00     0.073 A 
ATOM     10  N   UNL A   1      36.300  20.722  25.266  1.00  0.00    -0.170 NA
ATOM     11  C   UNL A   1      34.669  22.305  25.484  1.00  0.00     0.052 A 
ATOM     12  N   UNL A   1      36.849  21.916  25.644  1.00  0.00    -0.210 N 
ATOM     13  C   UNL A   1      35.875  22.899  25.774  1.00  0.00     0.186 A 
ATOM     14  C   UNL A   1      38.187  22.251  25.887  1.00  0.00     0.102 A 
ATOM     15  N   UNL A   1      36.212  24.170  26.129  1.00  0.00    -0.129 NA
ATOM     16  C   UNL A   1      38.423  23.542  26.190  1.00  0.00     0.177 A 
ATOM     17  C   UNL A   1      39.279  21.302  25.832  1.00  0.00     0.049 A 
ATOM     18  N   UNL A   1      37.417  24.482  26.299  1.00  0.00    -0.141 NA
ATOM     19  C   UNL A   1      39.833  24.004  26.417  1.00  0.00     0.281 A 
ATOM     20  C   UNL A   1      40.525  21.689  26.137  1.00  0.00     0.092 A 
ATOM     21  O   UNL A   1      40.063  25.201  26.565  1.00  0.00    -0.267 OA
BRANCH   9  22
ATOM     22  C   UNL A   1      34.009  19.936  24.658  1.00  0.00     0.055 C 
ATOM     23  C   UNL A   1      33.225  19.202  25.732  1.00  0.00     0.011 C 
ENDBRANCH   9  22
BRANCH  11  24
ATOM     24  C   UNL A   1      33.412  23.019  25.535  1.00  0.00    -0.013 A 
ATOM     25  C   UNL A   1      32.652  23.018  26.710  1.00  0.00     0.010 A 
ATOM     26  C   UNL A   1      32.987  23.771  24.434  1.00  0.00     0.010 A 
ATOM     27  C   UNL A   1      31.484  23.781  26.788  1.00  0.00     0.021 A 
ATOM     28  C   UNL A   1      31.817  24.530  24.511  1.00  0.00     0.021 A 
ATOM     29  C   UNL A   1      31.074  24.538  25.690  1.00  0.00     0.041 A 
ATOM     30  Cl  UNL A   1      29.651  25.497  25.795  1.00  0.00    -0.084 Cl
ENDBRANCH  11  24
ENDBRANCH   7   8
BRANCH   7  31
ATOM     31  C   UNL A   1      42.937  22.476  27.773  1.00  0.00     0.015 C 
ATOM     32  C   UNL A   1      44.467  22.510  27.623  1.00  0.00     0.010 C 
ATOM     33  C   UNL A   1      42.599  22.881  29.215  1.00  0.00     0.010 C 
ENDBRANCH   7  31
ENDBRANCH   4   7
ENDBRANCH   2   3
ENDBRANCH   1   2
BRANCH   1  34
ATOM     34  C   UNL A   1      46.162  25.250  26.848  1.00  0.00     0.023 C 
BRANCH  34  35
ATOM     35  C   UNL A   1      46.580  25.847  28.184  1.00  0.00     0.116 C 
BRANCH  35  36
ATOM     36  N   UNL A   1      46.115  25.065  29.325  1.00  0.00    -0.352 N 
ATOM     37  C   UNL A   1      45.265  25.457  30.340  1.00  0.00     0.251 C 
ATOM     38  H   UNL A   1      46.449  24.140  29.376  1.00  0.00     0.163 HD
ATOM     39  O   UNL A   1      45.256  24.869  31.410  1.00  0.00    -0.269 OA
BRANCH  37  40
ATOM     40  C   UNL A   1      44.355  26.596  30.112  1.00  0.00     0.039 A 
ATOM     41  C   UNL A   1      43.286  26.494  29.218  1.00  0.00     0.014 A 
ATOM     42  C   UNL A   1      44.600  27.788  30.790  1.00  0.00     0.014 A 
ATOM     43  C   UNL A   1      42.438  27.587  29.060  1.00  0.00     0.010 A 
ATOM     44  C   UNL A   1      43.686  28.811  30.747  1.00  0.00     0.010 A 
ATOM     45  C   UNL A   1      42.640  28.740  29.838  1.00  0.00    -0.014 A 
BRANCH  45  46
ATOM     46  C   UNL A   1      41.724  29.865  29.749  1.00  0.00     0.031 A 
ATOM     47  C   UNL A   1      42.367  31.183  29.531  1.00  0.00     0.074 A 
ATOM     48  C   UNL A   1      40.382  29.742  29.722  1.00  0.00     0.049 A 
ATOM     49  N   UNL A   1      42.497  32.131  30.395  1.00  0.00    -0.248 NA
ATOM     50  C   UNL A   1      43.040  31.436  28.249  1.00  0.00     0.031 C 
ATOM     51  C   UNL A   1      39.559  28.528  29.642  1.00  0.00     0.029 A 
ATOM     52  N   UNL A   1      39.454  30.733  29.686  1.00  0.00    -0.354 N 
ATOM     53  C   UNL A   1      43.111  33.181  29.726  1.00  0.00     0.074 A 
ATOM     54  C   UNL A   1      43.551  32.653  28.457  1.00  0.00     0.031 C 
ATOM     55  C   UNL A   1      38.280  28.865  29.354  1.00  0.00     0.029 A 
ATOM     56  C   UNL A   1      38.160  30.308  29.417  1.00  0.00     0.049 A 
ATOM     57  H   UNL A   1      39.682  31.679  29.836  1.00  0.00     0.167 HD
ATOM     58  C   UNL A   1      43.018  34.461  30.175  1.00  0.00     0.031 A 
ATOM     59  C   UNL A   1      37.074  31.103  29.267  1.00  0.00     0.031 A 
ATOM     60  C   UNL A   1      42.527  34.526  31.527  1.00  0.00     0.049 A 
ATOM     61  C   UNL A   1      37.375  32.369  29.976  1.00  0.00     0.074 A 
ATOM     62  C   UNL A   1      42.970  34.051  32.745  1.00  0.00     0.029 A 
ATOM     63  N   UNL A   1      41.190  34.800  31.694  1.00  0.00    -0.354 N 
ATOM     64  N   UNL A   1      37.529  32.449  31.267  1.00  0.00    -0.248 NA
ATOM     65  C   UNL A   1      37.923  33.473  29.208  1.00  0.00     0.031 C 
ATOM     66  C   UNL A   1      41.791  33.603  33.414  1.00  0.00     0.029 A 
ATOM     67  C   UNL A   1      40.697  33.891  32.595  1.00  0.00     0.049 A 
ATOM     68  H   UNL A   1      40.681  35.516  31.249  1.00  0.00     0.167 HD
ATOM     69  C   UNL A   1      38.550  33.369  31.442  1.00  0.00     0.074 A 
ATOM     70  C   UNL A   1      38.680  34.041  30.151  1.00  0.00     0.031 C 
ATOM     71  C   UNL A   1      39.373  33.312  32.529  1.00  0.00     0.031 A 
BRANCH  58  72
ATOM     72  C   UNL A   1      43.003  35.652  29.261  1.00  0.00    -0.014 A 
ATOM     73  C   UNL A   1      41.947  35.808  28.348  1.00  0.00     0.009 A 
ATOM     74  C   UNL A   1      44.128  36.482  29.088  1.00  0.00     0.009 A 
ATOM     75  C   UNL A   1      42.032  36.728  27.295  1.00  0.00     0.001 A 
ATOM     76  C   UNL A   1      44.199  37.426  28.063  1.00  0.00     0.001 A 
ATOM     77  C   UNL A   1      43.158  37.535  27.153  1.00  0.00     0.000 A 
ENDBRANCH  58  72
BRANCH  59  78
ATOM     78  C   UNL A   1      35.963  30.995  28.298  1.00  0.00    -0.014 A 
ATOM     79  C   UNL A   1      35.736  29.778  27.630  1.00  0.00     0.009 A 
ATOM     80  C   UNL A   1      34.941  31.958  28.269  1.00  0.00     0.009 A 
ATOM     81  C   UNL A   1      34.501  29.504  27.028  1.00  0.00     0.001 A 
ATOM     82  C   UNL A   1      33.709  31.688  27.659  1.00  0.00     0.001 A 
ATOM     83  C   UNL A   1      33.481  30.451  27.061  1.00  0.00     0.000 A 
ENDBRANCH  59  78
BRANCH  71  84
ATOM     84  C   UNL A   1      39.003  32.365  33.646  1.00  0.00    -0.014 A 
ATOM     85  C   UNL A   1      39.421  31.022  33.680  1.00  0.00     0.009 A 
ATOM     86  C   UNL A   1      38.369  32.894  34.778  1.00  0.00     0.009 A 
ATOM     87  C   UNL A   1      39.205  30.234  34.817  1.00  0.00     0.001 A 
ATOM     88  C   UNL A   1      38.167  32.112  35.917  1.00  0.00     0.001 A 
ATOM     89  C   UNL A   1      38.585  30.784  35.939  1.00  0.00     0.000 A 
ENDBRANCH  71  84
ENDBRANCH  45  46
ENDBRANCH  37  40
ENDBRANCH  35  36
ENDBRANCH  34  35
ENDBRANCH   1  34
TORSDOF 15
ENDMDL
MODEL 3
REMARK VINA RESULT:     -12.6      3.507      9.119
REMARK SMILES CCc1nn2c(nnc3c(=O)n([C@H](C(=O)NCCCCNC(=O)c4ccc(-c5c6nc(c(-c7ccccc7)c7ccc([nH]7)c(-c7ccccc7)c7nc(c(-c8ccccc8)c8ccc5[nH]8)C=C7)C=C6)cc4)C(C)C)ccc32)c1-c1ccc(Cl)cc1
REMARK SMILES IDX 18 1 17 2 16 3 14 4 15 5 13 7 12 8 3 9 4 10 78 11 5 12 6 13
REMARK SMILES IDX 77 14 7 15 9 16 76 17 8 18 10 19 75 20 11 21 2 22 1 23 79 24
REMARK SMILES IDX 80 25 85 26 81 27 84 28 82 29 83 30 72 31 73 32 74 33 19 34
REMARK SMILES IDX 20 35 21 36 22 37 23 39 24 40 25 41 71 42 26 43 70 44 27 45
REMARK SMILES IDX 28 46 29 47 64 48 30 49 69 50 63 51 65 52 31 53 68 54 62 55
REMARK SMILES IDX 61 56 32 58 54 59 39 60 53 61 40 62 43 63 52 64 66 65 41 66
REMARK SMILES IDX 42 67 51 69 67 70 44 71 33 72 34 73 38 74 35 75 37 76 36 77
REMARK SMILES IDX 55 78 56 79 60 80 57 81 59 82 58 83 45 84 46 85 50 86 47 87
REMARK SMILES IDX 49 88 48 89
REMARK H PARENT 16 6 21 38 65 57 43 68
REMARK Flexibility Score: inf
ROOT
ATOM      1  C   UNL A   1      35.334  22.039  24.904  1.00  0.00     0.023 C 
ENDROOT
BRANCH   1   2
ATOM      2  C   UNL A   1      34.051  22.824  24.605  1.00  0.00     0.116 C 
BRANCH   2   3
ATOM      3  N   UNL A   1      33.081  22.680  25.668  1.00  0.00    -0.354 N 
ATOM      4  C   UNL A   1      32.113  23.546  26.097  1.00  0.00     0.243 C 
ATOM      5  O   UNL A   1      31.587  23.283  27.179  1.00  0.00    -0.273 OA
ATOM      6  H   UNL A   1      33.123  21.827  26.158  1.00  0.00     0.163 HD
BRANCH   4   7
ATOM      7  C   UNL A   1      31.724  24.777  25.225  1.00  0.00     0.182 C 
BRANCH   7   8
ATOM      8  N   UNL A   1      32.469  25.974  25.717  1.00  0.00    -0.301 N 
ATOM      9  C   UNL A   1      35.952  30.829  27.775  1.00  0.00     0.073 A 
ATOM     10  N   UNL A   1      35.877  29.603  27.233  1.00  0.00    -0.170 NA
ATOM     11  C   UNL A   1      34.667  31.384  27.994  1.00  0.00     0.052 A 
ATOM     12  N   UNL A   1      34.538  29.336  27.144  1.00  0.00    -0.210 N 
ATOM     13  C   UNL A   1      33.781  30.403  27.611  1.00  0.00     0.186 A 
ATOM     14  C   UNL A   1      33.881  28.189  26.684  1.00  0.00     0.102 A 
ATOM     15  N   UNL A   1      32.420  30.339  27.625  1.00  0.00    -0.129 NA
ATOM     16  C   UNL A   1      32.538  28.204  26.777  1.00  0.00     0.177 A 
ATOM     17  C   UNL A   1      34.562  27.037  26.130  1.00  0.00     0.049 A 
ATOM     18  N   UNL A   1      31.832  29.291  27.257  1.00  0.00    -0.141 NA
ATOM     19  C   UNL A   1      31.752  26.998  26.354  1.00  0.00     0.281 A 
ATOM     20  C   UNL A   1      33.857  26.001  25.654  1.00  0.00     0.092 A 
ATOM     21  O   UNL A   1      30.542  26.960  26.559  1.00  0.00    -0.267 OA
BRANCH   9  22
ATOM     22  C   UNL A   1      37.256  31.484  28.126  1.00  0.00     0.055 C 
ATOM     23  C   UNL A   1      38.303  30.587  28.765  1.00  0.00     0.011 C 
ENDBRANCH   9  22
BRANCH  11  24
ATOM     24  C   UNL A   1      34.241  32.663  28.516  1.00  0.00    -0.013 A 
ATOM     25  C   UNL A   1      33.387  33.479  27.766  1.00  0.00     0.010 A 
ATOM     26  C   UNL A   1      34.626  33.059  29.803  1.00  0.00     0.010 A 
ATOM     27  C   UNL A   1      32.904  34.673  28.308  1.00  0.00     0.021 A 
ATOM     28  C   UNL A   1      34.147  34.255  30.342  1.00  0.00     0.021 A 
ATOM     29  C   UNL A   1      33.282  35.053  29.596  1.00  0.00     0.041 A 
ATOM     30  Cl  UNL A   1      32.668  36.510  30.273  1.00  0.00    -0.084 Cl
ENDBRANCH  11  24
ENDBRANCH   7   8
BRANCH   7  31
ATOM     31  C   UNL A   1      31.898  24.535  23.698  1.00  0.00     0.015 C 
ATOM     32  C   UNL A   1      30.772  23.660  23.122  1.00  0.00     0.010 C 
ATOM     33  C   UNL A   1      31.903  25.861  22.923  1.00  0.00     0.010 C 
ENDBRANCH   7  31
ENDBRANCH   4   7
ENDBRANCH   2   3
ENDBRANCH   1   2
BRANCH   1  34
ATOM     34  C   UNL A   1      36.612  22.544  24.215  1.00  0.00     0.023 C 
BRANCH  34  35
ATOM     35  C   UNL A   1      37.637  23.169  25.150  1.00  0.00     0.116 C 
BRANCH  35  36
ATOM     36  N   UNL A   1      38.495  22.179  25.792  1.00  0.00    -0.352 N 
ATOM     37  C   UNL A   1      39.648  22.394  26.523  1.00  0.00     0.251 C 
ATOM     38  H   UNL A   1      38.218  21.239  25.692  1.00  0.00     0.163 HD
ATOM     39  O   UNL A   1      40.466  21.501  26.677  1.00  0.00    -0.269 OA
BRANCH  37  40
ATOM     40  C   UNL A   1      39.874  23.720  27.130  1.00  0.00     0.039 A 
ATOM     41  C   UNL A   1      38.813  24.605  27.338  1.00  0.00     0.014 A 
ATOM     42  C   UNL A   1      41.176  24.082  27.469  1.00  0.00     0.014 A 
ATOM     43  C   UNL A   1      39.074  25.833  27.942  1.00  0.00     0.010 A 
ATOM     44  C   UNL A   1      41.411  25.224  28.192  1.00  0.00     0.010 A 
ATOM     45  C   UNL A   1      40.376  26.129  28.375  1.00  0.00    -0.014 A 
BRANCH  45  46
ATOM     46  C   UNL A   1      40.661  27.370  29.077  1.00  0.00     0.031 A 
ATOM     47  C   UNL A   1      41.542  28.316  28.350  1.00  0.00     0.074 A 
ATOM     48  C   UNL A   1      40.075  27.730  30.237  1.00  0.00     0.049 A 
ATOM     49  N   UNL A   1      42.774  28.584  28.619  1.00  0.00    -0.248 NA
ATOM     50  C   UNL A   1      41.038  28.949  27.124  1.00  0.00     0.031 C 
ATOM     51  C   UNL A   1      38.980  27.079  30.969  1.00  0.00     0.029 A 
ATOM     52  N   UNL A   1      40.310  28.842  30.981  1.00  0.00    -0.354 N 
ATOM     53  C   UNL A   1      43.164  29.556  27.709  1.00  0.00     0.074 A 
ATOM     54  C   UNL A   1      42.110  29.640  26.727  1.00  0.00     0.031 C 
ATOM     55  C   UNL A   1      38.511  27.916  31.925  1.00  0.00     0.029 A 
ATOM     56  C   UNL A   1      39.388  29.068  31.994  1.00  0.00     0.049 A 
ATOM     57  H   UNL A   1      41.073  29.440  30.814  1.00  0.00     0.167 HD
ATOM     58  C   UNL A   1      44.223  30.374  27.952  1.00  0.00     0.031 A 
ATOM     59  C   UNL A   1      39.366  30.135  32.829  1.00  0.00     0.031 A 
ATOM     60  C   UNL A   1      45.036  29.897  29.040  1.00  0.00     0.049 A 
ATOM     61  C   UNL A   1      40.744  30.677  32.857  1.00  0.00     0.074 A 
ATOM     62  C   UNL A   1      45.770  28.751  29.275  1.00  0.00     0.029 A 
ATOM     63  N   UNL A   1      44.830  30.470  30.273  1.00  0.00    -0.354 N 
ATOM     64  N   UNL A   1      41.760  30.031  33.355  1.00  0.00    -0.248 NA
ATOM     65  C   UNL A   1      41.073  31.766  31.953  1.00  0.00     0.031 C 
ATOM     66  C   UNL A   1      45.538  28.443  30.649  1.00  0.00     0.029 A 
ATOM     67  C   UNL A   1      44.733  29.451  31.186  1.00  0.00     0.049 A 
ATOM     68  H   UNL A   1      44.764  31.433  30.465  1.00  0.00     0.167 HD
ATOM     69  C   UNL A   1      42.816  30.335  32.510  1.00  0.00     0.074 A 
ATOM     70  C   UNL A   1      42.360  31.485  31.733  1.00  0.00     0.031 C 
ATOM     71  C   UNL A   1      43.850  29.462  32.332  1.00  0.00     0.031 A 
BRANCH  58  72
ATOM     72  C   UNL A   1      44.296  31.791  27.462  1.00  0.00    -0.014 A 
ATOM     73  C   UNL A   1      43.779  32.825  28.261  1.00  0.00     0.009 A 
ATOM     74  C   UNL A   1      44.614  32.110  26.127  1.00  0.00     0.009 A 
ATOM     75  C   UNL A   1      43.564  34.106  27.735  1.00  0.00     0.001 A 
ATOM     76  C   UNL A   1      44.436  33.395  25.613  1.00  0.00     0.001 A 
ATOM     77  C   UNL A   1      43.891  34.389  26.412  1.00  0.00     0.000 A 
ENDBRANCH  58  72
BRANCH  59  78
ATOM     78  C   UNL A   1      38.209  30.911  33.323  1.00  0.00    -0.014 A 
ATOM     79  C   UNL A   1      38.277  31.541  34.579  1.00  0.00     0.009 A 
ATOM     80  C   UNL A   1      37.183  31.305  32.447  1.00  0.00     0.009 A 
ATOM     81  C   UNL A   1      37.402  32.584  34.911  1.00  0.00     0.001 A 
ATOM     82  C   UNL A   1      36.304  32.342  32.783  1.00  0.00     0.001 A 
ATOM     83  C   UNL A   1      36.430  32.998  34.005  1.00  0.00     0.000 A 
ENDBRANCH  59  78
BRANCH  71  84
ATOM     84  C   UNL A   1      43.927  28.262  33.245  1.00  0.00    -0.014 A 
ATOM     85  C   UNL A   1      43.327  27.028  32.938  1.00  0.00     0.009 A 
ATOM     86  C   UNL A   1      44.780  28.331  34.355  1.00  0.00     0.009 A 
ATOM     87  C   UNL A   1      43.574  25.897  33.727  1.00  0.00     0.001 A 
ATOM     88  C   UNL A   1      45.039  27.200  35.131  1.00  0.00     0.001 A 
ATOM     89  C   UNL A   1      44.438  25.983  34.818  1.00  0.00     0.000 A 
ENDBRANCH  71  84
ENDBRANCH  45  46
ENDBRANCH  37  40
ENDBRANCH  35  36
ENDBRANCH  34  35
ENDBRANCH   1  34
TORSDOF 15
ENDMDL
