MODEL 1
REMARK VINA RESULT:     -11.9      0.000      0.000
REMARK SMILES CC1(C)CCSC[C@H]1[NH+]1CCC(OCCC(=O)NCCCCNC(=O)c2ccc(-c3c4nc(c(-c5ccccc5)c5ccc([nH]5)c(-c5ccccc5)c5nc(c(-c6ccccc6)c6ccc3[nH]6)C=C5)C=C4)cc2)CC1
REMARK SMILES IDX 19 1 18 2 16 3 17 4 15 6 14 7 13 8 12 9 9 10 10 11 75 12
REMARK SMILES IDX 11 14 74 15 8 16 1 17 2 18 3 19 4 20 5 21 7 22 6 23 20 24
REMARK SMILES IDX 21 25 22 26 23 27 24 28 25 30 26 31 27 32 73 33 28 34 72 35
REMARK SMILES IDX 29 36 30 37 31 38 66 39 32 40 71 41 65 42 67 43 33 44 70 45
REMARK SMILES IDX 64 46 63 47 34 49 56 50 41 51 55 52 42 53 45 54 54 55 68 56
REMARK SMILES IDX 43 57 44 58 53 60 69 61 46 62 35 63 36 64 40 65 37 66 39 67
REMARK SMILES IDX 38 68 57 69 58 70 62 71 59 72 61 73 60 74 47 75 48 76 52 77
REMARK SMILES IDX 49 78 51 79 50 80
REMARK H PARENT 18 5 9 13 23 29 67 48 45 59
REMARK Flexibility Score: inf
ROOT
ATOM      1  C   UNL A   1      32.034  29.605  25.003  1.00  0.00     0.116 C 
ENDROOT
BRANCH   1   2
ATOM      2  N   UNL A   1      30.517  30.026  23.769  1.00  0.00    -0.356 N 
ATOM      3  C   UNL A   1      29.134  30.155  23.502  1.00  0.00     0.222 C 
ATOM      4  O   UNL A   1      28.569  31.233  23.729  1.00  0.00    -0.275 OA
ATOM      5  H   UNL A   1      30.953  30.260  22.918  1.00  0.00     0.163 HD
BRANCH   3   6
ATOM      6  C   UNL A   1      28.257  29.076  22.931  1.00  0.00     0.128 C 
BRANCH   6   7
ATOM      7  C   UNL A   1      28.374  27.686  23.461  1.00  0.00     0.170 C 
BRANCH   7   8
ATOM      8  O   UNL A   1      29.718  27.255  23.501  1.00  0.00    -0.377 OA
BRANCH   8   9
ATOM      9  C   UNL A   1      29.916  26.071  24.285  1.00  0.00     0.129 C 
ATOM     10  N   UNL A   1      32.767  23.686  25.308  1.00  0.00    -0.331 N 
ATOM     11  C   UNL A   1      32.324  25.111  26.418  1.00  0.00     0.265 C 
ATOM     12  C   UNL A   1      31.685  23.246  23.893  1.00  0.00     0.265 C 
ATOM     13  H   UNL A   1      32.365  23.054  26.001  1.00  0.00     0.348 HD
ATOM     14  C   UNL A   1      30.957  26.434  25.913  1.00  0.00     0.093 C 
ATOM     15  C   UNL A   1      30.409  24.526  23.176  1.00  0.00     0.093 C 
BRANCH  10  16
ATOM     16  C   UNL A   1      34.160  23.141  25.300  1.00  0.00     0.199 C 
ATOM     17  C   UNL A   1      33.861  20.504  25.068  1.00  0.00     0.017 C 
ATOM     18  C   UNL A   1      34.478  21.666  25.870  1.00  0.00     0.018 C 
ATOM     19  C   UNL A   1      34.025  21.452  27.331  1.00  0.00     0.017 C 
ATOM     20  C   UNL A   1      36.020  21.437  25.894  1.00  0.00     0.023 C 
ATOM     21  C   UNL A   1      36.687  21.462  24.528  1.00  0.00     0.070 C 
ATOM     22  C   UNL A   1      34.795  23.360  23.899  1.00  0.00     0.135 C 
ATOM     23  S   UNL A   1      36.601  23.124  23.830  1.00  0.00    -0.156 SA
ENDBRANCH  10  16
ENDBRANCH   8   9
ENDBRANCH   7   8
ENDBRANCH   6   7
ENDBRANCH   3   6
ENDBRANCH   1   2
BRANCH   1  24
ATOM     24  C   UNL A   1      32.325  30.055  26.568  1.00  0.00     0.023 C 
BRANCH  24  25
ATOM     25  C   UNL A   1      31.892  31.502  26.863  1.00  0.00     0.023 C 
BRANCH  25  26
ATOM     26  C   UNL A   1      32.968  32.477  27.309  1.00  0.00     0.116 C 
BRANCH  26  27
ATOM     27  N   UNL A   1      32.481  33.815  27.600  1.00  0.00    -0.352 N 
ATOM     28  C   UNL A   1      33.023  34.712  28.509  1.00  0.00     0.251 C 
ATOM     29  H   UNL A   1      31.688  34.115  27.102  1.00  0.00     0.163 HD
ATOM     30  O   UNL A   1      32.528  35.795  28.726  1.00  0.00    -0.269 OA
BRANCH  28  31
ATOM     31  C   UNL A   1      34.225  34.263  29.246  1.00  0.00     0.039 A 
ATOM     32  C   UNL A   1      34.065  33.412  30.341  1.00  0.00     0.014 A 
ATOM     33  C   UNL A   1      35.489  34.525  28.711  1.00  0.00     0.014 A 
ATOM     34  C   UNL A   1      35.182  32.751  30.857  1.00  0.00     0.010 A 
ATOM     35  C   UNL A   1      36.581  33.804  29.176  1.00  0.00     0.010 A 
ATOM     36  C   UNL A   1      36.439  32.908  30.250  1.00  0.00    -0.014 A 
BRANCH  36  37
ATOM     37  C   UNL A   1      37.634  32.174  30.739  1.00  0.00     0.031 A 
ATOM     38  C   UNL A   1      38.382  32.706  31.929  1.00  0.00     0.074 A 
ATOM     39  C   UNL A   1      38.091  31.091  30.082  1.00  0.00     0.049 A 
ATOM     40  N   UNL A   1      39.508  32.294  32.451  1.00  0.00    -0.248 NA
ATOM     41  C   UNL A   1      37.807  33.887  32.594  1.00  0.00     0.031 C 
ATOM     42  C   UNL A   1      37.489  30.497  28.886  1.00  0.00     0.029 A 
ATOM     43  N   UNL A   1      39.186  30.299  30.328  1.00  0.00    -0.354 N 
ATOM     44  C   UNL A   1      39.795  33.189  33.473  1.00  0.00     0.074 A 
ATOM     45  C   UNL A   1      38.753  34.191  33.469  1.00  0.00     0.031 C 
ATOM     46  C   UNL A   1      38.204  29.418  28.524  1.00  0.00     0.029 A 
ATOM     47  C   UNL A   1      39.331  29.263  29.437  1.00  0.00     0.049 A 
ATOM     48  H   UNL A   1      39.808  30.458  31.074  1.00  0.00     0.167 HD
ATOM     49  C   UNL A   1      40.820  33.169  34.357  1.00  0.00     0.031 A 
ATOM     50  C   UNL A   1      40.268  28.296  29.368  1.00  0.00     0.031 A 
ATOM     51  C   UNL A   1      41.829  32.148  34.398  1.00  0.00     0.049 A 
ATOM     52  C   UNL A   1      41.370  28.265  30.391  1.00  0.00     0.074 A 
ATOM     53  C   UNL A   1      42.872  32.002  35.294  1.00  0.00     0.029 A 
ATOM     54  N   UNL A   1      41.908  31.088  33.509  1.00  0.00    -0.354 N 
ATOM     55  N   UNL A   1      41.597  29.089  31.386  1.00  0.00    -0.248 NA
ATOM     56  C   UNL A   1      42.338  27.163  30.289  1.00  0.00     0.031 C 
ATOM     57  C   UNL A   1      43.597  30.860  34.934  1.00  0.00     0.029 A 
ATOM     58  C   UNL A   1      42.982  30.282  33.836  1.00  0.00     0.049 A 
ATOM     59  H   UNL A   1      41.291  30.933  32.757  1.00  0.00     0.167 HD
ATOM     60  C   UNL A   1      42.712  28.588  32.045  1.00  0.00     0.074 A 
ATOM     61  C   UNL A   1      43.111  27.385  31.343  1.00  0.00     0.031 C 
ATOM     62  C   UNL A   1      43.349  29.079  33.135  1.00  0.00     0.031 A 
BRANCH  49  63
ATOM     63  C   UNL A   1      40.885  34.293  35.351  1.00  0.00    -0.014 A 
ATOM     64  C   UNL A   1      40.257  34.192  36.602  1.00  0.00     0.009 A 
ATOM     65  C   UNL A   1      41.577  35.471  35.028  1.00  0.00     0.009 A 
ATOM     66  C   UNL A   1      40.280  35.266  37.493  1.00  0.00     0.001 A 
ATOM     67  C   UNL A   1      41.624  36.532  35.933  1.00  0.00     0.001 A 
ATOM     68  C   UNL A   1      40.965  36.434  37.158  1.00  0.00     0.000 A 
ENDBRANCH  49  63
BRANCH  50  69
ATOM     69  C   UNL A   1      40.189  27.249  28.316  1.00  0.00    -0.014 A 
ATOM     70  C   UNL A   1      39.444  26.080  28.538  1.00  0.00     0.009 A 
ATOM     71  C   UNL A   1      40.868  27.401  27.099  1.00  0.00     0.009 A 
ATOM     72  C   UNL A   1      39.403  25.072  27.572  1.00  0.00     0.001 A 
ATOM     73  C   UNL A   1      40.806  26.400  26.124  1.00  0.00     0.001 A 
ATOM     74  C   UNL A   1      40.082  25.234  26.366  1.00  0.00     0.000 A 
ENDBRANCH  50  69
BRANCH  62  75
ATOM     75  C   UNL A   1      44.511  28.294  33.668  1.00  0.00    -0.014 A 
ATOM     76  C   UNL A   1      45.823  28.572  33.259  1.00  0.00     0.009 A 
ATOM     77  C   UNL A   1      44.290  27.305  34.639  1.00  0.00     0.009 A 
ATOM     78  C   UNL A   1      46.894  27.856  33.801  1.00  0.00     0.001 A 
ATOM     79  C   UNL A   1      45.363  26.609  35.194  1.00  0.00     0.001 A 
ATOM     80  C   UNL A   1      46.663  26.880  34.770  1.00  0.00     0.000 A 
ENDBRANCH  62  75
ENDBRANCH  36  37
ENDBRANCH  28  31
ENDBRANCH  26  27
ENDBRANCH  25  26
ENDBRANCH  24  25
ENDBRANCH   1  24
TORSDOF 15
ENDMDL
MODEL 2
REMARK VINA RESULT:     -11.6      1.306      6.093
REMARK SMILES CC1(C)CCSC[C@H]1[NH+]1CCC(OCCC(=O)NCCCCNC(=O)c2ccc(-c3c4nc(c(-c5ccccc5)c5ccc([nH]5)c(-c5ccccc5)c5nc(c(-c6ccccc6)c6ccc3[nH]6)C=C5)C=C4)cc2)CC1
REMARK SMILES IDX 19 1 18 2 16 3 17 4 15 6 14 7 13 8 12 9 9 10 10 11 75 12
REMARK SMILES IDX 11 14 74 15 8 16 1 17 2 18 3 19 4 20 5 21 7 22 6 23 20 24
REMARK SMILES IDX 21 25 22 26 23 27 24 28 25 30 26 31 27 32 73 33 28 34 72 35
REMARK SMILES IDX 29 36 30 37 31 38 66 39 32 40 71 41 65 42 67 43 33 44 70 45
REMARK SMILES IDX 64 46 63 47 34 49 56 50 41 51 55 52 42 53 45 54 54 55 68 56
REMARK SMILES IDX 43 57 44 58 53 60 69 61 46 62 35 63 36 64 40 65 37 66 39 67
REMARK SMILES IDX 38 68 57 69 58 70 62 71 59 72 61 73 60 74 47 75 48 76 52 77
REMARK SMILES IDX 49 78 51 79 50 80
REMARK H PARENT 18 5 9 13 23 29 67 48 45 59
REMARK Flexibility Score: inf
ROOT
ATOM      1  C   UNL A   1      32.709  29.164  24.283  1.00  0.00     0.116 C 
ENDROOT
BRANCH   1   2
ATOM      2  N   UNL A   1      31.020  29.486  23.259  1.00  0.00    -0.356 N 
ATOM      3  C   UNL A   1      29.613  29.612  23.196  1.00  0.00     0.222 C 
ATOM      4  O   UNL A   1      29.093  30.718  23.397  1.00  0.00    -0.275 OA
ATOM      5  H   UNL A   1      31.320  29.626  22.332  1.00  0.00     0.163 HD
BRANCH   3   6
ATOM      6  C   UNL A   1      28.656  28.498  22.879  1.00  0.00     0.128 C 
BRANCH   6   7
ATOM      7  C   UNL A   1      28.720  27.235  23.671  1.00  0.00     0.170 C 
BRANCH   7   8
ATOM      8  O   UNL A   1      30.022  26.995  24.163  1.00  0.00    -0.377 OA
BRANCH   8   9
ATOM      9  C   UNL A   1      30.196  25.675  24.697  1.00  0.00     0.129 C 
ATOM     10  N   UNL A   1      32.898  22.931  24.879  1.00  0.00    -0.331 N 
ATOM     11  C   UNL A   1      32.744  24.158  26.269  1.00  0.00     0.265 C 
ATOM     12  C   UNL A   1      31.608  22.843  23.578  1.00  0.00     0.265 C 
ATOM     13  H   UNL A   1      32.525  22.215  25.504  1.00  0.00     0.348 HD
ATOM     14  C   UNL A   1      31.465  25.652  26.198  1.00  0.00     0.093 C 
ATOM     15  C   UNL A   1      30.387  24.327  23.280  1.00  0.00     0.093 C 
BRANCH  10  16
ATOM     16  C   UNL A   1      34.217  22.292  24.581  1.00  0.00     0.199 C 
ATOM     17  C   UNL A   1      36.024  23.895  25.703  1.00  0.00     0.017 C 
ATOM     18  C   UNL A   1      35.554  23.180  24.422  1.00  0.00     0.018 C 
ATOM     19  C   UNL A   1      35.445  24.281  23.345  1.00  0.00     0.017 C 
ATOM     20  C   UNL A   1      36.729  22.273  23.947  1.00  0.00     0.023 C 
ATOM     21  C   UNL A   1      37.122  21.178  24.925  1.00  0.00     0.070 C 
ATOM     22  C   UNL A   1      34.441  21.091  25.541  1.00  0.00     0.135 C 
ATOM     23  S   UNL A   1      35.792  19.965  25.061  1.00  0.00    -0.156 SA
ENDBRANCH  10  16
ENDBRANCH   8   9
ENDBRANCH   7   8
ENDBRANCH   6   7
ENDBRANCH   3   6
ENDBRANCH   1   2
BRANCH   1  24
ATOM     24  C   UNL A   1      32.975  28.905  25.895  1.00  0.00     0.023 C 
BRANCH  24  25
ATOM     25  C   UNL A   1      32.359  29.998  26.785  1.00  0.00     0.023 C 
BRANCH  25  26
ATOM     26  C   UNL A   1      33.272  31.121  27.247  1.00  0.00     0.116 C 
BRANCH  26  27
ATOM     27  N   UNL A   1      32.605  32.400  27.429  1.00  0.00    -0.352 N 
ATOM     28  C   UNL A   1      33.094  33.494  28.125  1.00  0.00     0.251 C 
ATOM     29  H   UNL A   1      31.718  32.498  27.017  1.00  0.00     0.163 HD
ATOM     30  O   UNL A   1      32.454  34.511  28.269  1.00  0.00    -0.269 OA
BRANCH  28  31
ATOM     31  C   UNL A   1      34.436  33.349  28.732  1.00  0.00     0.039 A 
ATOM     32  C   UNL A   1      34.555  32.677  29.951  1.00  0.00     0.014 A 
ATOM     33  C   UNL A   1      35.564  33.693  27.982  1.00  0.00     0.014 A 
ATOM     34  C   UNL A   1      35.819  32.275  30.385  1.00  0.00     0.010 A 
ATOM     35  C   UNL A   1      36.807  33.220  28.379  1.00  0.00     0.010 A 
ATOM     36  C   UNL A   1      36.949  32.504  29.581  1.00  0.00    -0.014 A 
BRANCH  36  37
ATOM     37  C   UNL A   1      38.298  32.038  29.987  1.00  0.00     0.031 A 
ATOM     38  C   UNL A   1      38.810  30.728  29.455  1.00  0.00     0.074 A 
ATOM     39  C   UNL A   1      39.027  32.735  30.881  1.00  0.00     0.049 A 
ATOM     40  N   UNL A   1      39.903  30.079  29.764  1.00  0.00    -0.248 NA
ATOM     41  C   UNL A   1      37.956  30.038  28.474  1.00  0.00     0.031 C 
ATOM     42  C   UNL A   1      38.629  33.995  31.512  1.00  0.00     0.029 A 
ATOM     43  N   UNL A   1      40.261  32.469  31.422  1.00  0.00    -0.354 N 
ATOM     44  C   UNL A   1      39.843  28.889  29.051  1.00  0.00     0.074 A 
ATOM     45  C   UNL A   1      38.589  28.884  28.332  1.00  0.00     0.031 C 
ATOM     46  C   UNL A   1      39.614  34.407  32.329  1.00  0.00     0.029 A 
ATOM     47  C   UNL A   1      40.694  33.427  32.307  1.00  0.00     0.049 A 
ATOM     48  H   UNL A   1      40.785  31.667  31.197  1.00  0.00     0.167 HD
ATOM     49  C   UNL A   1      40.760  27.896  28.978  1.00  0.00     0.031 A 
ATOM     50  C   UNL A   1      41.837  33.505  33.017  1.00  0.00     0.031 A 
ATOM     51  C   UNL A   1      42.029  27.920  29.649  1.00  0.00     0.049 A 
ATOM     52  C   UNL A   1      42.864  32.414  32.882  1.00  0.00     0.074 A 
ATOM     53  C   UNL A   1      43.054  26.994  29.589  1.00  0.00     0.029 A 
ATOM     54  N   UNL A   1      42.449  28.934  30.494  1.00  0.00    -0.354 N 
ATOM     55  N   UNL A   1      42.816  31.320  32.161  1.00  0.00    -0.248 NA
ATOM     56  C   UNL A   1      44.107  32.575  33.649  1.00  0.00     0.031 C 
ATOM     57  C   UNL A   1      44.091  27.440  30.416  1.00  0.00     0.029 A 
ATOM     58  C   UNL A   1      43.721  28.658  30.961  1.00  0.00     0.049 A 
ATOM     59  H   UNL A   1      41.921  29.732  30.727  1.00  0.00     0.167 HD
ATOM     60  C   UNL A   1      44.032  30.680  32.362  1.00  0.00     0.074 A 
ATOM     61  C   UNL A   1      44.800  31.511  33.267  1.00  0.00     0.031 C 
ATOM     62  C   UNL A   1      44.474  29.509  31.845  1.00  0.00     0.031 A 
BRANCH  49  63
ATOM     63  C   UNL A   1      40.409  26.706  28.132  1.00  0.00    -0.014 A 
ATOM     64  C   UNL A   1      39.593  25.677  28.629  1.00  0.00     0.009 A 
ATOM     65  C   UNL A   1      40.907  26.608  26.824  1.00  0.00     0.009 A 
ATOM     66  C   UNL A   1      39.322  24.551  27.850  1.00  0.00     0.001 A 
ATOM     67  C   UNL A   1      40.610  25.495  26.036  1.00  0.00     0.001 A 
ATOM     68  C   UNL A   1      39.829  24.463  26.554  1.00  0.00     0.000 A 
ENDBRANCH  49  63
BRANCH  50  69
ATOM     69  C   UNL A   1      42.097  34.677  33.894  1.00  0.00    -0.014 A 
ATOM     70  C   UNL A   1      41.730  34.640  35.249  1.00  0.00     0.009 A 
ATOM     71  C   UNL A   1      42.693  35.839  33.383  1.00  0.00     0.009 A 
ATOM     72  C   UNL A   1      41.930  35.753  36.067  1.00  0.00     0.001 A 
ATOM     73  C   UNL A   1      42.912  36.944  34.210  1.00  0.00     0.001 A 
ATOM     74  C   UNL A   1      42.523  36.903  35.549  1.00  0.00     0.000 A 
ENDBRANCH  50  69
BRANCH  62  75
ATOM     75  C   UNL A   1      45.866  29.079  32.201  1.00  0.00    -0.014 A 
ATOM     76  C   UNL A   1      46.111  28.253  33.307  1.00  0.00     0.009 A 
ATOM     77  C   UNL A   1      46.938  29.457  31.377  1.00  0.00     0.009 A 
ATOM     78  C   UNL A   1      47.411  27.830  33.595  1.00  0.00     0.001 A 
ATOM     79  C   UNL A   1      48.231  29.015  31.655  1.00  0.00     0.001 A 
ATOM     80  C   UNL A   1      48.468  28.207  32.766  1.00  0.00     0.000 A 
ENDBRANCH  62  75
ENDBRANCH  36  37
ENDBRANCH  28  31
ENDBRANCH  26  27
ENDBRANCH  25  26
ENDBRANCH  24  25
ENDBRANCH   1  24
TORSDOF 15
ENDMDL
MODEL 3
REMARK VINA RESULT:     -11.5      6.059     10.988
REMARK SMILES CC1(C)CCSC[C@H]1[NH+]1CCC(OCCC(=O)NCCCCNC(=O)c2ccc(-c3c4nc(c(-c5ccccc5)c5ccc([nH]5)c(-c5ccccc5)c5nc(c(-c6ccccc6)c6ccc3[nH]6)C=C5)C=C4)cc2)CC1
REMARK SMILES IDX 19 1 18 2 16 3 17 4 15 6 14 7 13 8 12 9 9 10 10 11 75 12
REMARK SMILES IDX 11 14 74 15 8 16 1 17 2 18 3 19 4 20 5 21 7 22 6 23 20 24
REMARK SMILES IDX 21 25 22 26 23 27 24 28 25 30 26 31 27 32 73 33 28 34 72 35
REMARK SMILES IDX 29 36 30 37 31 38 66 39 32 40 71 41 65 42 67 43 33 44 70 45
REMARK SMILES IDX 64 46 63 47 34 49 56 50 41 51 55 52 42 53 45 54 54 55 68 56
REMARK SMILES IDX 43 57 44 58 53 60 69 61 46 62 35 63 36 64 40 65 37 66 39 67
REMARK SMILES IDX 38 68 57 69 58 70 62 71 59 72 61 73 60 74 47 75 48 76 52 77
REMARK SMILES IDX 49 78 51 79 50 80
REMARK H PARENT 18 5 9 13 23 29 67 48 45 59
REMARK Flexibility Score: inf
ROOT
ATOM      1  C   UNL A   1      40.064  22.125  26.712  1.00  0.00     0.116 C 
ENDROOT
BRANCH   1   2
ATOM      2  N   UNL A   1      38.579  21.907  25.389  1.00  0.00    -0.356 N 
ATOM      3  C   UNL A   1      37.241  22.115  24.981  1.00  0.00     0.222 C 
ATOM      4  O   UNL A   1      36.947  23.146  24.362  1.00  0.00    -0.275 OA
ATOM      5  H   UNL A   1      38.983  21.397  24.651  1.00  0.00     0.163 HD
BRANCH   3   6
ATOM      6  C   UNL A   1      36.104  21.161  25.218  1.00  0.00     0.128 C 
BRANCH   6   7
ATOM      7  C   UNL A   1      34.965  21.587  26.085  1.00  0.00     0.170 C 
BRANCH   7   8
ATOM      8  O   UNL A   1      33.869  20.704  25.975  1.00  0.00    -0.377 OA
BRANCH   8   9
ATOM      9  C   UNL A   1      32.620  21.370  25.744  1.00  0.00     0.129 C 
ATOM     10  N   UNL A   1      31.307  24.848  24.725  1.00  0.00    -0.331 N 
ATOM     11  C   UNL A   1      31.585  23.555  23.416  1.00  0.00     0.265 C 
ATOM     12  C   UNL A   1      31.380  24.395  26.501  1.00  0.00     0.265 C 
ATOM     13  H   UNL A   1      30.303  24.736  24.586  1.00  0.00     0.348 HD
ATOM     14  C   UNL A   1      32.356  21.796  23.843  1.00  0.00     0.093 C 
ATOM     15  C   UNL A   1      32.270  22.767  27.081  1.00  0.00     0.093 C 
BRANCH  10  16
ATOM     16  C   UNL A   1      31.412  26.301  24.384  1.00  0.00     0.199 C 
ATOM     17  C   UNL A   1      33.470  26.461  22.700  1.00  0.00     0.017 C 
ATOM     18  C   UNL A   1      32.833  26.965  24.009  1.00  0.00     0.018 C 
ATOM     19  C   UNL A   1      33.913  26.782  25.097  1.00  0.00     0.017 C 
ATOM     20  C   UNL A   1      32.666  28.509  23.871  1.00  0.00     0.023 C 
ATOM     21  C   UNL A   1      31.739  28.951  22.749  1.00  0.00     0.070 C 
ATOM     22  C   UNL A   1      30.318  26.670  23.345  1.00  0.00     0.135 C 
ATOM     23  S   UNL A   1      30.043  28.458  23.121  1.00  0.00    -0.156 SA
ENDBRANCH  10  16
ENDBRANCH   8   9
ENDBRANCH   7   8
ENDBRANCH   6   7
ENDBRANCH   3   6
ENDBRANCH   1   2
BRANCH   1  24
ATOM     24  C   UNL A   1      41.634  21.604  26.686  1.00  0.00     0.023 C 
BRANCH  24  25
ATOM     25  C   UNL A   1      41.788  20.202  26.071  1.00  0.00     0.023 C 
BRANCH  25  26
ATOM     26  C   UNL A   1      43.089  19.462  26.331  1.00  0.00     0.116 C 
BRANCH  26  27
ATOM     27  N   UNL A   1      43.663  18.827  25.157  1.00  0.00    -0.352 N 
ATOM     28  C   UNL A   1      44.539  19.404  24.251  1.00  0.00     0.251 C 
ATOM     29  H   UNL A   1      43.403  17.893  24.987  1.00  0.00     0.163 HD
ATOM     30  O   UNL A   1      44.937  18.819  23.269  1.00  0.00    -0.269 OA
BRANCH  28  31
ATOM     31  C   UNL A   1      44.939  20.804  24.516  1.00  0.00     0.039 A 
ATOM     32  C   UNL A   1      44.447  21.814  23.686  1.00  0.00     0.014 A 
ATOM     33  C   UNL A   1      45.618  21.106  25.699  1.00  0.00     0.014 A 
ATOM     34  C   UNL A   1      44.569  23.145  24.090  1.00  0.00     0.010 A 
ATOM     35  C   UNL A   1      45.664  22.424  26.133  1.00  0.00     0.010 A 
ATOM     36  C   UNL A   1      45.138  23.456  25.336  1.00  0.00    -0.014 A 
BRANCH  36  37
ATOM     37  C   UNL A   1      45.229  24.857  25.820  1.00  0.00     0.031 A 
ATOM     38  C   UNL A   1      46.554  25.565  25.765  1.00  0.00     0.074 A 
ATOM     39  C   UNL A   1      44.161  25.464  26.373  1.00  0.00     0.049 A 
ATOM     40  N   UNL A   1      46.886  26.740  26.234  1.00  0.00    -0.248 NA
ATOM     41  C   UNL A   1      47.665  24.833  25.134  1.00  0.00     0.031 C 
ATOM     42  C   UNL A   1      42.829  24.877  26.532  1.00  0.00     0.029 A 
ATOM     43  N   UNL A   1      44.035  26.719  26.917  1.00  0.00    -0.354 N 
ATOM     44  C   UNL A   1      48.248  26.867  25.995  1.00  0.00     0.074 A 
ATOM     45  C   UNL A   1      48.690  25.634  25.382  1.00  0.00     0.031 C 
ATOM     46  C   UNL A   1      42.015  25.780  27.104  1.00  0.00     0.029 A 
ATOM     47  C   UNL A   1      42.772  26.996  27.382  1.00  0.00     0.049 A 
ATOM     48  H   UNL A   1      44.780  27.360  26.968  1.00  0.00     0.167 HD
ATOM     49  C   UNL A   1      49.058  27.922  26.238  1.00  0.00     0.031 A 
ATOM     50  C   UNL A   1      42.282  28.108  27.965  1.00  0.00     0.031 A 
ATOM     51  C   UNL A   1      48.614  29.167  26.799  1.00  0.00     0.049 A 
ATOM     52  C   UNL A   1      43.190  29.288  28.181  1.00  0.00     0.074 A 
ATOM     53  C   UNL A   1      49.343  30.320  27.025  1.00  0.00     0.029 A 
ATOM     54  N   UNL A   1      47.315  29.423  27.208  1.00  0.00    -0.354 N 
ATOM     55  N   UNL A   1      44.464  29.411  27.899  1.00  0.00    -0.248 NA
ATOM     56  C   UNL A   1      42.588  30.486  28.783  1.00  0.00     0.031 C 
ATOM     57  C   UNL A   1      48.486  31.271  27.592  1.00  0.00     0.029 A 
ATOM     58  C   UNL A   1      47.220  30.717  27.684  1.00  0.00     0.049 A 
ATOM     59  H   UNL A   1      46.571  28.778  27.165  1.00  0.00     0.167 HD
ATOM     60  C   UNL A   1      44.808  30.708  28.259  1.00  0.00     0.074 A 
ATOM     61  C   UNL A   1      43.606  31.334  28.773  1.00  0.00     0.031 C 
ATOM     62  C   UNL A   1      46.010  31.326  28.172  1.00  0.00     0.031 A 
BRANCH  49  63
ATOM     63  C   UNL A   1      50.510  27.762  25.888  1.00  0.00    -0.014 A 
ATOM     64  C   UNL A   1      50.986  28.082  24.606  1.00  0.00     0.009 A 
ATOM     65  C   UNL A   1      51.411  27.279  26.849  1.00  0.00     0.009 A 
ATOM     66  C   UNL A   1      52.327  27.875  24.279  1.00  0.00     0.001 A 
ATOM     67  C   UNL A   1      52.757  27.102  26.528  1.00  0.00     0.001 A 
ATOM     68  C   UNL A   1      53.212  27.388  25.241  1.00  0.00     0.000 A 
ENDBRANCH  49  63
BRANCH  50  69
ATOM     69  C   UNL A   1      40.850  28.181  28.355  1.00  0.00    -0.014 A 
ATOM     70  C   UNL A   1      39.928  28.853  27.536  1.00  0.00     0.009 A 
ATOM     71  C   UNL A   1      40.399  27.600  29.549  1.00  0.00     0.009 A 
ATOM     72  C   UNL A   1      38.590  28.964  27.919  1.00  0.00     0.001 A 
ATOM     73  C   UNL A   1      39.054  27.693  29.918  1.00  0.00     0.001 A 
ATOM     74  C   UNL A   1      38.153  28.383  29.108  1.00  0.00     0.000 A 
ENDBRANCH  50  69
BRANCH  62  75
ATOM     75  C   UNL A   1      46.079  32.764  28.594  1.00  0.00    -0.014 A 
ATOM     76  C   UNL A   1      46.420  33.120  29.907  1.00  0.00     0.009 A 
ATOM     77  C   UNL A   1      45.862  33.774  27.644  1.00  0.00     0.009 A 
ATOM     78  C   UNL A   1      46.519  34.466  30.266  1.00  0.00     0.001 A 
ATOM     79  C   UNL A   1      45.985  35.116  28.001  1.00  0.00     0.001 A 
ATOM     80  C   UNL A   1      46.307  35.462  29.313  1.00  0.00     0.000 A 
ENDBRANCH  62  75
ENDBRANCH  36  37
ENDBRANCH  28  31
ENDBRANCH  26  27
ENDBRANCH  25  26
ENDBRANCH  24  25
ENDBRANCH   1  24
TORSDOF 15
ENDMDL
