MODEL 1
REMARK VINA RESULT:     -11.2      0.000      0.000
REMARK SMILES C[C@H](C(=O)NCCCCNC(=O)c1ccc(-c2c3nc(c(-c4ccccc4)c4ccc([nH]4)c(-c4ccccc4)c4nc(c(-c5ccccc5)c5ccc2[nH]5)C=C4)C=C3)cc1)c1ccc2c(c1)OCCO2
REMARK SMILES IDX 8 1 7 2 6 3 5 4 3 5 4 6 2 8 1 9 61 10 62 11 66 12 63 13
REMARK SMILES IDX 65 14 64 15 67 16 70 17 68 18 69 19 9 20 10 21 11 22 12 24
REMARK SMILES IDX 13 25 14 26 60 27 15 28 59 29 16 30 17 31 18 32 53 33 19 34
REMARK SMILES IDX 58 35 52 36 54 37 20 38 57 39 51 40 50 41 21 43 43 44 28 45
REMARK SMILES IDX 42 46 29 47 32 48 41 49 55 50 30 51 31 52 40 54 56 55 33 56
REMARK SMILES IDX 22 57 23 58 27 59 24 60 26 61 25 62 44 63 45 64 49 65 46 66
REMARK SMILES IDX 48 67 47 68 34 69 35 70 39 71 36 72 38 73 37 74
REMARK H PARENT 5 7 10 23 54 42 32 53
REMARK Flexibility Score: inf
ROOT
ATOM      1  C   UNL A   1      32.228  30.139  26.551  1.00  0.00     0.023 C 
ENDROOT
BRANCH   1   2
ATOM      2  C   UNL A   1      32.021  28.810  27.267  1.00  0.00     0.023 C 
BRANCH   2   3
ATOM      3  C   UNL A   1      32.416  27.567  26.467  1.00  0.00     0.116 C 
BRANCH   3   4
ATOM      4  N   UNL A   1      31.554  26.438  26.761  1.00  0.00    -0.356 N 
ATOM      5  C   UNL A   1      30.764  25.698  25.927  1.00  0.00     0.227 C 
ATOM      6  O   UNL A   1      30.099  24.800  26.451  1.00  0.00    -0.274 OA
ATOM      7  H   UNL A   1      31.535  26.163  27.706  1.00  0.00     0.163 HD
BRANCH   5   8
ATOM      8  C   UNL A   1      30.778  25.916  24.405  1.00  0.00     0.105 C 
ATOM      9  C   UNL A   1      30.468  24.601  23.675  1.00  0.00     0.023 C 
BRANCH   8  10
ATOM     10  C   UNL A   1      29.805  26.959  23.882  1.00  0.00    -0.032 A 
ATOM     11  C   UNL A   1      28.420  26.721  23.935  1.00  0.00     0.008 A 
ATOM     12  C   UNL A   1      30.265  28.196  23.410  1.00  0.00     0.055 A 
ATOM     13  C   UNL A   1      27.515  27.702  23.525  1.00  0.00     0.051 A 
ATOM     14  C   UNL A   1      29.364  29.167  22.985  1.00  0.00     0.161 A 
ATOM     15  C   UNL A   1      27.990  28.932  23.079  1.00  0.00     0.161 A 
ATOM     16  O   UNL A   1      29.907  30.335  22.518  1.00  0.00    -0.486 OA
ATOM     17  O   UNL A   1      27.057  29.894  22.785  1.00  0.00    -0.486 OA
ATOM     18  C   UNL A   1      28.912  31.254  22.050  1.00  0.00     0.271 C 
ATOM     19  C   UNL A   1      27.660  31.189  22.909  1.00  0.00     0.271 C 
ENDBRANCH   8  10
ENDBRANCH   5   8
ENDBRANCH   3   4
ENDBRANCH   2   3
ENDBRANCH   1   2
BRANCH   1  20
ATOM     20  C   UNL A   1      33.125  31.130  27.274  1.00  0.00     0.116 C 
BRANCH  20  21
ATOM     21  N   UNL A   1      32.534  32.454  27.434  1.00  0.00    -0.352 N 
ATOM     22  C   UNL A   1      33.041  33.551  28.092  1.00  0.00     0.251 C 
ATOM     23  H   UNL A   1      31.653  32.579  27.013  1.00  0.00     0.163 HD
ATOM     24  O   UNL A   1      32.384  34.581  28.198  1.00  0.00    -0.269 OA
BRANCH  22  25
ATOM     25  C   UNL A   1      34.371  33.446  28.724  1.00  0.00     0.039 A 
ATOM     26  C   UNL A   1      34.475  32.857  29.985  1.00  0.00     0.014 A 
ATOM     27  C   UNL A   1      35.514  33.813  28.011  1.00  0.00     0.014 A 
ATOM     28  C   UNL A   1      35.737  32.521  30.481  1.00  0.00     0.010 A 
ATOM     29  C   UNL A   1      36.757  33.390  28.463  1.00  0.00     0.010 A 
ATOM     30  C   UNL A   1      36.880  32.721  29.691  1.00  0.00    -0.014 A 
BRANCH  30  31
ATOM     31  C   UNL A   1      38.214  32.206  30.094  1.00  0.00     0.031 A 
ATOM     32  C   UNL A   1      38.711  30.903  29.536  1.00  0.00     0.074 A 
ATOM     33  C   UNL A   1      38.913  32.841  31.058  1.00  0.00     0.049 A 
ATOM     34  N   UNL A   1      39.761  30.205  29.882  1.00  0.00    -0.248 NA
ATOM     35  C   UNL A   1      37.900  30.283  28.474  1.00  0.00     0.031 C 
ATOM     36  C   UNL A   1      38.512  34.081  31.730  1.00  0.00     0.029 A 
ATOM     37  N   UNL A   1      40.103  32.512  31.661  1.00  0.00    -0.354 N 
ATOM     38  C   UNL A   1      39.711  29.048  29.115  1.00  0.00     0.074 A 
ATOM     39  C   UNL A   1      38.513  29.120  28.311  1.00  0.00     0.031 C 
ATOM     40  C   UNL A   1      39.444  34.413  32.639  1.00  0.00     0.029 A 
ATOM     41  C   UNL A   1      40.483  33.390  32.649  1.00  0.00     0.049 A 
ATOM     42  H   UNL A   1      40.633  31.722  31.410  1.00  0.00     0.167 HD
ATOM     43  C   UNL A   1      40.594  28.023  29.076  1.00  0.00     0.031 A 
ATOM     44  C   UNL A   1      41.537  33.363  33.487  1.00  0.00     0.031 A 
ATOM     45  C   UNL A   1      41.811  27.974  29.837  1.00  0.00     0.049 A 
ATOM     46  C   UNL A   1      42.512  32.221  33.403  1.00  0.00     0.074 A 
ATOM     47  C   UNL A   1      42.823  27.034  29.778  1.00  0.00     0.029 A 
ATOM     48  N   UNL A   1      42.179  28.905  30.794  1.00  0.00    -0.354 N 
ATOM     49  N   UNL A   1      42.500  31.183  32.603  1.00  0.00    -0.248 NA
ATOM     50  C   UNL A   1      43.648  32.249  34.338  1.00  0.00     0.031 C 
ATOM     51  C   UNL A   1      43.786  27.371  30.735  1.00  0.00     0.029 A 
ATOM     52  C   UNL A   1      43.390  28.543  31.357  1.00  0.00     0.049 A 
ATOM     53  H   UNL A   1      41.658  29.704  31.036  1.00  0.00     0.167 HD
ATOM     54  C   UNL A   1      43.631  30.444  32.927  1.00  0.00     0.074 A 
ATOM     55  C   UNL A   1      44.317  31.163  33.979  1.00  0.00     0.031 C 
ATOM     56  C   UNL A   1      44.059  29.272  32.401  1.00  0.00     0.031 A 
BRANCH  43  57
ATOM     57  C   UNL A   1      40.276  26.863  28.176  1.00  0.00    -0.014 A 
ATOM     58  C   UNL A   1      40.773  26.802  26.866  1.00  0.00     0.009 A 
ATOM     59  C   UNL A   1      39.517  25.791  28.668  1.00  0.00     0.009 A 
ATOM     60  C   UNL A   1      40.492  25.700  26.055  1.00  0.00     0.001 A 
ATOM     61  C   UNL A   1      39.258  24.680  27.865  1.00  0.00     0.001 A 
ATOM     62  C   UNL A   1      39.741  24.638  26.557  1.00  0.00     0.000 A 
ENDBRANCH  43  57
BRANCH  44  63
ATOM     63  C   UNL A   1      41.726  34.438  34.495  1.00  0.00    -0.014 A 
ATOM     64  C   UNL A   1      41.136  34.335  35.764  1.00  0.00     0.009 A 
ATOM     65  C   UNL A   1      42.470  35.587  34.185  1.00  0.00     0.009 A 
ATOM     66  C   UNL A   1      41.260  35.375  36.690  1.00  0.00     0.001 A 
ATOM     67  C   UNL A   1      42.616  36.612  35.122  1.00  0.00     0.001 A 
ATOM     68  C   UNL A   1      42.002  36.510  36.369  1.00  0.00     0.000 A 
ENDBRANCH  44  63
BRANCH  56  69
ATOM     69  C   UNL A   1      45.337  28.702  32.942  1.00  0.00    -0.014 A 
ATOM     70  C   UNL A   1      46.578  29.072  32.402  1.00  0.00     0.009 A 
ATOM     71  C   UNL A   1      45.301  27.829  34.041  1.00  0.00     0.009 A 
ATOM     72  C   UNL A   1      47.759  28.561  32.941  1.00  0.00     0.001 A 
ATOM     73  C   UNL A   1      46.485  27.340  34.592  1.00  0.00     0.001 A 
ATOM     74  C   UNL A   1      47.713  27.703  34.038  1.00  0.00     0.000 A 
ENDBRANCH  56  69
ENDBRANCH  30  31
ENDBRANCH  22  25
ENDBRANCH  20  21
ENDBRANCH   1  20
TORSDOF 12
ENDMDL
MODEL 2
REMARK VINA RESULT:     -11.1      2.551      7.017
REMARK SMILES C[C@H](C(=O)NCCCCNC(=O)c1ccc(-c2c3nc(c(-c4ccccc4)c4ccc([nH]4)c(-c4ccccc4)c4nc(c(-c5ccccc5)c5ccc2[nH]5)C=C4)C=C3)cc1)c1ccc2c(c1)OCCO2
REMARK SMILES IDX 8 1 7 2 6 3 5 4 3 5 4 6 2 8 1 9 61 10 62 11 66 12 63 13
REMARK SMILES IDX 65 14 64 15 67 16 70 17 68 18 69 19 9 20 10 21 11 22 12 24
REMARK SMILES IDX 13 25 14 26 60 27 15 28 59 29 16 30 17 31 18 32 53 33 19 34
REMARK SMILES IDX 58 35 52 36 54 37 20 38 57 39 51 40 50 41 21 43 43 44 28 45
REMARK SMILES IDX 42 46 29 47 32 48 41 49 55 50 30 51 31 52 40 54 56 55 33 56
REMARK SMILES IDX 22 57 23 58 27 59 24 60 26 61 25 62 44 63 45 64 49 65 46 66
REMARK SMILES IDX 48 67 47 68 34 69 35 70 39 71 36 72 38 73 37 74
REMARK H PARENT 5 7 10 23 54 42 32 53
REMARK Flexibility Score: inf
ROOT
ATOM      1  C   UNL A   1      32.143  29.367  26.555  1.00  0.00     0.023 C 
ENDROOT
BRANCH   1   2
ATOM      2  C   UNL A   1      31.696  27.933  26.817  1.00  0.00     0.023 C 
BRANCH   2   3
ATOM      3  C   UNL A   1      32.727  26.854  26.477  1.00  0.00     0.116 C 
BRANCH   3   4
ATOM      4  N   UNL A   1      32.100  25.575  26.200  1.00  0.00    -0.356 N 
ATOM      5  C   UNL A   1      31.545  25.103  25.044  1.00  0.00     0.227 C 
ATOM      6  O   UNL A   1      31.046  23.976  25.093  1.00  0.00    -0.274 OA
ATOM      7  H   UNL A   1      32.069  24.954  26.962  1.00  0.00     0.163 HD
BRANCH   5   8
ATOM      8  C   UNL A   1      31.626  25.900  23.731  1.00  0.00     0.105 C 
ATOM      9  C   UNL A   1      31.808  24.947  22.540  1.00  0.00     0.023 C 
BRANCH   8  10
ATOM     10  C   UNL A   1      30.426  26.779  23.422  1.00  0.00    -0.032 A 
ATOM     11  C   UNL A   1      29.169  26.477  23.975  1.00  0.00     0.008 A 
ATOM     12  C   UNL A   1      30.567  27.938  22.646  1.00  0.00     0.055 A 
ATOM     13  C   UNL A   1      28.077  27.319  23.757  1.00  0.00     0.051 A 
ATOM     14  C   UNL A   1      29.474  28.767  22.414  1.00  0.00     0.161 A 
ATOM     15  C   UNL A   1      28.240  28.475  23.002  1.00  0.00     0.161 A 
ATOM     16  O   UNL A   1      29.702  29.864  21.626  1.00  0.00    -0.486 OA
ATOM     17  O   UNL A   1      27.162  29.318  22.904  1.00  0.00    -0.486 OA
ATOM     18  C   UNL A   1      28.513  30.629  21.392  1.00  0.00     0.271 C 
ATOM     19  C   UNL A   1      27.624  30.645  22.625  1.00  0.00     0.271 C 
ENDBRANCH   8  10
ENDBRANCH   5   8
ENDBRANCH   3   4
ENDBRANCH   2   3
ENDBRANCH   1   2
BRANCH   1  20
ATOM     20  C   UNL A   1      33.569  29.685  26.974  1.00  0.00     0.116 C 
BRANCH  20  21
ATOM     21  N   UNL A   1      33.683  30.850  27.843  1.00  0.00    -0.352 N 
ATOM     22  C   UNL A   1      34.718  31.206  28.678  1.00  0.00     0.251 C 
ATOM     23  H   UNL A   1      32.916  31.467  27.829  1.00  0.00     0.163 HD
ATOM     24  O   UNL A   1      34.632  32.189  29.405  1.00  0.00    -0.269 OA
BRANCH  22  25
ATOM     25  C   UNL A   1      35.915  30.343  28.729  1.00  0.00     0.039 A 
ATOM     26  C   UNL A   1      36.795  30.343  27.646  1.00  0.00     0.014 A 
ATOM     27  C   UNL A   1      36.223  29.643  29.897  1.00  0.00     0.014 A 
ATOM     28  C   UNL A   1      38.047  29.739  27.781  1.00  0.00     0.010 A 
ATOM     29  C   UNL A   1      37.502  29.129  30.061  1.00  0.00     0.010 A 
ATOM     30  C   UNL A   1      38.434  29.190  29.014  1.00  0.00    -0.014 A 
BRANCH  30  31
ATOM     31  C   UNL A   1      39.819  28.711  29.260  1.00  0.00     0.031 A 
ATOM     32  C   UNL A   1      40.855  29.662  29.789  1.00  0.00     0.074 A 
ATOM     33  C   UNL A   1      40.173  27.465  28.884  1.00  0.00     0.049 A 
ATOM     34  N   UNL A   1      42.145  29.490  29.915  1.00  0.00    -0.248 NA
ATOM     35  C   UNL A   1      40.384  30.998  30.195  1.00  0.00     0.031 C 
ATOM     36  C   UNL A   1      39.279  26.462  28.298  1.00  0.00     0.029 A 
ATOM     37  N   UNL A   1      41.394  26.836  28.917  1.00  0.00    -0.354 N 
ATOM     38  C   UNL A   1      42.643  30.704  30.369  1.00  0.00     0.074 A 
ATOM     39  C   UNL A   1      41.525  31.615  30.466  1.00  0.00     0.031 C 
ATOM     40  C   UNL A   1      39.978  25.344  28.040  1.00  0.00     0.029 A 
ATOM     41  C   UNL A   1      41.374  25.563  28.396  1.00  0.00     0.049 A 
ATOM     42  H   UNL A   1      42.207  27.257  29.277  1.00  0.00     0.167 HD
ATOM     43  C   UNL A   1      43.918  31.027  30.690  1.00  0.00     0.031 A 
ATOM     44  C   UNL A   1      42.372  24.679  28.207  1.00  0.00     0.031 A 
ATOM     45  C   UNL A   1      45.020  30.108  30.643  1.00  0.00     0.049 A 
ATOM     46  C   UNL A   1      43.774  25.059  28.594  1.00  0.00     0.074 A 
ATOM     47  C   UNL A   1      46.324  30.309  31.059  1.00  0.00     0.029 A 
ATOM     48  N   UNL A   1      44.947  28.816  30.152  1.00  0.00    -0.354 N 
ATOM     49  N   UNL A   1      44.211  26.180  29.114  1.00  0.00    -0.248 NA
ATOM     50  C   UNL A   1      44.821  24.050  28.370  1.00  0.00     0.031 C 
ATOM     51  C   UNL A   1      47.054  29.151  30.776  1.00  0.00     0.029 A 
ATOM     52  C   UNL A   1      46.193  28.217  30.224  1.00  0.00     0.049 A 
ATOM     53  H   UNL A   1      44.133  28.387  29.805  1.00  0.00     0.167 HD
ATOM     54  C   UNL A   1      45.577  26.006  29.293  1.00  0.00     0.074 A 
ATOM     55  C   UNL A   1      45.893  24.666  28.847  1.00  0.00     0.031 C 
ATOM     56  C   UNL A   1      46.488  26.881  29.779  1.00  0.00     0.031 A 
BRANCH  43  57
ATOM     57  C   UNL A   1      44.191  32.438  31.123  1.00  0.00    -0.014 A 
ATOM     58  C   UNL A   1      44.502  33.439  30.191  1.00  0.00     0.009 A 
ATOM     59  C   UNL A   1      44.079  32.782  32.479  1.00  0.00     0.009 A 
ATOM     60  C   UNL A   1      44.723  34.752  30.611  1.00  0.00     0.001 A 
ATOM     61  C   UNL A   1      44.275  34.099  32.894  1.00  0.00     0.001 A 
ATOM     62  C   UNL A   1      44.603  35.082  31.960  1.00  0.00     0.000 A 
ENDBRANCH  43  57
BRANCH  44  63
ATOM     63  C   UNL A   1      42.095  23.349  27.603  1.00  0.00    -0.014 A 
ATOM     64  C   UNL A   1      42.306  23.131  26.233  1.00  0.00     0.009 A 
ATOM     65  C   UNL A   1      41.589  22.299  28.387  1.00  0.00     0.009 A 
ATOM     66  C   UNL A   1      41.985  21.900  25.654  1.00  0.00     0.001 A 
ATOM     67  C   UNL A   1      41.295  21.061  27.810  1.00  0.00     0.001 A 
ATOM     68  C   UNL A   1      41.484  20.867  26.442  1.00  0.00     0.000 A 
ENDBRANCH  44  63
BRANCH  56  69
ATOM     69  C   UNL A   1      47.911  26.413  29.872  1.00  0.00    -0.014 A 
ATOM     70  C   UNL A   1      48.410  25.854  31.058  1.00  0.00     0.009 A 
ATOM     71  C   UNL A   1      48.742  26.479  28.743  1.00  0.00     0.009 A 
ATOM     72  C   UNL A   1      49.724  25.389  31.116  1.00  0.00     0.001 A 
ATOM     73  C   UNL A   1      50.046  25.991  28.798  1.00  0.00     0.001 A 
ATOM     74  C   UNL A   1      50.538  25.450  29.986  1.00  0.00     0.000 A 
ENDBRANCH  56  69
ENDBRANCH  30  31
ENDBRANCH  22  25
ENDBRANCH  20  21
ENDBRANCH   1  20
TORSDOF 12
ENDMDL
MODEL 3
REMARK VINA RESULT:     -11.1      1.043      6.196
REMARK SMILES C[C@H](C(=O)NCCCCNC(=O)c1ccc(-c2c3nc(c(-c4ccccc4)c4ccc([nH]4)c(-c4ccccc4)c4nc(c(-c5ccccc5)c5ccc2[nH]5)C=C4)C=C3)cc1)c1ccc2c(c1)OCCO2
REMARK SMILES IDX 8 1 7 2 6 3 5 4 3 5 4 6 2 8 1 9 61 10 62 11 66 12 63 13
REMARK SMILES IDX 65 14 64 15 67 16 70 17 68 18 69 19 9 20 10 21 11 22 12 24
REMARK SMILES IDX 13 25 14 26 60 27 15 28 59 29 16 30 17 31 18 32 53 33 19 34
REMARK SMILES IDX 58 35 52 36 54 37 20 38 57 39 51 40 50 41 21 43 43 44 28 45
REMARK SMILES IDX 42 46 29 47 32 48 41 49 55 50 30 51 31 52 40 54 56 55 33 56
REMARK SMILES IDX 22 57 23 58 27 59 24 60 26 61 25 62 44 63 45 64 49 65 46 66
REMARK SMILES IDX 48 67 47 68 34 69 35 70 39 71 36 72 38 73 37 74
REMARK H PARENT 5 7 10 23 54 42 32 53
REMARK Flexibility Score: inf
ROOT
ATOM      1  C   UNL A   1      32.039  30.500  26.615  1.00  0.00     0.023 C 
ENDROOT
BRANCH   1   2
ATOM      2  C   UNL A   1      32.242  29.023  26.931  1.00  0.00     0.023 C 
BRANCH   2   3
ATOM      3  C   UNL A   1      33.613  28.457  26.556  1.00  0.00     0.116 C 
BRANCH   3   4
ATOM      4  N   UNL A   1      33.553  27.035  26.275  1.00  0.00    -0.356 N 
ATOM      5  C   UNL A   1      33.251  26.383  25.112  1.00  0.00     0.227 C 
ATOM      6  O   UNL A   1      33.242  25.150  25.159  1.00  0.00    -0.274 OA
ATOM      7  H   UNL A   1      33.762  26.451  27.039  1.00  0.00     0.163 HD
BRANCH   5   8
ATOM      8  C   UNL A   1      33.027  27.149  23.798  1.00  0.00     0.105 C 
ATOM      9  C   UNL A   1      33.563  26.336  22.610  1.00  0.00     0.023 C 
BRANCH   8  10
ATOM     10  C   UNL A   1      31.583  27.504  23.483  1.00  0.00    -0.032 A 
ATOM     11  C   UNL A   1      30.534  26.763  24.054  1.00  0.00     0.008 A 
ATOM     12  C   UNL A   1      31.276  28.613  22.682  1.00  0.00     0.055 A 
ATOM     13  C   UNL A   1      29.204  27.126  23.830  1.00  0.00     0.051 A 
ATOM     14  C   UNL A   1      29.951  28.964  22.443  1.00  0.00     0.161 A 
ATOM     15  C   UNL A   1      28.919  28.242  23.049  1.00  0.00     0.161 A 
ATOM     16  O   UNL A   1      29.747  30.047  21.630  1.00  0.00    -0.486 OA
ATOM     17  O   UNL A   1      27.602  28.613  22.945  1.00  0.00    -0.486 OA
ATOM     18  C   UNL A   1      28.358  30.302  21.393  1.00  0.00     0.271 C 
ATOM     19  C   UNL A   1      27.530  30.011  22.634  1.00  0.00     0.271 C 
ENDBRANCH   8  10
ENDBRANCH   5   8
ENDBRANCH   3   4
ENDBRANCH   2   3
ENDBRANCH   1   2
BRANCH   1  20
ATOM     20  C   UNL A   1      33.065  31.439  27.227  1.00  0.00     0.116 C 
BRANCH  20  21
ATOM     21  N   UNL A   1      32.562  32.787  27.469  1.00  0.00    -0.352 N 
ATOM     22  C   UNL A   1      33.126  33.797  28.214  1.00  0.00     0.251 C 
ATOM     23  H   UNL A   1      31.702  33.003  27.041  1.00  0.00     0.163 HD
ATOM     24  O   UNL A   1      32.539  34.861  28.381  1.00  0.00    -0.269 OA
BRANCH  22  25
ATOM     25  C   UNL A   1      34.430  33.555  28.863  1.00  0.00     0.039 A 
ATOM     26  C   UNL A   1      34.456  32.953  30.123  1.00  0.00     0.014 A 
ATOM     27  C   UNL A   1      35.614  33.807  28.168  1.00  0.00     0.014 A 
ATOM     28  C   UNL A   1      35.670  32.489  30.633  1.00  0.00     0.010 A 
ATOM     29  C   UNL A   1      36.802  33.260  28.634  1.00  0.00     0.010 A 
ATOM     30  C   UNL A   1      36.839  32.576  29.860  1.00  0.00    -0.014 A 
BRANCH  30  31
ATOM     31  C   UNL A   1      38.108  31.927  30.279  1.00  0.00     0.031 A 
ATOM     32  C   UNL A   1      39.073  32.671  31.157  1.00  0.00     0.074 A 
ATOM     33  C   UNL A   1      38.448  30.727  29.763  1.00  0.00     0.049 A 
ATOM     34  N   UNL A   1      40.295  32.352  31.496  1.00  0.00    -0.248 NA
ATOM     35  C   UNL A   1      38.619  33.965  31.695  1.00  0.00     0.031 C 
ATOM     36  C   UNL A   1      37.630  29.926  28.847  1.00  0.00     0.029 A 
ATOM     37  N   UNL A   1      39.591  29.981  29.917  1.00  0.00    -0.354 N 
ATOM     38  C   UNL A   1      40.768  33.421  32.245  1.00  0.00     0.074 A 
ATOM     39  C   UNL A   1      39.718  34.413  32.285  1.00  0.00     0.031 C 
ATOM     40  C   UNL A   1      38.291  28.799  28.535  1.00  0.00     0.029 A 
ATOM     41  C   UNL A   1      39.594  28.817  29.186  1.00  0.00     0.049 A 
ATOM     42  H   UNL A   1      40.339  30.255  30.496  1.00  0.00     0.167 HD
ATOM     43  C   UNL A   1      41.968  33.558  32.857  1.00  0.00     0.031 A 
ATOM     44  C   UNL A   1      40.549  27.878  29.038  1.00  0.00     0.031 A 
ATOM     45  C   UNL A   1      42.993  32.552  32.861  1.00  0.00     0.049 A 
ATOM     46  C   UNL A   1      41.863  28.048  29.749  1.00  0.00     0.074 A 
ATOM     47  C   UNL A   1      44.193  32.552  33.548  1.00  0.00     0.029 A 
ATOM     48  N   UNL A   1      42.937  31.369  32.144  1.00  0.00    -0.354 N 
ATOM     49  N   UNL A   1      42.257  29.021  30.533  1.00  0.00    -0.248 NA
ATOM     50  C   UNL A   1      42.864  26.988  29.555  1.00  0.00     0.031 C 
ATOM     51  C   UNL A   1      44.886  31.386  33.210  1.00  0.00     0.029 A 
ATOM     52  C   UNL A   1      44.098  30.644  32.346  1.00  0.00     0.049 A 
ATOM     53  H   UNL A   1      42.185  31.086  31.576  1.00  0.00     0.167 HD
ATOM     54  C   UNL A   1      43.541  28.684  30.938  1.00  0.00     0.074 A 
ATOM     55  C   UNL A   1      43.853  27.407  30.331  1.00  0.00     0.031 C 
ATOM     56  C   UNL A   1      44.389  29.374  31.737  1.00  0.00     0.031 A 
BRANCH  43  57
ATOM     57  C   UNL A   1      42.239  34.847  33.578  1.00  0.00    -0.014 A 
ATOM     58  C   UNL A   1      42.928  35.899  32.955  1.00  0.00     0.009 A 
ATOM     59  C   UNL A   1      41.748  35.031  34.879  1.00  0.00     0.009 A 
ATOM     60  C   UNL A   1      43.143  37.100  33.632  1.00  0.00     0.001 A 
ATOM     61  C   UNL A   1      41.942  36.241  35.544  1.00  0.00     0.001 A 
ATOM     62  C   UNL A   1      42.645  37.273  34.922  1.00  0.00     0.000 A 
ENDBRANCH  43  57
BRANCH  44  63
ATOM     63  C   UNL A   1      40.315  26.696  28.167  1.00  0.00    -0.014 A 
ATOM     64  C   UNL A   1      40.820  26.666  26.858  1.00  0.00     0.009 A 
ATOM     65  C   UNL A   1      39.559  25.607  28.628  1.00  0.00     0.009 A 
ATOM     66  C   UNL A   1      40.545  25.584  26.018  1.00  0.00     0.001 A 
ATOM     67  C   UNL A   1      39.311  24.513  27.794  1.00  0.00     0.001 A 
ATOM     68  C   UNL A   1      39.794  24.508  26.487  1.00  0.00     0.000 A 
ENDBRANCH  44  63
BRANCH  56  69
ATOM     69  C   UNL A   1      45.727  28.755  32.017  1.00  0.00    -0.014 A 
ATOM     70  C   UNL A   1      46.846  29.068  31.230  1.00  0.00     0.009 A 
ATOM     71  C   UNL A   1      45.881  27.896  33.116  1.00  0.00     0.009 A 
ATOM     72  C   UNL A   1      48.091  28.514  31.527  1.00  0.00     0.001 A 
ATOM     73  C   UNL A   1      47.133  27.363  33.424  1.00  0.00     0.001 A 
ATOM     74  C   UNL A   1      48.235  27.668  32.626  1.00  0.00     0.000 A 
ENDBRANCH  56  69
ENDBRANCH  30  31
ENDBRANCH  22  25
ENDBRANCH  20  21
ENDBRANCH   1  20
TORSDOF 12
ENDMDL
