MODEL 1
REMARK VINA RESULT:     -11.4      0.000      0.000
REMARK SMILES C=C1c2ccccc2C(=O)N1[C@](C)(C(=O)NCCCCNC(=O)c1ccc(-c2c3nc(c(-c4ccccc4)c4ccc([nH]4)c(-c4ccccc4)c4nc(c(-c5ccccc5)c5ccc2[nH]5)C=C4)C=C3)cc1)C(F)(F)F
REMARK SMILES IDX 19 1 18 2 17 3 16 4 14 5 15 6 12 8 13 9 11 10 1 11 2 12 3 13
REMARK SMILES IDX 4 14 8 15 9 16 5 17 7 18 10 19 6 20 72 21 73 22 74 23 75 24
REMARK SMILES IDX 20 25 21 26 22 27 23 29 24 30 25 31 71 32 26 33 70 34 27 35
REMARK SMILES IDX 28 36 29 37 64 38 30 39 69 40 63 41 65 42 31 43 68 44 62 45
REMARK SMILES IDX 61 46 32 48 54 49 39 50 53 51 40 52 43 53 52 54 66 55 41 56
REMARK SMILES IDX 42 57 51 59 67 60 44 61 33 62 34 63 38 64 35 65 37 66 36 67
REMARK SMILES IDX 55 68 56 69 60 70 57 71 59 72 58 73 45 74 46 75 50 76 47 77
REMARK SMILES IDX 49 78 48 79
REMARK H PARENT 16 7 21 28 65 47 43 58
REMARK Flexibility Score: inf
ROOT
ATOM      1  C   UNL A   1      32.011  29.298  26.981  1.00  0.00     0.023 C 
ENDROOT
BRANCH   1   2
ATOM      2  C   UNL A   1      31.557  27.925  27.470  1.00  0.00     0.023 C 
BRANCH   2   3
ATOM      3  C   UNL A   1      31.149  26.941  26.384  1.00  0.00     0.116 C 
BRANCH   3   4
ATOM      4  N   UNL A   1      31.111  25.551  26.796  1.00  0.00    -0.354 N 
ATOM      5  C   UNL A   1      31.827  24.477  26.341  1.00  0.00     0.255 C 
ATOM      6  O   UNL A   1      32.053  23.628  27.217  1.00  0.00    -0.272 OA
ATOM      7  H   UNL A   1      30.470  25.348  27.516  1.00  0.00     0.163 HD
BRANCH   5   8
ATOM      8  C   UNL A   1      32.404  24.310  24.896  1.00  0.00     0.219 C 
ATOM      9  C   UNL A   1      32.493  25.613  24.076  1.00  0.00     0.056 C 
BRANCH   8  10
ATOM     10  N   UNL A   1      33.742  23.633  24.990  1.00  0.00    -0.285 N 
ATOM     11  C   UNL A   1      33.424  21.259  24.300  1.00  0.00     0.038 C 
ATOM     12  C   UNL A   1      34.115  22.304  24.761  1.00  0.00     0.046 C 
ATOM     13  C   UNL A   1      35.550  22.189  25.079  1.00  0.00     0.010 A 
ATOM     14  C   UNL A   1      36.448  21.133  25.097  1.00  0.00     0.011 A 
ATOM     15  C   UNL A   1      36.000  23.452  25.429  1.00  0.00     0.049 A 
ATOM     16  C   UNL A   1      34.884  24.375  25.305  1.00  0.00     0.260 C 
ATOM     17  C   UNL A   1      37.774  21.379  25.488  1.00  0.00     0.001 A 
ATOM     18  C   UNL A   1      37.298  23.731  25.827  1.00  0.00     0.014 A 
ATOM     19  O   UNL A   1      35.035  25.576  25.440  1.00  0.00    -0.269 OA
ATOM     20  C   UNL A   1      38.195  22.668  25.859  1.00  0.00     0.001 A 
ENDBRANCH   8  10
BRANCH   8  21
ATOM     21  C   UNL A   1      31.236  23.524  24.232  1.00  0.00     0.420 C 
ATOM     22  F   UNL A   1      30.771  22.544  25.055  1.00  0.00    -0.168 F 
ATOM     23  F   UNL A   1      30.163  24.332  24.005  1.00  0.00    -0.168 F 
ATOM     24  F   UNL A   1      31.535  22.942  23.052  1.00  0.00    -0.168 F 
ENDBRANCH   8  21
ENDBRANCH   5   8
ENDBRANCH   3   4
ENDBRANCH   2   3
ENDBRANCH   1   2
BRANCH   1  25
ATOM     25  C   UNL A   1      33.476  29.657  27.226  1.00  0.00     0.116 C 
BRANCH  25  26
ATOM     26  N   UNL A   1      33.673  30.865  28.018  1.00  0.00    -0.352 N 
ATOM     27  C   UNL A   1      34.759  31.269  28.760  1.00  0.00     0.251 C 
ATOM     28  H   UNL A   1      32.910  31.488  28.024  1.00  0.00     0.163 HD
ATOM     29  O   UNL A   1      34.719  32.301  29.422  1.00  0.00    -0.269 OA
BRANCH  27  30
ATOM     30  C   UNL A   1      35.967  30.422  28.796  1.00  0.00     0.039 A 
ATOM     31  C   UNL A   1      36.809  30.403  27.681  1.00  0.00     0.014 A 
ATOM     32  C   UNL A   1      36.305  29.714  29.951  1.00  0.00     0.014 A 
ATOM     33  C   UNL A   1      38.054  29.779  27.771  1.00  0.00     0.010 A 
ATOM     34  C   UNL A   1      37.575  29.163  30.066  1.00  0.00     0.010 A 
ATOM     35  C   UNL A   1      38.473  29.216  28.987  1.00  0.00    -0.014 A 
BRANCH  35  36
ATOM     36  C   UNL A   1      39.863  28.730  29.181  1.00  0.00     0.031 A 
ATOM     37  C   UNL A   1      40.925  29.659  29.695  1.00  0.00     0.074 A 
ATOM     38  C   UNL A   1      40.190  27.481  28.794  1.00  0.00     0.049 A 
ATOM     39  N   UNL A   1      42.213  29.456  29.807  1.00  0.00    -0.248 NA
ATOM     40  C   UNL A   1      40.485  30.999  30.112  1.00  0.00     0.031 C 
ATOM     41  C   UNL A   1      39.263  26.489  28.243  1.00  0.00     0.029 A 
ATOM     42  N   UNL A   1      41.403  26.836  28.790  1.00  0.00    -0.354 N 
ATOM     43  C   UNL A   1      42.740  30.648  30.285  1.00  0.00     0.074 A 
ATOM     44  C   UNL A   1      41.639  31.581  30.402  1.00  0.00     0.031 C 
ATOM     45  C   UNL A   1      39.934  25.356  27.981  1.00  0.00     0.029 A 
ATOM     46  C   UNL A   1      41.344  25.555  28.297  1.00  0.00     0.049 A 
ATOM     47  H   UNL A   1      42.235  27.252  29.110  1.00  0.00     0.167 HD
ATOM     48  C   UNL A   1      44.021  30.937  30.613  1.00  0.00     0.031 A 
ATOM     49  C   UNL A   1      42.318  24.646  28.105  1.00  0.00     0.031 A 
ATOM     50  C   UNL A   1      45.115  30.009  30.510  1.00  0.00     0.049 A 
ATOM     51  C   UNL A   1      43.736  25.002  28.445  1.00  0.00     0.074 A 
ATOM     52  C   UNL A   1      46.437  30.191  30.877  1.00  0.00     0.029 A 
ATOM     53  N   UNL A   1      45.012  28.725  30.001  1.00  0.00    -0.354 N 
ATOM     54  N   UNL A   1      44.209  26.116  28.948  1.00  0.00    -0.248 NA
ATOM     55  C   UNL A   1      44.756  23.975  28.188  1.00  0.00     0.031 C 
ATOM     56  C   UNL A   1      47.144  29.030  30.551  1.00  0.00     0.029 A 
ATOM     57  C   UNL A   1      46.253  28.111  30.020  1.00  0.00     0.049 A 
ATOM     58  H   UNL A   1      44.181  28.311  29.674  1.00  0.00     0.167 HD
ATOM     59  C   UNL A   1      45.576  25.918  29.086  1.00  0.00     0.074 A 
ATOM     60  C   UNL A   1      45.855  24.573  28.626  1.00  0.00     0.031 C 
ATOM     61  C   UNL A   1      46.515  26.775  29.555  1.00  0.00     0.031 A 
BRANCH  48  62
ATOM     62  C   UNL A   1      44.304  32.326  31.109  1.00  0.00    -0.014 A 
ATOM     63  C   UNL A   1      44.239  32.635  32.476  1.00  0.00     0.009 A 
ATOM     64  C   UNL A   1      44.658  33.335  30.199  1.00  0.00     0.009 A 
ATOM     65  C   UNL A   1      44.484  33.936  32.921  1.00  0.00     0.001 A 
ATOM     66  C   UNL A   1      44.928  34.629  30.649  1.00  0.00     0.001 A 
ATOM     67  C   UNL A   1      44.832  34.930  32.007  1.00  0.00     0.000 A 
ENDBRANCH  48  62
BRANCH  49  68
ATOM     68  C   UNL A   1      41.986  23.302  27.567  1.00  0.00    -0.014 A 
ATOM     69  C   UNL A   1      42.118  23.040  26.195  1.00  0.00     0.009 A 
ATOM     70  C   UNL A   1      41.537  22.278  28.415  1.00  0.00     0.009 A 
ATOM     71  C   UNL A   1      41.786  21.786  25.679  1.00  0.00     0.001 A 
ATOM     72  C   UNL A   1      41.228  21.017  27.899  1.00  0.00     0.001 A 
ATOM     73  C   UNL A   1      41.347  20.774  26.532  1.00  0.00     0.000 A 
ENDBRANCH  49  68
BRANCH  61  74
ATOM     74  C   UNL A   1      47.930  26.275  29.615  1.00  0.00    -0.014 A 
ATOM     75  C   UNL A   1      48.776  26.366  28.500  1.00  0.00     0.009 A 
ATOM     76  C   UNL A   1      48.433  25.753  30.816  1.00  0.00     0.009 A 
ATOM     77  C   UNL A   1      50.097  25.923  28.583  1.00  0.00     0.001 A 
ATOM     78  C   UNL A   1      49.760  25.332  30.902  1.00  0.00     0.001 A 
ATOM     79  C   UNL A   1      50.589  25.411  29.784  1.00  0.00     0.000 A 
ENDBRANCH  61  74
ENDBRANCH  35  36
ENDBRANCH  27  30
ENDBRANCH  25  26
ENDBRANCH   1  25
TORSDOF 13
ENDMDL
MODEL 2
REMARK VINA RESULT:     -11.3      2.946      7.648
REMARK SMILES C=C1c2ccccc2C(=O)N1[C@](C)(C(=O)NCCCCNC(=O)c1ccc(-c2c3nc(c(-c4ccccc4)c4ccc([nH]4)c(-c4ccccc4)c4nc(c(-c5ccccc5)c5ccc2[nH]5)C=C4)C=C3)cc1)C(F)(F)F
REMARK SMILES IDX 19 1 18 2 17 3 16 4 14 5 15 6 12 8 13 9 11 10 1 11 2 12 3 13
REMARK SMILES IDX 4 14 8 15 9 16 5 17 7 18 10 19 6 20 72 21 73 22 74 23 75 24
REMARK SMILES IDX 20 25 21 26 22 27 23 29 24 30 25 31 71 32 26 33 70 34 27 35
REMARK SMILES IDX 28 36 29 37 64 38 30 39 69 40 63 41 65 42 31 43 68 44 62 45
REMARK SMILES IDX 61 46 32 48 54 49 39 50 53 51 40 52 43 53 52 54 66 55 41 56
REMARK SMILES IDX 42 57 51 59 67 60 44 61 33 62 34 63 38 64 35 65 37 66 36 67
REMARK SMILES IDX 55 68 56 69 60 70 57 71 59 72 58 73 45 74 46 75 50 76 47 77
REMARK SMILES IDX 49 78 48 79
REMARK H PARENT 16 7 21 28 65 47 43 58
REMARK Flexibility Score: inf
ROOT
ATOM      1  C   UNL A   1      32.380  30.256  26.088  1.00  0.00     0.023 C 
ENDROOT
BRANCH   1   2
ATOM      2  C   UNL A   1      31.464  29.126  26.548  1.00  0.00     0.023 C 
BRANCH   2   3
ATOM      3  C   UNL A   1      32.162  27.918  27.157  1.00  0.00     0.116 C 
BRANCH   3   4
ATOM      4  N   UNL A   1      31.410  26.679  27.097  1.00  0.00    -0.354 N 
ATOM      5  C   UNL A   1      31.564  25.594  26.277  1.00  0.00     0.255 C 
ATOM      6  O   UNL A   1      31.250  24.521  26.814  1.00  0.00    -0.272 OA
ATOM      7  H   UNL A   1      30.674  26.607  27.747  1.00  0.00     0.163 HD
BRANCH   5   8
ATOM      8  C   UNL A   1      32.147  25.622  24.825  1.00  0.00     0.219 C 
ATOM      9  C   UNL A   1      32.117  24.269  24.085  1.00  0.00     0.056 C 
BRANCH   8  10
ATOM     10  N   UNL A   1      31.433  26.687  24.042  1.00  0.00    -0.285 N 
ATOM     11  C   UNL A   1      33.147  27.904  22.704  1.00  0.00     0.038 C 
ATOM     12  C   UNL A   1      31.920  27.671  23.175  1.00  0.00     0.046 C 
ATOM     13  C   UNL A   1      30.771  28.490  22.749  1.00  0.00     0.010 A 
ATOM     14  C   UNL A   1      30.639  29.618  21.954  1.00  0.00     0.011 A 
ATOM     15  C   UNL A   1      29.635  27.943  23.323  1.00  0.00     0.049 A 
ATOM     16  C   UNL A   1      30.037  26.767  24.077  1.00  0.00     0.260 C 
ATOM     17  C   UNL A   1      29.361  30.174  21.776  1.00  0.00     0.001 A 
ATOM     18  C   UNL A   1      28.361  28.468  23.175  1.00  0.00     0.014 A 
ATOM     19  O   UNL A   1      29.214  26.028  24.586  1.00  0.00    -0.269 OA
ATOM     20  C   UNL A   1      28.231  29.608  22.389  1.00  0.00     0.001 A 
ENDBRANCH   8  10
BRANCH   8  21
ATOM     21  C   UNL A   1      33.653  25.844  25.147  1.00  0.00     0.420 C 
ATOM     22  F   UNL A   1      34.041  25.108  26.224  1.00  0.00    -0.168 F 
ATOM     23  F   UNL A   1      34.445  25.415  24.124  1.00  0.00    -0.168 F 
ATOM     24  F   UNL A   1      34.004  27.123  25.394  1.00  0.00    -0.168 F 
ENDBRANCH   8  21
ENDBRANCH   5   8
ENDBRANCH   3   4
ENDBRANCH   2   3
ENDBRANCH   1   2
BRANCH   1  25
ATOM     25  C   UNL A   1      33.079  31.055  27.187  1.00  0.00     0.116 C 
BRANCH  25  26
ATOM     26  N   UNL A   1      32.571  32.412  27.357  1.00  0.00    -0.352 N 
ATOM     27  C   UNL A   1      33.124  33.487  28.013  1.00  0.00     0.251 C 
ATOM     28  H   UNL A   1      31.697  32.584  26.938  1.00  0.00     0.163 HD
ATOM     29  O   UNL A   1      32.514  34.547  28.107  1.00  0.00    -0.269 OA
BRANCH  27  30
ATOM     30  C   UNL A   1      34.447  33.345  28.652  1.00  0.00     0.039 A 
ATOM     31  C   UNL A   1      34.527  32.727  29.902  1.00  0.00     0.014 A 
ATOM     32  C   UNL A   1      35.605  33.749  27.986  1.00  0.00     0.014 A 
ATOM     33  C   UNL A   1      35.777  32.395  30.426  1.00  0.00     0.010 A 
ATOM     34  C   UNL A   1      36.845  33.348  28.470  1.00  0.00     0.010 A 
ATOM     35  C   UNL A   1      36.941  32.641  29.680  1.00  0.00    -0.014 A 
BRANCH  35  36
ATOM     36  C   UNL A   1      38.264  32.120  30.107  1.00  0.00     0.031 A 
ATOM     37  C   UNL A   1      38.766  30.807  29.581  1.00  0.00     0.074 A 
ATOM     38  C   UNL A   1      38.964  32.780  31.052  1.00  0.00     0.049 A 
ATOM     39  N   UNL A   1      39.829  30.130  29.934  1.00  0.00    -0.248 NA
ATOM     40  C   UNL A   1      37.953  30.157  28.542  1.00  0.00     0.031 C 
ATOM     41  C   UNL A   1      38.572  34.047  31.675  1.00  0.00     0.029 A 
ATOM     42  N   UNL A   1      40.152  32.464  31.666  1.00  0.00    -0.354 N 
ATOM     43  C   UNL A   1      39.801  28.966  29.177  1.00  0.00     0.074 A 
ATOM     44  C   UNL A   1      38.595  29.010  28.378  1.00  0.00     0.031 C 
ATOM     45  C   UNL A   1      39.513  34.412  32.560  1.00  0.00     0.029 A 
ATOM     46  C   UNL A   1      40.548  33.386  32.605  1.00  0.00     0.049 A 
ATOM     47  H   UNL A   1      40.670  31.655  31.454  1.00  0.00     0.167 HD
ATOM     48  C   UNL A   1      40.704  27.958  29.138  1.00  0.00     0.031 A 
ATOM     49  C   UNL A   1      41.617  33.397  33.424  1.00  0.00     0.031 A 
ATOM     50  C   UNL A   1      41.910  27.917  29.921  1.00  0.00     0.049 A 
ATOM     51  C   UNL A   1      42.586  32.251  33.385  1.00  0.00     0.074 A 
ATOM     52  C   UNL A   1      42.917  26.968  29.904  1.00  0.00     0.029 A 
ATOM     53  N   UNL A   1      42.269  28.868  30.863  1.00  0.00    -0.354 N 
ATOM     54  N   UNL A   1      42.573  31.184  32.624  1.00  0.00    -0.248 NA
ATOM     55  C   UNL A   1      43.718  32.311  34.321  1.00  0.00     0.031 C 
ATOM     56  C   UNL A   1      43.867  27.323  30.867  1.00  0.00     0.029 A 
ATOM     57  C   UNL A   1      43.471  28.514  31.453  1.00  0.00     0.049 A 
ATOM     58  H   UNL A   1      41.747  29.674  31.081  1.00  0.00     0.167 HD
ATOM     59  C   UNL A   1      43.701  30.457  32.975  1.00  0.00     0.074 A 
ATOM     60  C   UNL A   1      44.384  31.209  34.007  1.00  0.00     0.031 C 
ATOM     61  C   UNL A   1      44.134  29.271  32.482  1.00  0.00     0.031 A 
BRANCH  48  62
ATOM     62  C   UNL A   1      40.409  26.811  28.216  1.00  0.00    -0.014 A 
ATOM     63  C   UNL A   1      39.634  25.720  28.640  1.00  0.00     0.009 A 
ATOM     64  C   UNL A   1      40.896  26.829  26.899  1.00  0.00     0.009 A 
ATOM     65  C   UNL A   1      39.385  24.651  27.777  1.00  0.00     0.001 A 
ATOM     66  C   UNL A   1      40.623  25.770  26.031  1.00  0.00     0.001 A 
ATOM     67  C   UNL A   1      39.877  24.679  26.473  1.00  0.00     0.000 A 
ENDBRANCH  48  62
BRANCH  49  68
ATOM     68  C   UNL A   1      41.833  34.537  34.349  1.00  0.00    -0.014 A 
ATOM     69  C   UNL A   1      41.309  34.497  35.651  1.00  0.00     0.009 A 
ATOM     70  C   UNL A   1      42.558  35.668  33.943  1.00  0.00     0.009 A 
ATOM     71  C   UNL A   1      41.489  35.575  36.520  1.00  0.00     0.001 A 
ATOM     72  C   UNL A   1      42.756  36.735  34.822  1.00  0.00     0.001 A 
ATOM     73  C   UNL A   1      42.217  36.691  36.106  1.00  0.00     0.000 A 
ENDBRANCH  49  68
BRANCH  61  74
ATOM     74  C   UNL A   1      45.417  28.724  33.038  1.00  0.00    -0.014 A 
ATOM     75  C   UNL A   1      45.414  27.845  34.131  1.00  0.00     0.009 A 
ATOM     76  C   UNL A   1      46.637  29.056  32.429  1.00  0.00     0.009 A 
ATOM     77  C   UNL A   1      46.615  27.324  34.617  1.00  0.00     0.001 A 
ATOM     78  C   UNL A   1      47.832  28.517  32.903  1.00  0.00     0.001 A 
ATOM     79  C   UNL A   1      47.822  27.656  34.000  1.00  0.00     0.000 A 
ENDBRANCH  61  74
ENDBRANCH  35  36
ENDBRANCH  27  30
ENDBRANCH  25  26
ENDBRANCH   1  25
TORSDOF 13
ENDMDL
MODEL 3
REMARK VINA RESULT:     -11.2      1.716      7.115
REMARK SMILES C=C1c2ccccc2C(=O)N1[C@](C)(C(=O)NCCCCNC(=O)c1ccc(-c2c3nc(c(-c4ccccc4)c4ccc([nH]4)c(-c4ccccc4)c4nc(c(-c5ccccc5)c5ccc2[nH]5)C=C4)C=C3)cc1)C(F)(F)F
REMARK SMILES IDX 19 1 18 2 17 3 16 4 14 5 15 6 12 8 13 9 11 10 1 11 2 12 3 13
REMARK SMILES IDX 4 14 8 15 9 16 5 17 7 18 10 19 6 20 72 21 73 22 74 23 75 24
REMARK SMILES IDX 20 25 21 26 22 27 23 29 24 30 25 31 71 32 26 33 70 34 27 35
REMARK SMILES IDX 28 36 29 37 64 38 30 39 69 40 63 41 65 42 31 43 68 44 62 45
REMARK SMILES IDX 61 46 32 48 54 49 39 50 53 51 40 52 43 53 52 54 66 55 41 56
REMARK SMILES IDX 42 57 51 59 67 60 44 61 33 62 34 63 38 64 35 65 37 66 36 67
REMARK SMILES IDX 55 68 56 69 60 70 57 71 59 72 58 73 45 74 46 75 50 76 47 77
REMARK SMILES IDX 49 78 48 79
REMARK H PARENT 16 7 21 28 65 47 43 58
REMARK Flexibility Score: inf
ROOT
ATOM      1  C   UNL A   1      36.822  21.473  24.993  1.00  0.00     0.023 C 
ENDROOT
BRANCH   1   2
ATOM      2  C   UNL A   1      35.629  21.437  25.944  1.00  0.00     0.023 C 
BRANCH   2   3
ATOM      3  C   UNL A   1      34.769  22.692  25.970  1.00  0.00     0.116 C 
BRANCH   3   4
ATOM      4  N   UNL A   1      33.358  22.465  26.216  1.00  0.00    -0.354 N 
ATOM      5  C   UNL A   1      32.287  22.571  25.370  1.00  0.00     0.255 C 
ATOM      6  O   UNL A   1      31.374  21.772  25.627  1.00  0.00    -0.272 OA
ATOM      7  H   UNL A   1      33.134  22.194  27.136  1.00  0.00     0.163 HD
BRANCH   5   8
ATOM      8  C   UNL A   1      32.192  23.524  24.133  1.00  0.00     0.219 C 
ATOM      9  C   UNL A   1      30.855  23.466  23.366  1.00  0.00     0.056 C 
BRANCH   8  10
ATOM     10  N   UNL A   1      32.502  24.924  24.582  1.00  0.00    -0.285 N 
ATOM     11  C   UNL A   1      33.656  26.073  22.696  1.00  0.00     0.038 C 
ATOM     12  C   UNL A   1      33.173  25.968  23.936  1.00  0.00     0.046 C 
ATOM     13  C   UNL A   1      33.250  27.095  24.883  1.00  0.00     0.010 A 
ATOM     14  C   UNL A   1      33.831  28.353  24.833  1.00  0.00     0.011 A 
ATOM     15  C   UNL A   1      32.579  26.716  26.035  1.00  0.00     0.049 A 
ATOM     16  C   UNL A   1      32.046  25.381  25.822  1.00  0.00     0.260 C 
ATOM     17  C   UNL A   1      33.735  29.187  25.959  1.00  0.00     0.001 A 
ATOM     18  C   UNL A   1      32.470  27.509  27.166  1.00  0.00     0.014 A 
ATOM     19  O   UNL A   1      31.310  24.854  26.638  1.00  0.00    -0.269 OA
ATOM     20  C   UNL A   1      33.067  28.765  27.121  1.00  0.00     0.001 A 
ENDBRANCH   8  10
BRANCH   8  21
ATOM     21  C   UNL A   1      33.205  22.827  23.179  1.00  0.00     0.420 C 
ATOM     22  F   UNL A   1      33.190  21.476  23.348  1.00  0.00    -0.168 F 
ATOM     23  F   UNL A   1      32.869  23.022  21.873  1.00  0.00    -0.168 F 
ATOM     24  F   UNL A   1      34.486  23.228  23.310  1.00  0.00    -0.168 F 
ENDBRANCH   8  21
ENDBRANCH   5   8
ENDBRANCH   3   4
ENDBRANCH   2   3
ENDBRANCH   1   2
BRANCH   1  25
ATOM     25  C   UNL A   1      38.203  21.574  25.638  1.00  0.00     0.116 C 
BRANCH  25  26
ATOM     26  N   UNL A   1      38.998  20.354  25.546  1.00  0.00    -0.352 N 
ATOM     27  C   UNL A   1      40.299  20.117  25.923  1.00  0.00     0.251 C 
ATOM     28  H   UNL A   1      38.531  19.582  25.152  1.00  0.00     0.163 HD
ATOM     29  O   UNL A   1      40.828  19.031  25.707  1.00  0.00    -0.269 OA
BRANCH  27  30
ATOM     30  C   UNL A   1      41.082  21.200  26.551  1.00  0.00     0.039 A 
ATOM     31  C   UNL A   1      41.743  22.115  25.728  1.00  0.00     0.014 A 
ATOM     32  C   UNL A   1      41.097  21.354  27.938  1.00  0.00     0.014 A 
ATOM     33  C   UNL A   1      42.310  23.259  26.291  1.00  0.00     0.010 A 
ATOM     34  C   UNL A   1      41.591  22.531  28.488  1.00  0.00     0.010 A 
ATOM     35  C   UNL A   1      42.176  23.509  27.666  1.00  0.00    -0.014 A 
BRANCH  35  36
ATOM     36  C   UNL A   1      42.582  24.805  28.264  1.00  0.00     0.031 A 
ATOM     37  C   UNL A   1      41.567  25.891  28.478  1.00  0.00     0.074 A 
ATOM     38  C   UNL A   1      43.885  25.042  28.517  1.00  0.00     0.049 A 
ATOM     39  N   UNL A   1      41.752  27.127  28.865  1.00  0.00    -0.248 NA
ATOM     40  C   UNL A   1      40.165  25.549  28.194  1.00  0.00     0.031 C 
ATOM     41  C   UNL A   1      44.979  24.087  28.319  1.00  0.00     0.029 A 
ATOM     42  N   UNL A   1      44.513  26.171  28.983  1.00  0.00    -0.354 N 
ATOM     43  C   UNL A   1      40.496  27.717  28.849  1.00  0.00     0.074 A 
ATOM     44  C   UNL A   1      39.563  26.716  28.376  1.00  0.00     0.031 C 
ATOM     45  C   UNL A   1      46.136  24.660  28.686  1.00  0.00     0.029 A 
ATOM     46  C   UNL A   1      45.876  26.036  29.096  1.00  0.00     0.049 A 
ATOM     47  H   UNL A   1      44.033  26.998  29.213  1.00  0.00     0.167 HD
ATOM     48  C   UNL A   1      40.144  28.974  29.211  1.00  0.00     0.031 A 
ATOM     49  C   UNL A   1      46.815  26.923  29.474  1.00  0.00     0.031 A 
ATOM     50  C   UNL A   1      41.065  29.967  29.695  1.00  0.00     0.049 A 
ATOM     51  C   UNL A   1      46.404  28.320  29.839  1.00  0.00     0.074 A 
ATOM     52  C   UNL A   1      40.794  31.247  30.145  1.00  0.00     0.029 A 
ATOM     53  N   UNL A   1      42.436  29.790  29.789  1.00  0.00    -0.354 N 
ATOM     54  N   UNL A   1      45.204  28.845  29.871  1.00  0.00    -0.248 NA
ATOM     55  C   UNL A   1      47.480  29.249  30.217  1.00  0.00     0.031 C 
ATOM     56  C   UNL A   1      42.007  31.861  30.472  1.00  0.00     0.029 A 
ATOM     57  C   UNL A   1      43.028  30.948  30.265  1.00  0.00     0.049 A 
ATOM     58  H   UNL A   1      42.917  28.964  29.551  1.00  0.00     0.167 HD
ATOM     59  C   UNL A   1      45.377  30.157  30.290  1.00  0.00     0.074 A 
ATOM     60  C   UNL A   1      46.795  30.344  30.513  1.00  0.00     0.031 C 
ATOM     61  C   UNL A   1      44.441  31.119  30.477  1.00  0.00     0.031 A 
BRANCH  48  62
ATOM     62  C   UNL A   1      38.693  29.341  29.088  1.00  0.00    -0.014 A 
ATOM     63  C   UNL A   1      38.164  29.806  27.874  1.00  0.00     0.009 A 
ATOM     64  C   UNL A   1      37.840  29.202  30.194  1.00  0.00     0.009 A 
ATOM     65  C   UNL A   1      36.817  30.163  27.779  1.00  0.00     0.001 A 
ATOM     66  C   UNL A   1      36.488  29.534  30.089  1.00  0.00     0.001 A 
ATOM     67  C   UNL A   1      35.980  30.024  28.886  1.00  0.00     0.000 A 
ENDBRANCH  48  62
BRANCH  49  68
ATOM     68  C   UNL A   1      48.242  26.517  29.533  1.00  0.00    -0.014 A 
ATOM     69  C   UNL A   1      49.081  26.729  28.428  1.00  0.00     0.009 A 
ATOM     70  C   UNL A   1      48.773  25.916  30.684  1.00  0.00     0.009 A 
ATOM     71  C   UNL A   1      50.419  26.329  28.468  1.00  0.00     0.001 A 
ATOM     72  C   UNL A   1      50.117  25.539  30.730  1.00  0.00     0.001 A 
ATOM     73  C   UNL A   1      50.936  25.740  29.621  1.00  0.00     0.000 A 
ENDBRANCH  49  68
BRANCH  61  74
ATOM     74  C   UNL A   1      44.920  32.455  30.967  1.00  0.00    -0.014 A 
ATOM     75  C   UNL A   1      45.256  33.477  30.066  1.00  0.00     0.009 A 
ATOM     76  C   UNL A   1      44.987  32.708  32.345  1.00  0.00     0.009 A 
ATOM     77  C   UNL A   1      45.672  34.722  30.540  1.00  0.00     0.001 A 
ATOM     78  C   UNL A   1      45.382  33.960  32.815  1.00  0.00     0.001 A 
ATOM     79  C   UNL A   1      45.729  34.965  31.913  1.00  0.00     0.000 A 
ENDBRANCH  61  74
ENDBRANCH  35  36
ENDBRANCH  27  30
ENDBRANCH  25  26
ENDBRANCH   1  25
TORSDOF 13
ENDMDL
