MODEL 1
REMARK VINA RESULT:     -13.1      0.000      0.000
REMARK SMILES Cc1c(CC(=O)NCCCCNC(=O)c2ccc(-c3c4nc(c(-c5ccccc5)c5ccc([nH]5)c(-c5ccccc5)c5nc(c(-c6ccccc6)c6ccc3[nH]6)C=C5)C=C4)cc2)c2cc(O)ccc2n1C(=O)c1ccc(Cl)cc1
REMARK SMILES IDX 9 1 8 2 7 3 5 4 6 5 4 7 3 8 1 9 2 10 70 11 63 12 69 13 64 14
REMARK SMILES IDX 68 15 65 16 67 17 71 18 72 19 73 20 74 21 79 22 75 23 78 24
REMARK SMILES IDX 76 25 77 26 66 27 10 29 11 30 12 31 13 32 14 34 15 35 16 36
REMARK SMILES IDX 62 37 17 38 61 39 18 40 19 41 20 42 55 43 21 44 60 45 54 46
REMARK SMILES IDX 56 47 22 48 59 49 53 50 52 51 23 53 45 54 30 55 44 56 31 57
REMARK SMILES IDX 34 58 43 59 57 60 32 61 33 62 42 64 58 65 35 66 24 67 25 68
REMARK SMILES IDX 29 69 26 70 28 71 27 72 46 73 47 74 51 75 48 76 50 77 49 78
REMARK SMILES IDX 36 79 37 80 41 81 38 82 40 83 39 84
REMARK H PARENT 7 6 66 28 12 33 56 52 34 63
REMARK Flexibility Score: inf
ROOT
ATOM      1  C   UNL A   1      31.787  28.834  27.448  1.00  0.00     0.023 C 
ENDROOT
BRANCH   1   2
ATOM      2  C   UNL A   1      31.413  27.828  26.362  1.00  0.00     0.116 C 
BRANCH   2   3
ATOM      3  N   UNL A   1      31.217  26.500  26.904  1.00  0.00    -0.356 N 
ATOM      4  C   UNL A   1      31.791  25.327  26.503  1.00  0.00     0.224 C 
ATOM      5  O   UNL A   1      31.491  24.296  27.110  1.00  0.00    -0.275 OA
ATOM      6  H   UNL A   1      30.588  26.433  27.658  1.00  0.00     0.163 HD
BRANCH   4   7
ATOM      7  C   UNL A   1      32.821  25.325  25.385  1.00  0.00     0.138 C 
BRANCH   7   8
ATOM      8  C   UNL A   1      33.185  23.946  24.909  1.00  0.00    -0.009 A 
ATOM      9  C   UNL A   1      31.080  23.345  23.500  1.00  0.00     0.065 C 
ATOM     10  C   UNL A   1      32.427  23.098  24.110  1.00  0.00     0.028 A 
ATOM     11  N   UNL A   1      33.102  21.875  23.978  1.00  0.00    -0.280 N 
ATOM     12  C   UNL A   1      34.416  23.281  25.173  1.00  0.00     0.008 A 
ATOM     13  C   UNL A   1      34.386  22.043  24.521  1.00  0.00     0.057 A 
ATOM     14  C   UNL A   1      35.570  23.657  25.896  1.00  0.00     0.056 A 
ATOM     15  C   UNL A   1      35.537  21.225  24.514  1.00  0.00     0.031 A 
ATOM     16  C   UNL A   1      36.669  22.807  25.939  1.00  0.00     0.116 A 
ATOM     17  C   UNL A   1      36.665  21.610  25.246  1.00  0.00     0.048 A 
BRANCH  11  18
ATOM     18  C   UNL A   1      32.559  20.693  23.393  1.00  0.00     0.262 C 
ATOM     19  O   UNL A   1      31.885  20.792  22.366  1.00  0.00    -0.268 OA
BRANCH  18  20
ATOM     20  C   UNL A   1      32.737  19.324  23.900  1.00  0.00     0.040 A 
ATOM     21  C   UNL A   1      33.086  18.271  23.048  1.00  0.00     0.015 A 
ATOM     22  C   UNL A   1      32.543  19.104  25.269  1.00  0.00     0.015 A 
ATOM     23  C   UNL A   1      33.154  16.973  23.561  1.00  0.00     0.021 A 
ATOM     24  C   UNL A   1      32.622  17.808  25.776  1.00  0.00     0.021 A 
ATOM     25  C   UNL A   1      32.907  16.746  24.917  1.00  0.00     0.041 A 
ATOM     26  Cl  UNL A   1      32.937  15.141  25.534  1.00  0.00    -0.084 Cl
ENDBRANCH  18  20
ENDBRANCH  11  18
BRANCH  16  27
ATOM     27  O   UNL A   1      37.751  23.203  26.666  1.00  0.00    -0.508 OA
ATOM     28  H   UNL A   1      37.949  24.115  26.751  1.00  0.00     0.293 HD
ENDBRANCH  16  27
ENDBRANCH   7   8
ENDBRANCH   4   7
ENDBRANCH   2   3
ENDBRANCH   1   2
BRANCH   1  29
ATOM     29  C   UNL A   1      32.243  30.196  26.910  1.00  0.00     0.023 C 
BRANCH  29  30
ATOM     30  C   UNL A   1      33.763  30.380  26.860  1.00  0.00     0.116 C 
BRANCH  30  31
ATOM     31  N   UNL A   1      34.243  31.455  27.704  1.00  0.00    -0.352 N 
ATOM     32  C   UNL A   1      35.427  31.727  28.330  1.00  0.00     0.251 C 
ATOM     33  H   UNL A   1      33.562  32.149  27.861  1.00  0.00     0.163 HD
ATOM     34  O   UNL A   1      35.510  32.822  28.892  1.00  0.00    -0.269 OA
BRANCH  32  35
ATOM     35  C   UNL A   1      36.574  30.785  28.431  1.00  0.00     0.039 A 
ATOM     36  C   UNL A   1      36.515  29.414  28.184  1.00  0.00     0.014 A 
ATOM     37  C   UNL A   1      37.792  31.332  28.876  1.00  0.00     0.014 A 
ATOM     38  C   UNL A   1      37.596  28.597  28.474  1.00  0.00     0.010 A 
ATOM     39  C   UNL A   1      38.890  30.521  29.149  1.00  0.00     0.010 A 
ATOM     40  C   UNL A   1      38.768  29.145  28.996  1.00  0.00    -0.014 A 
BRANCH  40  41
ATOM     41  C   UNL A   1      39.833  28.209  29.332  1.00  0.00     0.031 A 
ATOM     42  C   UNL A   1      40.258  28.195  30.757  1.00  0.00     0.074 A 
ATOM     43  C   UNL A   1      40.391  27.380  28.431  1.00  0.00     0.049 A 
ATOM     44  N   UNL A   1      41.428  28.451  31.247  1.00  0.00    -0.248 NA
ATOM     45  C   UNL A   1      39.222  27.939  31.768  1.00  0.00     0.031 C 
ATOM     46  C   UNL A   1      39.910  27.066  27.082  1.00  0.00     0.029 A 
ATOM     47  N   UNL A   1      41.466  26.556  28.583  1.00  0.00    -0.354 N 
ATOM     48  C   UNL A   1      41.319  28.257  32.623  1.00  0.00     0.074 A 
ATOM     49  C   UNL A   1      39.921  28.041  32.898  1.00  0.00     0.031 C 
ATOM     50  C   UNL A   1      40.541  25.957  26.636  1.00  0.00     0.029 A 
ATOM     51  C   UNL A   1      41.572  25.593  27.592  1.00  0.00     0.049 A 
ATOM     52  H   UNL A   1      42.107  26.637  29.325  1.00  0.00     0.167 HD
ATOM     53  C   UNL A   1      42.409  28.113  33.425  1.00  0.00     0.031 A 
ATOM     54  C   UNL A   1      42.410  24.533  27.588  1.00  0.00     0.031 A 
ATOM     55  C   UNL A   1      43.618  28.546  32.782  1.00  0.00     0.049 A 
ATOM     56  C   UNL A   1      43.538  24.818  28.497  1.00  0.00     0.074 A 
ATOM     57  C   UNL A   1      44.206  29.754  32.485  1.00  0.00     0.029 A 
ATOM     58  N   UNL A   1      44.278  27.581  32.069  1.00  0.00    -0.354 N 
ATOM     59  N   UNL A   1      44.426  25.745  28.276  1.00  0.00    -0.248 NA
ATOM     60  C   UNL A   1      43.546  24.256  29.841  1.00  0.00     0.031 C 
ATOM     61  C   UNL A   1      45.041  29.508  31.357  1.00  0.00     0.029 A 
ATOM     62  C   UNL A   1      44.938  28.158  31.016  1.00  0.00     0.049 A 
ATOM     63  H   UNL A   1      44.280  26.619  32.282  1.00  0.00     0.167 HD
ATOM     64  C   UNL A   1      44.810  26.167  29.535  1.00  0.00     0.074 A 
ATOM     65  C   UNL A   1      44.385  25.106  30.438  1.00  0.00     0.031 C 
ATOM     66  C   UNL A   1      45.159  27.464  29.764  1.00  0.00     0.031 A 
BRANCH  53  67
ATOM     67  C   UNL A   1      42.454  27.230  34.650  1.00  0.00    -0.014 A 
ATOM     68  C   UNL A   1      41.892  27.595  35.887  1.00  0.00     0.009 A 
ATOM     69  C   UNL A   1      42.818  25.877  34.499  1.00  0.00     0.009 A 
ATOM     70  C   UNL A   1      41.689  26.666  36.913  1.00  0.00     0.001 A 
ATOM     71  C   UNL A   1      42.581  24.937  35.510  1.00  0.00     0.001 A 
ATOM     72  C   UNL A   1      42.011  25.331  36.716  1.00  0.00     0.000 A 
ENDBRANCH  53  67
BRANCH  54  73
ATOM     73  C   UNL A   1      42.135  23.178  27.076  1.00  0.00    -0.014 A 
ATOM     74  C   UNL A   1      41.091  22.420  27.637  1.00  0.00     0.009 A 
ATOM     75  C   UNL A   1      43.063  22.521  26.255  1.00  0.00     0.009 A 
ATOM     76  C   UNL A   1      41.004  21.042  27.426  1.00  0.00     0.001 A 
ATOM     77  C   UNL A   1      42.977  21.140  26.045  1.00  0.00     0.001 A 
ATOM     78  C   UNL A   1      41.959  20.399  26.646  1.00  0.00     0.000 A 
ENDBRANCH  54  73
BRANCH  66  79
ATOM     79  C   UNL A   1      45.541  28.310  28.578  1.00  0.00    -0.014 A 
ATOM     80  C   UNL A   1      46.905  28.477  28.294  1.00  0.00     0.009 A 
ATOM     81  C   UNL A   1      44.608  29.045  27.829  1.00  0.00     0.009 A 
ATOM     82  C   UNL A   1      47.328  29.364  27.303  1.00  0.00     0.001 A 
ATOM     83  C   UNL A   1      45.029  29.913  26.818  1.00  0.00     0.001 A 
ATOM     84  C   UNL A   1      46.389  30.080  26.562  1.00  0.00     0.000 A 
ENDBRANCH  66  79
ENDBRANCH  40  41
ENDBRANCH  32  35
ENDBRANCH  30  31
ENDBRANCH  29  30
ENDBRANCH   1  29
TORSDOF 15
ENDMDL
MODEL 2
REMARK VINA RESULT:     -13.1      2.655      6.451
REMARK SMILES Cc1c(CC(=O)NCCCCNC(=O)c2ccc(-c3c4nc(c(-c5ccccc5)c5ccc([nH]5)c(-c5ccccc5)c5nc(c(-c6ccccc6)c6ccc3[nH]6)C=C5)C=C4)cc2)c2cc(O)ccc2n1C(=O)c1ccc(Cl)cc1
REMARK SMILES IDX 9 1 8 2 7 3 5 4 6 5 4 7 3 8 1 9 2 10 70 11 63 12 69 13 64 14
REMARK SMILES IDX 68 15 65 16 67 17 71 18 72 19 73 20 74 21 79 22 75 23 78 24
REMARK SMILES IDX 76 25 77 26 66 27 10 29 11 30 12 31 13 32 14 34 15 35 16 36
REMARK SMILES IDX 62 37 17 38 61 39 18 40 19 41 20 42 55 43 21 44 60 45 54 46
REMARK SMILES IDX 56 47 22 48 59 49 53 50 52 51 23 53 45 54 30 55 44 56 31 57
REMARK SMILES IDX 34 58 43 59 57 60 32 61 33 62 42 64 58 65 35 66 24 67 25 68
REMARK SMILES IDX 29 69 26 70 28 71 27 72 46 73 47 74 51 75 48 76 50 77 49 78
REMARK SMILES IDX 36 79 37 80 41 81 38 82 40 83 39 84
REMARK H PARENT 7 6 66 28 12 33 56 52 34 63
REMARK Flexibility Score: inf
ROOT
ATOM      1  C   UNL A   1      32.809  27.689  25.992  1.00  0.00     0.023 C 
ENDROOT
BRANCH   1   2
ATOM      2  C   UNL A   1      31.340  27.817  25.595  1.00  0.00     0.116 C 
BRANCH   2   3
ATOM      3  N   UNL A   1      31.189  28.173  24.200  1.00  0.00    -0.356 N 
ATOM      4  C   UNL A   1      30.783  27.384  23.162  1.00  0.00     0.224 C 
ATOM      5  O   UNL A   1      30.713  27.890  22.039  1.00  0.00    -0.275 OA
ATOM      6  H   UNL A   1      31.407  29.105  23.970  1.00  0.00     0.163 HD
BRANCH   4   7
ATOM      7  C   UNL A   1      30.368  25.944  23.416  1.00  0.00     0.138 C 
BRANCH   7   8
ATOM      8  C   UNL A   1      31.506  25.058  23.842  1.00  0.00    -0.009 A 
ATOM      9  C   UNL A   1      33.319  25.722  22.096  1.00  0.00     0.065 C 
ATOM     10  C   UNL A   1      32.765  24.960  23.262  1.00  0.00     0.028 A 
ATOM     11  N   UNL A   1      33.488  23.951  23.917  1.00  0.00    -0.280 N 
ATOM     12  C   UNL A   1      31.492  24.180  24.962  1.00  0.00     0.008 A 
ATOM     13  C   UNL A   1      32.749  23.571  25.048  1.00  0.00     0.057 A 
ATOM     14  C   UNL A   1      30.508  23.882  25.932  1.00  0.00     0.056 A 
ATOM     15  C   UNL A   1      33.052  22.738  26.149  1.00  0.00     0.031 A 
ATOM     16  C   UNL A   1      30.801  23.004  26.969  1.00  0.00     0.116 A 
ATOM     17  C   UNL A   1      32.060  22.447  27.091  1.00  0.00     0.048 A 
BRANCH  11  18
ATOM     18  C   UNL A   1      34.744  23.428  23.490  1.00  0.00     0.262 C 
ATOM     19  O   UNL A   1      34.924  23.216  22.289  1.00  0.00    -0.268 OA
BRANCH  18  20
ATOM     20  C   UNL A   1      35.886  23.115  24.362  1.00  0.00     0.040 A 
ATOM     21  C   UNL A   1      36.409  24.065  25.246  1.00  0.00     0.015 A 
ATOM     22  C   UNL A   1      36.439  21.832  24.279  1.00  0.00     0.015 A 
ATOM     23  C   UNL A   1      37.550  23.750  25.988  1.00  0.00     0.021 A 
ATOM     24  C   UNL A   1      37.573  21.522  25.029  1.00  0.00     0.021 A 
ATOM     25  C   UNL A   1      38.135  22.487  25.865  1.00  0.00     0.041 A 
ATOM     26  Cl  UNL A   1      39.571  22.122  26.737  1.00  0.00    -0.084 Cl
ENDBRANCH  18  20
ENDBRANCH  11  18
BRANCH  16  27
ATOM     27  O   UNL A   1      29.813  22.731  27.868  1.00  0.00    -0.508 OA
ATOM     28  H   UNL A   1      29.690  21.854  28.175  1.00  0.00     0.293 HD
ENDBRANCH  16  27
ENDBRANCH   7   8
ENDBRANCH   4   7
ENDBRANCH   2   3
ENDBRANCH   1   2
BRANCH   1  29
ATOM     29  C   UNL A   1      33.190  28.485  27.246  1.00  0.00     0.023 C 
BRANCH  29  30
ATOM     30  C   UNL A   1      34.640  28.980  27.264  1.00  0.00     0.116 C 
BRANCH  30  31
ATOM     31  N   UNL A   1      34.968  29.768  28.435  1.00  0.00    -0.352 N 
ATOM     32  C   UNL A   1      36.121  30.039  29.117  1.00  0.00     0.251 C 
ATOM     33  H   UNL A   1      34.180  30.209  28.829  1.00  0.00     0.163 HD
ATOM     34  O   UNL A   1      36.034  30.863  30.031  1.00  0.00    -0.269 OA
BRANCH  32  35
ATOM     35  C   UNL A   1      37.430  29.376  28.875  1.00  0.00     0.039 A 
ATOM     36  C   UNL A   1      38.060  28.493  29.751  1.00  0.00     0.014 A 
ATOM     37  C   UNL A   1      38.100  29.733  27.689  1.00  0.00     0.014 A 
ATOM     38  C   UNL A   1      39.357  28.066  29.511  1.00  0.00     0.010 A 
ATOM     39  C   UNL A   1      39.393  29.291  27.430  1.00  0.00     0.010 A 
ATOM     40  C   UNL A   1      40.037  28.499  28.373  1.00  0.00    -0.014 A 
BRANCH  40  41
ATOM     41  C   UNL A   1      41.417  28.053  28.229  1.00  0.00     0.031 A 
ATOM     42  C   UNL A   1      41.605  26.725  27.586  1.00  0.00     0.074 A 
ATOM     43  C   UNL A   1      42.471  28.793  28.620  1.00  0.00     0.049 A 
ATOM     44  N   UNL A   1      42.164  25.667  28.079  1.00  0.00    -0.248 NA
ATOM     45  C   UNL A   1      41.025  26.534  26.249  1.00  0.00     0.031 C 
ATOM     46  C   UNL A   1      42.481  30.208  29.001  1.00  0.00     0.029 A 
ATOM     47  N   UNL A   1      43.789  28.445  28.657  1.00  0.00    -0.354 N 
ATOM     48  C   UNL A   1      42.131  24.708  27.068  1.00  0.00     0.074 A 
ATOM     49  C   UNL A   1      41.333  25.261  26.003  1.00  0.00     0.031 C 
ATOM     50  C   UNL A   1      43.756  30.656  28.997  1.00  0.00     0.029 A 
ATOM     51  C   UNL A   1      44.645  29.527  28.778  1.00  0.00     0.049 A 
ATOM     52  H   UNL A   1      44.102  27.514  28.605  1.00  0.00     0.167 HD
ATOM     53  C   UNL A   1      42.907  23.591  27.100  1.00  0.00     0.031 A 
ATOM     54  C   UNL A   1      45.989  29.508  28.645  1.00  0.00     0.031 A 
ATOM     55  C   UNL A   1      43.446  23.341  28.407  1.00  0.00     0.049 A 
ATOM     56  C   UNL A   1      46.467  28.130  28.876  1.00  0.00     0.074 A 
ATOM     57  C   UNL A   1      42.971  22.841  29.597  1.00  0.00     0.029 A 
ATOM     58  N   UNL A   1      44.655  23.932  28.663  1.00  0.00    -0.354 N 
ATOM     59  N   UNL A   1      46.395  27.524  30.026  1.00  0.00    -0.248 NA
ATOM     60  C   UNL A   1      46.786  27.274  27.740  1.00  0.00     0.031 C 
ATOM     61  C   UNL A   1      43.797  23.407  30.610  1.00  0.00     0.029 A 
ATOM     62  C   UNL A   1      44.750  24.224  29.999  1.00  0.00     0.049 A 
ATOM     63  H   UNL A   1      45.350  24.118  27.991  1.00  0.00     0.167 HD
ATOM     64  C   UNL A   1      46.246  26.187  29.708  1.00  0.00     0.074 A 
ATOM     65  C   UNL A   1      46.677  26.076  28.321  1.00  0.00     0.031 C 
ATOM     66  C   UNL A   1      45.505  25.357  30.495  1.00  0.00     0.031 A 
BRANCH  53  67
ATOM     67  C   UNL A   1      43.497  22.930  25.877  1.00  0.00    -0.014 A 
ATOM     68  C   UNL A   1      44.252  23.621  24.912  1.00  0.00     0.009 A 
ATOM     69  C   UNL A   1      43.545  21.522  25.821  1.00  0.00     0.009 A 
ATOM     70  C   UNL A   1      45.023  22.955  23.954  1.00  0.00     0.001 A 
ATOM     71  C   UNL A   1      44.346  20.852  24.887  1.00  0.00     0.001 A 
ATOM     72  C   UNL A   1      45.089  21.569  23.956  1.00  0.00     0.000 A 
ENDBRANCH  53  67
BRANCH  54  73
ATOM     73  C   UNL A   1      46.844  30.546  28.040  1.00  0.00    -0.014 A 
ATOM     74  C   UNL A   1      48.010  30.963  28.709  1.00  0.00     0.009 A 
ATOM     75  C   UNL A   1      46.378  31.325  26.973  1.00  0.00     0.009 A 
ATOM     76  C   UNL A   1      48.661  32.148  28.355  1.00  0.00     0.001 A 
ATOM     77  C   UNL A   1      47.029  32.513  26.619  1.00  0.00     0.001 A 
ATOM     78  C   UNL A   1      48.158  32.932  27.322  1.00  0.00     0.000 A 
ENDBRANCH  54  73
BRANCH  66  79
ATOM     79  C   UNL A   1      45.225  25.791  31.909  1.00  0.00    -0.014 A 
ATOM     80  C   UNL A   1      46.038  25.280  32.933  1.00  0.00     0.009 A 
ATOM     81  C   UNL A   1      44.114  26.571  32.265  1.00  0.00     0.009 A 
ATOM     82  C   UNL A   1      45.740  25.525  34.274  1.00  0.00     0.001 A 
ATOM     83  C   UNL A   1      43.831  26.841  33.607  1.00  0.00     0.001 A 
ATOM     84  C   UNL A   1      44.639  26.309  34.612  1.00  0.00     0.000 A 
ENDBRANCH  66  79
ENDBRANCH  40  41
ENDBRANCH  32  35
ENDBRANCH  30  31
ENDBRANCH  29  30
ENDBRANCH   1  29
TORSDOF 15
ENDMDL
MODEL 3
REMARK VINA RESULT:     -13.1      2.270      7.556
REMARK SMILES Cc1c(CC(=O)NCCCCNC(=O)c2ccc(-c3c4nc(c(-c5ccccc5)c5ccc([nH]5)c(-c5ccccc5)c5nc(c(-c6ccccc6)c6ccc3[nH]6)C=C5)C=C4)cc2)c2cc(O)ccc2n1C(=O)c1ccc(Cl)cc1
REMARK SMILES IDX 9 1 8 2 7 3 5 4 6 5 4 7 3 8 1 9 2 10 70 11 63 12 69 13 64 14
REMARK SMILES IDX 68 15 65 16 67 17 71 18 72 19 73 20 74 21 79 22 75 23 78 24
REMARK SMILES IDX 76 25 77 26 66 27 10 29 11 30 12 31 13 32 14 34 15 35 16 36
REMARK SMILES IDX 62 37 17 38 61 39 18 40 19 41 20 42 55 43 21 44 60 45 54 46
REMARK SMILES IDX 56 47 22 48 59 49 53 50 52 51 23 53 45 54 30 55 44 56 31 57
REMARK SMILES IDX 34 58 43 59 57 60 32 61 33 62 42 64 58 65 35 66 24 67 25 68
REMARK SMILES IDX 29 69 26 70 28 71 27 72 46 73 47 74 51 75 48 76 50 77 49 78
REMARK SMILES IDX 36 79 37 80 41 81 38 82 40 83 39 84
REMARK H PARENT 7 6 66 28 12 33 56 52 34 63
REMARK Flexibility Score: inf
ROOT
ATOM      1  C   UNL A   1      40.430  21.442  26.333  1.00  0.00     0.023 C 
ENDROOT
BRANCH   1   2
ATOM      2  C   UNL A   1      38.965  21.858  26.445  1.00  0.00     0.116 C 
BRANCH   2   3
ATOM      3  N   UNL A   1      38.516  22.567  25.266  1.00  0.00    -0.356 N 
ATOM      4  C   UNL A   1      37.302  23.152  25.039  1.00  0.00     0.224 C 
ATOM      5  O   UNL A   1      37.123  23.720  23.958  1.00  0.00    -0.275 OA
ATOM      6  H   UNL A   1      39.168  22.637  24.533  1.00  0.00     0.163 HD
BRANCH   4   7
ATOM      7  C   UNL A   1      36.241  23.154  26.127  1.00  0.00     0.138 C 
BRANCH   7   8
ATOM      8  C   UNL A   1      34.942  22.528  25.698  1.00  0.00    -0.009 A 
ATOM      9  C   UNL A   1      35.771  20.202  24.873  1.00  0.00     0.065 C 
ATOM     10  C   UNL A   1      34.751  21.266  25.149  1.00  0.00     0.028 A 
ATOM     11  N   UNL A   1      33.397  21.117  24.814  1.00  0.00    -0.280 N 
ATOM     12  C   UNL A   1      33.658  23.128  25.823  1.00  0.00     0.008 A 
ATOM     13  C   UNL A   1      32.707  22.213  25.356  1.00  0.00     0.057 A 
ATOM     14  C   UNL A   1      33.230  24.375  26.331  1.00  0.00     0.056 A 
ATOM     15  C   UNL A   1      31.331  22.506  25.480  1.00  0.00     0.031 A 
ATOM     16  C   UNL A   1      31.873  24.675  26.380  1.00  0.00     0.116 A 
ATOM     17  C   UNL A   1      30.929  23.750  25.975  1.00  0.00     0.048 A 
BRANCH  11  18
ATOM     18  C   UNL A   1      32.848  20.038  24.060  1.00  0.00     0.262 C 
ATOM     19  O   UNL A   1      32.218  20.291  23.031  1.00  0.00    -0.268 OA
BRANCH  18  20
ATOM     20  C   UNL A   1      32.970  18.610  24.388  1.00  0.00     0.040 A 
ATOM     21  C   UNL A   1      33.434  17.684  23.449  1.00  0.00     0.015 A 
ATOM     22  C   UNL A   1      32.604  18.203  25.676  1.00  0.00     0.015 A 
ATOM     23  C   UNL A   1      33.447  16.326  23.779  1.00  0.00     0.021 A 
ATOM     24  C   UNL A   1      32.627  16.847  26.002  1.00  0.00     0.021 A 
ATOM     25  C   UNL A   1      33.029  15.914  25.047  1.00  0.00     0.041 A 
ATOM     26  Cl  UNL A   1      32.993  14.238  25.431  1.00  0.00    -0.084 Cl
ENDBRANCH  18  20
ENDBRANCH  11  18
BRANCH  16  27
ATOM     27  O   UNL A   1      31.510  25.899  26.858  1.00  0.00    -0.508 OA
ATOM     28  H   UNL A   1      31.948  26.669  26.553  1.00  0.00     0.293 HD
ENDBRANCH  16  27
ENDBRANCH   7   8
ENDBRANCH   4   7
ENDBRANCH   2   3
ENDBRANCH   1   2
BRANCH   1  29
ATOM     29  C   UNL A   1      40.635  19.961  25.991  1.00  0.00     0.023 C 
BRANCH  29  30
ATOM     30  C   UNL A   1      42.015  19.410  26.367  1.00  0.00     0.116 C 
BRANCH  30  31
ATOM     31  N   UNL A   1      43.013  19.594  25.332  1.00  0.00    -0.352 N 
ATOM     32  C   UNL A   1      43.861  20.608  24.988  1.00  0.00     0.251 C 
ATOM     33  H   UNL A   1      43.100  18.808  24.745  1.00  0.00     0.163 HD
ATOM     34  O   UNL A   1      44.670  20.363  24.090  1.00  0.00    -0.269 OA
BRANCH  32  35
ATOM     35  C   UNL A   1      43.832  21.977  25.568  1.00  0.00     0.039 A 
ATOM     36  C   UNL A   1      44.303  22.327  26.833  1.00  0.00     0.014 A 
ATOM     37  C   UNL A   1      43.217  22.973  24.785  1.00  0.00     0.014 A 
ATOM     38  C   UNL A   1      44.072  23.593  27.348  1.00  0.00     0.010 A 
ATOM     39  C   UNL A   1      43.001  24.253  25.286  1.00  0.00     0.010 A 
ATOM     40  C   UNL A   1      43.385  24.542  26.591  1.00  0.00    -0.014 A 
BRANCH  40  41
ATOM     41  C   UNL A   1      43.130  25.826  27.230  1.00  0.00     0.031 A 
ATOM     42  C   UNL A   1      44.149  26.882  26.990  1.00  0.00     0.074 A 
ATOM     43  C   UNL A   1      42.033  26.072  27.970  1.00  0.00     0.049 A 
ATOM     44  N   UNL A   1      44.877  27.507  27.859  1.00  0.00    -0.248 NA
ATOM     45  C   UNL A   1      44.447  27.229  25.593  1.00  0.00     0.031 C 
ATOM     46  C   UNL A   1      40.819  25.257  28.072  1.00  0.00     0.029 A 
ATOM     47  N   UNL A   1      41.739  27.174  28.717  1.00  0.00    -0.354 N 
ATOM     48  C   UNL A   1      45.634  28.427  27.137  1.00  0.00     0.074 A 
ATOM     49  C   UNL A   1      45.403  28.144  25.743  1.00  0.00     0.031 C 
ATOM     50  C   UNL A   1      39.838  25.998  28.633  1.00  0.00     0.029 A 
ATOM     51  C   UNL A   1      40.403  27.262  29.073  1.00  0.00     0.049 A 
ATOM     52  H   UNL A   1      42.411  27.843  28.979  1.00  0.00     0.167 HD
ATOM     53  C   UNL A   1      46.267  29.474  27.732  1.00  0.00     0.031 A 
ATOM     54  C   UNL A   1      39.790  28.326  29.635  1.00  0.00     0.031 A 
ATOM     55  C   UNL A   1      46.374  29.307  29.154  1.00  0.00     0.049 A 
ATOM     56  C   UNL A   1      40.810  29.168  30.292  1.00  0.00     0.074 A 
ATOM     57  C   UNL A   1      47.156  28.567  30.010  1.00  0.00     0.029 A 
ATOM     58  N   UNL A   1      45.324  29.802  29.881  1.00  0.00    -0.354 N 
ATOM     59  N   UNL A   1      41.496  28.790  31.332  1.00  0.00    -0.248 NA
ATOM     60  C   UNL A   1      41.302  30.365  29.623  1.00  0.00     0.031 C 
ATOM     61  C   UNL A   1      46.381  28.401  31.194  1.00  0.00     0.029 A 
ATOM     62  C   UNL A   1      45.160  29.055  31.018  1.00  0.00     0.049 A 
ATOM     63  H   UNL A   1      44.772  30.577  29.626  1.00  0.00     0.167 HD
ATOM     64  C   UNL A   1      42.711  29.435  31.202  1.00  0.00     0.074 A 
ATOM     65  C   UNL A   1      42.469  30.515  30.256  1.00  0.00     0.031 C 
ATOM     66  C   UNL A   1      43.865  28.853  31.636  1.00  0.00     0.031 A 
BRANCH  53  67
ATOM     67  C   UNL A   1      46.454  30.830  27.093  1.00  0.00    -0.014 A 
ATOM     68  C   UNL A   1      45.384  31.665  26.723  1.00  0.00     0.009 A 
ATOM     69  C   UNL A   1      47.734  31.420  27.113  1.00  0.00     0.009 A 
ATOM     70  C   UNL A   1      45.570  33.014  26.404  1.00  0.00     0.001 A 
ATOM     71  C   UNL A   1      47.919  32.780  26.831  1.00  0.00     0.001 A 
ATOM     72  C   UNL A   1      46.835  33.578  26.481  1.00  0.00     0.000 A 
ENDBRANCH  53  67
BRANCH  54  73
ATOM     73  C   UNL A   1      38.419  28.807  29.381  1.00  0.00    -0.014 A 
ATOM     74  C   UNL A   1      38.082  29.309  28.110  1.00  0.00     0.009 A 
ATOM     75  C   UNL A   1      37.536  29.046  30.442  1.00  0.00     0.009 A 
ATOM     76  C   UNL A   1      36.925  30.068  27.916  1.00  0.00     0.001 A 
ATOM     77  C   UNL A   1      36.377  29.807  30.248  1.00  0.00     0.001 A 
ATOM     78  C   UNL A   1      36.083  30.333  28.991  1.00  0.00     0.000 A 
ENDBRANCH  54  73
BRANCH  66  79
ATOM     79  C   UNL A   1      43.755  27.727  32.630  1.00  0.00    -0.014 A 
ATOM     80  C   UNL A   1      43.466  28.048  33.965  1.00  0.00     0.009 A 
ATOM     81  C   UNL A   1      44.061  26.394  32.313  1.00  0.00     0.009 A 
ATOM     82  C   UNL A   1      43.497  27.069  34.959  1.00  0.00     0.001 A 
ATOM     83  C   UNL A   1      44.064  25.408  33.304  1.00  0.00     0.001 A 
ATOM     84  C   UNL A   1      43.792  25.748  34.628  1.00  0.00     0.000 A 
ENDBRANCH  66  79
ENDBRANCH  40  41
ENDBRANCH  32  35
ENDBRANCH  30  31
ENDBRANCH  29  30
ENDBRANCH   1  29
TORSDOF 15
ENDMDL
