MODEL 1
REMARK VINA RESULT:     -10.3      0.000      0.000
REMARK SMILES Cc1ccc(C(=O)NCCCCNC(=O)c2ccc(-c3c4nc(c(-c5ccccc5)c5ccc([nH]5)c(-c5ccccc5)c5nc(c(-c6ccccc6)c6ccc3[nH]6)C=C5)C=C4)cc2)c2c1N[C@H](c1ccccc1F)[C@H]1CC=C[C@@H]21
REMARK SMILES IDX 11 1 10 2 9 3 8 4 6 5 7 6 5 8 1 9 2 10 3 11 65 12 4 13 64 14
REMARK SMILES IDX 66 15 79 16 67 17 75 19 78 20 76 21 77 22 68 23 69 24 73 25
REMARK SMILES IDX 70 26 72 27 74 28 71 29 12 30 13 31 14 32 15 34 16 35 17 36
REMARK SMILES IDX 63 37 18 38 62 39 19 40 20 41 21 42 56 43 22 44 61 45 55 46
REMARK SMILES IDX 57 47 23 48 60 49 54 50 53 51 24 53 46 54 31 55 45 56 32 57
REMARK SMILES IDX 35 58 44 59 58 60 33 61 34 62 43 64 59 65 36 66 25 67 26 68
REMARK SMILES IDX 30 69 27 70 29 71 28 72 47 73 48 74 52 75 49 76 51 77 50 78
REMARK SMILES IDX 37 79 38 80 42 81 39 82 41 83 40 84
REMARK H PARENT 8 7 66 18 13 33 57 52 35 63
REMARK Flexibility Score: inf
ROOT
ATOM      1  C   UNL A   1      44.985  22.628  25.122  1.00  0.00     0.023 C 
ENDROOT
BRANCH   1   2
ATOM      2  C   UNL A   1      45.096  21.147  25.498  1.00  0.00     0.023 C 
BRANCH   2   3
ATOM      3  C   UNL A   1      43.928  20.281  25.010  1.00  0.00     0.116 C 
BRANCH   3   4
ATOM      4  N   UNL A   1      43.402  19.494  26.106  1.00  0.00    -0.352 N 
ATOM      5  C   UNL A   1      42.282  19.589  26.895  1.00  0.00     0.251 C 
ATOM      6  O   UNL A   1      42.284  18.830  27.863  1.00  0.00    -0.269 OA
ATOM      7  H   UNL A   1      43.970  18.724  26.335  1.00  0.00     0.163 HD
BRANCH   5   8
ATOM      8  C   UNL A   1      41.120  20.516  26.626  1.00  0.00     0.045 A 
ATOM      9  C   UNL A   1      37.626  22.985  25.895  1.00  0.00     0.046 C 
ATOM     10  C   UNL A   1      38.893  22.202  26.120  1.00  0.00    -0.028 A 
ATOM     11  C   UNL A   1      38.871  20.858  25.751  1.00  0.00     0.006 A 
ATOM     12  C   UNL A   1      40.074  22.751  26.657  1.00  0.00     0.042 A 
ATOM     13  C   UNL A   1      39.978  20.046  25.971  1.00  0.00     0.014 A 
ATOM     14  C   UNL A   1      41.177  21.903  26.960  1.00  0.00    -0.005 A 
ATOM     15  N   UNL A   1      40.132  24.107  26.917  1.00  0.00    -0.377 N 
ATOM     16  C   UNL A   1      42.427  22.531  27.551  1.00  0.00     0.050 C 
ATOM     17  C   UNL A   1      41.108  24.689  27.820  1.00  0.00     0.117 C 
ATOM     18  H   UNL A   1      39.487  24.703  26.470  1.00  0.00     0.161 HD
ATOM     19  C   UNL A   1      42.487  24.074  27.548  1.00  0.00     0.031 C 
ATOM     20  C   UNL A   1      42.691  22.222  29.002  1.00  0.00    -0.023 C 
ATOM     21  C   UNL A   1      43.480  24.401  28.679  1.00  0.00     0.034 C 
ATOM     22  C   UNL A   1      43.294  23.248  29.615  1.00  0.00    -0.030 C 
BRANCH  17  23
ATOM     23  C   UNL A   1      40.977  26.206  27.719  1.00  0.00     0.010 A 
ATOM     24  C   UNL A   1      40.840  26.941  28.916  1.00  0.00     0.009 A 
ATOM     25  C   UNL A   1      40.939  26.923  26.518  1.00  0.00     0.128 A 
ATOM     26  C   UNL A   1      40.673  28.328  28.901  1.00  0.00     0.001 A 
ATOM     27  C   UNL A   1      40.776  28.308  26.498  1.00  0.00     0.039 A 
ATOM     28  F   UNL A   1      41.060  26.309  25.334  1.00  0.00    -0.207 F 
ATOM     29  C   UNL A   1      40.641  29.012  27.690  1.00  0.00     0.003 A 
ENDBRANCH  17  23
ENDBRANCH   5   8
ENDBRANCH   3   4
ENDBRANCH   2   3
ENDBRANCH   1   2
BRANCH   1  30
ATOM     30  C   UNL A   1      45.957  23.546  25.850  1.00  0.00     0.116 C 
BRANCH  30  31
ATOM     31  N   UNL A   1      46.696  24.416  24.948  1.00  0.00    -0.352 N 
ATOM     32  C   UNL A   1      46.800  25.784  24.999  1.00  0.00     0.251 C 
ATOM     33  H   UNL A   1      47.178  23.972  24.213  1.00  0.00     0.163 HD
ATOM     34  O   UNL A   1      47.384  26.412  24.127  1.00  0.00    -0.269 OA
BRANCH  32  35
ATOM     35  C   UNL A   1      46.149  26.487  26.118  1.00  0.00     0.039 A 
ATOM     36  C   UNL A   1      46.932  26.887  27.202  1.00  0.00     0.014 A 
ATOM     37  C   UNL A   1      44.790  26.806  26.050  1.00  0.00     0.014 A 
ATOM     38  C   UNL A   1      46.358  27.664  28.205  1.00  0.00     0.010 A 
ATOM     39  C   UNL A   1      44.229  27.614  27.032  1.00  0.00     0.010 A 
ATOM     40  C   UNL A   1      45.011  28.051  28.112  1.00  0.00    -0.014 A 
BRANCH  40  41
ATOM     41  C   UNL A   1      44.407  28.917  29.147  1.00  0.00     0.031 A 
ATOM     42  C   UNL A   1      44.019  28.336  30.472  1.00  0.00     0.074 A 
ATOM     43  C   UNL A   1      44.185  30.216  28.876  1.00  0.00     0.049 A 
ATOM     44  N   UNL A   1      43.483  28.935  31.503  1.00  0.00    -0.248 NA
ATOM     45  C   UNL A   1      44.255  26.896  30.661  1.00  0.00     0.031 C 
ATOM     46  C   UNL A   1      44.498  30.885  27.612  1.00  0.00     0.029 A 
ATOM     47  N   UNL A   1      43.649  31.209  29.656  1.00  0.00    -0.354 N 
ATOM     48  C   UNL A   1      43.316  27.946  32.462  1.00  0.00     0.074 A 
ATOM     49  C   UNL A   1      43.770  26.702  31.879  1.00  0.00     0.031 C 
ATOM     50  C   UNL A   1      44.175  32.185  27.713  1.00  0.00     0.029 A 
ATOM     51  C   UNL A   1      43.616  32.434  29.039  1.00  0.00     0.049 A 
ATOM     52  H   UNL A   1      43.319  31.057  30.572  1.00  0.00     0.167 HD
ATOM     53  C   UNL A   1      42.847  28.070  33.724  1.00  0.00     0.031 A 
ATOM     54  C   UNL A   1      43.190  33.628  29.494  1.00  0.00     0.031 A 
ATOM     55  C   UNL A   1      42.409  29.306  34.307  1.00  0.00     0.049 A 
ATOM     56  C   UNL A   1      42.655  33.736  30.892  1.00  0.00     0.074 A 
ATOM     57  C   UNL A   1      41.957  29.537  35.594  1.00  0.00     0.029 A 
ATOM     58  N   UNL A   1      42.371  30.520  33.641  1.00  0.00    -0.354 N 
ATOM     59  N   UNL A   1      42.542  32.800  31.802  1.00  0.00    -0.248 NA
ATOM     60  C   UNL A   1      42.196  35.063  31.330  1.00  0.00     0.031 C 
ATOM     61  C   UNL A   1      41.618  30.888  35.698  1.00  0.00     0.029 A 
ATOM     62  C   UNL A   1      41.890  31.503  34.487  1.00  0.00     0.049 A 
ATOM     63  H   UNL A   1      42.646  30.663  32.706  1.00  0.00     0.167 HD
ATOM     64  C   UNL A   1      42.016  33.425  32.924  1.00  0.00     0.074 A 
ATOM     65  C   UNL A   1      41.833  34.821  32.583  1.00  0.00     0.031 C 
ATOM     66  C   UNL A   1      41.717  32.886  34.130  1.00  0.00     0.031 A 
BRANCH  53  67
ATOM     67  C   UNL A   1      42.799  26.832  34.567  1.00  0.00    -0.014 A 
ATOM     68  C   UNL A   1      41.593  26.140  34.751  1.00  0.00     0.009 A 
ATOM     69  C   UNL A   1      43.976  26.325  35.138  1.00  0.00     0.009 A 
ATOM     70  C   UNL A   1      41.563  24.967  35.506  1.00  0.00     0.001 A 
ATOM     71  C   UNL A   1      43.944  25.143  35.879  1.00  0.00     0.001 A 
ATOM     72  C   UNL A   1      42.739  24.468  36.066  1.00  0.00     0.000 A 
ENDBRANCH  53  67
BRANCH  54  73
ATOM     73  C   UNL A   1      43.300  34.822  28.621  1.00  0.00    -0.014 A 
ATOM     74  C   UNL A   1      42.184  35.267  27.898  1.00  0.00     0.009 A 
ATOM     75  C   UNL A   1      44.499  35.545  28.544  1.00  0.00     0.009 A 
ATOM     76  C   UNL A   1      42.268  36.416  27.108  1.00  0.00     0.001 A 
ATOM     77  C   UNL A   1      44.575  36.702  27.764  1.00  0.00     0.001 A 
ATOM     78  C   UNL A   1      43.461  37.135  27.045  1.00  0.00     0.000 A 
ENDBRANCH  54  73
BRANCH  66  79
ATOM     79  C   UNL A   1      41.173  33.797  35.188  1.00  0.00    -0.014 A 
ATOM     80  C   UNL A   1      42.037  34.536  36.008  1.00  0.00     0.009 A 
ATOM     81  C   UNL A   1      39.789  34.009  35.278  1.00  0.00     0.009 A 
ATOM     82  C   UNL A   1      41.522  35.476  36.902  1.00  0.00     0.001 A 
ATOM     83  C   UNL A   1      39.278  34.960  36.161  1.00  0.00     0.001 A 
ATOM     84  C   UNL A   1      40.146  35.694  36.971  1.00  0.00     0.000 A 
ENDBRANCH  66  79
ENDBRANCH  40  41
ENDBRANCH  32  35
ENDBRANCH  30  31
ENDBRANCH   1  30
TORSDOF 12
ENDMDL
MODEL 2
REMARK VINA RESULT:     -10.2      0.363      5.755
REMARK SMILES Cc1ccc(C(=O)NCCCCNC(=O)c2ccc(-c3c4nc(c(-c5ccccc5)c5ccc([nH]5)c(-c5ccccc5)c5nc(c(-c6ccccc6)c6ccc3[nH]6)C=C5)C=C4)cc2)c2c1N[C@H](c1ccccc1F)[C@H]1CC=C[C@@H]21
REMARK SMILES IDX 11 1 10 2 9 3 8 4 6 5 7 6 5 8 1 9 2 10 3 11 65 12 4 13 64 14
REMARK SMILES IDX 66 15 79 16 67 17 75 19 78 20 76 21 77 22 68 23 69 24 73 25
REMARK SMILES IDX 70 26 72 27 74 28 71 29 12 30 13 31 14 32 15 34 16 35 17 36
REMARK SMILES IDX 63 37 18 38 62 39 19 40 20 41 21 42 56 43 22 44 61 45 55 46
REMARK SMILES IDX 57 47 23 48 60 49 54 50 53 51 24 53 46 54 31 55 45 56 32 57
REMARK SMILES IDX 35 58 44 59 58 60 33 61 34 62 43 64 59 65 36 66 25 67 26 68
REMARK SMILES IDX 30 69 27 70 29 71 28 72 47 73 48 74 52 75 49 76 51 77 50 78
REMARK SMILES IDX 37 79 38 80 42 81 39 82 41 83 40 84
REMARK H PARENT 8 7 66 18 13 33 57 52 35 63
REMARK Flexibility Score: inf
ROOT
ATOM      1  C   UNL A   1      45.010  22.739  24.960  1.00  0.00     0.023 C 
ENDROOT
BRANCH   1   2
ATOM      2  C   UNL A   1      45.114  21.278  25.410  1.00  0.00     0.023 C 
BRANCH   2   3
ATOM      3  C   UNL A   1      43.977  20.378  24.909  1.00  0.00     0.116 C 
BRANCH   3   4
ATOM      4  N   UNL A   1      43.480  19.557  25.993  1.00  0.00    -0.352 N 
ATOM      5  C   UNL A   1      42.370  19.612  26.798  1.00  0.00     0.251 C 
ATOM      6  O   UNL A   1      42.399  18.831  27.749  1.00  0.00    -0.269 OA
ATOM      7  H   UNL A   1      44.066  18.793  26.197  1.00  0.00     0.163 HD
BRANCH   5   8
ATOM      8  C   UNL A   1      41.187  20.523  26.565  1.00  0.00     0.045 A 
ATOM      9  C   UNL A   1      37.638  22.941  25.937  1.00  0.00     0.046 C 
ATOM     10  C   UNL A   1      38.922  22.177  26.126  1.00  0.00    -0.028 A 
ATOM     11  C   UNL A   1      38.917  20.840  25.735  1.00  0.00     0.006 A 
ATOM     12  C   UNL A   1      40.103  22.737  26.653  1.00  0.00     0.042 A 
ATOM     13  C   UNL A   1      40.042  20.044  25.921  1.00  0.00     0.014 A 
ATOM     14  C   UNL A   1      41.225  21.905  26.922  1.00  0.00    -0.005 A 
ATOM     15  N   UNL A   1      40.141  24.090  26.935  1.00  0.00    -0.377 N 
ATOM     16  C   UNL A   1      42.473  22.545  27.503  1.00  0.00     0.050 C 
ATOM     17  C   UNL A   1      41.122  24.674  27.832  1.00  0.00     0.117 C 
ATOM     18  H   UNL A   1      39.477  24.681  26.510  1.00  0.00     0.161 HD
ATOM     19  C   UNL A   1      42.507  24.089  27.525  1.00  0.00     0.031 C 
ATOM     20  C   UNL A   1      42.769  22.215  28.943  1.00  0.00    -0.023 C 
ATOM     21  C   UNL A   1      43.513  24.413  28.646  1.00  0.00     0.034 C 
ATOM     22  C   UNL A   1      43.363  23.241  29.564  1.00  0.00    -0.030 C 
BRANCH  17  23
ATOM     23  C   UNL A   1      40.963  26.189  27.760  1.00  0.00     0.010 A 
ATOM     24  C   UNL A   1      40.868  26.905  28.973  1.00  0.00     0.009 A 
ATOM     25  C   UNL A   1      40.858  26.922  26.573  1.00  0.00     0.128 A 
ATOM     26  C   UNL A   1      40.680  28.290  28.986  1.00  0.00     0.001 A 
ATOM     27  C   UNL A   1      40.672  28.305  26.581  1.00  0.00     0.039 A 
ATOM     28  F   UNL A   1      40.934  26.328  25.376  1.00  0.00    -0.207 F 
ATOM     29  C   UNL A   1      40.581  28.990  27.788  1.00  0.00     0.003 A 
ENDBRANCH  17  23
ENDBRANCH   5   8
ENDBRANCH   3   4
ENDBRANCH   2   3
ENDBRANCH   1   2
BRANCH   1  30
ATOM     30  C   UNL A   1      45.887  23.710  25.736  1.00  0.00     0.116 C 
BRANCH  30  31
ATOM     31  N   UNL A   1      46.599  24.642  24.875  1.00  0.00    -0.352 N 
ATOM     32  C   UNL A   1      46.687  26.006  25.004  1.00  0.00     0.251 C 
ATOM     33  H   UNL A   1      47.072  24.248  24.107  1.00  0.00     0.163 HD
ATOM     34  O   UNL A   1      47.247  26.691  24.162  1.00  0.00    -0.269 OA
BRANCH  32  35
ATOM     35  C   UNL A   1      46.048  26.632  26.174  1.00  0.00     0.039 A 
ATOM     36  C   UNL A   1      46.845  26.973  27.269  1.00  0.00     0.014 A 
ATOM     37  C   UNL A   1      44.685  26.943  26.147  1.00  0.00     0.014 A 
ATOM     38  C   UNL A   1      46.280  27.681  28.326  1.00  0.00     0.010 A 
ATOM     39  C   UNL A   1      44.134  27.684  27.185  1.00  0.00     0.010 A 
ATOM     40  C   UNL A   1      44.929  28.061  28.277  1.00  0.00    -0.014 A 
BRANCH  40  41
ATOM     41  C   UNL A   1      44.334  28.857  29.372  1.00  0.00     0.031 A 
ATOM     42  C   UNL A   1      44.075  30.319  29.176  1.00  0.00     0.074 A 
ATOM     43  C   UNL A   1      44.056  28.263  30.548  1.00  0.00     0.049 A 
ATOM     44  N   UNL A   1      43.558  31.179  30.014  1.00  0.00    -0.248 NA
ATOM     45  C   UNL A   1      44.455  30.893  27.875  1.00  0.00     0.031 C 
ATOM     46  C   UNL A   1      44.290  26.852  30.861  1.00  0.00     0.029 A 
ATOM     47  N   UNL A   1      43.509  28.775  31.696  1.00  0.00    -0.354 N 
ATOM     48  C   UNL A   1      43.551  32.394  29.344  1.00  0.00     0.074 A 
ATOM     49  C   UNL A   1      44.151  32.171  28.046  1.00  0.00     0.031 C 
ATOM     50  C   UNL A   1      43.860  26.605  32.110  1.00  0.00     0.029 A 
ATOM     51  C   UNL A   1      43.342  27.842  32.688  1.00  0.00     0.049 A 
ATOM     52  H   UNL A   1      43.260  29.723  31.799  1.00  0.00     0.167 HD
ATOM     53  C   UNL A   1      43.066  33.583  29.766  1.00  0.00     0.031 A 
ATOM     54  C   UNL A   1      42.821  27.967  33.924  1.00  0.00     0.031 A 
ATOM     55  C   UNL A   1      42.460  33.801  31.047  1.00  0.00     0.049 A 
ATOM     56  C   UNL A   1      42.308  29.302  34.376  1.00  0.00     0.074 A 
ATOM     57  C   UNL A   1      41.901  34.965  31.547  1.00  0.00     0.029 A 
ATOM     58  N   UNL A   1      42.330  32.835  32.031  1.00  0.00    -0.354 N 
ATOM     59  N   UNL A   1      42.270  30.433  33.715  1.00  0.00    -0.248 NA
ATOM     60  C   UNL A   1      41.761  29.380  35.739  1.00  0.00     0.031 C 
ATOM     61  C   UNL A   1      41.458  34.709  32.847  1.00  0.00     0.029 A 
ATOM     62  C   UNL A   1      41.712  33.379  33.142  1.00  0.00     0.049 A 
ATOM     63  H   UNL A   1      42.632  31.901  31.952  1.00  0.00     0.167 HD
ATOM     64  C   UNL A   1      41.681  31.353  34.572  1.00  0.00     0.074 A 
ATOM     65  C   UNL A   1      41.375  30.648  35.801  1.00  0.00     0.031 C 
ATOM     66  C   UNL A   1      41.415  32.662  34.354  1.00  0.00     0.031 A 
BRANCH  53  67
ATOM     67  C   UNL A   1      43.161  34.742  28.819  1.00  0.00    -0.014 A 
ATOM     68  C   UNL A   1      42.071  35.095  28.011  1.00  0.00     0.009 A 
ATOM     69  C   UNL A   1      44.329  35.518  28.774  1.00  0.00     0.009 A 
ATOM     70  C   UNL A   1      42.153  36.198  27.159  1.00  0.00     0.001 A 
ATOM     71  C   UNL A   1      44.401  36.630  27.934  1.00  0.00     0.001 A 
ATOM     72  C   UNL A   1      43.317  36.966  27.126  1.00  0.00     0.000 A 
ENDBRANCH  53  67
BRANCH  54  73
ATOM     73  C   UNL A   1      42.725  26.772  34.797  1.00  0.00    -0.014 A 
ATOM     74  C   UNL A   1      41.530  26.040  34.856  1.00  0.00     0.009 A 
ATOM     75  C   UNL A   1      43.834  26.332  35.534  1.00  0.00     0.009 A 
ATOM     76  C   UNL A   1      41.447  24.889  35.642  1.00  0.00     0.001 A 
ATOM     77  C   UNL A   1      43.751  25.172  36.308  1.00  0.00     0.001 A 
ATOM     78  C   UNL A   1      42.557  24.454  36.364  1.00  0.00     0.000 A 
ENDBRANCH  54  73
BRANCH  66  79
ATOM     79  C   UNL A   1      40.746  33.433  35.451  1.00  0.00    -0.014 A 
ATOM     80  C   UNL A   1      39.349  33.446  35.567  1.00  0.00     0.009 A 
ATOM     81  C   UNL A   1      41.524  34.042  36.446  1.00  0.00     0.009 A 
ATOM     82  C   UNL A   1      38.741  34.058  36.664  1.00  0.00     0.001 A 
ATOM     83  C   UNL A   1      40.914  34.641  37.550  1.00  0.00     0.001 A 
ATOM     84  C   UNL A   1      39.524  34.646  37.658  1.00  0.00     0.000 A 
ENDBRANCH  66  79
ENDBRANCH  40  41
ENDBRANCH  32  35
ENDBRANCH  30  31
ENDBRANCH   1  30
TORSDOF 12
ENDMDL
MODEL 3
REMARK VINA RESULT:     -10.2      5.423      9.552
REMARK SMILES Cc1ccc(C(=O)NCCCCNC(=O)c2ccc(-c3c4nc(c(-c5ccccc5)c5ccc([nH]5)c(-c5ccccc5)c5nc(c(-c6ccccc6)c6ccc3[nH]6)C=C5)C=C4)cc2)c2c1N[C@H](c1ccccc1F)[C@H]1CC=C[C@@H]21
REMARK SMILES IDX 11 1 10 2 9 3 8 4 6 5 7 6 5 8 1 9 2 10 3 11 65 12 4 13 64 14
REMARK SMILES IDX 66 15 79 16 67 17 75 19 78 20 76 21 77 22 68 23 69 24 73 25
REMARK SMILES IDX 70 26 72 27 74 28 71 29 12 30 13 31 14 32 15 34 16 35 17 36
REMARK SMILES IDX 63 37 18 38 62 39 19 40 20 41 21 42 56 43 22 44 61 45 55 46
REMARK SMILES IDX 57 47 23 48 60 49 54 50 53 51 24 53 46 54 31 55 45 56 32 57
REMARK SMILES IDX 35 58 44 59 58 60 33 61 34 62 43 64 59 65 36 66 25 67 26 68
REMARK SMILES IDX 30 69 27 70 29 71 28 72 47 73 48 74 52 75 49 76 51 77 50 78
REMARK SMILES IDX 37 79 38 80 42 81 39 82 41 83 40 84
REMARK H PARENT 8 7 66 18 13 33 57 52 35 63
REMARK Flexibility Score: inf
ROOT
ATOM      1  C   UNL A   1      31.930  30.480  26.156  1.00  0.00     0.023 C 
ENDROOT
BRANCH   1   2
ATOM      2  C   UNL A   1      32.611  29.556  25.142  1.00  0.00     0.023 C 
BRANCH   2   3
ATOM      3  C   UNL A   1      33.413  28.408  25.769  1.00  0.00     0.116 C 
BRANCH   3   4
ATOM      4  N   UNL A   1      32.518  27.480  26.429  1.00  0.00    -0.352 N 
ATOM      5  C   UNL A   1      31.875  26.332  26.035  1.00  0.00     0.251 C 
ATOM      6  O   UNL A   1      31.033  25.928  26.835  1.00  0.00    -0.269 OA
ATOM      7  H   UNL A   1      32.328  27.726  27.363  1.00  0.00     0.163 HD
BRANCH   5   8
ATOM      8  C   UNL A   1      32.159  25.590  24.750  1.00  0.00     0.045 A 
ATOM      9  C   UNL A   1      33.057  23.673  20.961  1.00  0.00     0.046 C 
ATOM     10  C   UNL A   1      32.703  24.257  22.303  1.00  0.00    -0.028 A 
ATOM     11  C   UNL A   1      32.273  25.582  22.315  1.00  0.00     0.006 A 
ATOM     12  C   UNL A   1      32.769  23.542  23.516  1.00  0.00     0.042 A 
ATOM     13  C   UNL A   1      31.975  26.218  23.514  1.00  0.00     0.014 A 
ATOM     14  C   UNL A   1      32.546  24.215  24.750  1.00  0.00    -0.005 A 
ATOM     15  N   UNL A   1      33.086  22.197  23.491  1.00  0.00    -0.377 N 
ATOM     16  C   UNL A   1      32.640  23.413  26.035  1.00  0.00     0.050 C 
ATOM     17  C   UNL A   1      33.571  21.486  24.660  1.00  0.00     0.117 C 
ATOM     18  H   UNL A   1      32.978  21.700  22.647  1.00  0.00     0.161 HD
ATOM     19  C   UNL A   1      32.730  21.879  25.882  1.00  0.00     0.031 C 
ATOM     20  C   UNL A   1      33.841  23.701  26.900  1.00  0.00    -0.023 C 
ATOM     21  C   UNL A   1      33.398  21.422  27.193  1.00  0.00     0.034 C 
ATOM     22  C   UNL A   1      34.241  22.604  27.555  1.00  0.00    -0.030 C 
BRANCH  17  23
ATOM     23  C   UNL A   1      33.645  20.006  24.298  1.00  0.00     0.010 A 
ATOM     24  C   UNL A   1      32.528  19.422  23.664  1.00  0.00     0.009 A 
ATOM     25  C   UNL A   1      34.727  19.169  24.591  1.00  0.00     0.128 A 
ATOM     26  C   UNL A   1      32.505  18.063  23.340  1.00  0.00     0.001 A 
ATOM     27  C   UNL A   1      34.710  17.813  24.267  1.00  0.00     0.039 A 
ATOM     28  F   UNL A   1      35.828  19.636  25.192  1.00  0.00    -0.207 F 
ATOM     29  C   UNL A   1      33.598  17.257  23.642  1.00  0.00     0.003 A 
ENDBRANCH  17  23
ENDBRANCH   5   8
ENDBRANCH   3   4
ENDBRANCH   2   3
ENDBRANCH   1   2
BRANCH   1  30
ATOM     30  C   UNL A   1      32.881  31.227  27.079  1.00  0.00     0.116 C 
BRANCH  30  31
ATOM     31  N   UNL A   1      32.438  32.581  27.372  1.00  0.00    -0.352 N 
ATOM     32  C   UNL A   1      33.089  33.537  28.112  1.00  0.00     0.251 C 
ATOM     33  H   UNL A   1      31.566  32.844  26.995  1.00  0.00     0.163 HD
ATOM     34  O   UNL A   1      32.569  34.615  28.359  1.00  0.00    -0.269 OA
BRANCH  32  35
ATOM     35  C   UNL A   1      34.424  33.210  28.641  1.00  0.00     0.039 A 
ATOM     36  C   UNL A   1      34.515  32.577  29.882  1.00  0.00     0.014 A 
ATOM     37  C   UNL A   1      35.565  33.465  27.874  1.00  0.00     0.014 A 
ATOM     38  C   UNL A   1      35.759  32.147  30.336  1.00  0.00     0.010 A 
ATOM     39  C   UNL A   1      36.798  32.999  28.311  1.00  0.00     0.010 A 
ATOM     40  C   UNL A   1      36.902  32.333  29.541  1.00  0.00    -0.014 A 
BRANCH  40  41
ATOM     41  C   UNL A   1      38.218  31.834  29.993  1.00  0.00     0.031 A 
ATOM     42  C   UNL A   1      38.725  30.515  29.496  1.00  0.00     0.074 A 
ATOM     43  C   UNL A   1      38.937  32.559  30.869  1.00  0.00     0.049 A 
ATOM     44  N   UNL A   1      39.853  29.914  29.774  1.00  0.00    -0.248 NA
ATOM     45  C   UNL A   1      37.850  29.769  28.578  1.00  0.00     0.031 C 
ATOM     46  C   UNL A   1      38.531  33.845  31.440  1.00  0.00     0.029 A 
ATOM     47  N   UNL A   1      40.166  32.318  31.427  1.00  0.00    -0.354 N 
ATOM     48  C   UNL A   1      39.823  28.721  29.066  1.00  0.00     0.074 A 
ATOM     49  C   UNL A   1      38.552  28.662  28.379  1.00  0.00     0.031 C 
ATOM     50  C   UNL A   1      39.508  34.294  32.245  1.00  0.00     0.029 A 
ATOM     51  C   UNL A   1      40.596  33.318  32.262  1.00  0.00     0.049 A 
ATOM     52  H   UNL A   1      40.690  31.503  31.248  1.00  0.00     0.167 HD
ATOM     53  C   UNL A   1      40.780  27.771  28.981  1.00  0.00     0.031 A 
ATOM     54  C   UNL A   1      41.743  33.442  32.957  1.00  0.00     0.031 A 
ATOM     55  C   UNL A   1      42.047  27.835  29.653  1.00  0.00     0.049 A 
ATOM     56  C   UNL A   1      42.782  32.364  32.861  1.00  0.00     0.074 A 
ATOM     57  C   UNL A   1      43.098  26.937  29.592  1.00  0.00     0.029 A 
ATOM     58  N   UNL A   1      42.434  28.855  30.506  1.00  0.00    -0.354 N 
ATOM     59  N   UNL A   1      42.757  31.260  32.155  1.00  0.00    -0.248 NA
ATOM     60  C   UNL A   1      44.009  32.548  33.650  1.00  0.00     0.031 C 
ATOM     61  C   UNL A   1      44.113  27.402  30.433  1.00  0.00     0.029 A 
ATOM     62  C   UNL A   1      43.705  28.603  30.989  1.00  0.00     0.049 A 
ATOM     63  H   UNL A   1      41.888  29.642  30.733  1.00  0.00     0.167 HD
ATOM     64  C   UNL A   1      43.968  30.627  32.400  1.00  0.00     0.074 A 
ATOM     65  C   UNL A   1      44.707  31.469  33.318  1.00  0.00     0.031 C 
ATOM     66  C   UNL A   1      44.424  29.453  31.901  1.00  0.00     0.031 A 
BRANCH  53  67
ATOM     67  C   UNL A   1      40.497  26.582  28.114  1.00  0.00    -0.014 A 
ATOM     68  C   UNL A   1      39.729  25.512  28.596  1.00  0.00     0.009 A 
ATOM     69  C   UNL A   1      40.957  26.554  26.788  1.00  0.00     0.009 A 
ATOM     70  C   UNL A   1      39.438  24.425  27.770  1.00  0.00     0.001 A 
ATOM     71  C   UNL A   1      40.650  25.473  25.961  1.00  0.00     0.001 A 
ATOM     72  C   UNL A   1      39.895  24.409  26.452  1.00  0.00     0.000 A 
ENDBRANCH  53  67
BRANCH  54  73
ATOM     73  C   UNL A   1      41.975  34.661  33.768  1.00  0.00    -0.014 A 
ATOM     74  C   UNL A   1      42.622  35.769  33.202  1.00  0.00     0.009 A 
ATOM     75  C   UNL A   1      41.511  34.741  35.090  1.00  0.00     0.009 A 
ATOM     76  C   UNL A   1      42.804  36.936  33.948  1.00  0.00     0.001 A 
ATOM     77  C   UNL A   1      41.682  35.915  35.827  1.00  0.00     0.001 A 
ATOM     78  C   UNL A   1      42.331  37.010  35.256  1.00  0.00     0.000 A 
ENDBRANCH  54  73
BRANCH  66  79
ATOM     79  C   UNL A   1      45.791  29.001  32.315  1.00  0.00    -0.014 A 
ATOM     80  C   UNL A   1      45.956  28.118  33.391  1.00  0.00     0.009 A 
ATOM     81  C   UNL A   1      46.906  29.364  31.545  1.00  0.00     0.009 A 
ATOM     82  C   UNL A   1      47.219  27.603  33.688  1.00  0.00     0.001 A 
ATOM     83  C   UNL A   1      48.165  28.836  31.835  1.00  0.00     0.001 A 
ATOM     84  C   UNL A   1      48.319  27.954  32.905  1.00  0.00     0.000 A 
ENDBRANCH  66  79
ENDBRANCH  40  41
ENDBRANCH  32  35
ENDBRANCH  30  31
ENDBRANCH   1  30
TORSDOF 12
ENDMDL
