MODEL 1
REMARK VINA RESULT:     -11.0      0.000      0.000
REMARK SMILES C[C@@H](C(=O)NCCCCNC(=O)c1ccc(-c2c3nc(c(-c4ccccc4)c4ccc([nH]4)c(-c4ccccc4)c4nc(c(-c5ccccc5)c5ccc2[nH]5)C=C4)C=C3)cc1)c1ccc(C[C@H]2CCC[C@@H]2O)cc1Br
REMARK SMILES IDX 6 1 5 2 3 3 4 4 2 6 1 7 61 8 62 9 73 10 63 11 72 12 74 13
REMARK SMILES IDX 64 14 65 15 66 16 67 17 70 18 68 19 69 20 71 21 7 23 8 24
REMARK SMILES IDX 9 25 10 26 11 27 12 29 13 30 14 31 60 32 15 33 59 34 16 35
REMARK SMILES IDX 17 36 18 37 53 38 19 39 58 40 52 41 54 42 20 43 57 44 51 45
REMARK SMILES IDX 50 46 21 48 43 49 28 50 42 51 29 52 32 53 41 54 55 55 30 56
REMARK SMILES IDX 31 57 40 59 56 60 33 61 22 62 23 63 27 64 24 65 26 66 25 67
REMARK SMILES IDX 44 68 45 69 49 70 46 71 48 72 47 73 34 74 35 75 39 76 36 77
REMARK SMILES IDX 38 78 37 79
REMARK H PARENT 5 5 71 22 10 28 54 47 32 58
REMARK Flexibility Score: inf
ROOT
ATOM      1  C   UNL A   1      35.045  21.549  24.788  1.00  0.00     0.116 C 
ENDROOT
BRANCH   1   2
ATOM      2  N   UNL A   1      34.005  20.544  24.906  1.00  0.00    -0.356 N 
ATOM      3  C   UNL A   1      32.667  20.636  24.641  1.00  0.00     0.227 C 
ATOM      4  O   UNL A   1      31.956  19.735  25.090  1.00  0.00    -0.274 OA
ATOM      5  H   UNL A   1      34.310  19.663  25.224  1.00  0.00     0.163 HD
BRANCH   3   6
ATOM      6  C   UNL A   1      32.122  21.784  23.760  1.00  0.00     0.106 C 
ATOM      7  C   UNL A   1      32.521  21.565  22.304  1.00  0.00     0.023 C 
BRANCH   6   8
ATOM      8  C   UNL A   1      32.397  23.161  24.390  1.00  0.00    -0.022 A 
ATOM      9  C   UNL A   1      33.274  23.989  23.643  1.00  0.00     0.006 A 
ATOM     10  C   UNL A   1      31.923  23.690  25.604  1.00  0.00     0.022 A 
ATOM     11  C   UNL A   1      33.669  25.256  24.079  1.00  0.00     0.004 A 
ATOM     12  C   UNL A   1      32.373  24.944  26.062  1.00  0.00     0.019 A 
ATOM     13  Br  UNL A   1      30.646  22.894  26.769  1.00  0.00    -0.051 Br
ATOM     14  C   UNL A   1      33.261  25.728  25.320  1.00  0.00    -0.047 A 
BRANCH  14  15
ATOM     15  C   UNL A   1      33.755  27.042  25.872  1.00  0.00     0.041 C 
BRANCH  15  16
ATOM     16  C   UNL A   1      32.732  28.190  25.905  1.00  0.00     0.022 C 
ATOM     17  C   UNL A   1      32.122  28.533  27.275  1.00  0.00     0.007 C 
ATOM     18  C   UNL A   1      33.238  29.532  25.371  1.00  0.00     0.117 C 
ATOM     19  C   UNL A   1      31.917  30.052  27.278  1.00  0.00     0.003 C 
ATOM     20  C   UNL A   1      32.171  30.505  25.849  1.00  0.00     0.032 C 
BRANCH  18  21
ATOM     21  O   UNL A   1      33.365  29.532  23.962  1.00  0.00    -0.393 OA
ATOM     22  H   UNL A   1      32.484  29.570  23.557  1.00  0.00     0.210 HD
ENDBRANCH  18  21
ENDBRANCH  15  16
ENDBRANCH  14  15
ENDBRANCH   6   8
ENDBRANCH   3   6
ENDBRANCH   1   2
BRANCH   1  23
ATOM     23  C   UNL A   1      35.353  22.159  26.159  1.00  0.00     0.023 C 
BRANCH  23  24
ATOM     24  C   UNL A   1      36.165  23.455  26.107  1.00  0.00     0.023 C 
BRANCH  24  25
ATOM     25  C   UNL A   1      37.305  23.449  25.102  1.00  0.00     0.116 C 
BRANCH  25  26
ATOM     26  N   UNL A   1      38.400  22.570  25.490  1.00  0.00    -0.352 N 
ATOM     27  C   UNL A   1      39.509  22.879  26.240  1.00  0.00     0.251 C 
ATOM     28  H   UNL A   1      38.336  21.639  25.179  1.00  0.00     0.163 HD
ATOM     29  O   UNL A   1      40.412  22.065  26.398  1.00  0.00    -0.269 OA
BRANCH  27  30
ATOM     30  C   UNL A   1      39.613  24.232  26.820  1.00  0.00     0.039 A 
ATOM     31  C   UNL A   1      39.112  24.461  28.104  1.00  0.00     0.014 A 
ATOM     32  C   UNL A   1      40.276  25.241  26.119  1.00  0.00     0.014 A 
ATOM     33  C   UNL A   1      39.349  25.689  28.722  1.00  0.00     0.010 A 
ATOM     34  C   UNL A   1      40.566  26.438  26.761  1.00  0.00     0.010 A 
ATOM     35  C   UNL A   1      40.113  26.669  28.070  1.00  0.00    -0.014 A 
BRANCH  35  36
ATOM     36  C   UNL A   1      40.469  27.949  28.723  1.00  0.00     0.031 A 
ATOM     37  C   UNL A   1      41.781  28.074  29.441  1.00  0.00     0.074 A 
ATOM     38  C   UNL A   1      39.565  28.944  28.786  1.00  0.00     0.049 A 
ATOM     39  N   UNL A   1      42.207  29.028  30.228  1.00  0.00    -0.248 NA
ATOM     40  C   UNL A   1      42.724  26.955  29.281  1.00  0.00     0.031 C 
ATOM     41  C   UNL A   1      38.236  28.926  28.172  1.00  0.00     0.029 A 
ATOM     42  N   UNL A   1      39.618  30.154  29.431  1.00  0.00    -0.354 N 
ATOM     43  C   UNL A   1      43.443  28.604  30.693  1.00  0.00     0.074 A 
ATOM     44  C   UNL A   1      43.688  27.298  30.122  1.00  0.00     0.031 C 
ATOM     45  C   UNL A   1      37.599  30.070  28.471  1.00  0.00     0.029 A 
ATOM     46  C   UNL A   1      38.458  30.882  29.329  1.00  0.00     0.049 A 
ATOM     47  H   UNL A   1      40.412  30.471  29.920  1.00  0.00     0.167 HD
ATOM     48  C   UNL A   1      44.302  29.248  31.518  1.00  0.00     0.031 A 
ATOM     49  C   UNL A   1      38.113  32.059  29.882  1.00  0.00     0.031 A 
ATOM     50  C   UNL A   1      44.071  30.559  32.060  1.00  0.00     0.049 A 
ATOM     51  C   UNL A   1      39.094  32.774  30.766  1.00  0.00     0.074 A 
ATOM     52  C   UNL A   1      44.914  31.333  32.837  1.00  0.00     0.029 A 
ATOM     53  N   UNL A   1      42.906  31.290  31.880  1.00  0.00    -0.354 N 
ATOM     54  N   UNL A   1      40.289  32.392  31.146  1.00  0.00    -0.248 NA
ATOM     55  C   UNL A   1      38.682  34.083  31.291  1.00  0.00     0.031 C 
ATOM     56  C   UNL A   1      44.246  32.520  33.156  1.00  0.00     0.029 A 
ATOM     57  C   UNL A   1      43.002  32.500  32.545  1.00  0.00     0.049 A 
ATOM     58  H   UNL A   1      42.127  30.993  31.356  1.00  0.00     0.167 HD
ATOM     59  C   UNL A   1      40.782  33.422  31.936  1.00  0.00     0.074 A 
ATOM     60  C   UNL A   1      39.759  34.448  31.975  1.00  0.00     0.031 C 
ATOM     61  C   UNL A   1      41.975  33.510  32.570  1.00  0.00     0.031 A 
BRANCH  48  62
ATOM     62  C   UNL A   1      45.562  28.524  31.894  1.00  0.00    -0.014 A 
ATOM     63  C   UNL A   1      45.619  27.701  33.031  1.00  0.00     0.009 A 
ATOM     64  C   UNL A   1      46.710  28.669  31.101  1.00  0.00     0.009 A 
ATOM     65  C   UNL A   1      46.815  27.077  33.390  1.00  0.00     0.001 A 
ATOM     66  C   UNL A   1      47.897  28.021  31.448  1.00  0.00     0.001 A 
ATOM     67  C   UNL A   1      47.951  27.236  32.599  1.00  0.00     0.000 A 
ENDBRANCH  48  62
BRANCH  49  68
ATOM     68  C   UNL A   1      36.772  32.632  29.608  1.00  0.00    -0.014 A 
ATOM     69  C   UNL A   1      35.734  32.486  30.541  1.00  0.00     0.009 A 
ATOM     70  C   UNL A   1      36.533  33.357  28.431  1.00  0.00     0.009 A 
ATOM     71  C   UNL A   1      34.478  33.044  30.293  1.00  0.00     0.001 A 
ATOM     72  C   UNL A   1      35.282  33.933  28.197  1.00  0.00     0.001 A 
ATOM     73  C   UNL A   1      34.255  33.772  29.125  1.00  0.00     0.000 A 
ENDBRANCH  49  68
BRANCH  61  74
ATOM     74  C   UNL A   1      42.258  34.769  33.335  1.00  0.00    -0.014 A 
ATOM     75  C   UNL A   1      42.963  35.830  32.749  1.00  0.00     0.009 A 
ATOM     76  C   UNL A   1      41.758  34.916  34.638  1.00  0.00     0.009 A 
ATOM     77  C   UNL A   1      43.177  37.012  33.462  1.00  0.00     0.001 A 
ATOM     78  C   UNL A   1      41.955  36.105  35.340  1.00  0.00     0.001 A 
ATOM     79  C   UNL A   1      42.668  37.150  34.753  1.00  0.00     0.000 A 
ENDBRANCH  61  74
ENDBRANCH  35  36
ENDBRANCH  27  30
ENDBRANCH  25  26
ENDBRANCH  24  25
ENDBRANCH  23  24
ENDBRANCH   1  23
TORSDOF 15
ENDMDL
MODEL 2
REMARK VINA RESULT:     -10.9      2.746      7.361
REMARK SMILES C[C@@H](C(=O)NCCCCNC(=O)c1ccc(-c2c3nc(c(-c4ccccc4)c4ccc([nH]4)c(-c4ccccc4)c4nc(c(-c5ccccc5)c5ccc2[nH]5)C=C4)C=C3)cc1)c1ccc(C[C@H]2CCC[C@@H]2O)cc1Br
REMARK SMILES IDX 6 1 5 2 3 3 4 4 2 6 1 7 61 8 62 9 73 10 63 11 72 12 74 13
REMARK SMILES IDX 64 14 65 15 66 16 67 17 70 18 68 19 69 20 71 21 7 23 8 24
REMARK SMILES IDX 9 25 10 26 11 27 12 29 13 30 14 31 60 32 15 33 59 34 16 35
REMARK SMILES IDX 17 36 18 37 53 38 19 39 58 40 52 41 54 42 20 43 57 44 51 45
REMARK SMILES IDX 50 46 21 48 43 49 28 50 42 51 29 52 32 53 41 54 55 55 30 56
REMARK SMILES IDX 31 57 40 59 56 60 33 61 22 62 23 63 27 64 24 65 26 66 25 67
REMARK SMILES IDX 44 68 45 69 49 70 46 71 48 72 47 73 34 74 35 75 39 76 36 77
REMARK SMILES IDX 38 78 37 79
REMARK H PARENT 5 5 71 22 10 28 54 47 32 58
REMARK Flexibility Score: inf
ROOT
ATOM      1  C   UNL A   1      33.572  28.771  26.548  1.00  0.00     0.116 C 
ENDROOT
BRANCH   1   2
ATOM      2  N   UNL A   1      33.679  27.329  26.443  1.00  0.00    -0.356 N 
ATOM      3  C   UNL A   1      33.362  26.502  25.401  1.00  0.00     0.227 C 
ATOM      4  O   UNL A   1      33.274  25.301  25.661  1.00  0.00    -0.274 OA
ATOM      5  H   UNL A   1      34.034  26.877  27.243  1.00  0.00     0.163 HD
BRANCH   3   6
ATOM      6  C   UNL A   1      33.200  27.073  23.973  1.00  0.00     0.106 C 
ATOM      7  C   UNL A   1      34.257  28.142  23.710  1.00  0.00     0.023 C 
BRANCH   6   8
ATOM      8  C   UNL A   1      31.731  27.411  23.660  1.00  0.00    -0.022 A 
ATOM      9  C   UNL A   1      31.457  28.797  23.532  1.00  0.00     0.006 A 
ATOM     10  C   UNL A   1      30.635  26.542  23.513  1.00  0.00     0.022 A 
ATOM     11  C   UNL A   1      30.174  29.292  23.289  1.00  0.00     0.004 A 
ATOM     12  C   UNL A   1      29.336  27.054  23.327  1.00  0.00     0.019 A 
ATOM     13  Br  UNL A   1      30.686  24.639  23.503  1.00  0.00    -0.051 Br
ATOM     14  C   UNL A   1      29.088  28.427  23.234  1.00  0.00    -0.047 A 
BRANCH  14  15
ATOM     15  C   UNL A   1      27.676  28.933  23.083  1.00  0.00     0.041 C 
BRANCH  15  16
ATOM     16  C   UNL A   1      27.524  30.418  22.713  1.00  0.00     0.022 C 
ATOM     17  C   UNL A   1      27.999  31.443  23.757  1.00  0.00     0.007 C 
ATOM     18  C   UNL A   1      28.223  30.845  21.419  1.00  0.00     0.117 C 
ATOM     19  C   UNL A   1      28.576  32.620  22.962  1.00  0.00     0.003 C 
ATOM     20  C   UNL A   1      28.197  32.363  21.512  1.00  0.00     0.032 C 
BRANCH  18  21
ATOM     21  O   UNL A   1      27.551  30.371  20.269  1.00  0.00    -0.393 OA
ATOM     22  H   UNL A   1      26.605  30.277  20.461  1.00  0.00     0.210 HD
ENDBRANCH  18  21
ENDBRANCH  15  16
ENDBRANCH  14  15
ENDBRANCH   6   8
ENDBRANCH   3   6
ENDBRANCH   1   2
BRANCH   1  23
ATOM     23  C   UNL A   1      32.183  29.167  27.059  1.00  0.00     0.023 C 
BRANCH  23  24
ATOM     24  C   UNL A   1      31.844  30.650  26.889  1.00  0.00     0.023 C 
BRANCH  24  25
ATOM     25  C   UNL A   1      32.977  31.603  27.236  1.00  0.00     0.116 C 
BRANCH  25  26
ATOM     26  N   UNL A   1      32.516  32.958  27.503  1.00  0.00    -0.352 N 
ATOM     27  C   UNL A   1      33.122  33.922  28.272  1.00  0.00     0.251 C 
ATOM     28  H   UNL A   1      31.666  33.217  27.079  1.00  0.00     0.163 HD
ATOM     29  O   UNL A   1      32.565  34.990  28.502  1.00  0.00    -0.269 OA
BRANCH  27  30
ATOM     30  C   UNL A   1      34.446  33.631  28.853  1.00  0.00     0.039 A 
ATOM     31  C   UNL A   1      34.520  32.896  30.040  1.00  0.00     0.014 A 
ATOM     32  C   UNL A   1      35.604  34.018  28.176  1.00  0.00     0.014 A 
ATOM     33  C   UNL A   1      35.766  32.479  30.509  1.00  0.00     0.010 A 
ATOM     34  C   UNL A   1      36.836  33.546  28.611  1.00  0.00     0.010 A 
ATOM     35  C   UNL A   1      36.927  32.767  29.775  1.00  0.00    -0.014 A 
BRANCH  35  36
ATOM     36  C   UNL A   1      38.258  32.263  30.184  1.00  0.00     0.031 A 
ATOM     37  C   UNL A   1      38.764  30.966  29.624  1.00  0.00     0.074 A 
ATOM     38  C   UNL A   1      38.946  32.899  31.151  1.00  0.00     0.049 A 
ATOM     39  N   UNL A   1      39.804  30.259  29.984  1.00  0.00    -0.248 NA
ATOM     40  C   UNL A   1      37.968  30.366  28.542  1.00  0.00     0.031 C 
ATOM     41  C   UNL A   1      38.538  34.141  31.810  1.00  0.00     0.029 A 
ATOM     42  N   UNL A   1      40.122  32.561  31.773  1.00  0.00    -0.354 N 
ATOM     43  C   UNL A   1      39.762  29.112  29.206  1.00  0.00     0.074 A 
ATOM     44  C   UNL A   1      38.581  29.203  28.375  1.00  0.00     0.031 C 
ATOM     45  C   UNL A   1      39.449  34.461  32.745  1.00  0.00     0.029 A 
ATOM     46  C   UNL A   1      40.479  33.427  32.778  1.00  0.00     0.049 A 
ATOM     47  H   UNL A   1      40.659  31.775  31.523  1.00  0.00     0.167 HD
ATOM     48  C   UNL A   1      40.632  28.075  29.180  1.00  0.00     0.031 A 
ATOM     49  C   UNL A   1      41.507  33.382  33.646  1.00  0.00     0.031 A 
ATOM     50  C   UNL A   1      41.821  27.999  29.985  1.00  0.00     0.049 A 
ATOM     51  C   UNL A   1      42.481  32.241  33.577  1.00  0.00     0.074 A 
ATOM     52  C   UNL A   1      42.811  27.032  29.973  1.00  0.00     0.029 A 
ATOM     53  N   UNL A   1      42.179  28.930  30.947  1.00  0.00    -0.354 N 
ATOM     54  N   UNL A   1      42.466  31.194  32.790  1.00  0.00    -0.248 NA
ATOM     55  C   UNL A   1      43.615  32.282  34.511  1.00  0.00     0.031 C 
ATOM     56  C   UNL A   1      43.752  27.361  30.954  1.00  0.00     0.029 A 
ATOM     57  C   UNL A   1      43.367  28.553  31.548  1.00  0.00     0.049 A 
ATOM     58  H   UNL A   1      41.665  29.740  31.170  1.00  0.00     0.167 HD
ATOM     59  C   UNL A   1      43.598  30.459  33.117  1.00  0.00     0.074 A 
ATOM     60  C   UNL A   1      44.281  31.186  34.169  1.00  0.00     0.031 C 
ATOM     61  C   UNL A   1      44.033  29.289  32.591  1.00  0.00     0.031 A 
BRANCH  48  62
ATOM     62  C   UNL A   1      40.308  26.932  28.261  1.00  0.00    -0.014 A 
ATOM     63  C   UNL A   1      39.517  25.854  28.688  1.00  0.00     0.009 A 
ATOM     64  C   UNL A   1      40.806  26.934  26.950  1.00  0.00     0.009 A 
ATOM     65  C   UNL A   1      39.270  24.778  27.833  1.00  0.00     0.001 A 
ATOM     66  C   UNL A   1      40.534  25.870  26.088  1.00  0.00     0.001 A 
ATOM     67  C   UNL A   1      39.777  24.788  26.535  1.00  0.00     0.000 A 
ENDBRANCH  48  62
BRANCH  49  68
ATOM     68  C   UNL A   1      41.662  34.462  34.653  1.00  0.00    -0.014 A 
ATOM     69  C   UNL A   1      42.377  35.627  34.337  1.00  0.00     0.009 A 
ATOM     70  C   UNL A   1      41.068  34.348  35.919  1.00  0.00     0.009 A 
ATOM     71  C   UNL A   1      42.506  36.652  35.277  1.00  0.00     0.001 A 
ATOM     72  C   UNL A   1      41.180  35.385  36.847  1.00  0.00     0.001 A 
ATOM     73  C   UNL A   1      41.902  36.533  36.528  1.00  0.00     0.000 A 
ENDBRANCH  49  68
BRANCH  61  74
ATOM     74  C   UNL A   1      45.324  28.735  33.118  1.00  0.00    -0.014 A 
ATOM     75  C   UNL A   1      45.340  27.822  34.182  1.00  0.00     0.009 A 
ATOM     76  C   UNL A   1      46.534  29.085  32.499  1.00  0.00     0.009 A 
ATOM     77  C   UNL A   1      46.548  27.282  34.628  1.00  0.00     0.001 A 
ATOM     78  C   UNL A   1      47.736  28.529  32.933  1.00  0.00     0.001 A 
ATOM     79  C   UNL A   1      47.743  27.631  34.000  1.00  0.00     0.000 A 
ENDBRANCH  61  74
ENDBRANCH  35  36
ENDBRANCH  27  30
ENDBRANCH  25  26
ENDBRANCH  24  25
ENDBRANCH  23  24
ENDBRANCH   1  23
TORSDOF 15
ENDMDL
MODEL 3
REMARK VINA RESULT:     -10.9      2.539      3.900
REMARK SMILES C[C@@H](C(=O)NCCCCNC(=O)c1ccc(-c2c3nc(c(-c4ccccc4)c4ccc([nH]4)c(-c4ccccc4)c4nc(c(-c5ccccc5)c5ccc2[nH]5)C=C4)C=C3)cc1)c1ccc(C[C@H]2CCC[C@@H]2O)cc1Br
REMARK SMILES IDX 6 1 5 2 3 3 4 4 2 6 1 7 61 8 62 9 73 10 63 11 72 12 74 13
REMARK SMILES IDX 64 14 65 15 66 16 67 17 70 18 68 19 69 20 71 21 7 23 8 24
REMARK SMILES IDX 9 25 10 26 11 27 12 29 13 30 14 31 60 32 15 33 59 34 16 35
REMARK SMILES IDX 17 36 18 37 53 38 19 39 58 40 52 41 54 42 20 43 57 44 51 45
REMARK SMILES IDX 50 46 21 48 43 49 28 50 42 51 29 52 32 53 41 54 55 55 30 56
REMARK SMILES IDX 31 57 40 59 56 60 33 61 22 62 23 63 27 64 24 65 26 66 25 67
REMARK SMILES IDX 44 68 45 69 49 70 46 71 48 72 47 73 34 74 35 75 39 76 36 77
REMARK SMILES IDX 38 78 37 79
REMARK H PARENT 5 5 71 22 10 28 54 47 32 58
REMARK Flexibility Score: inf
ROOT
ATOM      1  C   UNL A   1      35.337  20.196  24.702  1.00  0.00     0.116 C 
ENDROOT
BRANCH   1   2
ATOM      2  N   UNL A   1      34.765  20.806  25.886  1.00  0.00    -0.356 N 
ATOM      3  C   UNL A   1      34.827  22.102  26.319  1.00  0.00     0.227 C 
ATOM      4  O   UNL A   1      34.505  22.304  27.491  1.00  0.00    -0.274 OA
ATOM      5  H   UNL A   1      34.255  20.195  26.466  1.00  0.00     0.163 HD
BRANCH   3   6
ATOM      6  C   UNL A   1      35.215  23.234  25.340  1.00  0.00     0.106 C 
ATOM      7  C   UNL A   1      36.571  23.818  25.721  1.00  0.00     0.023 C 
BRANCH   6   8
ATOM      8  C   UNL A   1      34.044  24.206  25.104  1.00  0.00    -0.022 A 
ATOM      9  C   UNL A   1      34.063  25.363  25.924  1.00  0.00     0.006 A 
ATOM     10  C   UNL A   1      32.960  24.087  24.216  1.00  0.00     0.022 A 
ATOM     11  C   UNL A   1      33.061  26.336  25.877  1.00  0.00     0.004 A 
ATOM     12  C   UNL A   1      31.926  25.043  24.220  1.00  0.00     0.019 A 
ATOM     13  Br  UNL A   1      32.707  22.730  22.906  1.00  0.00    -0.051 Br
ATOM     14  C   UNL A   1      31.953  26.160  25.059  1.00  0.00    -0.047 A 
BRANCH  14  15
ATOM     15  C   UNL A   1      30.800  27.133  25.063  1.00  0.00     0.041 C 
BRANCH  15  16
ATOM     16  C   UNL A   1      30.409  27.727  23.700  1.00  0.00     0.022 C 
ATOM     17  C   UNL A   1      28.911  27.721  23.348  1.00  0.00     0.007 C 
ATOM     18  C   UNL A   1      30.845  29.176  23.468  1.00  0.00     0.117 C 
ATOM     19  C   UNL A   1      28.661  29.002  22.545  1.00  0.00     0.003 C 
ATOM     20  C   UNL A   1      30.037  29.575  22.243  1.00  0.00     0.032 C 
BRANCH  18  21
ATOM     21  O   UNL A   1      32.238  29.283  23.244  1.00  0.00    -0.393 OA
ATOM     22  H   UNL A   1      32.711  29.164  24.083  1.00  0.00     0.210 HD
ENDBRANCH  18  21
ENDBRANCH  15  16
ENDBRANCH  14  15
ENDBRANCH   6   8
ENDBRANCH   3   6
ENDBRANCH   1   2
BRANCH   1  23
ATOM     23  C   UNL A   1      36.718  19.611  25.018  1.00  0.00     0.023 C 
BRANCH  23  24
ATOM     24  C   UNL A   1      37.884  20.567  24.763  1.00  0.00     0.023 C 
BRANCH  24  25
ATOM     25  C   UNL A   1      38.889  20.660  25.900  1.00  0.00     0.116 C 
BRANCH  25  26
ATOM     26  N   UNL A   1      39.878  19.591  25.872  1.00  0.00    -0.352 N 
ATOM     27  C   UNL A   1      41.222  19.674  26.142  1.00  0.00     0.251 C 
ATOM     28  H   UNL A   1      39.541  18.698  25.632  1.00  0.00     0.163 HD
ATOM     29  O   UNL A   1      41.962  18.711  25.972  1.00  0.00    -0.269 OA
BRANCH  27  30
ATOM     30  C   UNL A   1      41.770  20.964  26.604  1.00  0.00     0.039 A 
ATOM     31  C   UNL A   1      42.278  21.862  25.662  1.00  0.00     0.014 A 
ATOM     32  C   UNL A   1      41.702  21.305  27.956  1.00  0.00     0.014 A 
ATOM     33  C   UNL A   1      42.648  23.144  26.069  1.00  0.00     0.010 A 
ATOM     34  C   UNL A   1      42.010  22.601  28.347  1.00  0.00     0.010 A 
ATOM     35  C   UNL A   1      42.478  23.534  27.407  1.00  0.00    -0.014 A 
BRANCH  35  36
ATOM     36  C   UNL A   1      42.767  24.912  27.865  1.00  0.00     0.031 A 
ATOM     37  C   UNL A   1      44.150  25.262  28.332  1.00  0.00     0.074 A 
ATOM     38  C   UNL A   1      41.764  25.802  27.987  1.00  0.00     0.049 A 
ATOM     39  N   UNL A   1      44.569  26.341  28.941  1.00  0.00    -0.248 NA
ATOM     40  C   UNL A   1      45.190  24.243  28.121  1.00  0.00     0.031 C 
ATOM     41  C   UNL A   1      40.368  25.567  27.614  1.00  0.00     0.029 A 
ATOM     42  N   UNL A   1      41.765  27.076  28.496  1.00  0.00    -0.354 N 
ATOM     43  C   UNL A   1      45.907  26.113  29.226  1.00  0.00     0.074 A 
ATOM     44  C   UNL A   1      46.224  24.784  28.748  1.00  0.00     0.031 C 
ATOM     45  C   UNL A   1      39.646  26.661  27.908  1.00  0.00     0.029 A 
ATOM     46  C   UNL A   1      40.519  27.655  28.526  1.00  0.00     0.049 A 
ATOM     47  H   UNL A   1      42.579  27.533  28.809  1.00  0.00     0.167 HD
ATOM     48  C   UNL A   1      46.797  26.937  29.826  1.00  0.00     0.031 A 
ATOM     49  C   UNL A   1      40.120  28.843  29.016  1.00  0.00     0.031 A 
ATOM     50  C   UNL A   1      46.489  28.268  30.274  1.00  0.00     0.049 A 
ATOM     51  C   UNL A   1      41.129  29.758  29.647  1.00  0.00     0.074 A 
ATOM     52  C   UNL A   1      47.339  29.214  30.817  1.00  0.00     0.029 A 
ATOM     53  N   UNL A   1      45.227  28.840  30.227  1.00  0.00    -0.354 N 
ATOM     54  N   UNL A   1      42.407  29.556  29.851  1.00  0.00    -0.248 NA
ATOM     55  C   UNL A   1      40.641  31.065  30.108  1.00  0.00     0.031 C 
ATOM     56  C   UNL A   1      46.584  30.349  31.133  1.00  0.00     0.029 A 
ATOM     57  C   UNL A   1      45.272  30.122  30.748  1.00  0.00     0.049 A 
ATOM     58  H   UNL A   1      44.419  28.401  29.875  1.00  0.00     0.167 HD
ATOM     59  C   UNL A   1      42.884  30.718  30.444  1.00  0.00     0.074 A 
ATOM     60  C   UNL A   1      41.757  31.622  30.560  1.00  0.00     0.031 C 
ATOM     61  C   UNL A   1      44.142  31.009  30.854  1.00  0.00     0.031 A 
BRANCH  48  62
ATOM     62  C   UNL A   1      48.183  26.404  30.049  1.00  0.00    -0.014 A 
ATOM     63  C   UNL A   1      49.180  26.533  29.069  1.00  0.00     0.009 A 
ATOM     64  C   UNL A   1      48.494  25.762  31.256  1.00  0.00     0.009 A 
ATOM     65  C   UNL A   1      50.447  25.986  29.275  1.00  0.00     0.001 A 
ATOM     66  C   UNL A   1      49.771  25.240  31.471  1.00  0.00     0.001 A 
ATOM     67  C   UNL A   1      50.742  25.342  30.476  1.00  0.00     0.000 A 
ENDBRANCH  48  62
BRANCH  49  68
ATOM     68  C   UNL A   1      38.689  29.229  28.922  1.00  0.00    -0.014 A 
ATOM     69  C   UNL A   1      38.173  29.750  27.726  1.00  0.00     0.009 A 
ATOM     70  C   UNL A   1      37.827  29.047  30.015  1.00  0.00     0.009 A 
ATOM     71  C   UNL A   1      36.823  30.094  27.631  1.00  0.00     0.001 A 
ATOM     72  C   UNL A   1      36.473  29.371  29.908  1.00  0.00     0.001 A 
ATOM     73  C   UNL A   1      35.973  29.898  28.719  1.00  0.00     0.000 A 
ENDBRANCH  49  68
BRANCH  61  74
ATOM     74  C   UNL A   1      44.379  32.371  31.436  1.00  0.00    -0.014 A 
ATOM     75  C   UNL A   1      44.290  32.594  32.817  1.00  0.00     0.009 A 
ATOM     76  C   UNL A   1      44.757  33.429  30.594  1.00  0.00     0.009 A 
ATOM     77  C   UNL A   1      44.560  33.860  33.344  1.00  0.00     0.001 A 
ATOM     78  C   UNL A   1      45.045  34.685  31.125  1.00  0.00     0.001 A 
ATOM     79  C   UNL A   1      44.942  34.901  32.498  1.00  0.00     0.000 A 
ENDBRANCH  61  74
ENDBRANCH  35  36
ENDBRANCH  27  30
ENDBRANCH  25  26
ENDBRANCH  24  25
ENDBRANCH  23  24
ENDBRANCH   1  23
TORSDOF 15
ENDMDL
