MODEL 1
REMARK VINA RESULT:     -11.0      0.000      0.000
REMARK SMILES O=C(NCCCCNC(=O)c1cc(/N=C/c2ccc([N+](=O)[O-])cc2)ccc1O)c1ccc(-c2c3nc(c(-c4ccccc4)c4ccc([nH]4)c(-c4ccccc4)c4nc(c(-c5ccccc5)c5ccc2[nH]5)C=C4)C=C3)cc1
REMARK SMILES IDX 6 1 5 2 4 3 3 4 1 5 2 6 29 8 30 9 76 10 31 11 75 12 32 13
REMARK SMILES IDX 33 14 34 15 69 16 35 17 74 18 68 19 70 20 36 21 73 22 67 23
REMARK SMILES IDX 66 24 37 26 59 27 44 28 58 29 45 30 48 31 57 32 71 33 46 34
REMARK SMILES IDX 47 35 56 37 72 38 49 39 38 40 39 41 43 42 40 43 42 44 41 45
REMARK SMILES IDX 60 46 61 47 65 48 62 49 64 50 63 51 50 52 51 53 55 54 52 55
REMARK SMILES IDX 54 56 53 57 7 58 8 59 9 60 10 62 11 63 12 64 27 65 13 66
REMARK SMILES IDX 26 67 25 68 28 69 14 71 15 72 16 73 17 74 24 75 18 76 23 77
REMARK SMILES IDX 19 78 20 79 21 80 22 81
REMARK H PARENT 3 7 70 25 48 36 8 61 28 70
REMARK Flexibility Score: inf
ROOT
ATOM      1  C   UNL A   1      39.268  22.653  26.501  1.00  0.00     0.023 C 
ENDROOT
BRANCH   1   2
ATOM      2  C   UNL A   1      39.396  21.330  25.751  1.00  0.00     0.023 C 
BRANCH   2   3
ATOM      3  C   UNL A   1      39.985  20.180  26.560  1.00  0.00     0.116 C 
BRANCH   3   4
ATOM      4  N   UNL A   1      41.193  19.628  25.964  1.00  0.00    -0.352 N 
ATOM      5  O   UNL A   1      43.282  19.637  25.107  1.00  0.00    -0.269 OA
ATOM      6  C   UNL A   1      42.415  20.221  25.752  1.00  0.00     0.251 C 
ATOM      7  H   UNL A   1      41.126  18.689  25.671  1.00  0.00     0.163 HD
BRANCH   6   8
ATOM      8  C   UNL A   1      42.678  21.578  26.277  1.00  0.00     0.039 A 
ATOM      9  C   UNL A   1      42.765  21.805  27.652  1.00  0.00     0.014 A 
ATOM     10  C   UNL A   1      42.843  22.637  25.380  1.00  0.00     0.014 A 
ATOM     11  C   UNL A   1      42.861  23.105  28.132  1.00  0.00     0.010 A 
ATOM     12  C   UNL A   1      43.029  23.935  25.864  1.00  0.00     0.010 A 
ATOM     13  C   UNL A   1      43.006  24.184  27.244  1.00  0.00    -0.014 A 
BRANCH  13  14
ATOM     14  C   UNL A   1      43.197  25.550  27.791  1.00  0.00     0.031 A 
ATOM     15  C   UNL A   1      44.569  26.131  27.990  1.00  0.00     0.074 A 
ATOM     16  C   UNL A   1      42.105  26.286  28.078  1.00  0.00     0.049 A 
ATOM     17  N   UNL A   1      44.901  27.321  28.424  1.00  0.00    -0.248 NA
ATOM     18  C   UNL A   1      45.716  25.269  27.667  1.00  0.00     0.031 C 
ATOM     19  C   UNL A   1      40.719  25.830  27.932  1.00  0.00     0.029 A 
ATOM     20  N   UNL A   1      41.985  27.574  28.530  1.00  0.00    -0.354 N 
ATOM     21  C   UNL A   1      46.290  27.346  28.446  1.00  0.00     0.074 A 
ATOM     22  C   UNL A   1      46.740  26.043  28.001  1.00  0.00     0.031 C 
ATOM     23  C   UNL A   1      39.891  26.840  28.236  1.00  0.00     0.029 A 
ATOM     24  C   UNL A   1      40.682  27.989  28.658  1.00  0.00     0.049 A 
ATOM     25  H   UNL A   1      42.757  28.147  28.743  1.00  0.00     0.167 HD
ATOM     26  C   UNL A   1      47.115  28.362  28.799  1.00  0.00     0.031 A 
ATOM     27  C   UNL A   1      40.174  29.161  29.081  1.00  0.00     0.031 A 
ATOM     28  C   UNL A   1      46.665  29.658  29.238  1.00  0.00     0.049 A 
ATOM     29  C   UNL A   1      41.109  30.256  29.494  1.00  0.00     0.074 A 
ATOM     30  C   UNL A   1      47.426  30.761  29.587  1.00  0.00     0.029 A 
ATOM     31  N   UNL A   1      45.338  30.023  29.395  1.00  0.00    -0.354 N 
ATOM     32  N   UNL A   1      42.419  30.271  29.477  1.00  0.00    -0.248 NA
ATOM     33  C   UNL A   1      40.495  31.496  29.987  1.00  0.00     0.031 C 
ATOM     34  C   UNL A   1      46.559  31.778  30.001  1.00  0.00     0.029 A 
ATOM     35  C   UNL A   1      45.257  31.326  29.860  1.00  0.00     0.049 A 
ATOM     36  H   UNL A   1      44.565  29.443  29.203  1.00  0.00     0.167 HD
ATOM     37  C   UNL A   1      42.788  31.525  29.943  1.00  0.00     0.074 A 
ATOM     38  C   UNL A   1      41.562  32.249  30.212  1.00  0.00     0.031 C 
ATOM     39  C   UNL A   1      44.030  32.029  30.134  1.00  0.00     0.031 A 
BRANCH  26  40
ATOM     40  C   UNL A   1      48.595  28.106  28.750  1.00  0.00    -0.014 A 
ATOM     41  C   UNL A   1      49.351  28.406  27.606  1.00  0.00     0.009 A 
ATOM     42  C   UNL A   1      49.253  27.609  29.887  1.00  0.00     0.009 A 
ATOM     43  C   UNL A   1      50.731  28.185  27.593  1.00  0.00     0.001 A 
ATOM     44  C   UNL A   1      50.635  27.411  29.878  1.00  0.00     0.001 A 
ATOM     45  C   UNL A   1      51.372  27.693  28.730  1.00  0.00     0.000 A 
ENDBRANCH  26  40
BRANCH  27  46
ATOM     46  C   UNL A   1      38.702  29.343  29.144  1.00  0.00    -0.014 A 
ATOM     47  C   UNL A   1      38.009  29.152  30.349  1.00  0.00     0.009 A 
ATOM     48  C   UNL A   1      37.985  29.730  28.001  1.00  0.00     0.009 A 
ATOM     49  C   UNL A   1      36.625  29.328  30.402  1.00  0.00     0.001 A 
ATOM     50  C   UNL A   1      36.606  29.934  28.064  1.00  0.00     0.001 A 
ATOM     51  C   UNL A   1      35.926  29.725  29.262  1.00  0.00     0.000 A 
ENDBRANCH  27  46
BRANCH  39  52
ATOM     52  C   UNL A   1      44.119  33.440  30.639  1.00  0.00    -0.014 A 
ATOM     53  C   UNL A   1      44.216  33.714  32.012  1.00  0.00     0.009 A 
ATOM     54  C   UNL A   1      44.128  34.507  29.727  1.00  0.00     0.009 A 
ATOM     55  C   UNL A   1      44.284  35.033  32.464  1.00  0.00     0.001 A 
ATOM     56  C   UNL A   1      44.223  35.823  30.180  1.00  0.00     0.001 A 
ATOM     57  C   UNL A   1      44.291  36.085  31.548  1.00  0.00     0.000 A 
ENDBRANCH  39  52
ENDBRANCH  13  14
ENDBRANCH   6   8
ENDBRANCH   3   4
ENDBRANCH   2   3
ENDBRANCH   1   2
BRANCH   1  58
ATOM     58  C   UNL A   1      38.137  23.560  26.030  1.00  0.00     0.116 C 
BRANCH  58  59
ATOM     59  N   UNL A   1      37.731  23.296  24.661  1.00  0.00    -0.352 N 
ATOM     60  C   UNL A   1      36.458  23.313  24.141  1.00  0.00     0.255 C 
ATOM     61  H   UNL A   1      38.455  23.079  24.029  1.00  0.00     0.163 HD
ATOM     62  O   UNL A   1      36.258  23.036  22.963  1.00  0.00    -0.269 OA
BRANCH  60  63
ATOM     63  C   UNL A   1      35.320  23.586  25.038  1.00  0.00     0.083 A 
ATOM     64  C   UNL A   1      34.614  24.777  24.835  1.00  0.00     0.046 A 
ATOM     65  C   UNL A   1      34.909  22.677  26.018  1.00  0.00     0.128 A 
ATOM     66  C   UNL A   1      33.457  25.040  25.569  1.00  0.00     0.064 A 
ATOM     67  C   UNL A   1      33.749  22.923  26.745  1.00  0.00     0.049 A 
ATOM     68  C   UNL A   1      33.017  24.088  26.501  1.00  0.00     0.032 A 
BRANCH  65  69
ATOM     69  O   UNL A   1      35.616  21.529  26.239  1.00  0.00    -0.507 OA
ATOM     70  H   UNL A   1      35.186  20.697  26.192  1.00  0.00     0.293 HD
ENDBRANCH  65  69
BRANCH  66  71
ATOM     71  N   UNL A   1      32.737  26.211  25.287  1.00  0.00    -0.256 NA
ATOM     72  C   UNL A   1      31.752  26.132  24.450  1.00  0.00     0.119 C 
BRANCH  72  73
ATOM     73  C   UNL A   1      30.936  27.306  24.087  1.00  0.00    -0.007 A 
ATOM     74  C   UNL A   1      29.698  27.093  23.471  1.00  0.00     0.017 A 
ATOM     75  C   UNL A   1      31.378  28.606  24.362  1.00  0.00     0.017 A 
ATOM     76  C   UNL A   1      28.891  28.182  23.133  1.00  0.00     0.086 A 
ATOM     77  C   UNL A   1      30.573  29.700  24.032  1.00  0.00     0.086 A 
ATOM     78  C   UNL A   1      29.329  29.484  23.421  1.00  0.00     0.269 A 
BRANCH  78  79
ATOM     79  N   UNL A   1      28.472  30.628  23.084  1.00  0.00     0.062 N 
ATOM     80  O   UNL A   1      28.970  31.540  22.409  1.00  0.00    -0.258 OA
ATOM     81  O   UNL A   1      27.303  30.614  23.494  1.00  0.00    -0.258 OA
ENDBRANCH  78  79
ENDBRANCH  72  73
ENDBRANCH  66  71
ENDBRANCH  60  63
ENDBRANCH  58  59
ENDBRANCH   1  58
TORSDOF 15
ENDMDL
MODEL 2
REMARK VINA RESULT:     -10.9      3.986      9.398
REMARK SMILES O=C(NCCCCNC(=O)c1cc(/N=C/c2ccc([N+](=O)[O-])cc2)ccc1O)c1ccc(-c2c3nc(c(-c4ccccc4)c4ccc([nH]4)c(-c4ccccc4)c4nc(c(-c5ccccc5)c5ccc2[nH]5)C=C4)C=C3)cc1
REMARK SMILES IDX 6 1 5 2 4 3 3 4 1 5 2 6 29 8 30 9 76 10 31 11 75 12 32 13
REMARK SMILES IDX 33 14 34 15 69 16 35 17 74 18 68 19 70 20 36 21 73 22 67 23
REMARK SMILES IDX 66 24 37 26 59 27 44 28 58 29 45 30 48 31 57 32 71 33 46 34
REMARK SMILES IDX 47 35 56 37 72 38 49 39 38 40 39 41 43 42 40 43 42 44 41 45
REMARK SMILES IDX 60 46 61 47 65 48 62 49 64 50 63 51 50 52 51 53 55 54 52 55
REMARK SMILES IDX 54 56 53 57 7 58 8 59 9 60 10 62 11 63 12 64 27 65 13 66
REMARK SMILES IDX 26 67 25 68 28 69 14 71 15 72 16 73 17 74 24 75 18 76 23 77
REMARK SMILES IDX 19 78 20 79 21 80 22 81
REMARK H PARENT 3 7 70 25 48 36 8 61 28 70
REMARK Flexibility Score: inf
ROOT
ATOM      1  C   UNL A   1      34.927  31.104  27.791  1.00  0.00     0.023 C 
ENDROOT
BRANCH   1   2
ATOM      2  C   UNL A   1      33.629  31.900  27.889  1.00  0.00     0.023 C 
BRANCH   2   3
ATOM      3  C   UNL A   1      33.763  33.395  27.627  1.00  0.00     0.116 C 
BRANCH   3   4
ATOM      4  N   UNL A   1      33.278  34.211  28.731  1.00  0.00    -0.352 N 
ATOM      5  O   UNL A   1      33.123  34.952  30.858  1.00  0.00    -0.269 OA
ATOM      6  C   UNL A   1      33.747  34.308  30.019  1.00  0.00     0.251 C 
ATOM      7  H   UNL A   1      32.500  34.779  28.524  1.00  0.00     0.163 HD
BRANCH   6   8
ATOM      8  C   UNL A   1      34.993  33.611  30.405  1.00  0.00     0.039 A 
ATOM      9  C   UNL A   1      36.230  34.044  29.923  1.00  0.00     0.014 A 
ATOM     10  C   UNL A   1      34.921  32.511  31.265  1.00  0.00     0.014 A 
ATOM     11  C   UNL A   1      37.370  33.290  30.172  1.00  0.00     0.010 A 
ATOM     12  C   UNL A   1      36.084  31.805  31.588  1.00  0.00     0.010 A 
ATOM     13  C   UNL A   1      37.313  32.169  31.017  1.00  0.00    -0.014 A 
BRANCH  13  14
ATOM     14  C   UNL A   1      38.564  31.438  31.336  1.00  0.00     0.031 A 
ATOM     15  C   UNL A   1      39.377  31.769  32.556  1.00  0.00     0.074 A 
ATOM     16  C   UNL A   1      38.949  30.436  30.521  1.00  0.00     0.049 A 
ATOM     17  N   UNL A   1      40.474  31.201  32.991  1.00  0.00    -0.248 NA
ATOM     18  C   UNL A   1      38.905  32.881  33.395  1.00  0.00     0.031 C 
ATOM     19  C   UNL A   1      38.246  30.024  29.302  1.00  0.00     0.029 A 
ATOM     20  N   UNL A   1      40.008  29.570  30.603  1.00  0.00    -0.354 N 
ATOM     21  C   UNL A   1      40.834  31.895  34.140  1.00  0.00     0.074 A 
ATOM     22  C   UNL A   1      39.851  32.942  34.323  1.00  0.00     0.031 C 
ATOM     23  C   UNL A   1      38.862  28.953  28.782  1.00  0.00     0.029 A 
ATOM     24  C   UNL A   1      40.035  28.643  29.590  1.00  0.00     0.049 A 
ATOM     25  H   UNL A   1      40.684  29.609  31.318  1.00  0.00     0.167 HD
ATOM     26  C   UNL A   1      41.885  31.676  34.967  1.00  0.00     0.031 A 
ATOM     27  C   UNL A   1      40.912  27.658  29.328  1.00  0.00     0.031 A 
ATOM     28  C   UNL A   1      42.861  30.632  34.784  1.00  0.00     0.049 A 
ATOM     29  C   UNL A   1      42.082  27.458  30.243  1.00  0.00     0.074 A 
ATOM     30  C   UNL A   1      43.942  30.313  35.587  1.00  0.00     0.029 A 
ATOM     31  N   UNL A   1      42.876  29.742  33.722  1.00  0.00    -0.354 N 
ATOM     32  N   UNL A   1      42.388  28.105  31.342  1.00  0.00    -0.248 NA
ATOM     33  C   UNL A   1      43.028  26.395  29.882  1.00  0.00     0.031 C 
ATOM     34  C   UNL A   1      44.640  29.260  34.985  1.00  0.00     0.029 A 
ATOM     35  C   UNL A   1      43.963  28.889  33.835  1.00  0.00     0.049 A 
ATOM     36  H   UNL A   1      42.212  29.717  32.995  1.00  0.00     0.167 HD
ATOM     37  C   UNL A   1      43.555  27.518  31.811  1.00  0.00     0.074 A 
ATOM     38  C   UNL A   1      43.887  26.450  30.890  1.00  0.00     0.031 C 
ATOM     39  C   UNL A   1      44.286  27.839  32.905  1.00  0.00     0.031 A 
BRANCH  26  40
ATOM     40  C   UNL A   1      42.053  32.603  36.139  1.00  0.00    -0.014 A 
ATOM     41  C   UNL A   1      42.790  33.792  36.030  1.00  0.00     0.009 A 
ATOM     42  C   UNL A   1      41.418  32.307  37.356  1.00  0.00     0.009 A 
ATOM     43  C   UNL A   1      42.911  34.651  37.125  1.00  0.00     0.001 A 
ATOM     44  C   UNL A   1      41.521  33.180  38.441  1.00  0.00     0.001 A 
ATOM     45  C   UNL A   1      42.272  34.347  38.327  1.00  0.00     0.000 A 
ENDBRANCH  26  40
BRANCH  27  46
ATOM     46  C   UNL A   1      40.716  26.797  28.134  1.00  0.00    -0.014 A 
ATOM     47  C   UNL A   1      41.328  27.118  26.914  1.00  0.00     0.009 A 
ATOM     48  C   UNL A   1      39.931  25.637  28.218  1.00  0.00     0.009 A 
ATOM     49  C   UNL A   1      41.142  26.302  25.796  1.00  0.00     0.001 A 
ATOM     50  C   UNL A   1      39.770  24.808  27.107  1.00  0.00     0.001 A 
ATOM     51  C   UNL A   1      40.368  25.145  25.895  1.00  0.00     0.000 A 
ENDBRANCH  27  46
BRANCH  39  52
ATOM     52  C   UNL A   1      45.507  27.007  33.172  1.00  0.00    -0.014 A 
ATOM     53  C   UNL A   1      45.431  25.829  33.932  1.00  0.00     0.009 A 
ATOM     54  C   UNL A   1      46.745  27.396  32.637  1.00  0.00     0.009 A 
ATOM     55  C   UNL A   1      46.579  25.076  34.180  1.00  0.00     0.001 A 
ATOM     56  C   UNL A   1      47.886  26.627  32.865  1.00  0.00     0.001 A 
ATOM     57  C   UNL A   1      47.805  25.473  33.644  1.00  0.00     0.000 A 
ENDBRANCH  39  52
ENDBRANCH  13  14
ENDBRANCH   6   8
ENDBRANCH   3   4
ENDBRANCH   2   3
ENDBRANCH   1   2
BRANCH   1  58
ATOM     58  C   UNL A   1      34.757  29.612  27.528  1.00  0.00     0.116 C 
BRANCH  58  59
ATOM     59  N   UNL A   1      33.450  29.114  27.915  1.00  0.00    -0.352 N 
ATOM     60  C   UNL A   1      32.634  28.255  27.216  1.00  0.00     0.255 C 
ATOM     61  H   UNL A   1      33.105  29.429  28.783  1.00  0.00     0.163 HD
ATOM     62  O   UNL A   1      31.531  27.942  27.653  1.00  0.00    -0.269 OA
BRANCH  60  63
ATOM     63  C   UNL A   1      33.064  27.777  25.889  1.00  0.00     0.083 A 
ATOM     64  C   UNL A   1      33.442  26.434  25.782  1.00  0.00     0.046 A 
ATOM     65  C   UNL A   1      33.044  28.601  24.758  1.00  0.00     0.128 A 
ATOM     66  C   UNL A   1      33.746  25.889  24.534  1.00  0.00     0.064 A 
ATOM     67  C   UNL A   1      33.331  28.063  23.508  1.00  0.00     0.049 A 
ATOM     68  C   UNL A   1      33.655  26.707  23.398  1.00  0.00     0.032 A 
BRANCH  65  69
ATOM     69  O   UNL A   1      32.706  29.920  24.867  1.00  0.00    -0.507 OA
ATOM     70  H   UNL A   1      32.132  30.310  24.237  1.00  0.00     0.293 HD
ENDBRANCH  65  69
BRANCH  66  71
ATOM     71  N   UNL A   1      34.051  24.521  24.457  1.00  0.00    -0.256 NA
ATOM     72  C   UNL A   1      33.106  23.673  24.708  1.00  0.00     0.119 C 
BRANCH  72  73
ATOM     73  C   UNL A   1      33.327  22.214  24.655  1.00  0.00    -0.007 A 
ATOM     74  C   UNL A   1      34.585  21.717  25.015  1.00  0.00     0.017 A 
ATOM     75  C   UNL A   1      32.303  21.343  24.269  1.00  0.00     0.017 A 
ATOM     76  C   UNL A   1      34.821  20.341  24.995  1.00  0.00     0.086 A 
ATOM     77  C   UNL A   1      32.531  19.963  24.254  1.00  0.00     0.086 A 
ATOM     78  C   UNL A   1      33.790  19.466  24.621  1.00  0.00     0.269 A 
BRANCH  78  79
ATOM     79  N   UNL A   1      34.032  18.017  24.620  1.00  0.00     0.062 N 
ATOM     80  O   UNL A   1      35.147  17.622  24.253  1.00  0.00    -0.258 OA
ATOM     81  O   UNL A   1      33.109  17.278  24.988  1.00  0.00    -0.258 OA
ENDBRANCH  78  79
ENDBRANCH  72  73
ENDBRANCH  66  71
ENDBRANCH  60  63
ENDBRANCH  58  59
ENDBRANCH   1  58
TORSDOF 15
ENDMDL
MODEL 3
REMARK VINA RESULT:     -10.9      3.930      9.620
REMARK SMILES O=C(NCCCCNC(=O)c1cc(/N=C/c2ccc([N+](=O)[O-])cc2)ccc1O)c1ccc(-c2c3nc(c(-c4ccccc4)c4ccc([nH]4)c(-c4ccccc4)c4nc(c(-c5ccccc5)c5ccc2[nH]5)C=C4)C=C3)cc1
REMARK SMILES IDX 6 1 5 2 4 3 3 4 1 5 2 6 29 8 30 9 76 10 31 11 75 12 32 13
REMARK SMILES IDX 33 14 34 15 69 16 35 17 74 18 68 19 70 20 36 21 73 22 67 23
REMARK SMILES IDX 66 24 37 26 59 27 44 28 58 29 45 30 48 31 57 32 71 33 46 34
REMARK SMILES IDX 47 35 56 37 72 38 49 39 38 40 39 41 43 42 40 43 42 44 41 45
REMARK SMILES IDX 60 46 61 47 65 48 62 49 64 50 63 51 50 52 51 53 55 54 52 55
REMARK SMILES IDX 54 56 53 57 7 58 8 59 9 60 10 62 11 63 12 64 27 65 13 66
REMARK SMILES IDX 26 67 25 68 28 69 14 71 15 72 16 73 17 74 24 75 18 76 23 77
REMARK SMILES IDX 19 78 20 79 21 80 22 81
REMARK H PARENT 3 7 70 25 48 36 8 61 28 70
REMARK Flexibility Score: inf
ROOT
ATOM      1  C   UNL A   1      31.570  30.271  26.322  1.00  0.00     0.023 C 
ENDROOT
BRANCH   1   2
ATOM      2  C   UNL A   1      31.403  31.778  26.498  1.00  0.00     0.023 C 
BRANCH   2   3
ATOM      3  C   UNL A   1      32.665  32.526  26.911  1.00  0.00     0.116 C 
BRANCH   3   4
ATOM      4  N   UNL A   1      32.395  33.874  27.389  1.00  0.00    -0.352 N 
ATOM      5  O   UNL A   1      32.548  35.668  28.752  1.00  0.00    -0.269 OA
ATOM      6  C   UNL A   1      33.004  34.585  28.396  1.00  0.00     0.251 C 
ATOM      7  H   UNL A   1      31.669  34.349  26.921  1.00  0.00     0.163 HD
BRANCH   6   8
ATOM      8  C   UNL A   1      34.196  34.031  29.073  1.00  0.00     0.039 A 
ATOM      9  C   UNL A   1      35.481  34.374  28.648  1.00  0.00     0.014 A 
ATOM     10  C   UNL A   1      34.024  33.157  30.151  1.00  0.00     0.014 A 
ATOM     11  C   UNL A   1      36.584  33.729  29.193  1.00  0.00     0.010 A 
ATOM     12  C   UNL A   1      35.142  32.577  30.759  1.00  0.00     0.010 A 
ATOM     13  C   UNL A   1      36.429  32.833  30.264  1.00  0.00    -0.014 A 
BRANCH  13  14
ATOM     14  C   UNL A   1      37.634  32.230  30.884  1.00  0.00     0.031 A 
ATOM     15  C   UNL A   1      38.348  31.071  30.246  1.00  0.00     0.074 A 
ATOM     16  C   UNL A   1      38.106  32.767  32.026  1.00  0.00     0.049 A 
ATOM     17  N   UNL A   1      39.434  30.456  30.645  1.00  0.00    -0.248 NA
ATOM     18  C   UNL A   1      37.772  30.527  29.007  1.00  0.00     0.031 C 
ATOM     19  C   UNL A   1      37.497  33.891  32.744  1.00  0.00     0.029 A 
ATOM     20  N   UNL A   1      39.214  32.458  32.772  1.00  0.00    -0.354 N 
ATOM     21  C   UNL A   1      39.660  29.443  29.720  1.00  0.00     0.074 A 
ATOM     22  C   UNL A   1      38.587  29.512  28.751  1.00  0.00     0.031 C 
ATOM     23  C   UNL A   1      38.267  34.210  33.794  1.00  0.00     0.029 A 
ATOM     24  C   UNL A   1      39.385  33.277  33.861  1.00  0.00     0.049 A 
ATOM     25  H   UNL A   1      39.826  31.720  32.549  1.00  0.00     0.167 HD
ATOM     26  C   UNL A   1      40.672  28.543  29.681  1.00  0.00     0.031 A 
ATOM     27  C   UNL A   1      40.329  33.273  34.819  1.00  0.00     0.031 A 
ATOM     28  C   UNL A   1      41.741  28.478  30.645  1.00  0.00     0.049 A 
ATOM     29  C   UNL A   1      41.419  32.246  34.767  1.00  0.00     0.074 A 
ATOM     30  C   UNL A   1      42.827  27.620  30.670  1.00  0.00     0.029 A 
ATOM     31  N   UNL A   1      41.854  29.298  31.756  1.00  0.00    -0.354 N 
ATOM     32  N   UNL A   1      41.634  31.317  33.867  1.00  0.00    -0.248 NA
ATOM     33  C   UNL A   1      42.396  32.266  35.863  1.00  0.00     0.031 C 
ATOM     34  C   UNL A   1      43.572  27.890  31.824  1.00  0.00     0.029 A 
ATOM     35  C   UNL A   1      42.978  28.950  32.488  1.00  0.00     0.049 A 
ATOM     36  H   UNL A   1      41.228  30.021  31.991  1.00  0.00     0.167 HD
ATOM     37  C   UNL A   1      42.778  30.650  34.281  1.00  0.00     0.074 A 
ATOM     38  C   UNL A   1      43.223  31.297  35.499  1.00  0.00     0.031 C 
ATOM     39  C   UNL A   1      43.401  29.595  33.704  1.00  0.00     0.031 A 
BRANCH  26  40
ATOM     40  C   UNL A   1      40.661  27.531  28.569  1.00  0.00    -0.014 A 
ATOM     41  C   UNL A   1      41.347  27.759  27.367  1.00  0.00     0.009 A 
ATOM     42  C   UNL A   1      39.998  26.306  28.750  1.00  0.00     0.009 A 
ATOM     43  C   UNL A   1      41.344  26.794  26.357  1.00  0.00     0.001 A 
ATOM     44  C   UNL A   1      40.018  25.333  27.749  1.00  0.00     0.001 A 
ATOM     45  C   UNL A   1      40.685  25.580  26.551  1.00  0.00     0.000 A 
ENDBRANCH  26  40
BRANCH  27  46
ATOM     46  C   UNL A   1      40.268  34.273  35.915  1.00  0.00    -0.014 A 
ATOM     47  C   UNL A   1      40.931  35.503  35.798  1.00  0.00     0.009 A 
ATOM     48  C   UNL A   1      39.526  34.007  37.076  1.00  0.00     0.009 A 
ATOM     49  C   UNL A   1      40.867  36.441  36.831  1.00  0.00     0.001 A 
ATOM     50  C   UNL A   1      39.440  34.957  38.094  1.00  0.00     0.001 A 
ATOM     51  C   UNL A   1      40.117  36.170  37.975  1.00  0.00     0.000 A 
ENDBRANCH  27  46
BRANCH  39  52
ATOM     52  C   UNL A   1      44.644  29.091  34.378  1.00  0.00    -0.014 A 
ATOM     53  C   UNL A   1      45.902  29.643  34.091  1.00  0.00     0.009 A 
ATOM     54  C   UNL A   1      44.552  28.062  35.330  1.00  0.00     0.009 A 
ATOM     55  C   UNL A   1      47.047  29.152  34.718  1.00  0.00     0.001 A 
ATOM     56  C   UNL A   1      45.696  27.591  35.975  1.00  0.00     0.001 A 
ATOM     57  C   UNL A   1      46.943  28.129  35.662  1.00  0.00     0.000 A 
ENDBRANCH  39  52
ENDBRANCH  13  14
ENDBRANCH   6   8
ENDBRANCH   3   4
ENDBRANCH   2   3
ENDBRANCH   1   2
BRANCH   1  58
ATOM     58  C   UNL A   1      32.980  29.810  25.966  1.00  0.00     0.116 C 
BRANCH  58  59
ATOM     59  N   UNL A   1      33.204  29.724  24.534  1.00  0.00    -0.352 N 
ATOM     60  C   UNL A   1      33.045  28.626  23.721  1.00  0.00     0.255 C 
ATOM     61  H   UNL A   1      33.507  30.551  24.093  1.00  0.00     0.163 HD
ATOM     62  O   UNL A   1      33.305  28.690  22.524  1.00  0.00    -0.269 OA
BRANCH  60  63
ATOM     63  C   UNL A   1      32.638  27.342  24.320  1.00  0.00     0.083 A 
ATOM     64  C   UNL A   1      33.653  26.440  24.658  1.00  0.00     0.046 A 
ATOM     65  C   UNL A   1      31.301  27.043  24.603  1.00  0.00     0.128 A 
ATOM     66  C   UNL A   1      33.346  25.259  25.334  1.00  0.00     0.064 A 
ATOM     67  C   UNL A   1      30.985  25.875  25.290  1.00  0.00     0.049 A 
ATOM     68  C   UNL A   1      32.009  25.003  25.673  1.00  0.00     0.032 A 
BRANCH  65  69
ATOM     69  O   UNL A   1      30.306  27.908  24.245  1.00  0.00    -0.507 OA
ATOM     70  H   UNL A   1      29.426  27.753  24.528  1.00  0.00     0.293 HD
ENDBRANCH  65  69
BRANCH  66  71
ATOM     71  N   UNL A   1      34.398  24.415  25.719  1.00  0.00    -0.256 NA
ATOM     72  C   UNL A   1      35.139  23.904  24.789  1.00  0.00     0.119 C 
BRANCH  72  73
ATOM     73  C   UNL A   1      36.269  23.003  25.092  1.00  0.00    -0.007 A 
ATOM     74  C   UNL A   1      36.188  21.670  24.677  1.00  0.00     0.017 A 
ATOM     75  C   UNL A   1      37.403  23.470  25.767  1.00  0.00     0.017 A 
ATOM     76  C   UNL A   1      37.248  20.796  24.930  1.00  0.00     0.086 A 
ATOM     77  C   UNL A   1      38.470  22.602  26.017  1.00  0.00     0.086 A 
ATOM     78  C   UNL A   1      38.390  21.268  25.594  1.00  0.00     0.269 A 
BRANCH  78  79
ATOM     79  N   UNL A   1      39.513  20.354  25.842  1.00  0.00     0.062 N 
ATOM     80  O   UNL A   1      40.468  20.784  26.504  1.00  0.00    -0.258 OA
ATOM     81  O   UNL A   1      39.439  19.208  25.376  1.00  0.00    -0.258 OA
ENDBRANCH  78  79
ENDBRANCH  72  73
ENDBRANCH  66  71
ENDBRANCH  60  63
ENDBRANCH  58  59
ENDBRANCH   1  58
TORSDOF 15
ENDMDL
