MODEL 1
REMARK VINA RESULT:     -11.6      0.000      0.000
REMARK SMILES O=C(Cc1ccc(F)c(F)c1)NC1(C(=O)NCCCCNC(=O)c2ccc(-c3c4nc(c(-c5ccccc5)c5ccc([nH]5)c(-c5ccccc5)c5nc(c(-c6ccccc6)c6ccc3[nH]6)C=C5)C=C4)cc2)CCCC1
REMARK SMILES IDX 18 1 17 2 16 3 14 4 15 5 13 7 72 8 75 9 73 10 74 11 12 12
REMARK SMILES IDX 1 13 2 14 3 16 4 17 5 18 11 19 6 20 9 21 7 22 10 23 8 24
REMARK SMILES IDX 19 25 20 26 21 27 22 28 23 30 24 31 25 32 71 33 26 34 70 35
REMARK SMILES IDX 27 36 28 37 29 38 64 39 30 40 69 41 63 42 65 43 31 44 68 45
REMARK SMILES IDX 62 46 61 47 32 49 54 50 39 51 53 52 40 53 43 54 52 55 66 56
REMARK SMILES IDX 41 57 42 58 51 60 67 61 44 62 33 63 34 64 38 65 35 66 37 67
REMARK SMILES IDX 36 68 55 69 56 70 60 71 57 72 59 73 58 74 45 75 46 76 50 77
REMARK SMILES IDX 47 78 49 79 48 80
REMARK H PARENT 16 6 12 15 21 29 65 48 43 59
REMARK Flexibility Score: inf
ROOT
ATOM      1  C   UNL A   1      36.324  21.055  25.342  1.00  0.00     0.023 C 
ENDROOT
BRANCH   1   2
ATOM      2  C   UNL A   1      36.526  22.566  25.441  1.00  0.00     0.116 C 
BRANCH   2   3
ATOM      3  N   UNL A   1      36.225  23.198  24.176  1.00  0.00    -0.354 N 
ATOM      4  C   UNL A   1      35.052  23.697  23.695  1.00  0.00     0.245 C 
ATOM      5  O   UNL A   1      34.954  23.709  22.460  1.00  0.00    -0.272 OA
ATOM      6  H   UNL A   1      36.991  23.280  23.564  1.00  0.00     0.163 HD
BRANCH   4   7
ATOM      7  C   UNL A   1      33.850  24.122  24.624  1.00  0.00     0.119 C 
ATOM      8  C   UNL A   1      32.772  24.992  23.964  1.00  0.00     0.038 C 
ATOM      9  C   UNL A   1      34.397  24.924  25.821  1.00  0.00     0.038 C 
ATOM     10  C   UNL A   1      32.689  26.305  24.737  1.00  0.00     0.003 C 
ATOM     11  C   UNL A   1      33.800  26.319  25.771  1.00  0.00     0.003 C 
BRANCH   7  12
ATOM     12  N   UNL A   1      33.243  22.878  25.145  1.00  0.00    -0.341 N 
ATOM     13  O   UNL A   1      32.022  22.377  23.281  1.00  0.00    -0.275 OA
ATOM     14  C   UNL A   1      32.470  22.038  24.376  1.00  0.00     0.225 C 
ATOM     15  H   UNL A   1      33.397  22.641  26.087  1.00  0.00     0.164 HD
BRANCH  14  16
ATOM     16  C   UNL A   1      32.167  20.659  24.953  1.00  0.00     0.135 C 
BRANCH  16  17
ATOM     17  C   UNL A   1      32.753  19.424  24.286  1.00  0.00    -0.036 A 
ATOM     18  C   UNL A   1      32.185  18.825  23.146  1.00  0.00     0.007 A 
ATOM     19  C   UNL A   1      33.866  18.801  24.878  1.00  0.00     0.046 A 
ATOM     20  C   UNL A   1      32.785  17.713  22.546  1.00  0.00     0.043 A 
ATOM     21  C   UNL A   1      34.435  17.669  24.298  1.00  0.00     0.159 A 
ATOM     22  C   UNL A   1      33.912  17.143  23.125  1.00  0.00     0.158 A 
ATOM     23  F   UNL A   1      35.495  17.095  24.882  1.00  0.00    -0.204 F 
ATOM     24  F   UNL A   1      34.481  16.076  22.549  1.00  0.00    -0.204 F 
ENDBRANCH  16  17
ENDBRANCH  14  16
ENDBRANCH   7  12
ENDBRANCH   4   7
ENDBRANCH   2   3
ENDBRANCH   1   2
BRANCH   1  25
ATOM     25  C   UNL A   1      37.579  20.285  24.925  1.00  0.00     0.023 C 
BRANCH  25  26
ATOM     26  C   UNL A   1      38.834  20.620  25.724  1.00  0.00     0.116 C 
BRANCH  26  27
ATOM     27  N   UNL A   1      39.829  19.559  25.710  1.00  0.00    -0.352 N 
ATOM     28  C   UNL A   1      41.153  19.630  26.069  1.00  0.00     0.251 C 
ATOM     29  H   UNL A   1      39.514  18.678  25.403  1.00  0.00     0.163 HD
ATOM     30  O   UNL A   1      41.899  18.667  25.914  1.00  0.00    -0.269 OA
BRANCH  28  31
ATOM     31  C   UNL A   1      41.678  20.901  26.604  1.00  0.00     0.039 A 
ATOM     32  C   UNL A   1      42.204  21.838  25.714  1.00  0.00     0.014 A 
ATOM     33  C   UNL A   1      41.585  21.183  27.969  1.00  0.00     0.014 A 
ATOM     34  C   UNL A   1      42.568  23.099  26.186  1.00  0.00     0.010 A 
ATOM     35  C   UNL A   1      41.885  22.462  28.425  1.00  0.00     0.010 A 
ATOM     36  C   UNL A   1      42.373  23.432  27.537  1.00  0.00    -0.014 A 
BRANCH  36  37
ATOM     37  C   UNL A   1      42.665  24.796  28.041  1.00  0.00     0.031 A 
ATOM     38  C   UNL A   1      44.061  25.154  28.467  1.00  0.00     0.074 A 
ATOM     39  C   UNL A   1      41.663  25.683  28.184  1.00  0.00     0.049 A 
ATOM     40  N   UNL A   1      44.498  26.263  29.007  1.00  0.00    -0.248 NA
ATOM     41  C   UNL A   1      45.094  24.121  28.290  1.00  0.00     0.031 C 
ATOM     42  C   UNL A   1      40.256  25.439  27.854  1.00  0.00     0.029 A 
ATOM     43  N   UNL A   1      41.673  26.970  28.658  1.00  0.00    -0.354 N 
ATOM     44  C   UNL A   1      45.850  26.055  29.247  1.00  0.00     0.074 A 
ATOM     45  C   UNL A   1      46.150  24.699  28.842  1.00  0.00     0.031 C 
ATOM     46  C   UNL A   1      39.544  26.547  28.118  1.00  0.00     0.029 A 
ATOM     47  C   UNL A   1      40.435  27.565  28.665  1.00  0.00     0.049 A 
ATOM     48  H   UNL A   1      42.491  27.425  28.966  1.00  0.00     0.167 HD
ATOM     49  C   UNL A   1      46.766  26.921  29.740  1.00  0.00     0.031 A 
ATOM     50  C   UNL A   1      40.058  28.792  29.072  1.00  0.00     0.031 A 
ATOM     51  C   UNL A   1      46.473  28.274  30.131  1.00  0.00     0.049 A 
ATOM     52  C   UNL A   1      41.096  29.738  29.607  1.00  0.00     0.074 A 
ATOM     53  C   UNL A   1      47.340  29.243  30.602  1.00  0.00     0.029 A 
ATOM     54  N   UNL A   1      45.212  28.848  30.090  1.00  0.00    -0.354 N 
ATOM     55  N   UNL A   1      42.381  29.545  29.773  1.00  0.00    -0.248 NA
ATOM     56  C   UNL A   1      40.631  31.077  29.997  1.00  0.00     0.031 C 
ATOM     57  C   UNL A   1      46.597  30.396  30.877  1.00  0.00     0.029 A 
ATOM     58  C   UNL A   1      45.276  30.156  30.536  1.00  0.00     0.049 A 
ATOM     59  H   UNL A   1      44.393  28.393  29.788  1.00  0.00     0.167 HD
ATOM     60  C   UNL A   1      42.883  30.743  30.263  1.00  0.00     0.074 A 
ATOM     61  C   UNL A   1      41.766  31.661  30.351  1.00  0.00     0.031 C 
ATOM     62  C   UNL A   1      44.155  31.055  30.612  1.00  0.00     0.031 A 
BRANCH  49  63
ATOM     63  C   UNL A   1      48.177  26.425  29.877  1.00  0.00    -0.014 A 
ATOM     64  C   UNL A   1      49.097  26.569  28.827  1.00  0.00     0.009 A 
ATOM     65  C   UNL A   1      48.599  25.831  31.076  1.00  0.00     0.009 A 
ATOM     66  C   UNL A   1      50.403  26.094  28.961  1.00  0.00     0.001 A 
ATOM     67  C   UNL A   1      49.913  25.382  31.216  1.00  0.00     0.001 A 
ATOM     68  C   UNL A   1      50.811  25.505  30.157  1.00  0.00     0.000 A 
ENDBRANCH  49  63
BRANCH  50  69
ATOM     69  C   UNL A   1      38.635  29.205  28.976  1.00  0.00    -0.014 A 
ATOM     70  C   UNL A   1      37.785  29.096  30.088  1.00  0.00     0.009 A 
ATOM     71  C   UNL A   1      38.115  29.699  27.769  1.00  0.00     0.009 A 
ATOM     72  C   UNL A   1      36.437  29.447  29.985  1.00  0.00     0.001 A 
ATOM     73  C   UNL A   1      36.773  30.073  27.678  1.00  0.00     0.001 A 
ATOM     74  C   UNL A   1      35.933  29.937  28.781  1.00  0.00     0.000 A 
ENDBRANCH  50  69
BRANCH  62  75
ATOM     75  C   UNL A   1      44.411  32.456  31.086  1.00  0.00    -0.014 A 
ATOM     76  C   UNL A   1      44.751  33.476  30.185  1.00  0.00     0.009 A 
ATOM     77  C   UNL A   1      44.266  32.766  32.446  1.00  0.00     0.009 A 
ATOM     78  C   UNL A   1      44.973  34.776  30.644  1.00  0.00     0.001 A 
ATOM     79  C   UNL A   1      44.464  34.071  32.898  1.00  0.00     0.001 A 
ATOM     80  C   UNL A   1      44.824  35.073  31.999  1.00  0.00     0.000 A 
ENDBRANCH  62  75
ENDBRANCH  36  37
ENDBRANCH  28  31
ENDBRANCH  26  27
ENDBRANCH  25  26
ENDBRANCH   1  25
TORSDOF 14
ENDMDL
MODEL 2
REMARK VINA RESULT:     -11.5      0.407      5.910
REMARK SMILES O=C(Cc1ccc(F)c(F)c1)NC1(C(=O)NCCCCNC(=O)c2ccc(-c3c4nc(c(-c5ccccc5)c5ccc([nH]5)c(-c5ccccc5)c5nc(c(-c6ccccc6)c6ccc3[nH]6)C=C5)C=C4)cc2)CCCC1
REMARK SMILES IDX 18 1 17 2 16 3 14 4 15 5 13 7 72 8 75 9 73 10 74 11 12 12
REMARK SMILES IDX 1 13 2 14 3 16 4 17 5 18 11 19 6 20 9 21 7 22 10 23 8 24
REMARK SMILES IDX 19 25 20 26 21 27 22 28 23 30 24 31 25 32 71 33 26 34 70 35
REMARK SMILES IDX 27 36 28 37 29 38 64 39 30 40 69 41 63 42 65 43 31 44 68 45
REMARK SMILES IDX 62 46 61 47 32 49 54 50 39 51 53 52 40 53 43 54 52 55 66 56
REMARK SMILES IDX 41 57 42 58 51 60 67 61 44 62 33 63 34 64 38 65 35 66 37 67
REMARK SMILES IDX 36 68 55 69 56 70 60 71 57 72 59 73 58 74 45 75 46 76 50 77
REMARK SMILES IDX 47 78 49 79 48 80
REMARK H PARENT 16 6 12 15 21 29 65 48 43 59
REMARK Flexibility Score: inf
ROOT
ATOM      1  C   UNL A   1      36.177  21.509  25.181  1.00  0.00     0.023 C 
ENDROOT
BRANCH   1   2
ATOM      2  C   UNL A   1      36.233  23.033  25.285  1.00  0.00     0.116 C 
BRANCH   2   3
ATOM      3  N   UNL A   1      35.809  23.637  24.043  1.00  0.00    -0.354 N 
ATOM      4  C   UNL A   1      34.573  24.037  23.631  1.00  0.00     0.245 C 
ATOM      5  O   UNL A   1      34.404  24.041  22.404  1.00  0.00    -0.272 OA
ATOM      6  H   UNL A   1      36.529  23.783  23.388  1.00  0.00     0.163 HD
BRANCH   4   7
ATOM      7  C   UNL A   1      33.395  24.360  24.629  1.00  0.00     0.119 C 
ATOM      8  C   UNL A   1      32.204  25.119  24.032  1.00  0.00     0.038 C 
ATOM      9  C   UNL A   1      33.936  25.221  25.787  1.00  0.00     0.038 C 
ATOM     10  C   UNL A   1      32.046  26.429  24.801  1.00  0.00     0.003 C 
ATOM     11  C   UNL A   1      33.211  26.555  25.765  1.00  0.00     0.003 C 
BRANCH   7  12
ATOM     12  N   UNL A   1      32.937  23.071  25.193  1.00  0.00    -0.341 N 
ATOM     13  O   UNL A   1      31.875  22.322  23.315  1.00  0.00    -0.275 OA
ATOM     14  C   UNL A   1      32.317  22.098  24.442  1.00  0.00     0.225 C 
ATOM     15  H   UNL A   1      33.081  22.902  26.151  1.00  0.00     0.164 HD
BRANCH  14  16
ATOM     16  C   UNL A   1      32.176  20.720  25.080  1.00  0.00     0.135 C 
BRANCH  16  17
ATOM     17  C   UNL A   1      32.748  19.504  24.366  1.00  0.00    -0.036 A 
ATOM     18  C   UNL A   1      32.148  18.928  23.231  1.00  0.00     0.007 A 
ATOM     19  C   UNL A   1      33.882  18.875  24.908  1.00  0.00     0.046 A 
ATOM     20  C   UNL A   1      32.735  17.834  22.586  1.00  0.00     0.043 A 
ATOM     21  C   UNL A   1      34.438  17.760  24.284  1.00  0.00     0.159 A 
ATOM     22  C   UNL A   1      33.882  17.259  23.116  1.00  0.00     0.158 A 
ATOM     23  F   UNL A   1      35.519  17.179  24.822  1.00  0.00    -0.204 F 
ATOM     24  F   UNL A   1      34.439  16.208  22.498  1.00  0.00    -0.204 F 
ENDBRANCH  16  17
ENDBRANCH  14  16
ENDBRANCH   7  12
ENDBRANCH   4   7
ENDBRANCH   2   3
ENDBRANCH   1   2
BRANCH   1  25
ATOM     25  C   UNL A   1      37.487  20.867  24.720  1.00  0.00     0.023 C 
BRANCH  25  26
ATOM     26  C   UNL A   1      38.643  20.986  25.707  1.00  0.00     0.116 C 
BRANCH  26  27
ATOM     27  N   UNL A   1      39.556  19.853  25.668  1.00  0.00    -0.352 N 
ATOM     28  C   UNL A   1      40.880  19.814  26.033  1.00  0.00     0.251 C 
ATOM     29  H   UNL A   1      39.176  19.007  25.338  1.00  0.00     0.163 HD
ATOM     30  O   UNL A   1      41.551  18.802  25.855  1.00  0.00    -0.269 OA
BRANCH  28  31
ATOM     31  C   UNL A   1      41.496  21.027  26.601  1.00  0.00     0.039 A 
ATOM     32  C   UNL A   1      42.043  21.973  25.734  1.00  0.00     0.014 A 
ATOM     33  C   UNL A   1      41.470  21.252  27.981  1.00  0.00     0.014 A 
ATOM     34  C   UNL A   1      42.498  23.189  26.245  1.00  0.00     0.010 A 
ATOM     35  C   UNL A   1      41.860  22.489  28.480  1.00  0.00     0.010 A 
ATOM     36  C   UNL A   1      42.371  23.470  27.616  1.00  0.00    -0.014 A 
BRANCH  36  37
ATOM     37  C   UNL A   1      42.761  24.790  28.168  1.00  0.00     0.031 A 
ATOM     38  C   UNL A   1      41.720  25.854  28.372  1.00  0.00     0.074 A 
ATOM     39  C   UNL A   1      44.058  25.053  28.414  1.00  0.00     0.049 A 
ATOM     40  N   UNL A   1      41.874  27.093  28.766  1.00  0.00    -0.248 NA
ATOM     41  C   UNL A   1      40.328  25.488  28.065  1.00  0.00     0.031 C 
ATOM     42  C   UNL A   1      45.170  24.121  28.210  1.00  0.00     0.029 A 
ATOM     43  N   UNL A   1      44.663  26.193  28.881  1.00  0.00    -0.354 N 
ATOM     44  C   UNL A   1      40.604  27.655  28.739  1.00  0.00     0.074 A 
ATOM     45  C   UNL A   1      39.700  26.640  28.243  1.00  0.00     0.031 C 
ATOM     46  C   UNL A   1      46.317  24.720  28.567  1.00  0.00     0.029 A 
ATOM     47  C   UNL A   1      46.028  26.085  28.993  1.00  0.00     0.049 A 
ATOM     48  H   UNL A   1      44.167  27.010  29.113  1.00  0.00     0.167 HD
ATOM     49  C   UNL A   1      40.221  28.897  29.115  1.00  0.00     0.031 A 
ATOM     50  C   UNL A   1      46.945  26.988  29.390  1.00  0.00     0.031 A 
ATOM     51  C   UNL A   1      41.115  29.903  29.622  1.00  0.00     0.049 A 
ATOM     52  C   UNL A   1      46.491  28.358  29.811  1.00  0.00     0.074 A 
ATOM     53  C   UNL A   1      40.817  31.178  30.069  1.00  0.00     0.029 A 
ATOM     54  N   UNL A   1      42.486  29.742  29.751  1.00  0.00    -0.354 N 
ATOM     55  N   UNL A   1      45.279  28.854  29.834  1.00  0.00    -0.248 NA
ATOM     56  C   UNL A   1      47.534  29.285  30.273  1.00  0.00     0.031 C 
ATOM     57  C   UNL A   1      42.013  31.801  30.440  1.00  0.00     0.029 A 
ATOM     58  C   UNL A   1      43.048  30.897  30.264  1.00  0.00     0.049 A 
ATOM     59  H   UNL A   1      42.985  28.927  29.515  1.00  0.00     0.167 HD
ATOM     60  C   UNL A   1      45.409  30.142  30.336  1.00  0.00     0.074 A 
ATOM     61  C   UNL A   1      46.815  30.343  30.619  1.00  0.00     0.031 C 
ATOM     62  C   UNL A   1      44.449  31.076  30.542  1.00  0.00     0.031 A 
BRANCH  49  63
ATOM     63  C   UNL A   1      38.761  29.231  28.995  1.00  0.00    -0.014 A 
ATOM     64  C   UNL A   1      38.229  29.713  27.789  1.00  0.00     0.009 A 
ATOM     65  C   UNL A   1      37.904  29.036  30.088  1.00  0.00     0.009 A 
ATOM     66  C   UNL A   1      36.873  30.029  27.691  1.00  0.00     0.001 A 
ATOM     67  C   UNL A   1      36.543  29.328  29.979  1.00  0.00     0.001 A 
ATOM     68  C   UNL A   1      36.030  29.833  28.785  1.00  0.00     0.000 A 
ENDBRANCH  49  63
BRANCH  50  69
ATOM     69  C   UNL A   1      48.384  26.623  29.424  1.00  0.00    -0.014 A 
ATOM     70  C   UNL A   1      49.212  26.883  28.321  1.00  0.00     0.009 A 
ATOM     71  C   UNL A   1      48.936  26.002  30.556  1.00  0.00     0.009 A 
ATOM     72  C   UNL A   1      50.555  26.503  28.339  1.00  0.00     0.001 A 
ATOM     73  C   UNL A   1      50.287  25.647  30.580  1.00  0.00     0.001 A 
ATOM     74  C   UNL A   1      51.092  25.888  29.469  1.00  0.00     0.000 A 
ENDBRANCH  50  69
BRANCH  62  75
ATOM     75  C   UNL A   1      44.884  32.386  31.133  1.00  0.00    -0.014 A 
ATOM     76  C   UNL A   1      45.250  33.466  30.314  1.00  0.00     0.009 A 
ATOM     77  C   UNL A   1      44.886  32.554  32.526  1.00  0.00     0.009 A 
ATOM     78  C   UNL A   1      45.640  34.680  30.883  1.00  0.00     0.001 A 
ATOM     79  C   UNL A   1      45.252  33.776  33.090  1.00  0.00     0.001 A 
ATOM     80  C   UNL A   1      45.636  34.834  32.269  1.00  0.00     0.000 A 
ENDBRANCH  62  75
ENDBRANCH  36  37
ENDBRANCH  28  31
ENDBRANCH  26  27
ENDBRANCH  25  26
ENDBRANCH   1  25
TORSDOF 14
ENDMDL
MODEL 3
REMARK VINA RESULT:     -11.5      2.505      4.188
REMARK SMILES O=C(Cc1ccc(F)c(F)c1)NC1(C(=O)NCCCCNC(=O)c2ccc(-c3c4nc(c(-c5ccccc5)c5ccc([nH]5)c(-c5ccccc5)c5nc(c(-c6ccccc6)c6ccc3[nH]6)C=C5)C=C4)cc2)CCCC1
REMARK SMILES IDX 18 1 17 2 16 3 14 4 15 5 13 7 72 8 75 9 73 10 74 11 12 12
REMARK SMILES IDX 1 13 2 14 3 16 4 17 5 18 11 19 6 20 9 21 7 22 10 23 8 24
REMARK SMILES IDX 19 25 20 26 21 27 22 28 23 30 24 31 25 32 71 33 26 34 70 35
REMARK SMILES IDX 27 36 28 37 29 38 64 39 30 40 69 41 63 42 65 43 31 44 68 45
REMARK SMILES IDX 62 46 61 47 32 49 54 50 39 51 53 52 40 53 43 54 52 55 66 56
REMARK SMILES IDX 41 57 42 58 51 60 67 61 44 62 33 63 34 64 38 65 35 66 37 67
REMARK SMILES IDX 36 68 55 69 56 70 60 71 57 72 59 73 58 74 45 75 46 76 50 77
REMARK SMILES IDX 47 78 49 79 48 80
REMARK H PARENT 16 6 12 15 21 29 65 48 43 59
REMARK Flexibility Score: inf
ROOT
ATOM      1  C   UNL A   1      36.700  21.428  24.716  1.00  0.00     0.023 C 
ENDROOT
BRANCH   1   2
ATOM      2  C   UNL A   1      35.747  21.615  25.895  1.00  0.00     0.116 C 
BRANCH   2   3
ATOM      3  N   UNL A   1      35.453  23.017  26.087  1.00  0.00    -0.354 N 
ATOM      4  C   UNL A   1      34.430  23.779  25.608  1.00  0.00     0.245 C 
ATOM      5  O   UNL A   1      34.682  24.987  25.499  1.00  0.00    -0.272 OA
ATOM      6  H   UNL A   1      36.096  23.499  26.654  1.00  0.00     0.163 HD
BRANCH   4   7
ATOM      7  C   UNL A   1      33.061  23.171  25.114  1.00  0.00     0.119 C 
ATOM      8  C   UNL A   1      32.509  22.006  25.945  1.00  0.00     0.038 C 
ATOM      9  C   UNL A   1      33.231  22.649  23.674  1.00  0.00     0.038 C 
ATOM     10  C   UNL A   1      32.373  20.795  25.026  1.00  0.00     0.003 C 
ATOM     11  C   UNL A   1      32.971  21.153  23.678  1.00  0.00     0.003 C 
BRANCH   7  12
ATOM     12  N   UNL A   1      32.079  24.277  25.086  1.00  0.00    -0.341 N 
ATOM     13  O   UNL A   1      31.383  24.069  27.251  1.00  0.00    -0.275 OA
ATOM     14  C   UNL A   1      31.407  24.716  26.204  1.00  0.00     0.225 C 
ATOM     15  H   UNL A   1      31.897  24.720  24.226  1.00  0.00     0.164 HD
BRANCH  14  16
ATOM     16  C   UNL A   1      30.664  26.043  26.086  1.00  0.00     0.135 C 
BRANCH  16  17
ATOM     17  C   UNL A   1      31.441  27.347  26.193  1.00  0.00    -0.036 A 
ATOM     18  C   UNL A   1      31.551  28.079  27.390  1.00  0.00     0.007 A 
ATOM     19  C   UNL A   1      32.010  27.891  25.029  1.00  0.00     0.046 A 
ATOM     20  C   UNL A   1      32.310  29.252  27.447  1.00  0.00     0.043 A 
ATOM     21  C   UNL A   1      32.731  29.083  25.084  1.00  0.00     0.159 A 
ATOM     22  C   UNL A   1      32.900  29.745  26.291  1.00  0.00     0.158 A 
ATOM     23  F   UNL A   1      33.262  29.581  23.959  1.00  0.00    -0.204 F 
ATOM     24  F   UNL A   1      33.624  30.872  26.349  1.00  0.00    -0.204 F 
ENDBRANCH  16  17
ENDBRANCH  14  16
ENDBRANCH   7  12
ENDBRANCH   4   7
ENDBRANCH   2   3
ENDBRANCH   1   2
BRANCH   1  25
ATOM     25  C   UNL A   1      37.673  20.259  24.880  1.00  0.00     0.023 C 
BRANCH  25  26
ATOM     26  C   UNL A   1      38.865  20.538  25.790  1.00  0.00     0.116 C 
BRANCH  26  27
ATOM     27  N   UNL A   1      39.885  19.501  25.741  1.00  0.00    -0.352 N 
ATOM     28  C   UNL A   1      41.218  19.603  26.058  1.00  0.00     0.251 C 
ATOM     29  H   UNL A   1      39.582  18.614  25.442  1.00  0.00     0.163 HD
ATOM     30  O   UNL A   1      41.981  18.660  25.877  1.00  0.00    -0.269 OA
BRANCH  28  31
ATOM     31  C   UNL A   1      41.728  20.885  26.580  1.00  0.00     0.039 A 
ATOM     32  C   UNL A   1      42.180  21.847  25.675  1.00  0.00     0.014 A 
ATOM     33  C   UNL A   1      41.694  21.153  27.952  1.00  0.00     0.014 A 
ATOM     34  C   UNL A   1      42.528  23.115  26.142  1.00  0.00     0.010 A 
ATOM     35  C   UNL A   1      41.976  22.436  28.405  1.00  0.00     0.010 A 
ATOM     36  C   UNL A   1      42.389  23.430  27.505  1.00  0.00    -0.014 A 
BRANCH  36  37
ATOM     37  C   UNL A   1      42.663  24.797  28.008  1.00  0.00     0.031 A 
ATOM     38  C   UNL A   1      44.053  25.173  28.435  1.00  0.00     0.074 A 
ATOM     39  C   UNL A   1      41.649  25.671  28.150  1.00  0.00     0.049 A 
ATOM     40  N   UNL A   1      44.475  26.289  28.975  1.00  0.00    -0.248 NA
ATOM     41  C   UNL A   1      45.100  24.154  28.260  1.00  0.00     0.031 C 
ATOM     42  C   UNL A   1      40.246  25.409  27.818  1.00  0.00     0.029 A 
ATOM     43  N   UNL A   1      41.642  26.959  28.623  1.00  0.00    -0.354 N 
ATOM     44  C   UNL A   1      45.830  26.098  29.217  1.00  0.00     0.074 A 
ATOM     45  C   UNL A   1      46.148  24.746  28.813  1.00  0.00     0.031 C 
ATOM     46  C   UNL A   1      39.519  26.507  28.081  1.00  0.00     0.029 A 
ATOM     47  C   UNL A   1      40.396  27.537  28.628  1.00  0.00     0.049 A 
ATOM     48  H   UNL A   1      42.453  27.424  28.931  1.00  0.00     0.167 HD
ATOM     49  C   UNL A   1      46.734  26.977  29.710  1.00  0.00     0.031 A 
ATOM     50  C   UNL A   1      40.003  28.759  29.034  1.00  0.00     0.031 A 
ATOM     51  C   UNL A   1      46.423  28.326  30.099  1.00  0.00     0.049 A 
ATOM     52  C   UNL A   1      41.028  29.720  29.569  1.00  0.00     0.074 A 
ATOM     53  C   UNL A   1      47.277  29.307  30.570  1.00  0.00     0.029 A 
ATOM     54  N   UNL A   1      45.154  28.883  30.057  1.00  0.00    -0.354 N 
ATOM     55  N   UNL A   1      42.315  29.543  29.737  1.00  0.00    -0.248 NA
ATOM     56  C   UNL A   1      40.545  31.052  29.958  1.00  0.00     0.031 C 
ATOM     57  C   UNL A   1      46.519  30.450  30.845  1.00  0.00     0.029 A 
ATOM     58  C   UNL A   1      45.201  30.192  30.502  1.00  0.00     0.049 A 
ATOM     59  H   UNL A   1      44.342  28.417  29.755  1.00  0.00     0.167 HD
ATOM     60  C   UNL A   1      42.801  30.748  30.227  1.00  0.00     0.074 A 
ATOM     61  C   UNL A   1      41.672  31.652  30.313  1.00  0.00     0.031 C 
ATOM     62  C   UNL A   1      44.068  31.076  30.576  1.00  0.00     0.031 A 
BRANCH  49  63
ATOM     63  C   UNL A   1      48.151  26.499  29.848  1.00  0.00    -0.014 A 
ATOM     64  C   UNL A   1      49.078  26.681  28.810  1.00  0.00     0.009 A 
ATOM     65  C   UNL A   1      48.572  25.884  31.037  1.00  0.00     0.009 A 
ATOM     66  C   UNL A   1      50.390  26.223  28.945  1.00  0.00     0.001 A 
ATOM     67  C   UNL A   1      49.892  25.452  31.179  1.00  0.00     0.001 A 
ATOM     68  C   UNL A   1      50.796  25.613  30.131  1.00  0.00     0.000 A 
ENDBRANCH  49  63
BRANCH  50  69
ATOM     69  C   UNL A   1      38.575  29.153  28.937  1.00  0.00    -0.014 A 
ATOM     70  C   UNL A   1      37.732  29.062  30.055  1.00  0.00     0.009 A 
ATOM     71  C   UNL A   1      38.043  29.613  27.721  1.00  0.00     0.009 A 
ATOM     72  C   UNL A   1      36.379  29.394  29.952  1.00  0.00     0.001 A 
ATOM     73  C   UNL A   1      36.695  29.969  27.629  1.00  0.00     0.001 A 
ATOM     74  C   UNL A   1      35.863  29.850  28.740  1.00  0.00     0.000 A 
ENDBRANCH  50  69
BRANCH  62  75
ATOM     75  C   UNL A   1      44.305  32.481  31.050  1.00  0.00    -0.014 A 
ATOM     76  C   UNL A   1      44.211  32.815  32.410  1.00  0.00     0.009 A 
ATOM     77  C   UNL A   1      44.670  33.473  30.127  1.00  0.00     0.009 A 
ATOM     78  C   UNL A   1      44.448  34.124  32.831  1.00  0.00     0.001 A 
ATOM     79  C   UNL A   1      44.930  34.775  30.555  1.00  0.00     0.001 A 
ATOM     80  C   UNL A   1      44.812  35.101  31.904  1.00  0.00     0.000 A 
ENDBRANCH  62  75
ENDBRANCH  36  37
ENDBRANCH  28  31
ENDBRANCH  26  27
ENDBRANCH  25  26
ENDBRANCH   1  25
TORSDOF 14
ENDMDL
