MODEL 1
REMARK VINA RESULT:     -11.2      0.000      0.000
REMARK SMILES COc1ccc(-c2noc(CC(=O)NCCCCNC(=O)c3ccc(-c4c5nc(c(-c6ccccc6)c6ccc([nH]6)c(-c6ccccc6)c6nc(c(-c7ccccc7)c7ccc4[nH]7)C=C6)C=C5)cc3)c2-c2ccc(OC)cc2)cc1
REMARK SMILES IDX 16 1 15 2 14 3 12 4 13 5 11 7 10 8 7 9 8 10 70 11 9 12 6 13
REMARK SMILES IDX 3 14 4 15 80 16 5 17 79 18 2 19 1 20 71 21 72 22 78 23 73 24
REMARK SMILES IDX 77 25 74 26 75 27 76 28 17 29 18 30 19 31 20 32 21 34 22 35
REMARK SMILES IDX 23 36 69 37 24 38 68 39 25 40 26 41 27 42 62 43 28 44 67 45
REMARK SMILES IDX 61 46 63 47 29 48 66 49 60 50 59 51 30 53 52 54 37 55 51 56
REMARK SMILES IDX 38 57 41 58 50 59 64 60 39 61 40 62 49 64 65 65 42 66 31 67
REMARK SMILES IDX 32 68 36 69 33 70 35 71 34 72 53 73 54 74 58 75 55 76 57 77
REMARK SMILES IDX 56 78 43 79 44 80 48 81 45 82 47 83 46 84
REMARK H PARENT 14 6 19 33 63 52 41 63
REMARK Flexibility Score: inf
ROOT
ATOM      1  C   UNL A   1      35.758  21.729  26.181  1.00  0.00     0.023 C 
ENDROOT
BRANCH   1   2
ATOM      2  C   UNL A   1      34.462  21.203  25.562  1.00  0.00     0.116 C 
BRANCH   2   3
ATOM      3  N   UNL A   1      34.232  21.781  24.255  1.00  0.00    -0.356 N 
ATOM      4  C   UNL A   1      33.309  22.718  23.886  1.00  0.00     0.227 C 
ATOM      5  O   UNL A   1      33.235  23.023  22.694  1.00  0.00    -0.275 OA
ATOM      6  H   UNL A   1      34.819  21.456  23.535  1.00  0.00     0.163 HD
BRANCH   4   7
ATOM      7  C   UNL A   1      32.479  23.433  24.937  1.00  0.00     0.179 C 
BRANCH   7   8
ATOM      8  C   UNL A   1      31.499  24.376  24.344  1.00  0.00     0.154 A 
ATOM      9  C   UNL A   1      30.143  25.967  23.606  1.00  0.00     0.122 A 
ATOM     10  N   UNL A   1      29.710  24.820  23.064  1.00  0.00    -0.079 NA
ATOM     11  C   UNL A   1      31.276  25.734  24.441  1.00  0.00     0.053 A 
ATOM     12  O   UNL A   1      30.572  23.836  23.505  1.00  0.00    -0.360 OA
BRANCH   9  13
ATOM     13  C   UNL A   1      29.497  27.241  23.325  1.00  0.00     0.005 A 
ATOM     14  C   UNL A   1      28.210  29.657  22.733  1.00  0.00     0.118 A 
ATOM     15  C   UNL A   1      29.581  29.520  22.515  1.00  0.00     0.047 A 
ATOM     16  C   UNL A   1      27.472  28.576  23.217  1.00  0.00     0.047 A 
ATOM     17  C   UNL A   1      30.231  28.322  22.825  1.00  0.00     0.014 A 
ATOM     18  C   UNL A   1      28.115  27.374  23.514  1.00  0.00     0.014 A 
BRANCH  14  19
ATOM     19  O   UNL A   1      27.660  30.863  22.396  1.00  0.00    -0.497 OA
ATOM     20  C   UNL A   1      27.751  31.843  23.428  1.00  0.00     0.278 C 
ENDBRANCH  14  19
ENDBRANCH   9  13
BRANCH  11  21
ATOM     21  C   UNL A   1      32.001  26.643  25.307  1.00  0.00    -0.012 A 
ATOM     22  C   UNL A   1      33.285  27.067  24.948  1.00  0.00     0.013 A 
ATOM     23  C   UNL A   1      31.439  27.110  26.499  1.00  0.00     0.013 A 
ATOM     24  C   UNL A   1      33.985  27.964  25.757  1.00  0.00     0.047 A 
ATOM     25  C   UNL A   1      32.147  28.005  27.313  1.00  0.00     0.047 A 
ATOM     26  C   UNL A   1      33.421  28.439  26.942  1.00  0.00     0.118 A 
BRANCH  26  27
ATOM     27  O   UNL A   1      34.211  29.311  27.636  1.00  0.00    -0.497 OA
ATOM     28  C   UNL A   1      34.174  30.675  27.235  1.00  0.00     0.278 C 
ENDBRANCH  26  27
ENDBRANCH  11  21
ENDBRANCH   7   8
ENDBRANCH   4   7
ENDBRANCH   2   3
ENDBRANCH   1   2
BRANCH   1  29
ATOM     29  C   UNL A   1      35.960  23.238  26.027  1.00  0.00     0.023 C 
BRANCH  29  30
ATOM     30  C   UNL A   1      37.191  23.639  25.224  1.00  0.00     0.116 C 
BRANCH  30  31
ATOM     31  N   UNL A   1      38.332  22.764  25.445  1.00  0.00    -0.352 N 
ATOM     32  C   UNL A   1      39.498  23.040  26.118  1.00  0.00     0.251 C 
ATOM     33  H   UNL A   1      38.260  21.860  25.064  1.00  0.00     0.163 HD
ATOM     34  O   UNL A   1      40.423  22.232  26.122  1.00  0.00    -0.269 OA
BRANCH  32  35
ATOM     35  C   UNL A   1      39.641  24.337  26.809  1.00  0.00     0.039 A 
ATOM     36  C   UNL A   1      39.079  24.492  28.078  1.00  0.00     0.014 A 
ATOM     37  C   UNL A   1      40.363  25.378  26.220  1.00  0.00     0.014 A 
ATOM     38  C   UNL A   1      39.299  25.675  28.787  1.00  0.00     0.010 A 
ATOM     39  C   UNL A   1      40.641  26.523  26.957  1.00  0.00     0.010 A 
ATOM     40  C   UNL A   1      40.110  26.685  28.246  1.00  0.00    -0.014 A 
BRANCH  40  41
ATOM     41  C   UNL A   1      40.413  27.924  29.002  1.00  0.00     0.031 A 
ATOM     42  C   UNL A   1      41.713  28.050  29.745  1.00  0.00     0.074 A 
ATOM     43  C   UNL A   1      39.494  28.904  29.078  1.00  0.00     0.049 A 
ATOM     44  N   UNL A   1      42.132  29.019  30.518  1.00  0.00    -0.248 NA
ATOM     45  C   UNL A   1      42.655  26.926  29.622  1.00  0.00     0.031 C 
ATOM     46  C   UNL A   1      38.182  28.893  28.428  1.00  0.00     0.029 A 
ATOM     47  N   UNL A   1      39.525  30.103  29.745  1.00  0.00    -0.354 N 
ATOM     48  C   UNL A   1      43.375  28.614  30.987  1.00  0.00     0.074 A 
ATOM     49  C   UNL A   1      43.617  27.289  30.457  1.00  0.00     0.031 C 
ATOM     50  C   UNL A   1      37.549  30.045  28.700  1.00  0.00     0.029 A 
ATOM     51  C   UNL A   1      38.389  30.856  29.575  1.00  0.00     0.049 A 
ATOM     52  H   UNL A   1      40.288  30.397  30.292  1.00  0.00     0.167 HD
ATOM     53  C   UNL A   1      44.249  29.289  31.772  1.00  0.00     0.031 A 
ATOM     54  C   UNL A   1      38.060  32.063  30.072  1.00  0.00     0.031 A 
ATOM     55  C   UNL A   1      44.012  30.606  32.297  1.00  0.00     0.049 A 
ATOM     56  C   UNL A   1      39.030  32.780  30.968  1.00  0.00     0.074 A 
ATOM     57  C   UNL A   1      44.852  31.394  33.063  1.00  0.00     0.029 A 
ATOM     58  N   UNL A   1      42.844  31.329  32.110  1.00  0.00    -0.354 N 
ATOM     59  N   UNL A   1      40.225  32.407  31.358  1.00  0.00    -0.248 NA
ATOM     60  C   UNL A   1      38.606  34.089  31.485  1.00  0.00     0.031 C 
ATOM     61  C   UNL A   1      44.173  32.576  33.381  1.00  0.00     0.029 A 
ATOM     62  C   UNL A   1      42.932  32.546  32.766  1.00  0.00     0.049 A 
ATOM     63  H   UNL A   1      42.067  31.023  31.589  1.00  0.00     0.167 HD
ATOM     64  C   UNL A   1      40.709  33.449  32.139  1.00  0.00     0.074 A 
ATOM     65  C   UNL A   1      39.682  34.471  32.159  1.00  0.00     0.031 C 
ATOM     66  C   UNL A   1      41.901  33.552  32.777  1.00  0.00     0.031 A 
BRANCH  53  67
ATOM     67  C   UNL A   1      45.538  28.594  32.112  1.00  0.00    -0.014 A 
ATOM     68  C   UNL A   1      45.651  27.788  33.257  1.00  0.00     0.009 A 
ATOM     69  C   UNL A   1      46.658  28.749  31.280  1.00  0.00     0.009 A 
ATOM     70  C   UNL A   1      46.870  27.193  33.589  1.00  0.00     0.001 A 
ATOM     71  C   UNL A   1      47.867  28.125  31.596  1.00  0.00     0.001 A 
ATOM     72  C   UNL A   1      47.976  27.360  32.756  1.00  0.00     0.000 A 
ENDBRANCH  53  67
BRANCH  54  73
ATOM     73  C   UNL A   1      36.763  32.689  29.703  1.00  0.00    -0.014 A 
ATOM     74  C   UNL A   1      35.641  32.523  30.530  1.00  0.00     0.009 A 
ATOM     75  C   UNL A   1      36.640  33.454  28.533  1.00  0.00     0.009 A 
ATOM     76  C   UNL A   1      34.416  33.096  30.183  1.00  0.00     0.001 A 
ATOM     77  C   UNL A   1      35.418  34.047  28.203  1.00  0.00     0.001 A 
ATOM     78  C   UNL A   1      34.307  33.861  29.022  1.00  0.00     0.000 A 
ENDBRANCH  54  73
BRANCH  66  79
ATOM     79  C   UNL A   1      42.176  34.830  33.516  1.00  0.00    -0.014 A 
ATOM     80  C   UNL A   1      42.870  35.890  32.913  1.00  0.00     0.009 A 
ATOM     81  C   UNL A   1      41.694  34.990  34.825  1.00  0.00     0.009 A 
ATOM     82  C   UNL A   1      43.103  37.072  33.618  1.00  0.00     0.001 A 
ATOM     83  C   UNL A   1      41.904  36.183  35.518  1.00  0.00     0.001 A 
ATOM     84  C   UNL A   1      42.616  37.221  34.917  1.00  0.00     0.000 A 
ENDBRANCH  66  79
ENDBRANCH  40  41
ENDBRANCH  32  35
ENDBRANCH  30  31
ENDBRANCH  29  30
ENDBRANCH   1  29
TORSDOF 16
ENDMDL
MODEL 2
REMARK VINA RESULT:     -11.1      1.811      2.258
REMARK SMILES COc1ccc(-c2noc(CC(=O)NCCCCNC(=O)c3ccc(-c4c5nc(c(-c6ccccc6)c6ccc([nH]6)c(-c6ccccc6)c6nc(c(-c7ccccc7)c7ccc4[nH]7)C=C6)C=C5)cc3)c2-c2ccc(OC)cc2)cc1
REMARK SMILES IDX 16 1 15 2 14 3 12 4 13 5 11 7 10 8 7 9 8 10 70 11 9 12 6 13
REMARK SMILES IDX 3 14 4 15 80 16 5 17 79 18 2 19 1 20 71 21 72 22 78 23 73 24
REMARK SMILES IDX 77 25 74 26 75 27 76 28 17 29 18 30 19 31 20 32 21 34 22 35
REMARK SMILES IDX 23 36 69 37 24 38 68 39 25 40 26 41 27 42 62 43 28 44 67 45
REMARK SMILES IDX 61 46 63 47 29 48 66 49 60 50 59 51 30 53 52 54 37 55 51 56
REMARK SMILES IDX 38 57 41 58 50 59 64 60 39 61 40 62 49 64 65 65 42 66 31 67
REMARK SMILES IDX 32 68 36 69 33 70 35 71 34 72 53 73 54 74 58 75 55 76 57 77
REMARK SMILES IDX 56 78 43 79 44 80 48 81 45 82 47 83 46 84
REMARK H PARENT 14 6 19 33 63 52 41 63
REMARK Flexibility Score: inf
ROOT
ATOM      1  C   UNL A   1      35.628  22.424  24.241  1.00  0.00     0.023 C 
ENDROOT
BRANCH   1   2
ATOM      2  C   UNL A   1      34.323  22.489  23.447  1.00  0.00     0.116 C 
BRANCH   2   3
ATOM      3  N   UNL A   1      33.268  21.747  24.108  1.00  0.00    -0.356 N 
ATOM      4  C   UNL A   1      32.466  22.141  25.141  1.00  0.00     0.227 C 
ATOM      5  O   UNL A   1      31.672  21.319  25.604  1.00  0.00    -0.275 OA
ATOM      6  H   UNL A   1      33.109  20.838  23.766  1.00  0.00     0.163 HD
BRANCH   4   7
ATOM      7  C   UNL A   1      32.485  23.579  25.624  1.00  0.00     0.179 C 
BRANCH   7   8
ATOM      8  C   UNL A   1      31.569  24.452  24.851  1.00  0.00     0.154 A 
ATOM      9  C   UNL A   1      30.298  25.955  23.831  1.00  0.00     0.122 A 
ATOM     10  N   UNL A   1      29.895  24.755  23.387  1.00  0.00    -0.079 NA
ATOM     11  C   UNL A   1      31.357  25.814  24.777  1.00  0.00     0.053 A 
ATOM     12  O   UNL A   1      30.706  23.824  24.006  1.00  0.00    -0.360 OA
BRANCH   9  13
ATOM     13  C   UNL A   1      29.694  27.191  23.357  1.00  0.00     0.005 A 
ATOM     14  C   UNL A   1      28.485  29.529  22.399  1.00  0.00     0.118 A 
ATOM     15  C   UNL A   1      29.851  29.317  22.210  1.00  0.00     0.047 A 
ATOM     16  C   UNL A   1      27.713  28.559  23.039  1.00  0.00     0.047 A 
ATOM     17  C   UNL A   1      30.462  28.159  22.701  1.00  0.00     0.014 A 
ATOM     18  C   UNL A   1      28.317  27.396  23.518  1.00  0.00     0.014 A 
BRANCH  14  19
ATOM     19  O   UNL A   1      27.974  30.687  21.881  1.00  0.00    -0.497 OA
ATOM     20  C   UNL A   1      28.832  31.815  22.041  1.00  0.00     0.278 C 
ENDBRANCH  14  19
ENDBRANCH   9  13
BRANCH  11  21
ATOM     21  C   UNL A   1      32.021  26.812  25.592  1.00  0.00    -0.012 A 
ATOM     22  C   UNL A   1      33.325  27.210  25.275  1.00  0.00     0.013 A 
ATOM     23  C   UNL A   1      31.381  27.391  26.692  1.00  0.00     0.013 A 
ATOM     24  C   UNL A   1      33.967  28.190  26.033  1.00  0.00     0.047 A 
ATOM     25  C   UNL A   1      32.032  28.370  27.456  1.00  0.00     0.047 A 
ATOM     26  C   UNL A   1      33.326  28.776  27.125  1.00  0.00     0.118 A 
BRANCH  26  27
ATOM     27  O   UNL A   1      34.066  29.722  27.777  1.00  0.00    -0.497 OA
ATOM     28  C   UNL A   1      33.700  31.080  27.576  1.00  0.00     0.278 C 
ENDBRANCH  26  27
ENDBRANCH  11  21
ENDBRANCH   7   8
ENDBRANCH   4   7
ENDBRANCH   2   3
ENDBRANCH   1   2
BRANCH   1  29
ATOM     29  C   UNL A   1      36.047  23.753  24.871  1.00  0.00     0.023 C 
BRANCH  29  30
ATOM     30  C   UNL A   1      36.868  23.624  26.148  1.00  0.00     0.116 C 
BRANCH  30  31
ATOM     31  N   UNL A   1      37.844  22.547  26.098  1.00  0.00    -0.352 N 
ATOM     32  C   UNL A   1      39.196  22.611  26.332  1.00  0.00     0.251 C 
ATOM     33  H   UNL A   1      37.490  21.658  25.868  1.00  0.00     0.163 HD
ATOM     34  O   UNL A   1      39.912  21.633  26.138  1.00  0.00    -0.269 OA
BRANCH  32  35
ATOM     35  C   UNL A   1      39.788  23.886  26.785  1.00  0.00     0.039 A 
ATOM     36  C   UNL A   1      40.006  24.900  25.850  1.00  0.00     0.014 A 
ATOM     37  C   UNL A   1      40.088  24.090  28.134  1.00  0.00     0.014 A 
ATOM     38  C   UNL A   1      40.463  26.147  26.281  1.00  0.00     0.010 A 
ATOM     39  C   UNL A   1      40.471  25.352  28.570  1.00  0.00     0.010 A 
ATOM     40  C   UNL A   1      40.666  26.392  27.648  1.00  0.00    -0.014 A 
BRANCH  40  41
ATOM     41  C   UNL A   1      41.090  27.725  28.141  1.00  0.00     0.031 A 
ATOM     42  C   UNL A   1      42.550  28.078  28.186  1.00  0.00     0.074 A 
ATOM     43  C   UNL A   1      40.171  28.589  28.612  1.00  0.00     0.049 A 
ATOM     44  N   UNL A   1      43.125  29.160  28.647  1.00  0.00    -0.248 NA
ATOM     45  C   UNL A   1      43.489  27.071  27.667  1.00  0.00     0.031 C 
ATOM     46  C   UNL A   1      38.727  28.357  28.652  1.00  0.00     0.029 A 
ATOM     47  N   UNL A   1      40.323  29.841  29.154  1.00  0.00    -0.354 N 
ATOM     48  C   UNL A   1      44.489  28.955  28.491  1.00  0.00     0.074 A 
ATOM     49  C   UNL A   1      44.659  27.625  27.945  1.00  0.00     0.031 C 
ATOM     50  C   UNL A   1      38.122  29.444  29.157  1.00  0.00     0.029 A 
ATOM     51  C   UNL A   1      39.136  30.430  29.516  1.00  0.00     0.049 A 
ATOM     52  H   UNL A   1      41.197  30.275  29.273  1.00  0.00     0.167 HD
ATOM     53  C   UNL A   1      45.512  29.803  28.757  1.00  0.00     0.031 A 
ATOM     54  C   UNL A   1      38.893  31.629  30.076  1.00  0.00     0.031 A 
ATOM     55  C   UNL A   1      45.346  31.125  29.295  1.00  0.00     0.049 A 
ATOM     56  C   UNL A   1      40.045  32.541  30.393  1.00  0.00     0.074 A 
ATOM     57  C   UNL A   1      46.313  32.079  29.559  1.00  0.00     0.029 A 
ATOM     58  N   UNL A   1      44.128  31.679  29.658  1.00  0.00    -0.354 N 
ATOM     59  N   UNL A   1      41.326  32.355  30.190  1.00  0.00    -0.248 NA
ATOM     60  C   UNL A   1      39.712  33.831  31.013  1.00  0.00     0.031 C 
ATOM     61  C   UNL A   1      45.685  33.194  30.125  1.00  0.00     0.029 A 
ATOM     62  C   UNL A   1      44.321  32.955  30.163  1.00  0.00     0.049 A 
ATOM     63  H   UNL A   1      43.255  31.233  29.569  1.00  0.00     0.167 HD
ATOM     64  C   UNL A   1      41.951  33.517  30.625  1.00  0.00     0.074 A 
ATOM     65  C   UNL A   1      40.905  34.403  31.095  1.00  0.00     0.031 C 
ATOM     66  C   UNL A   1      43.271  33.824  30.628  1.00  0.00     0.031 A 
BRANCH  53  67
ATOM     67  C   UNL A   1      46.902  29.305  28.473  1.00  0.00    -0.014 A 
ATOM     68  C   UNL A   1      47.666  28.671  29.467  1.00  0.00     0.009 A 
ATOM     69  C   UNL A   1      47.459  29.475  27.196  1.00  0.00     0.009 A 
ATOM     70  C   UNL A   1      48.975  28.264  29.204  1.00  0.00     0.001 A 
ATOM     71  C   UNL A   1      48.758  29.036  26.925  1.00  0.00     0.001 A 
ATOM     72  C   UNL A   1      49.518  28.444  27.932  1.00  0.00     0.000 A 
ENDBRANCH  53  67
BRANCH  54  73
ATOM     73  C   UNL A   1      37.494  32.055  30.340  1.00  0.00    -0.014 A 
ATOM     74  C   UNL A   1      36.828  32.890  29.430  1.00  0.00     0.009 A 
ATOM     75  C   UNL A   1      36.817  31.628  31.493  1.00  0.00     0.009 A 
ATOM     76  C   UNL A   1      35.518  33.306  29.679  1.00  0.00     0.001 A 
ATOM     77  C   UNL A   1      35.497  32.025  31.726  1.00  0.00     0.001 A 
ATOM     78  C   UNL A   1      34.853  32.870  30.823  1.00  0.00     0.000 A 
ENDBRANCH  54  73
BRANCH  66  79
ATOM     79  C   UNL A   1      43.657  35.191  31.118  1.00  0.00    -0.014 A 
ATOM     80  C   UNL A   1      43.756  36.282  30.241  1.00  0.00     0.009 A 
ATOM     81  C   UNL A   1      43.883  35.396  32.489  1.00  0.00     0.009 A 
ATOM     82  C   UNL A   1      44.106  37.544  30.724  1.00  0.00     0.001 A 
ATOM     83  C   UNL A   1      44.206  36.665  32.972  1.00  0.00     0.001 A 
ATOM     84  C   UNL A   1      44.325  37.737  32.088  1.00  0.00     0.000 A 
ENDBRANCH  66  79
ENDBRANCH  40  41
ENDBRANCH  32  35
ENDBRANCH  30  31
ENDBRANCH  29  30
ENDBRANCH   1  29
TORSDOF 16
ENDMDL
MODEL 3
REMARK VINA RESULT:     -11.1      2.557      8.201
REMARK SMILES COc1ccc(-c2noc(CC(=O)NCCCCNC(=O)c3ccc(-c4c5nc(c(-c6ccccc6)c6ccc([nH]6)c(-c6ccccc6)c6nc(c(-c7ccccc7)c7ccc4[nH]7)C=C6)C=C5)cc3)c2-c2ccc(OC)cc2)cc1
REMARK SMILES IDX 16 1 15 2 14 3 12 4 13 5 11 7 10 8 7 9 8 10 70 11 9 12 6 13
REMARK SMILES IDX 3 14 4 15 80 16 5 17 79 18 2 19 1 20 71 21 72 22 78 23 73 24
REMARK SMILES IDX 77 25 74 26 75 27 76 28 17 29 18 30 19 31 20 32 21 34 22 35
REMARK SMILES IDX 23 36 69 37 24 38 68 39 25 40 26 41 27 42 62 43 28 44 67 45
REMARK SMILES IDX 61 46 63 47 29 48 66 49 60 50 59 51 30 53 52 54 37 55 51 56
REMARK SMILES IDX 38 57 41 58 50 59 64 60 39 61 40 62 49 64 65 65 42 66 31 67
REMARK SMILES IDX 32 68 36 69 33 70 35 71 34 72 53 73 54 74 58 75 55 76 57 77
REMARK SMILES IDX 56 78 43 79 44 80 48 81 45 82 47 83 46 84
REMARK H PARENT 14 6 19 33 63 52 41 63
REMARK Flexibility Score: inf
ROOT
ATOM      1  C   UNL A   1      32.233  29.004  24.431  1.00  0.00     0.023 C 
ENDROOT
BRANCH   1   2
ATOM      2  C   UNL A   1      31.408  27.973  23.659  1.00  0.00     0.116 C 
BRANCH   2   3
ATOM      3  N   UNL A   1      32.079  27.572  22.440  1.00  0.00    -0.356 N 
ATOM      4  C   UNL A   1      33.157  26.746  22.290  1.00  0.00     0.227 C 
ATOM      5  O   UNL A   1      33.617  26.592  21.157  1.00  0.00    -0.275 OA
ATOM      6  H   UNL A   1      31.708  27.943  21.607  1.00  0.00     0.163 HD
BRANCH   4   7
ATOM      7  C   UNL A   1      33.695  25.964  23.474  1.00  0.00     0.179 C 
BRANCH   7   8
ATOM      8  C   UNL A   1      33.182  24.573  23.519  1.00  0.00     0.154 A 
ATOM      9  C   UNL A   1      32.645  22.429  23.683  1.00  0.00     0.122 A 
ATOM     10  N   UNL A   1      31.618  23.029  23.065  1.00  0.00    -0.079 NA
ATOM     11  C   UNL A   1      33.674  23.370  23.983  1.00  0.00     0.053 A 
ATOM     12  O   UNL A   1      31.945  24.368  22.988  1.00  0.00    -0.360 OA
BRANCH   9  13
ATOM     13  C   UNL A   1      32.635  21.004  23.983  1.00  0.00     0.005 A 
ATOM     14  C   UNL A   1      32.541  18.261  24.536  1.00  0.00     0.118 A 
ATOM     15  C   UNL A   1      32.811  19.173  25.556  1.00  0.00     0.047 A 
ATOM     16  C   UNL A   1      32.285  18.718  23.244  1.00  0.00     0.047 A 
ATOM     17  C   UNL A   1      32.876  20.543  25.281  1.00  0.00     0.014 A 
ATOM     18  C   UNL A   1      32.335  20.085  22.968  1.00  0.00     0.014 A 
BRANCH  14  19
ATOM     19  O   UNL A   1      32.494  16.943  24.900  1.00  0.00    -0.497 OA
ATOM     20  C   UNL A   1      33.622  16.187  24.467  1.00  0.00     0.278 C 
ENDBRANCH  14  19
ENDBRANCH   9  13
BRANCH  11  21
ATOM     21  C   UNL A   1      34.998  23.164  24.537  1.00  0.00    -0.012 A 
ATOM     22  C   UNL A   1      35.871  22.256  23.926  1.00  0.00     0.013 A 
ATOM     23  C   UNL A   1      35.424  23.859  25.672  1.00  0.00     0.013 A 
ATOM     24  C   UNL A   1      37.159  22.067  24.431  1.00  0.00     0.047 A 
ATOM     25  C   UNL A   1      36.716  23.661  26.180  1.00  0.00     0.047 A 
ATOM     26  C   UNL A   1      37.589  22.768  25.558  1.00  0.00     0.118 A 
BRANCH  26  27
ATOM     27  O   UNL A   1      38.870  22.490  25.944  1.00  0.00    -0.497 OA
ATOM     28  C   UNL A   1      39.267  21.125  25.927  1.00  0.00     0.278 C 
ENDBRANCH  26  27
ENDBRANCH  11  21
ENDBRANCH   7   8
ENDBRANCH   4   7
ENDBRANCH   2   3
ENDBRANCH   1   2
BRANCH   1  29
ATOM     29  C   UNL A   1      32.405  28.684  25.918  1.00  0.00     0.023 C 
BRANCH  29  30
ATOM     30  C   UNL A   1      33.707  29.183  26.532  1.00  0.00     0.116 C 
BRANCH  30  31
ATOM     31  N   UNL A   1      33.617  30.541  27.045  1.00  0.00    -0.352 N 
ATOM     32  C   UNL A   1      34.476  31.186  27.902  1.00  0.00     0.251 C 
ATOM     33  H   UNL A   1      32.842  31.065  26.738  1.00  0.00     0.163 HD
ATOM     34  O   UNL A   1      34.204  32.301  28.338  1.00  0.00    -0.269 OA
BRANCH  32  35
ATOM     35  C   UNL A   1      35.717  30.506  28.324  1.00  0.00     0.039 A 
ATOM     36  C   UNL A   1      36.902  30.774  27.636  1.00  0.00     0.014 A 
ATOM     37  C   UNL A   1      35.714  29.640  29.420  1.00  0.00     0.014 A 
ATOM     38  C   UNL A   1      38.102  30.222  28.090  1.00  0.00     0.010 A 
ATOM     39  C   UNL A   1      36.918  29.152  29.914  1.00  0.00     0.010 A 
ATOM     40  C   UNL A   1      38.123  29.436  29.253  1.00  0.00    -0.014 A 
BRANCH  40  41
ATOM     41  C   UNL A   1      39.390  28.890  29.795  1.00  0.00     0.031 A 
ATOM     42  C   UNL A   1      40.020  29.518  31.007  1.00  0.00     0.074 A 
ATOM     43  C   UNL A   1      40.010  27.877  29.161  1.00  0.00     0.049 A 
ATOM     44  N   UNL A   1      41.157  29.232  31.589  1.00  0.00    -0.248 NA
ATOM     45  C   UNL A   1      39.285  30.629  31.631  1.00  0.00     0.031 C 
ATOM     46  C   UNL A   1      39.520  27.199  27.960  1.00  0.00     0.029 A 
ATOM     47  N   UNL A   1      41.195  27.244  29.441  1.00  0.00    -0.354 N 
ATOM     48  C   UNL A   1      41.281  30.140  32.633  1.00  0.00     0.074 A 
ATOM     49  C   UNL A   1      40.134  31.019  32.570  1.00  0.00     0.031 C 
ATOM     50  C   UNL A   1      40.379  26.223  27.626  1.00  0.00     0.029 A 
ATOM     51  C   UNL A   1      41.499  26.234  28.561  1.00  0.00     0.049 A 
ATOM     52  H   UNL A   1      41.772  27.490  30.198  1.00  0.00     0.167 HD
ATOM     53  C   UNL A   1      42.252  30.224  33.574  1.00  0.00     0.031 A 
ATOM     54  C   UNL A   1      42.562  25.410  28.513  1.00  0.00     0.031 A 
ATOM     55  C   UNL A   1      43.391  29.350  33.641  1.00  0.00     0.049 A 
ATOM     56  C   UNL A   1      43.644  25.543  29.548  1.00  0.00     0.074 A 
ATOM     57  C   UNL A   1      44.406  29.323  34.581  1.00  0.00     0.029 A 
ATOM     58  N   UNL A   1      43.667  28.347  32.724  1.00  0.00    -0.354 N 
ATOM     59  N   UNL A   1      43.721  26.371  30.561  1.00  0.00    -0.248 NA
ATOM     60  C   UNL A   1      44.783  24.621  29.432  1.00  0.00     0.031 C 
ATOM     61  C   UNL A   1      45.322  28.334  34.207  1.00  0.00     0.029 A 
ATOM     62  C   UNL A   1      44.849  27.708  33.064  1.00  0.00     0.049 A 
ATOM     63  H   UNL A   1      43.106  28.120  31.948  1.00  0.00     0.167 HD
ATOM     64  C   UNL A   1      44.899  26.048  31.224  1.00  0.00     0.074 A 
ATOM     65  C   UNL A   1      45.497  24.944  30.502  1.00  0.00     0.031 C 
ATOM     66  C   UNL A   1      45.432  26.612  32.335  1.00  0.00     0.031 A 
BRANCH  53  67
ATOM     67  C   UNL A   1      42.115  31.315  34.600  1.00  0.00    -0.014 A 
ATOM     68  C   UNL A   1      42.693  32.580  34.398  1.00  0.00     0.009 A 
ATOM     69  C   UNL A   1      41.402  31.077  35.785  1.00  0.00     0.009 A 
ATOM     70  C   UNL A   1      42.604  33.566  35.384  1.00  0.00     0.001 A 
ATOM     71  C   UNL A   1      41.286  32.076  36.755  1.00  0.00     0.001 A 
ATOM     72  C   UNL A   1      41.897  33.313  36.559  1.00  0.00     0.000 A 
ENDBRANCH  53  67
BRANCH  54  73
ATOM     73  C   UNL A   1      42.640  24.359  27.465  1.00  0.00    -0.014 A 
ATOM     74  C   UNL A   1      42.263  23.040  27.761  1.00  0.00     0.009 A 
ATOM     75  C   UNL A   1      43.084  24.665  26.169  1.00  0.00     0.009 A 
ATOM     76  C   UNL A   1      42.346  22.044  26.786  1.00  0.00     0.001 A 
ATOM     77  C   UNL A   1      43.141  23.671  25.189  1.00  0.00     0.001 A 
ATOM     78  C   UNL A   1      42.781  22.361  25.500  1.00  0.00     0.000 A 
ENDBRANCH  54  73
BRANCH  66  79
ATOM     79  C   UNL A   1      46.707  26.017  32.862  1.00  0.00    -0.014 A 
ATOM     80  C   UNL A   1      47.961  26.513  32.474  1.00  0.00     0.009 A 
ATOM     81  C   UNL A   1      46.648  24.971  33.796  1.00  0.00     0.009 A 
ATOM     82  C   UNL A   1      49.131  25.950  32.987  1.00  0.00     0.001 A 
ATOM     83  C   UNL A   1      47.818  24.429  34.329  1.00  0.00     0.001 A 
ATOM     84  C   UNL A   1      49.060  24.913  33.917  1.00  0.00     0.000 A 
ENDBRANCH  66  79
ENDBRANCH  40  41
ENDBRANCH  32  35
ENDBRANCH  30  31
ENDBRANCH  29  30
ENDBRANCH   1  29
TORSDOF 16
ENDMDL
