MODEL 1
REMARK VINA RESULT:      -9.2      0.000      0.000
REMARK SMILES Cc1cc([C@H]([NH3+])C(=O)NCCCCNC(=O)c2ccc(-c3c4nc(c(-c5ccccc5)c5ccc([nH]5)c(-c5ccccc5)c5nc(c(-c6ccccc6)c6ccc3[nH]6)C=C5)C=C4)cc2)ccc1F
REMARK SMILES IDX 12 1 11 2 10 3 9 4 7 5 8 6 5 8 4 9 1 10 2 11 3 12 67 13
REMARK SMILES IDX 66 14 68 15 65 16 6 17 13 21 14 22 15 23 16 25 17 26 18 27
REMARK SMILES IDX 64 28 19 29 63 30 20 31 21 32 22 33 57 34 23 35 62 36 56 37
REMARK SMILES IDX 58 38 24 39 61 40 55 41 54 42 25 44 47 45 32 46 46 47 33 48
REMARK SMILES IDX 36 49 45 50 59 51 34 52 35 53 44 55 60 56 37 57 26 58 27 59
REMARK SMILES IDX 31 60 28 61 30 62 29 63 48 64 49 65 53 66 50 67 52 68 51 69
REMARK SMILES IDX 38 70 39 71 43 72 40 73 42 74 41 75
REMARK H PARENT 9 7 6 18 6 19 6 20 14 24 58 43 36 54
REMARK Flexibility Score: inf
ROOT
ATOM      1  C   UNL A   1      45.070  19.374  24.454  1.00  0.00     0.023 C 
ENDROOT
BRANCH   1   2
ATOM      2  C   UNL A   1      46.198  20.396  24.437  1.00  0.00     0.023 C 
BRANCH   2   3
ATOM      3  C   UNL A   1      45.807  21.824  24.782  1.00  0.00     0.116 C 
BRANCH   3   4
ATOM      4  N   UNL A   1      46.426  22.843  23.963  1.00  0.00    -0.351 N 
ATOM      5  C   UNL A   1      46.978  24.033  24.361  1.00  0.00     0.283 C 
ATOM      6  O   UNL A   1      47.597  24.677  23.504  1.00  0.00    -0.268 OA
ATOM      7  H   UNL A   1      46.455  22.657  22.996  1.00  0.00     0.163 HD
BRANCH   5   8
ATOM      8  C   UNL A   1      46.851  24.582  25.814  1.00  0.00     0.302 C 
BRANCH   8   9
ATOM      9  C   UNL A   1      45.867  25.735  25.949  1.00  0.00     0.019 A 
ATOM     10  C   UNL A   1      45.718  29.288  27.339  1.00  0.00     0.047 C 
ATOM     11  C   UNL A   1      45.306  28.008  26.679  1.00  0.00    -0.015 A 
ATOM     12  C   UNL A   1      46.172  26.908  26.660  1.00  0.00     0.017 A 
ATOM     13  C   UNL A   1      44.058  27.878  26.081  1.00  0.00     0.126 A 
ATOM     14  C   UNL A   1      43.696  26.705  25.426  1.00  0.00     0.040 A 
ATOM     15  F   UNL A   1      43.184  28.893  26.128  1.00  0.00    -0.207 F 
ATOM     16  C   UNL A   1      44.606  25.648  25.338  1.00  0.00     0.013 A 
ENDBRANCH   8   9
BRANCH   8  17
ATOM     17  N   UNL A   1      48.168  24.875  26.416  1.00  0.00    -0.343 N 
ATOM     18  H   UNL A   1      48.182  24.548  27.382  1.00  0.00     0.345 HD
ATOM     19  H   UNL A   1      48.335  25.881  26.395  1.00  0.00     0.345 HD
ATOM     20  H   UNL A   1      48.898  24.399  25.885  1.00  0.00     0.345 HD
ENDBRANCH   8  17
ENDBRANCH   5   8
ENDBRANCH   3   4
ENDBRANCH   2   3
ENDBRANCH   1   2
BRANCH   1  21
ATOM     21  C   UNL A   1      44.248  19.319  25.737  1.00  0.00     0.116 C 
BRANCH  21  22
ATOM     22  N   UNL A   1      42.860  18.935  25.525  1.00  0.00    -0.352 N 
ATOM     23  C   UNL A   1      41.698  19.595  25.860  1.00  0.00     0.251 C 
ATOM     24  H   UNL A   1      42.730  18.070  25.072  1.00  0.00     0.163 HD
ATOM     25  O   UNL A   1      40.613  19.055  25.695  1.00  0.00    -0.269 OA
BRANCH  23  26
ATOM     26  C   UNL A   1      41.765  20.949  26.457  1.00  0.00     0.039 A 
ATOM     27  C   UNL A   1      41.507  21.099  27.822  1.00  0.00     0.014 A 
ATOM     28  C   UNL A   1      42.104  22.059  25.683  1.00  0.00     0.014 A 
ATOM     29  C   UNL A   1      41.671  22.349  28.423  1.00  0.00     0.010 A 
ATOM     30  C   UNL A   1      42.366  23.278  26.300  1.00  0.00     0.010 A 
ATOM     31  C   UNL A   1      42.146  23.440  27.676  1.00  0.00    -0.014 A 
BRANCH  31  32
ATOM     32  C   UNL A   1      42.404  24.758  28.311  1.00  0.00     0.031 A 
ATOM     33  C   UNL A   1      43.756  25.062  28.901  1.00  0.00     0.074 A 
ATOM     34  C   UNL A   1      41.409  25.663  28.410  1.00  0.00     0.049 A 
ATOM     35  N   UNL A   1      44.161  26.138  29.529  1.00  0.00    -0.248 NA
ATOM     36  C   UNL A   1      44.779  24.009  28.798  1.00  0.00     0.031 C 
ATOM     37  C   UNL A   1      40.039  25.478  27.924  1.00  0.00     0.029 A 
ATOM     38  N   UNL A   1      41.399  26.922  28.956  1.00  0.00    -0.354 N 
ATOM     39  C   UNL A   1      45.473  25.882  29.907  1.00  0.00     0.074 A 
ATOM     40  C   UNL A   1      45.776  24.530  29.496  1.00  0.00     0.031 C 
ATOM     41  C   UNL A   1      39.335  26.596  28.160  1.00  0.00     0.029 A 
ATOM     42  C   UNL A   1      40.185  27.560  28.850  1.00  0.00     0.049 A 
ATOM     43  H   UNL A   1      42.186  27.331  29.384  1.00  0.00     0.167 HD
ATOM     44  C   UNL A   1      46.357  26.704  30.520  1.00  0.00     0.031 A 
ATOM     45  C   UNL A   1      39.800  28.783  29.261  1.00  0.00     0.031 A 
ATOM     46  C   UNL A   1      46.062  28.053  30.921  1.00  0.00     0.049 A 
ATOM     47  C   UNL A   1      40.799  29.674  29.947  1.00  0.00     0.074 A 
ATOM     48  C   UNL A   1      46.906  28.985  31.500  1.00  0.00     0.029 A 
ATOM     49  N   UNL A   1      44.823  28.663  30.787  1.00  0.00    -0.354 N 
ATOM     50  N   UNL A   1      42.057  29.442  30.233  1.00  0.00    -0.248 NA
ATOM     51  C   UNL A   1      40.325  31.005  30.351  1.00  0.00     0.031 C 
ATOM     52  C   UNL A   1      46.164  30.140  31.767  1.00  0.00     0.029 A 
ATOM     53  C   UNL A   1      44.876  29.951  31.292  1.00  0.00     0.049 A 
ATOM     54  H   UNL A   1      44.026  28.242  30.391  1.00  0.00     0.167 HD
ATOM     55  C   UNL A   1      42.534  30.610  30.816  1.00  0.00     0.074 A 
ATOM     56  C   UNL A   1      41.435  31.551  30.828  1.00  0.00     0.031 C 
ATOM     57  C   UNL A   1      43.774  30.879  31.295  1.00  0.00     0.031 A 
BRANCH  44  58
ATOM     58  C   UNL A   1      47.732  26.158  30.796  1.00  0.00    -0.014 A 
ATOM     59  C   UNL A   1      48.719  26.127  29.798  1.00  0.00     0.009 A 
ATOM     60  C   UNL A   1      48.054  25.695  32.081  1.00  0.00     0.009 A 
ATOM     61  C   UNL A   1      49.985  25.604  30.068  1.00  0.00     0.001 A 
ATOM     62  C   UNL A   1      49.332  25.204  32.358  1.00  0.00     0.001 A 
ATOM     63  C   UNL A   1      50.293  25.150  31.350  1.00  0.00     0.000 A 
ENDBRANCH  44  58
BRANCH  45  64
ATOM     64  C   UNL A   1      38.411  29.253  29.016  1.00  0.00    -0.014 A 
ATOM     65  C   UNL A   1      37.446  29.189  30.033  1.00  0.00     0.009 A 
ATOM     66  C   UNL A   1      38.035  29.749  27.757  1.00  0.00     0.009 A 
ATOM     67  C   UNL A   1      36.128  29.582  29.787  1.00  0.00     0.001 A 
ATOM     68  C   UNL A   1      36.724  30.172  27.523  1.00  0.00     0.001 A 
ATOM     69  C   UNL A   1      35.770  30.076  28.534  1.00  0.00     0.000 A 
ENDBRANCH  45  64
BRANCH  57  70
ATOM     70  C   UNL A   1      44.020  32.264  31.826  1.00  0.00    -0.014 A 
ATOM     71  C   UNL A   1      44.425  33.314  30.985  1.00  0.00     0.009 A 
ATOM     72  C   UNL A   1      43.813  32.528  33.189  1.00  0.00     0.009 A 
ATOM     73  C   UNL A   1      44.662  34.586  31.511  1.00  0.00     0.001 A 
ATOM     74  C   UNL A   1      44.017  33.809  33.704  1.00  0.00     0.001 A 
ATOM     75  C   UNL A   1      44.454  34.833  32.867  1.00  0.00     0.000 A 
ENDBRANCH  57  70
ENDBRANCH  31  32
ENDBRANCH  23  26
ENDBRANCH  21  22
ENDBRANCH   1  21
TORSDOF 13
ENDMDL
MODEL 2
REMARK VINA RESULT:      -9.0      5.087     11.510
REMARK SMILES Cc1cc([C@H]([NH3+])C(=O)NCCCCNC(=O)c2ccc(-c3c4nc(c(-c5ccccc5)c5ccc([nH]5)c(-c5ccccc5)c5nc(c(-c6ccccc6)c6ccc3[nH]6)C=C5)C=C4)cc2)ccc1F
REMARK SMILES IDX 12 1 11 2 10 3 9 4 7 5 8 6 5 8 4 9 1 10 2 11 3 12 67 13
REMARK SMILES IDX 66 14 68 15 65 16 6 17 13 21 14 22 15 23 16 25 17 26 18 27
REMARK SMILES IDX 64 28 19 29 63 30 20 31 21 32 22 33 57 34 23 35 62 36 56 37
REMARK SMILES IDX 58 38 24 39 61 40 55 41 54 42 25 44 47 45 32 46 46 47 33 48
REMARK SMILES IDX 36 49 45 50 59 51 34 52 35 53 44 55 60 56 37 57 26 58 27 59
REMARK SMILES IDX 31 60 28 61 30 62 29 63 48 64 49 65 53 66 50 67 52 68 51 69
REMARK SMILES IDX 38 70 39 71 43 72 40 73 42 74 41 75
REMARK H PARENT 9 7 6 18 6 19 6 20 14 24 58 43 36 54
REMARK Flexibility Score: inf
ROOT
ATOM      1  C   UNL A   1      32.957  36.707  31.174  1.00  0.00     0.023 C 
ENDROOT
BRANCH   1   2
ATOM      2  C   UNL A   1      33.861  37.315  32.237  1.00  0.00     0.023 C 
BRANCH   2   3
ATOM      3  C   UNL A   1      34.359  36.361  33.312  1.00  0.00     0.116 C 
BRANCH   3   4
ATOM      4  N   UNL A   1      34.099  34.961  33.056  1.00  0.00    -0.351 N 
ATOM      5  C   UNL A   1      34.687  33.868  33.638  1.00  0.00     0.283 C 
ATOM      6  O   UNL A   1      34.192  32.763  33.379  1.00  0.00    -0.268 OA
ATOM      7  H   UNL A   1      33.412  34.769  32.377  1.00  0.00     0.163 HD
BRANCH   5   8
ATOM      8  C   UNL A   1      35.921  33.973  34.584  1.00  0.00     0.302 C 
BRANCH   8   9
ATOM      9  C   UNL A   1      36.898  32.815  34.447  1.00  0.00     0.019 A 
ATOM     10  C   UNL A   1      37.323  29.583  32.458  1.00  0.00     0.047 C 
ATOM     11  C   UNL A   1      37.589  30.694  33.427  1.00  0.00    -0.015 A 
ATOM     12  C   UNL A   1      36.635  31.697  33.638  1.00  0.00     0.017 A 
ATOM     13  C   UNL A   1      38.779  30.752  34.145  1.00  0.00     0.126 A 
ATOM     14  C   UNL A   1      39.044  31.810  35.008  1.00  0.00     0.040 A 
ATOM     15  F   UNL A   1      39.690  29.779  34.007  1.00  0.00    -0.207 F 
ATOM     16  C   UNL A   1      38.120  32.850  35.138  1.00  0.00     0.013 A 
ENDBRANCH   8   9
BRANCH   8  17
ATOM     17  N   UNL A   1      35.529  34.232  35.985  1.00  0.00    -0.343 N 
ATOM     18  H   UNL A   1      36.363  34.401  36.547  1.00  0.00     0.345 HD
ATOM     19  H   UNL A   1      35.029  33.423  36.353  1.00  0.00     0.345 HD
ATOM     20  H   UNL A   1      34.922  35.052  36.022  1.00  0.00     0.345 HD
ENDBRANCH   8  17
ENDBRANCH   5   8
ENDBRANCH   3   4
ENDBRANCH   2   3
ENDBRANCH   1   2
BRANCH   1  21
ATOM     21  C   UNL A   1      33.606  36.457  29.818  1.00  0.00     0.116 C 
BRANCH  21  22
ATOM     22  N   UNL A   1      32.782  35.670  28.911  1.00  0.00    -0.352 N 
ATOM     23  C   UNL A   1      33.033  34.454  28.317  1.00  0.00     0.251 C 
ATOM     24  H   UNL A   1      31.909  36.069  28.689  1.00  0.00     0.163 HD
ATOM     25  O   UNL A   1      32.255  33.999  27.490  1.00  0.00    -0.269 OA
BRANCH  23  26
ATOM     26  C   UNL A   1      34.271  33.712  28.651  1.00  0.00     0.039 A 
ATOM     27  C   UNL A   1      35.406  33.898  27.859  1.00  0.00     0.014 A 
ATOM     28  C   UNL A   1      34.319  32.857  29.753  1.00  0.00     0.014 A 
ATOM     29  C   UNL A   1      36.610  33.291  28.222  1.00  0.00     0.010 A 
ATOM     30  C   UNL A   1      35.540  32.337  30.171  1.00  0.00     0.010 A 
ATOM     31  C   UNL A   1      36.699  32.542  29.407  1.00  0.00    -0.014 A 
BRANCH  31  32
ATOM     32  C   UNL A   1      37.988  31.953  29.855  1.00  0.00     0.031 A 
ATOM     33  C   UNL A   1      38.870  32.706  30.815  1.00  0.00     0.074 A 
ATOM     34  C   UNL A   1      38.394  30.768  29.357  1.00  0.00     0.049 A 
ATOM     35  N   UNL A   1      40.045  32.376  31.291  1.00  0.00    -0.248 NA
ATOM     36  C   UNL A   1      38.383  34.016  31.280  1.00  0.00     0.031 C 
ATOM     37  C   UNL A   1      37.660  29.956  28.384  1.00  0.00     0.029 A 
ATOM     38  N   UNL A   1      39.532  30.040  29.603  1.00  0.00    -0.354 N 
ATOM     39  C   UNL A   1      40.440  33.441  32.092  1.00  0.00     0.074 A 
ATOM     40  C   UNL A   1      39.412  34.452  31.989  1.00  0.00     0.031 C 
ATOM     41  C   UNL A   1      38.346  28.827  28.146  1.00  0.00     0.029 A 
ATOM     42  C   UNL A   1      39.586  28.852  28.913  1.00  0.00     0.049 A 
ATOM     43  H   UNL A   1      40.242  30.339  30.216  1.00  0.00     0.167 HD
ATOM     44  C   UNL A   1      41.545  33.559  32.864  1.00  0.00     0.031 A 
ATOM     45  C   UNL A   1      40.529  27.890  28.899  1.00  0.00     0.031 A 
ATOM     46  C   UNL A   1      42.564  32.550  32.977  1.00  0.00     0.049 A 
ATOM     47  C   UNL A   1      41.752  28.049  29.759  1.00  0.00     0.074 A 
ATOM     48  C   UNL A   1      43.696  32.553  33.775  1.00  0.00     0.029 A 
ATOM     49  N   UNL A   1      42.576  31.359  32.268  1.00  0.00    -0.354 N 
ATOM     50  N   UNL A   1      42.075  29.030  30.566  1.00  0.00    -0.248 NA
ATOM     51  C   UNL A   1      42.733  26.956  29.719  1.00  0.00     0.031 C 
ATOM     52  C   UNL A   1      44.421  31.388  33.507  1.00  0.00     0.029 A 
ATOM     53  C   UNL A   1      43.706  30.629  32.594  1.00  0.00     0.049 A 
ATOM     54  H   UNL A   1      41.883  31.075  31.628  1.00  0.00     0.167 HD
ATOM     55  C   UNL A   1      43.276  28.656  31.157  1.00  0.00     0.074 A 
ATOM     56  C   UNL A   1      43.614  27.352  30.626  1.00  0.00     0.031 C 
ATOM     57  C   UNL A   1      44.030  29.330  32.060  1.00  0.00     0.031 A 
BRANCH  44  58
ATOM     58  C   UNL A   1      41.708  34.833  33.648  1.00  0.00    -0.014 A 
ATOM     59  C   UNL A   1      42.609  35.831  33.242  1.00  0.00     0.009 A 
ATOM     60  C   UNL A   1      40.927  35.053  34.793  1.00  0.00     0.009 A 
ATOM     61  C   UNL A   1      42.756  37.002  33.988  1.00  0.00     0.001 A 
ATOM     62  C   UNL A   1      41.051  36.240  35.520  1.00  0.00     0.001 A 
ATOM     63  C   UNL A   1      41.973  37.208  35.123  1.00  0.00     0.000 A 
ENDBRANCH  44  58
BRANCH  45  64
ATOM     64  C   UNL A   1      40.347  26.675  28.061  1.00  0.00    -0.014 A 
ATOM     65  C   UNL A   1      40.916  26.600  26.779  1.00  0.00     0.009 A 
ATOM     66  C   UNL A   1      39.587  25.591  28.528  1.00  0.00     0.009 A 
ATOM     67  C   UNL A   1      40.701  25.481  25.972  1.00  0.00     0.001 A 
ATOM     68  C   UNL A   1      39.402  24.458  27.731  1.00  0.00     0.001 A 
ATOM     69  C   UNL A   1      39.948  24.410  26.450  1.00  0.00     0.000 A 
ENDBRANCH  45  64
BRANCH  57  70
ATOM     70  C   UNL A   1      45.268  28.646  32.570  1.00  0.00    -0.014 A 
ATOM     71  C   UNL A   1      45.247  27.853  33.728  1.00  0.00     0.009 A 
ATOM     72  C   UNL A   1      46.471  28.777  31.858  1.00  0.00     0.009 A 
ATOM     73  C   UNL A   1      46.417  27.243  34.186  1.00  0.00     0.001 A 
ATOM     74  C   UNL A   1      47.630  28.138  32.300  1.00  0.00     0.001 A 
ATOM     75  C   UNL A   1      47.605  27.383  33.470  1.00  0.00     0.000 A 
ENDBRANCH  57  70
ENDBRANCH  31  32
ENDBRANCH  23  26
ENDBRANCH  21  22
ENDBRANCH   1  21
TORSDOF 13
ENDMDL
MODEL 3
REMARK VINA RESULT:      -8.8      5.005     11.439
REMARK SMILES Cc1cc([C@H]([NH3+])C(=O)NCCCCNC(=O)c2ccc(-c3c4nc(c(-c5ccccc5)c5ccc([nH]5)c(-c5ccccc5)c5nc(c(-c6ccccc6)c6ccc3[nH]6)C=C5)C=C4)cc2)ccc1F
REMARK SMILES IDX 12 1 11 2 10 3 9 4 7 5 8 6 5 8 4 9 1 10 2 11 3 12 67 13
REMARK SMILES IDX 66 14 68 15 65 16 6 17 13 21 14 22 15 23 16 25 17 26 18 27
REMARK SMILES IDX 64 28 19 29 63 30 20 31 21 32 22 33 57 34 23 35 62 36 56 37
REMARK SMILES IDX 58 38 24 39 61 40 55 41 54 42 25 44 47 45 32 46 46 47 33 48
REMARK SMILES IDX 36 49 45 50 59 51 34 52 35 53 44 55 60 56 37 57 26 58 27 59
REMARK SMILES IDX 31 60 28 61 30 62 29 63 48 64 49 65 53 66 50 67 52 68 51 69
REMARK SMILES IDX 38 70 39 71 43 72 40 73 42 74 41 75
REMARK H PARENT 9 7 6 18 6 19 6 20 14 24 58 43 36 54
REMARK Flexibility Score: inf
ROOT
ATOM      1  C   UNL A   1      32.625  36.404  30.543  1.00  0.00     0.023 C 
ENDROOT
BRANCH   1   2
ATOM      2  C   UNL A   1      33.543  37.127  31.519  1.00  0.00     0.023 C 
BRANCH   2   3
ATOM      3  C   UNL A   1      34.066  36.296  32.680  1.00  0.00     0.116 C 
BRANCH   3   4
ATOM      4  N   UNL A   1      33.760  34.884  32.609  1.00  0.00    -0.351 N 
ATOM      5  C   UNL A   1      34.314  33.858  33.330  1.00  0.00     0.283 C 
ATOM      6  O   UNL A   1      33.782  32.745  33.218  1.00  0.00    -0.268 OA
ATOM      7  H   UNL A   1      33.064  34.628  31.961  1.00  0.00     0.163 HD
BRANCH   5   8
ATOM      8  C   UNL A   1      35.555  34.045  34.254  1.00  0.00     0.302 C 
BRANCH   8   9
ATOM      9  C   UNL A   1      36.576  32.923  34.143  1.00  0.00     0.019 A 
ATOM     10  C   UNL A   1      39.855  31.798  35.743  1.00  0.00     0.047 C 
ATOM     11  C   UNL A   1      38.651  31.825  34.853  1.00  0.00    -0.015 A 
ATOM     12  C   UNL A   1      37.775  32.916  34.875  1.00  0.00     0.017 A 
ATOM     13  C   UNL A   1      38.380  30.777  33.980  1.00  0.00     0.126 A 
ATOM     14  C   UNL A   1      37.235  30.781  33.189  1.00  0.00     0.040 A 
ATOM     15  F   UNL A   1      39.226  29.741  33.895  1.00  0.00    -0.207 F 
ATOM     16  C   UNL A   1      36.325  31.836  33.289  1.00  0.00     0.013 A 
ENDBRANCH   8   9
BRANCH   8  17
ATOM     17  N   UNL A   1      35.170  34.336  35.651  1.00  0.00    -0.343 N 
ATOM     18  H   UNL A   1      34.840  33.480  36.098  1.00  0.00     0.345 HD
ATOM     19  H   UNL A   1      34.426  35.033  35.660  1.00  0.00     0.345 HD
ATOM     20  H   UNL A   1      35.979  34.694  36.159  1.00  0.00     0.345 HD
ENDBRANCH   8  17
ENDBRANCH   5   8
ENDBRANCH   3   4
ENDBRANCH   2   3
ENDBRANCH   1   2
BRANCH   1  21
ATOM     21  C   UNL A   1      33.123  36.323  29.105  1.00  0.00     0.116 C 
BRANCH  21  22
ATOM     22  N   UNL A   1      32.567  35.205  28.356  1.00  0.00    -0.352 N 
ATOM     23  C   UNL A   1      33.113  33.975  28.065  1.00  0.00     0.251 C 
ATOM     24  H   UNL A   1      31.659  35.351  28.002  1.00  0.00     0.163 HD
ATOM     25  O   UNL A   1      32.527  33.200  27.321  1.00  0.00    -0.269 OA
BRANCH  23  26
ATOM     26  C   UNL A   1      34.433  33.604  28.625  1.00  0.00     0.039 A 
ATOM     27  C   UNL A   1      34.486  32.702  29.691  1.00  0.00     0.014 A 
ATOM     28  C   UNL A   1      35.612  34.121  28.088  1.00  0.00     0.014 A 
ATOM     29  C   UNL A   1      35.724  32.259  30.161  1.00  0.00     0.010 A 
ATOM     30  C   UNL A   1      36.839  33.602  28.486  1.00  0.00     0.010 A 
ATOM     31  C   UNL A   1      36.911  32.670  29.532  1.00  0.00    -0.014 A 
BRANCH  31  32
ATOM     32  C   UNL A   1      38.235  32.150  29.963  1.00  0.00     0.031 A 
ATOM     33  C   UNL A   1      38.720  30.813  29.468  1.00  0.00     0.074 A 
ATOM     34  C   UNL A   1      38.978  32.850  30.843  1.00  0.00     0.049 A 
ATOM     35  N   UNL A   1      39.825  30.174  29.760  1.00  0.00    -0.248 NA
ATOM     36  C   UNL A   1      37.833  30.083  28.545  1.00  0.00     0.031 C 
ATOM     37  C   UNL A   1      38.605  34.135  31.440  1.00  0.00     0.029 A 
ATOM     38  N   UNL A   1      40.206  32.575  31.393  1.00  0.00    -0.354 N 
ATOM     39  C   UNL A   1      39.757  28.968  29.074  1.00  0.00     0.074 A 
ATOM     40  C   UNL A   1      38.477  28.935  28.403  1.00  0.00     0.031 C 
ATOM     41  C   UNL A   1      39.599  34.553  32.239  1.00  0.00     0.029 A 
ATOM     42  C   UNL A   1      40.658  33.551  32.249  1.00  0.00     0.049 A 
ATOM     43  H   UNL A   1      40.714  31.756  31.193  1.00  0.00     0.167 HD
ATOM     44  C   UNL A   1      40.683  27.985  28.988  1.00  0.00     0.031 A 
ATOM     45  C   UNL A   1      41.798  33.629  32.961  1.00  0.00     0.031 A 
ATOM     46  C   UNL A   1      41.962  28.020  29.646  1.00  0.00     0.049 A 
ATOM     47  C   UNL A   1      42.808  32.520  32.855  1.00  0.00     0.074 A 
ATOM     48  C   UNL A   1      42.992  27.097  29.578  1.00  0.00     0.029 A 
ATOM     49  N   UNL A   1      42.384  29.030  30.496  1.00  0.00    -0.354 N 
ATOM     50  N   UNL A   1      42.758  31.420  32.144  1.00  0.00    -0.248 NA
ATOM     51  C   UNL A   1      44.043  32.676  33.637  1.00  0.00     0.031 C 
ATOM     52  C   UNL A   1      44.016  27.523  30.431  1.00  0.00     0.029 A 
ATOM     53  C   UNL A   1      43.651  28.744  30.976  1.00  0.00     0.049 A 
ATOM     54  H   UNL A   1      41.860  29.833  30.724  1.00  0.00     0.167 HD
ATOM     55  C   UNL A   1      43.967  30.771  32.366  1.00  0.00     0.074 A 
ATOM     56  C   UNL A   1      44.733  31.609  33.263  1.00  0.00     0.031 C 
ATOM     57  C   UNL A   1      44.404  29.588  31.867  1.00  0.00     0.031 A 
BRANCH  44  58
ATOM     58  C   UNL A   1      40.341  26.784  28.149  1.00  0.00    -0.014 A 
ATOM     59  C   UNL A   1      39.535  25.748  28.651  1.00  0.00     0.009 A 
ATOM     60  C   UNL A   1      40.806  26.698  26.828  1.00  0.00     0.009 A 
ATOM     61  C   UNL A   1      39.238  24.634  27.863  1.00  0.00     0.001 A 
ATOM     62  C   UNL A   1      40.479  25.600  26.030  1.00  0.00     0.001 A 
ATOM     63  C   UNL A   1      39.705  24.565  26.551  1.00  0.00     0.000 A 
ENDBRANCH  44  58
BRANCH  45  64
ATOM     64  C   UNL A   1      42.063  34.813  33.822  1.00  0.00    -0.014 A 
ATOM     65  C   UNL A   1      42.766  35.919  33.319  1.00  0.00     0.009 A 
ATOM     66  C   UNL A   1      41.631  34.837  35.158  1.00  0.00     0.009 A 
ATOM     67  C   UNL A   1      43.060  37.008  34.142  1.00  0.00     0.001 A 
ATOM     68  C   UNL A   1      41.897  35.943  35.970  1.00  0.00     0.001 A 
ATOM     69  C   UNL A   1      42.622  37.021  35.465  1.00  0.00     0.000 A 
ENDBRANCH  45  64
BRANCH  57  70
ATOM     70  C   UNL A   1      45.795  29.156  32.241  1.00  0.00    -0.014 A 
ATOM     71  C   UNL A   1      46.040  28.356  33.369  1.00  0.00     0.009 A 
ATOM     72  C   UNL A   1      46.876  29.535  31.430  1.00  0.00     0.009 A 
ATOM     73  C   UNL A   1      47.345  27.985  33.700  1.00  0.00     0.001 A 
ATOM     74  C   UNL A   1      48.175  29.134  31.745  1.00  0.00     0.001 A 
ATOM     75  C   UNL A   1      48.409  28.370  32.886  1.00  0.00     0.000 A 
ENDBRANCH  57  70
ENDBRANCH  31  32
ENDBRANCH  23  26
ENDBRANCH  21  22
ENDBRANCH   1  21
TORSDOF 13
ENDMDL
