MODEL 1
REMARK VINA RESULT:     -11.1      0.000      0.000
REMARK SMILES Cc1ccc2c(c1C)O[C@@H](C(=O)NCCCCNC(=O)c1ccc(-c3c4nc(c(-c5ccccc5)c5ccc([nH]5)c(-c5ccccc5)c5nc(c(-c6ccccc6)c6ccc3[nH]6)C=C5)C=C4)cc1)CC2=O
REMARK SMILES IDX 16 1 15 2 14 3 13 4 11 5 12 6 10 8 1 9 2 10 3 11 7 12 4 13
REMARK SMILES IDX 6 14 8 15 5 16 9 17 70 18 69 19 71 20 17 21 18 22 19 23
REMARK SMILES IDX 20 25 21 26 22 27 68 28 23 29 67 30 24 31 25 32 26 33 61 34
REMARK SMILES IDX 27 35 66 36 60 37 62 38 28 39 65 40 59 41 58 42 29 44 51 45
REMARK SMILES IDX 36 46 50 47 37 48 40 49 49 50 63 51 38 52 39 53 48 55 64 56
REMARK SMILES IDX 41 57 30 58 31 59 35 60 32 61 34 62 33 63 52 64 53 65 57 66
REMARK SMILES IDX 54 67 56 68 55 69 42 70 43 71 47 72 44 73 46 74 45 75
REMARK H PARENT 13 7 18 24 62 43 40 54
REMARK Flexibility Score: inf
ROOT
ATOM      1  C   UNL A   1      32.147  28.532  26.783  1.00  0.00     0.023 C 
ENDROOT
BRANCH   1   2
ATOM      2  C   UNL A   1      32.099  28.638  25.260  1.00  0.00     0.023 C 
BRANCH   2   3
ATOM      3  C   UNL A   1      33.475  28.641  24.592  1.00  0.00     0.116 C 
BRANCH   3   4
ATOM      4  N   UNL A   1      33.638  27.542  23.666  1.00  0.00    -0.353 N 
ATOM      5  C   UNL A   1      33.722  26.197  23.836  1.00  0.00     0.261 C 
ATOM      6  O   UNL A   1      33.794  25.526  22.798  1.00  0.00    -0.271 OA
ATOM      7  H   UNL A   1      33.700  27.824  22.725  1.00  0.00     0.163 HD
BRANCH   5   8
ATOM      8  C   UNL A   1      33.804  25.490  25.211  1.00  0.00     0.269 C 
ATOM      9  C   UNL A   1      37.693  20.767  24.947  1.00  0.00     0.045 C 
ATOM     10  C   UNL A   1      36.370  21.455  25.148  1.00  0.00    -0.044 A 
ATOM     11  C   UNL A   1      35.194  20.695  25.039  1.00  0.00     0.005 A 
ATOM     12  C   UNL A   1      36.280  22.837  25.425  1.00  0.00    -0.005 A 
ATOM     13  C   UNL A   1      33.945  21.297  25.170  1.00  0.00     0.016 A 
ATOM     14  C   UNL A   1      35.009  23.447  25.477  1.00  0.00     0.134 A 
ATOM     15  C   UNL A   1      37.508  23.700  25.588  1.00  0.00     0.049 C 
ATOM     16  C   UNL A   1      33.857  22.676  25.370  1.00  0.00     0.060 A 
ATOM     17  O   UNL A   1      34.999  24.809  25.550  1.00  0.00    -0.479 OA
ATOM     18  C   UNL A   1      32.540  23.329  25.378  1.00  0.00     0.170 C 
ATOM     19  C   UNL A   1      32.502  24.807  25.592  1.00  0.00     0.136 C 
ATOM     20  O   UNL A   1      31.515  22.668  25.243  1.00  0.00    -0.294 OA
ENDBRANCH   5   8
ENDBRANCH   3   4
ENDBRANCH   2   3
ENDBRANCH   1   2
BRANCH   1  21
ATOM     21  C   UNL A   1      33.486  28.908  27.411  1.00  0.00     0.116 C 
BRANCH  21  22
ATOM     22  N   UNL A   1      33.545  30.274  27.912  1.00  0.00    -0.352 N 
ATOM     23  C   UNL A   1      34.642  30.915  28.440  1.00  0.00     0.251 C 
ATOM     24  H   UNL A   1      32.710  30.795  27.868  1.00  0.00     0.163 HD
ATOM     25  O   UNL A   1      34.575  32.063  28.866  1.00  0.00    -0.269 OA
BRANCH  23  26
ATOM     26  C   UNL A   1      35.908  30.160  28.522  1.00  0.00     0.039 A 
ATOM     27  C   UNL A   1      36.776  30.179  27.429  1.00  0.00     0.014 A 
ATOM     28  C   UNL A   1      36.279  29.553  29.725  1.00  0.00     0.014 A 
ATOM     29  C   UNL A   1      38.061  29.652  27.568  1.00  0.00     0.010 A 
ATOM     30  C   UNL A   1      37.575  29.069  29.874  1.00  0.00     0.010 A 
ATOM     31  C   UNL A   1      38.481  29.131  28.803  1.00  0.00    -0.014 A 
BRANCH  31  32
ATOM     32  C   UNL A   1      39.872  28.658  29.001  1.00  0.00     0.031 A 
ATOM     33  C   UNL A   1      40.904  29.588  29.567  1.00  0.00     0.074 A 
ATOM     34  C   UNL A   1      40.220  27.414  28.615  1.00  0.00     0.049 A 
ATOM     35  N   UNL A   1      42.187  29.389  29.733  1.00  0.00    -0.248 NA
ATOM     36  C   UNL A   1      40.440  30.921  29.983  1.00  0.00     0.031 C 
ATOM     37  C   UNL A   1      39.318  26.423  28.026  1.00  0.00     0.029 A 
ATOM     38  N   UNL A   1      41.434  26.775  28.658  1.00  0.00    -0.354 N 
ATOM     39  C   UNL A   1      42.683  30.574  30.256  1.00  0.00     0.074 A 
ATOM     40  C   UNL A   1      41.574  31.497  30.355  1.00  0.00     0.031 C 
ATOM     41  C   UNL A   1      40.006  25.294  27.782  1.00  0.00     0.029 A 
ATOM     42  C   UNL A   1      41.400  25.492  28.171  1.00  0.00     0.049 A 
ATOM     43  H   UNL A   1      42.253  27.198  29.005  1.00  0.00     0.167 HD
ATOM     44  C   UNL A   1      43.949  30.863  30.636  1.00  0.00     0.031 A 
ATOM     45  C   UNL A   1      42.380  24.576  28.050  1.00  0.00     0.031 A 
ATOM     46  C   UNL A   1      45.049  29.944  30.569  1.00  0.00     0.049 A 
ATOM     47  C   UNL A   1      43.774  24.919  28.491  1.00  0.00     0.074 A 
ATOM     48  C   UNL A   1      46.360  30.143  30.965  1.00  0.00     0.029 A 
ATOM     49  N   UNL A   1      44.966  28.648  30.087  1.00  0.00    -0.354 N 
ATOM     50  N   UNL A   1      44.222  26.039  29.002  1.00  0.00    -0.248 NA
ATOM     51  C   UNL A   1      44.797  23.871  28.342  1.00  0.00     0.031 C 
ATOM     52  C   UNL A   1      47.075  28.971  30.707  1.00  0.00     0.029 A 
ATOM     53  C   UNL A   1      46.202  28.037  30.175  1.00  0.00     0.049 A 
ATOM     54  H   UNL A   1      44.148  28.227  29.734  1.00  0.00     0.167 HD
ATOM     55  C   UNL A   1      45.572  25.827  29.252  1.00  0.00     0.074 A 
ATOM     56  C   UNL A   1      45.870  24.471  28.843  1.00  0.00     0.031 C 
ATOM     57  C   UNL A   1      46.480  26.684  29.774  1.00  0.00     0.031 A 
BRANCH  44  58
ATOM     58  C   UNL A   1      44.212  32.234  31.177  1.00  0.00    -0.014 A 
ATOM     59  C   UNL A   1      44.565  33.285  30.317  1.00  0.00     0.009 A 
ATOM     60  C   UNL A   1      44.040  32.494  32.545  1.00  0.00     0.009 A 
ATOM     61  C   UNL A   1      44.757  34.572  30.822  1.00  0.00     0.001 A 
ATOM     62  C   UNL A   1      44.217  33.785  33.043  1.00  0.00     0.001 A 
ATOM     63  C   UNL A   1      44.577  34.821  32.182  1.00  0.00     0.000 A 
ENDBRANCH  44  58
BRANCH  45  64
ATOM     64  C   UNL A   1      42.072  23.232  27.504  1.00  0.00    -0.014 A 
ATOM     65  C   UNL A   1      41.423  22.278  28.301  1.00  0.00     0.009 A 
ATOM     66  C   UNL A   1      42.422  22.897  26.187  1.00  0.00     0.009 A 
ATOM     67  C   UNL A   1      41.142  21.007  27.796  1.00  0.00     0.001 A 
ATOM     68  C   UNL A   1      42.125  21.629  25.680  1.00  0.00     0.001 A 
ATOM     69  C   UNL A   1      41.491  20.685  26.485  1.00  0.00     0.000 A 
ENDBRANCH  45  64
BRANCH  57  70
ATOM     70  C   UNL A   1      47.880  26.188  29.962  1.00  0.00    -0.014 A 
ATOM     71  C   UNL A   1      48.812  26.262  28.917  1.00  0.00     0.009 A 
ATOM     72  C   UNL A   1      48.297  25.743  31.226  1.00  0.00     0.009 A 
ATOM     73  C   UNL A   1      50.142  25.894  29.136  1.00  0.00     0.001 A 
ATOM     74  C   UNL A   1      49.630  25.390  31.444  1.00  0.00     0.001 A 
ATOM     75  C   UNL A   1      50.550  25.466  30.399  1.00  0.00     0.000 A 
ENDBRANCH  57  70
ENDBRANCH  31  32
ENDBRANCH  23  26
ENDBRANCH  21  22
ENDBRANCH   1  21
TORSDOF 11
ENDMDL
MODEL 2
REMARK VINA RESULT:     -11.0      2.443      6.957
REMARK SMILES Cc1ccc2c(c1C)O[C@@H](C(=O)NCCCCNC(=O)c1ccc(-c3c4nc(c(-c5ccccc5)c5ccc([nH]5)c(-c5ccccc5)c5nc(c(-c6ccccc6)c6ccc3[nH]6)C=C5)C=C4)cc1)CC2=O
REMARK SMILES IDX 16 1 15 2 14 3 13 4 11 5 12 6 10 8 1 9 2 10 3 11 7 12 4 13
REMARK SMILES IDX 6 14 8 15 5 16 9 17 70 18 69 19 71 20 17 21 18 22 19 23
REMARK SMILES IDX 20 25 21 26 22 27 68 28 23 29 67 30 24 31 25 32 26 33 61 34
REMARK SMILES IDX 27 35 66 36 60 37 62 38 28 39 65 40 59 41 58 42 29 44 51 45
REMARK SMILES IDX 36 46 50 47 37 48 40 49 49 50 63 51 38 52 39 53 48 55 64 56
REMARK SMILES IDX 41 57 30 58 31 59 35 60 32 61 34 62 33 63 52 64 53 65 57 66
REMARK SMILES IDX 54 67 56 68 55 69 42 70 43 71 47 72 44 73 46 74 45 75
REMARK H PARENT 13 7 18 24 62 43 40 54
REMARK Flexibility Score: inf
ROOT
ATOM      1  C   UNL A   1      32.021  30.050  26.929  1.00  0.00     0.023 C 
ENDROOT
BRANCH   1   2
ATOM      2  C   UNL A   1      31.697  29.718  25.473  1.00  0.00     0.023 C 
BRANCH   2   3
ATOM      3  C   UNL A   1      32.919  29.337  24.636  1.00  0.00     0.116 C 
BRANCH   3   4
ATOM      4  N   UNL A   1      32.719  28.107  23.901  1.00  0.00    -0.353 N 
ATOM      5  C   UNL A   1      32.792  26.798  24.256  1.00  0.00     0.261 C 
ATOM      6  O   UNL A   1      32.489  25.983  23.374  1.00  0.00    -0.271 OA
ATOM      7  H   UNL A   1      32.483  28.246  22.955  1.00  0.00     0.163 HD
BRANCH   5   8
ATOM      8  C   UNL A   1      33.287  26.288  25.631  1.00  0.00     0.269 C 
ATOM      9  C   UNL A   1      35.916  20.789  25.043  1.00  0.00     0.045 C 
ATOM     10  C   UNL A   1      34.912  21.791  25.543  1.00  0.00    -0.044 A 
ATOM     11  C   UNL A   1      33.678  21.324  26.025  1.00  0.00     0.005 A 
ATOM     12  C   UNL A   1      35.169  23.180  25.527  1.00  0.00    -0.005 A 
ATOM     13  C   UNL A   1      32.700  22.216  26.456  1.00  0.00     0.016 A 
ATOM     14  C   UNL A   1      34.141  24.075  25.891  1.00  0.00     0.134 A 
ATOM     15  C   UNL A   1      36.488  23.742  25.053  1.00  0.00     0.049 C 
ATOM     16  C   UNL A   1      32.928  23.591  26.369  1.00  0.00     0.060 A 
ATOM     17  O   UNL A   1      34.388  25.397  25.665  1.00  0.00    -0.479 OA
ATOM     18  C   UNL A   1      31.849  24.532  26.701  1.00  0.00     0.170 C 
ATOM     19  C   UNL A   1      32.144  25.992  26.587  1.00  0.00     0.136 C 
ATOM     20  O   UNL A   1      30.758  24.120  27.084  1.00  0.00    -0.294 OA
ENDBRANCH   5   8
ENDBRANCH   3   4
ENDBRANCH   2   3
ENDBRANCH   1   2
BRANCH   1  21
ATOM     21  C   UNL A   1      33.047  31.162  27.122  1.00  0.00     0.116 C 
BRANCH  21  22
ATOM     22  N   UNL A   1      32.464  32.476  27.356  1.00  0.00    -0.352 N 
ATOM     23  C   UNL A   1      33.024  33.515  28.064  1.00  0.00     0.251 C 
ATOM     24  H   UNL A   1      31.573  32.637  26.968  1.00  0.00     0.163 HD
ATOM     25  O   UNL A   1      32.429  34.575  28.230  1.00  0.00    -0.269 OA
BRANCH  23  26
ATOM     26  C   UNL A   1      34.357  33.303  28.661  1.00  0.00     0.039 A 
ATOM     27  C   UNL A   1      34.450  32.622  29.876  1.00  0.00     0.014 A 
ATOM     28  C   UNL A   1      35.503  33.666  27.948  1.00  0.00     0.014 A 
ATOM     29  C   UNL A   1      35.706  32.229  30.343  1.00  0.00     0.010 A 
ATOM     30  C   UNL A   1      36.749  33.234  28.395  1.00  0.00     0.010 A 
ATOM     31  C   UNL A   1      36.858  32.498  29.585  1.00  0.00    -0.014 A 
BRANCH  31  32
ATOM     32  C   UNL A   1      38.187  32.004  30.013  1.00  0.00     0.031 A 
ATOM     33  C   UNL A   1      38.693  30.685  29.507  1.00  0.00     0.074 A 
ATOM     34  C   UNL A   1      38.913  32.710  30.903  1.00  0.00     0.049 A 
ATOM     35  N   UNL A   1      39.787  30.045  29.832  1.00  0.00    -0.248 NA
ATOM     36  C   UNL A   1      37.853  29.985  28.522  1.00  0.00     0.031 C 
ATOM     37  C   UNL A   1      38.521  33.992  31.493  1.00  0.00     0.029 A 
ATOM     38  N   UNL A   1      40.133  32.442  31.472  1.00  0.00    -0.354 N 
ATOM     39  C   UNL A   1      39.758  28.863  29.105  1.00  0.00     0.074 A 
ATOM     40  C   UNL A   1      38.528  28.859  28.344  1.00  0.00     0.031 C 
ATOM     41  C   UNL A   1      39.493  34.408  32.323  1.00  0.00     0.029 A 
ATOM     42  C   UNL A   1      40.560  33.411  32.346  1.00  0.00     0.049 A 
ATOM     43  H   UNL A   1      40.654  31.630  31.272  1.00  0.00     0.167 HD
ATOM     44  C   UNL A   1      40.681  27.876  29.064  1.00  0.00     0.031 A 
ATOM     45  C   UNL A   1      41.684  33.489  33.084  1.00  0.00     0.031 A 
ATOM     46  C   UNL A   1      41.918  27.886  29.793  1.00  0.00     0.049 A 
ATOM     47  C   UNL A   1      42.698  32.384  33.009  1.00  0.00     0.074 A 
ATOM     48  C   UNL A   1      42.929  26.941  29.783  1.00  0.00     0.029 A 
ATOM     49  N   UNL A   1      42.318  28.896  30.652  1.00  0.00    -0.354 N 
ATOM     50  N   UNL A   1      42.663  31.283  32.302  1.00  0.00    -0.248 NA
ATOM     51  C   UNL A   1      43.909  32.535  33.831  1.00  0.00     0.031 C 
ATOM     52  C   UNL A   1      43.936  27.372  30.650  1.00  0.00     0.029 A 
ATOM     53  C   UNL A   1      43.561  28.597  31.177  1.00  0.00     0.049 A 
ATOM     54  H   UNL A   1      41.795  29.705  30.856  1.00  0.00     0.167 HD
ATOM     55  C   UNL A   1      43.851  30.618  32.578  1.00  0.00     0.074 A 
ATOM     56  C   UNL A   1      44.588  31.441  33.513  1.00  0.00     0.031 C 
ATOM     57  C   UNL A   1      44.286  29.430  32.097  1.00  0.00     0.031 A 
BRANCH  44  58
ATOM     58  C   UNL A   1      40.396  26.699  28.182  1.00  0.00    -0.014 A 
ATOM     59  C   UNL A   1      39.565  25.660  28.627  1.00  0.00     0.009 A 
ATOM     60  C   UNL A   1      40.905  26.662  26.876  1.00  0.00     0.009 A 
ATOM     61  C   UNL A   1      39.260  24.593  27.780  1.00  0.00     0.001 A 
ATOM     62  C   UNL A   1      40.585  25.601  26.027  1.00  0.00     0.001 A 
ATOM     63  C   UNL A   1      39.766  24.568  26.481  1.00  0.00     0.000 A 
ENDBRANCH  44  58
BRANCH  45  64
ATOM     64  C   UNL A   1      41.921  34.673  33.946  1.00  0.00    -0.014 A 
ATOM     65  C   UNL A   1      41.500  34.668  35.283  1.00  0.00     0.009 A 
ATOM     66  C   UNL A   1      42.569  35.809  33.438  1.00  0.00     0.009 A 
ATOM     67  C   UNL A   1      41.711  35.784  36.095  1.00  0.00     0.001 A 
ATOM     68  C   UNL A   1      42.792  36.918  34.258  1.00  0.00     0.001 A 
ATOM     69  C   UNL A   1      42.359  36.907  35.583  1.00  0.00     0.000 A 
ENDBRANCH  45  64
BRANCH  57  70
ATOM     70  C   UNL A   1      45.631  28.946  32.546  1.00  0.00    -0.014 A 
ATOM     71  C   UNL A   1      46.792  29.314  31.852  1.00  0.00     0.009 A 
ATOM     72  C   UNL A   1      45.743  28.206  33.733  1.00  0.00     0.009 A 
ATOM     73  C   UNL A   1      48.047  28.944  32.340  1.00  0.00     0.001 A 
ATOM     74  C   UNL A   1      47.000  27.851  34.225  1.00  0.00     0.001 A 
ATOM     75  C   UNL A   1      48.150  28.219  33.528  1.00  0.00     0.000 A 
ENDBRANCH  57  70
ENDBRANCH  31  32
ENDBRANCH  23  26
ENDBRANCH  21  22
ENDBRANCH   1  21
TORSDOF 11
ENDMDL
MODEL 3
REMARK VINA RESULT:     -11.0      1.733      7.390
REMARK SMILES Cc1ccc2c(c1C)O[C@@H](C(=O)NCCCCNC(=O)c1ccc(-c3c4nc(c(-c5ccccc5)c5ccc([nH]5)c(-c5ccccc5)c5nc(c(-c6ccccc6)c6ccc3[nH]6)C=C5)C=C4)cc1)CC2=O
REMARK SMILES IDX 16 1 15 2 14 3 13 4 11 5 12 6 10 8 1 9 2 10 3 11 7 12 4 13
REMARK SMILES IDX 6 14 8 15 5 16 9 17 70 18 69 19 71 20 17 21 18 22 19 23
REMARK SMILES IDX 20 25 21 26 22 27 68 28 23 29 67 30 24 31 25 32 26 33 61 34
REMARK SMILES IDX 27 35 66 36 60 37 62 38 28 39 65 40 59 41 58 42 29 44 51 45
REMARK SMILES IDX 36 46 50 47 37 48 40 49 49 50 63 51 38 52 39 53 48 55 64 56
REMARK SMILES IDX 41 57 30 58 31 59 35 60 32 61 34 62 33 63 52 64 53 65 57 66
REMARK SMILES IDX 54 67 56 68 55 69 42 70 43 71 47 72 44 73 46 74 45 75
REMARK H PARENT 13 7 18 24 62 43 40 54
REMARK Flexibility Score: inf
ROOT
ATOM      1  C   UNL A   1      37.391  21.405  24.638  1.00  0.00     0.023 C 
ENDROOT
BRANCH   1   2
ATOM      2  C   UNL A   1      35.984  20.942  25.014  1.00  0.00     0.023 C 
BRANCH   2   3
ATOM      3  C   UNL A   1      35.403  21.651  26.239  1.00  0.00     0.116 C 
BRANCH   3   4
ATOM      4  N   UNL A   1      34.056  22.126  26.009  1.00  0.00    -0.353 N 
ATOM      5  C   UNL A   1      33.556  23.185  25.322  1.00  0.00     0.261 C 
ATOM      6  O   UNL A   1      32.321  23.262  25.273  1.00  0.00    -0.271 OA
ATOM      7  H   UNL A   1      33.363  21.572  26.437  1.00  0.00     0.163 HD
BRANCH   5   8
ATOM      8  C   UNL A   1      34.417  24.301  24.681  1.00  0.00     0.269 C 
ATOM      9  C   UNL A   1      31.729  29.753  25.419  1.00  0.00     0.045 C 
ATOM     10  C   UNL A   1      32.299  28.589  24.656  1.00  0.00    -0.044 A 
ATOM     11  C   UNL A   1      31.897  28.395  23.325  1.00  0.00     0.005 A 
ATOM     12  C   UNL A   1      33.210  27.683  25.245  1.00  0.00    -0.005 A 
ATOM     13  C   UNL A   1      32.362  27.305  22.593  1.00  0.00     0.016 A 
ATOM     14  C   UNL A   1      33.611  26.541  24.519  1.00  0.00     0.134 A 
ATOM     15  C   UNL A   1      33.706  27.856  26.659  1.00  0.00     0.049 C 
ATOM     16  C   UNL A   1      33.203  26.371  23.201  1.00  0.00     0.060 A 
ATOM     17  O   UNL A   1      34.329  25.611  25.212  1.00  0.00    -0.479 OA
ATOM     18  C   UNL A   1      33.589  25.154  22.471  1.00  0.00     0.170 C 
ATOM     19  C   UNL A   1      34.487  24.184  23.168  1.00  0.00     0.136 C 
ATOM     20  O   UNL A   1      33.204  24.968  21.320  1.00  0.00    -0.294 OA
ENDBRANCH   5   8
ENDBRANCH   3   4
ENDBRANCH   2   3
ENDBRANCH   1   2
BRANCH   1  21
ATOM     21  C   UNL A   1      38.440  21.226  25.732  1.00  0.00     0.116 C 
BRANCH  21  22
ATOM     22  N   UNL A   1      39.255  20.029  25.584  1.00  0.00    -0.352 N 
ATOM     23  C   UNL A   1      40.574  19.875  25.946  1.00  0.00     0.251 C 
ATOM     24  H   UNL A   1      38.816  19.245  25.179  1.00  0.00     0.163 HD
ATOM     25  O   UNL A   1      41.180  18.828  25.745  1.00  0.00    -0.269 OA
BRANCH  23  26
ATOM     26  C   UNL A   1      41.261  21.033  26.552  1.00  0.00     0.039 A 
ATOM     27  C   UNL A   1      41.877  21.964  25.715  1.00  0.00     0.014 A 
ATOM     28  C   UNL A   1      41.174  21.249  27.930  1.00  0.00     0.014 A 
ATOM     29  C   UNL A   1      42.341  23.165  26.255  1.00  0.00     0.010 A 
ATOM     30  C   UNL A   1      41.598  22.465  28.457  1.00  0.00     0.010 A 
ATOM     31  C   UNL A   1      42.169  23.439  27.622  1.00  0.00    -0.014 A 
BRANCH  31  32
ATOM     32  C   UNL A   1      42.564  24.746  28.196  1.00  0.00     0.031 A 
ATOM     33  C   UNL A   1      41.533  25.817  28.399  1.00  0.00     0.074 A 
ATOM     34  C   UNL A   1      43.860  24.993  28.477  1.00  0.00     0.049 A 
ATOM     35  N   UNL A   1      41.697  27.050  28.806  1.00  0.00    -0.248 NA
ATOM     36  C   UNL A   1      40.139  25.462  28.089  1.00  0.00     0.031 C 
ATOM     37  C   UNL A   1      44.963  24.047  28.298  1.00  0.00     0.029 A 
ATOM     38  N   UNL A   1      44.465  26.122  28.969  1.00  0.00    -0.354 N 
ATOM     39  C   UNL A   1      40.432  27.620  28.784  1.00  0.00     0.074 A 
ATOM     40  C   UNL A   1      39.516  26.612  28.299  1.00  0.00     0.031 C 
ATOM     41  C   UNL A   1      46.108  24.630  28.695  1.00  0.00     0.029 A 
ATOM     42  C   UNL A   1      45.824  25.995  29.129  1.00  0.00     0.049 A 
ATOM     43  H   UNL A   1      43.972  26.947  29.186  1.00  0.00     0.167 HD
ATOM     44  C   UNL A   1      40.065  28.870  29.150  1.00  0.00     0.031 A 
ATOM     45  C   UNL A   1      46.738  26.878  29.573  1.00  0.00     0.031 A 
ATOM     46  C   UNL A   1      40.964  29.866  29.660  1.00  0.00     0.049 A 
ATOM     47  C   UNL A   1      46.301  28.255  29.985  1.00  0.00     0.074 A 
ATOM     48  C   UNL A   1      40.670  31.149  30.088  1.00  0.00     0.029 A 
ATOM     49  N   UNL A   1      42.327  29.689  29.823  1.00  0.00    -0.354 N 
ATOM     50  N   UNL A   1      45.098  28.772  29.976  1.00  0.00    -0.248 NA
ATOM     51  C   UNL A   1      47.347  29.168  30.472  1.00  0.00     0.031 C 
ATOM     52  C   UNL A   1      41.861  31.755  30.496  1.00  0.00     0.029 A 
ATOM     53  C   UNL A   1      42.889  30.838  30.345  1.00  0.00     0.049 A 
ATOM     54  H   UNL A   1      42.822  28.866  29.600  1.00  0.00     0.167 HD
ATOM     55  C   UNL A   1      45.237  30.062  30.471  1.00  0.00     0.074 A 
ATOM     56  C   UNL A   1      46.639  30.248  30.777  1.00  0.00     0.031 C 
ATOM     57  C   UNL A   1      44.283  31.005  30.653  1.00  0.00     0.031 A 
BRANCH  44  58
ATOM     58  C   UNL A   1      38.616  29.228  29.027  1.00  0.00    -0.014 A 
ATOM     59  C   UNL A   1      37.771  29.178  30.146  1.00  0.00     0.009 A 
ATOM     60  C   UNL A   1      38.108  29.684  27.802  1.00  0.00     0.009 A 
ATOM     61  C   UNL A   1      36.436  29.565  30.036  1.00  0.00     0.001 A 
ATOM     62  C   UNL A   1      36.775  30.085  27.700  1.00  0.00     0.001 A 
ATOM     63  C   UNL A   1      35.941  30.023  28.815  1.00  0.00     0.000 A 
ENDBRANCH  44  58
BRANCH  45  64
ATOM     64  C   UNL A   1      48.163  26.479  29.674  1.00  0.00    -0.014 A 
ATOM     65  C   UNL A   1      48.635  25.832  30.825  1.00  0.00     0.009 A 
ATOM     66  C   UNL A   1      49.055  26.739  28.622  1.00  0.00     0.009 A 
ATOM     67  C   UNL A   1      49.979  25.466  30.929  1.00  0.00     0.001 A 
ATOM     68  C   UNL A   1      50.395  26.356  28.723  1.00  0.00     0.001 A 
ATOM     69  C   UNL A   1      50.856  25.725  29.878  1.00  0.00     0.000 A 
ENDBRANCH  45  64
BRANCH  57  70
ATOM     70  C   UNL A   1      44.705  32.321  31.231  1.00  0.00    -0.014 A 
ATOM     71  C   UNL A   1      45.059  33.390  30.395  1.00  0.00     0.009 A 
ATOM     72  C   UNL A   1      44.643  32.524  32.618  1.00  0.00     0.009 A 
ATOM     73  C   UNL A   1      45.348  34.642  30.941  1.00  0.00     0.001 A 
ATOM     74  C   UNL A   1      44.919  33.780  33.159  1.00  0.00     0.001 A 
ATOM     75  C   UNL A   1      45.271  34.837  32.321  1.00  0.00     0.000 A 
ENDBRANCH  57  70
ENDBRANCH  31  32
ENDBRANCH  23  26
ENDBRANCH  21  22
ENDBRANCH   1  21
TORSDOF 11
ENDMDL
