MODEL 1
REMARK VINA RESULT:     -11.9      0.000      0.000
REMARK SMILES CC1=Nc2c(c(C)nn2-c2ccc(F)cc2)[C@H](c2ccc(C(=O)NCCCCNC(=O)c3ccc(-c4c5nc(c(-c6ccccc6)c6ccc([nH]6)c(-c6ccccc6)c6nc(c(-c7ccccc7)c7ccc4[nH]7)C=C6)C=C5)cc3)cc2)S1
REMARK SMILES IDX 26 1 25 2 24 3 22 4 23 5 21 7 18 8 19 9 81 10 20 11 80 12
REMARK SMILES IDX 17 13 1 14 2 15 3 16 82 17 4 18 5 19 9 20 6 21 8 22 7 23
REMARK SMILES IDX 10 24 11 25 16 26 12 27 15 28 13 29 14 30 27 31 28 32 29 33
REMARK SMILES IDX 30 34 31 36 32 37 33 38 79 39 34 40 78 41 35 42 36 43 37 44
REMARK SMILES IDX 72 45 38 46 77 47 71 48 73 49 39 50 76 51 70 52 69 53 40 55
REMARK SMILES IDX 62 56 47 57 61 58 48 59 51 60 60 61 74 62 49 63 50 64 59 66
REMARK SMILES IDX 75 67 52 68 41 69 42 70 46 71 43 72 45 73 44 74 63 75 64 76
REMARK SMILES IDX 68 77 65 78 67 79 66 80 53 81 54 82 58 83 55 84 57 85 56 86
REMARK H PARENT 24 6 29 35 73 54 51 65
REMARK Flexibility Score: inf
ROOT
ATOM      1  C   UNL A   1      45.836  28.160  27.299  1.00  0.00     0.023 C 
ENDROOT
BRANCH   1   2
ATOM      2  C   UNL A   1      45.049  27.829  26.027  1.00  0.00     0.116 C 
BRANCH   2   3
ATOM      3  N   UNL A   1      45.707  26.797  25.251  1.00  0.00    -0.352 N 
ATOM      4  C   UNL A   1      45.517  25.441  25.170  1.00  0.00     0.251 C 
ATOM      5  O   UNL A   1      46.206  24.818  24.361  1.00  0.00    -0.269 OA
ATOM      6  H   UNL A   1      46.428  27.133  24.671  1.00  0.00     0.163 HD
BRANCH   4   7
ATOM      7  C   UNL A   1      44.491  24.707  25.960  1.00  0.00     0.039 A 
ATOM      8  C   UNL A   1      42.409  23.334  27.317  1.00  0.00    -0.030 A 
ATOM      9  C   UNL A   1      42.167  23.998  26.103  1.00  0.00     0.006 A 
ATOM     10  C   UNL A   1      43.718  23.356  27.825  1.00  0.00     0.006 A 
ATOM     11  C   UNL A   1      43.195  24.663  25.429  1.00  0.00     0.014 A 
ATOM     12  C   UNL A   1      44.747  24.023  27.148  1.00  0.00     0.014 A 
BRANCH   8  13
ATOM     13  C   UNL A   1      41.278  22.559  27.979  1.00  0.00     0.119 C 
ATOM     14  C   UNL A   1      40.688  19.148  25.677  1.00  0.00     0.075 C 
ATOM     15  C   UNL A   1      40.399  20.431  26.412  1.00  0.00     0.074 C 
ATOM     16  N   UNL A   1      39.451  21.180  25.947  1.00  0.00    -0.227 NA
ATOM     17  S   UNL A   1      41.425  20.750  27.803  1.00  0.00    -0.098 SA
ATOM     18  C   UNL A   1      39.240  22.389  26.518  1.00  0.00     0.161 A 
ATOM     19  C   UNL A   1      40.027  23.096  27.395  1.00  0.00     0.038 A 
ATOM     20  N   UNL A   1      38.182  23.220  26.186  1.00  0.00    -0.215 N 
ATOM     21  C   UNL A   1      39.384  24.357  27.526  1.00  0.00     0.067 A 
ATOM     22  N   UNL A   1      38.328  24.462  26.708  1.00  0.00    -0.171 NA
ATOM     23  C   UNL A   1      39.769  25.511  28.378  1.00  0.00     0.069 C 
BRANCH  20  24
ATOM     24  C   UNL A   1      37.058  22.876  25.403  1.00  0.00     0.067 A 
ATOM     25  C   UNL A   1      36.994  23.301  24.067  1.00  0.00     0.031 A 
ATOM     26  C   UNL A   1      36.008  22.149  25.976  1.00  0.00     0.031 A 
ATOM     27  C   UNL A   1      35.866  23.012  23.305  1.00  0.00     0.041 A 
ATOM     28  C   UNL A   1      34.859  21.912  25.219  1.00  0.00     0.041 A 
ATOM     29  C   UNL A   1      34.801  22.341  23.895  1.00  0.00     0.123 A 
ATOM     30  F   UNL A   1      33.695  22.108  23.175  1.00  0.00    -0.207 F 
ENDBRANCH  20  24
ENDBRANCH   8  13
ENDBRANCH   4   7
ENDBRANCH   2   3
ENDBRANCH   1   2
BRANCH   1  31
ATOM     31  C   UNL A   1      46.758  27.045  27.815  1.00  0.00     0.023 C 
BRANCH  31  32
ATOM     32  C   UNL A   1      46.787  26.881  29.330  1.00  0.00     0.116 C 
BRANCH  32  33
ATOM     33  N   UNL A   1      46.201  25.618  29.782  1.00  0.00    -0.352 N 
ATOM     34  C   UNL A   1      45.081  25.424  30.573  1.00  0.00     0.251 C 
ATOM     35  H   UNL A   1      46.663  24.801  29.483  1.00  0.00     0.163 HD
ATOM     36  O   UNL A   1      44.911  24.389  31.193  1.00  0.00    -0.269 OA
BRANCH  34  37
ATOM     37  C   UNL A   1      44.074  26.498  30.626  1.00  0.00     0.039 A 
ATOM     38  C   UNL A   1      43.956  27.350  31.726  1.00  0.00     0.014 A 
ATOM     39  C   UNL A   1      43.265  26.658  29.507  1.00  0.00     0.014 A 
ATOM     40  C   UNL A   1      43.069  28.421  31.647  1.00  0.00     0.010 A 
ATOM     41  C   UNL A   1      42.527  27.801  29.362  1.00  0.00     0.010 A 
ATOM     42  C   UNL A   1      42.371  28.651  30.451  1.00  0.00    -0.014 A 
BRANCH  42  43
ATOM     43  C   UNL A   1      41.544  29.837  30.266  1.00  0.00     0.031 A 
ATOM     44  C   UNL A   1      42.296  31.068  29.912  1.00  0.00     0.074 A 
ATOM     45  C   UNL A   1      40.197  29.779  30.181  1.00  0.00     0.049 A 
ATOM     46  N   UNL A   1      42.478  32.116  30.642  1.00  0.00    -0.248 NA
ATOM     47  C   UNL A   1      43.049  31.084  28.646  1.00  0.00     0.031 C 
ATOM     48  C   UNL A   1      39.340  28.583  30.174  1.00  0.00     0.029 A 
ATOM     49  N   UNL A   1      39.307  30.782  29.958  1.00  0.00    -0.354 N 
ATOM     50  C   UNL A   1      43.186  33.016  29.851  1.00  0.00     0.074 A 
ATOM     51  C   UNL A   1      43.670  32.263  28.722  1.00  0.00     0.031 C 
ATOM     52  C   UNL A   1      38.109  28.908  29.721  1.00  0.00     0.029 A 
ATOM     53  C   UNL A   1      38.035  30.350  29.598  1.00  0.00     0.049 A 
ATOM     54  H   UNL A   1      39.543  31.733  30.043  1.00  0.00     0.167 HD
ATOM     55  C   UNL A   1      43.080  34.360  30.047  1.00  0.00     0.031 A 
ATOM     56  C   UNL A   1      36.989  31.124  29.221  1.00  0.00     0.031 A 
ATOM     57  C   UNL A   1      42.434  34.657  31.300  1.00  0.00     0.049 A 
ATOM     58  C   UNL A   1      37.261  32.491  29.709  1.00  0.00     0.074 A 
ATOM     59  C   UNL A   1      42.715  34.448  32.633  1.00  0.00     0.029 A 
ATOM     60  N   UNL A   1      41.088  34.918  31.221  1.00  0.00    -0.354 N 
ATOM     61  N   UNL A   1      37.306  32.803  30.972  1.00  0.00    -0.248 NA
ATOM     62  C   UNL A   1      37.895  33.439  28.809  1.00  0.00     0.031 C 
ATOM     63  C   UNL A   1      41.451  34.182  33.241  1.00  0.00     0.029 A 
ATOM     64  C   UNL A   1      40.455  34.308  32.270  1.00  0.00     0.049 A 
ATOM     65  H   UNL A   1      40.649  35.456  30.523  1.00  0.00     0.167 HD
ATOM     66  C   UNL A   1      38.341  33.720  31.069  1.00  0.00     0.074 A 
ATOM     67  C   UNL A   1      38.562  34.179  29.699  1.00  0.00     0.031 C 
ATOM     68  C   UNL A   1      39.101  33.796  32.202  1.00  0.00     0.031 A 
BRANCH  55  69
ATOM     69  C   UNL A   1      43.109  35.379  28.928  1.00  0.00    -0.014 A 
ATOM     70  C   UNL A   1      44.182  36.292  28.880  1.00  0.00     0.009 A 
ATOM     71  C   UNL A   1      41.999  35.675  28.114  1.00  0.00     0.009 A 
ATOM     72  C   UNL A   1      44.108  37.471  28.129  1.00  0.00     0.001 A 
ATOM     73  C   UNL A   1      41.939  36.832  27.330  1.00  0.00     0.001 A 
ATOM     74  C   UNL A   1      42.981  37.745  27.361  1.00  0.00     0.000 A 
ENDBRANCH  55  69
BRANCH  56  75
ATOM     75  C   UNL A   1      35.894  30.825  28.279  1.00  0.00    -0.014 A 
ATOM     76  C   UNL A   1      35.827  29.592  27.613  1.00  0.00     0.009 A 
ATOM     77  C   UNL A   1      34.756  31.651  28.252  1.00  0.00     0.009 A 
ATOM     78  C   UNL A   1      34.648  29.183  26.976  1.00  0.00     0.001 A 
ATOM     79  C   UNL A   1      33.577  31.240  27.619  1.00  0.00     0.001 A 
ATOM     80  C   UNL A   1      33.519  29.999  26.994  1.00  0.00     0.000 A 
ENDBRANCH  56  75
BRANCH  68  81
ATOM     81  C   UNL A   1      38.586  33.093  33.436  1.00  0.00    -0.014 A 
ATOM     82  C   UNL A   1      38.853  31.744  33.731  1.00  0.00     0.009 A 
ATOM     83  C   UNL A   1      37.913  33.862  34.396  1.00  0.00     0.009 A 
ATOM     84  C   UNL A   1      38.433  31.179  34.941  1.00  0.00     0.001 A 
ATOM     85  C   UNL A   1      37.514  33.305  35.612  1.00  0.00     0.001 A 
ATOM     86  C   UNL A   1      37.769  31.962  35.883  1.00  0.00     0.000 A 
ENDBRANCH  68  81
ENDBRANCH  42  43
ENDBRANCH  34  37
ENDBRANCH  32  33
ENDBRANCH  31  32
ENDBRANCH   1  31
TORSDOF 13
ENDMDL
MODEL 2
REMARK VINA RESULT:     -11.8      3.985      9.367
REMARK SMILES CC1=Nc2c(c(C)nn2-c2ccc(F)cc2)[C@H](c2ccc(C(=O)NCCCCNC(=O)c3ccc(-c4c5nc(c(-c6ccccc6)c6ccc([nH]6)c(-c6ccccc6)c6nc(c(-c7ccccc7)c7ccc4[nH]7)C=C6)C=C5)cc3)cc2)S1
REMARK SMILES IDX 26 1 25 2 24 3 22 4 23 5 21 7 18 8 19 9 81 10 20 11 80 12
REMARK SMILES IDX 17 13 1 14 2 15 3 16 82 17 4 18 5 19 9 20 6 21 8 22 7 23
REMARK SMILES IDX 10 24 11 25 16 26 12 27 15 28 13 29 14 30 27 31 28 32 29 33
REMARK SMILES IDX 30 34 31 36 32 37 33 38 79 39 34 40 78 41 35 42 36 43 37 44
REMARK SMILES IDX 72 45 38 46 77 47 71 48 73 49 39 50 76 51 70 52 69 53 40 55
REMARK SMILES IDX 62 56 47 57 61 58 48 59 51 60 60 61 74 62 49 63 50 64 59 66
REMARK SMILES IDX 75 67 52 68 41 69 42 70 46 71 43 72 45 73 44 74 63 75 64 76
REMARK SMILES IDX 68 77 65 78 67 79 66 80 53 81 54 82 58 83 55 84 57 85 56 86
REMARK H PARENT 24 6 29 35 73 54 51 65
REMARK Flexibility Score: inf
ROOT
ATOM      1  C   UNL A   1      35.936  31.302  27.807  1.00  0.00     0.023 C 
ENDROOT
BRANCH   1   2
ATOM      2  C   UNL A   1      34.663  30.453  27.723  1.00  0.00     0.116 C 
BRANCH   2   3
ATOM      3  N   UNL A   1      33.497  31.271  27.454  1.00  0.00    -0.352 N 
ATOM      4  C   UNL A   1      32.310  31.005  26.820  1.00  0.00     0.251 C 
ATOM      5  O   UNL A   1      31.467  31.903  26.794  1.00  0.00    -0.269 OA
ATOM      6  H   UNL A   1      33.572  32.194  27.789  1.00  0.00     0.163 HD
BRANCH   4   7
ATOM      7  C   UNL A   1      31.976  29.683  26.225  1.00  0.00     0.039 A 
ATOM      8  C   UNL A   1      31.346  27.245  24.912  1.00  0.00    -0.030 A 
ATOM      9  C   UNL A   1      31.407  28.455  24.201  1.00  0.00     0.006 A 
ATOM     10  C   UNL A   1      31.625  27.280  26.288  1.00  0.00     0.006 A 
ATOM     11  C   UNL A   1      31.730  29.653  24.846  1.00  0.00     0.014 A 
ATOM     12  C   UNL A   1      31.948  28.481  26.932  1.00  0.00     0.014 A 
BRANCH   8  13
ATOM     13  C   UNL A   1      31.064  25.953  24.157  1.00  0.00     0.119 C 
ATOM     14  C   UNL A   1      30.396  23.033  27.039  1.00  0.00     0.075 C 
ATOM     15  C   UNL A   1      30.985  23.741  25.846  1.00  0.00     0.074 C 
ATOM     16  N   UNL A   1      32.224  23.494  25.562  1.00  0.00    -0.227 NA
ATOM     17  S   UNL A   1      29.899  24.843  25.012  1.00  0.00    -0.098 SA
ATOM     18  C   UNL A   1      32.813  24.195  24.565  1.00  0.00     0.161 A 
ATOM     19  C   UNL A   1      32.386  25.330  23.918  1.00  0.00     0.038 A 
ATOM     20  N   UNL A   1      34.090  23.934  24.094  1.00  0.00    -0.215 N 
ATOM     21  C   UNL A   1      33.475  25.706  23.085  1.00  0.00     0.067 A 
ATOM     22  N   UNL A   1      34.541  24.918  23.279  1.00  0.00    -0.171 NA
ATOM     23  C   UNL A   1      33.564  26.838  22.129  1.00  0.00     0.069 C 
BRANCH  20  24
ATOM     24  C   UNL A   1      34.877  22.801  24.391  1.00  0.00     0.067 A 
ATOM     25  C   UNL A   1      36.276  22.905  24.351  1.00  0.00     0.031 A 
ATOM     26  C   UNL A   1      34.257  21.580  24.683  1.00  0.00     0.031 A 
ATOM     27  C   UNL A   1      37.058  21.778  24.589  1.00  0.00     0.041 A 
ATOM     28  C   UNL A   1      35.050  20.446  24.866  1.00  0.00     0.041 A 
ATOM     29  C   UNL A   1      36.438  20.556  24.821  1.00  0.00     0.123 A 
ATOM     30  F   UNL A   1      37.192  19.464  25.000  1.00  0.00    -0.207 F 
ENDBRANCH  20  24
ENDBRANCH   8  13
ENDBRANCH   4   7
ENDBRANCH   2   3
ENDBRANCH   1   2
BRANCH   1  31
ATOM     31  C   UNL A   1      35.712  32.815  27.946  1.00  0.00     0.023 C 
BRANCH  31  32
ATOM     32  C   UNL A   1      36.498  33.484  29.068  1.00  0.00     0.116 C 
BRANCH  32  33
ATOM     33  N   UNL A   1      35.777  33.499  30.342  1.00  0.00    -0.352 N 
ATOM     34  C   UNL A   1      35.710  32.505  31.304  1.00  0.00     0.251 C 
ATOM     35  H   UNL A   1      35.277  34.324  30.541  1.00  0.00     0.163 HD
ATOM     36  O   UNL A   1      34.801  32.464  32.115  1.00  0.00    -0.269 OA
BRANCH  34  37
ATOM     37  C   UNL A   1      36.789  31.503  31.343  1.00  0.00     0.039 A 
ATOM     38  C   UNL A   1      36.540  30.137  31.192  1.00  0.00     0.014 A 
ATOM     39  C   UNL A   1      38.086  31.981  31.496  1.00  0.00     0.014 A 
ATOM     40  C   UNL A   1      37.625  29.267  31.111  1.00  0.00     0.010 A 
ATOM     41  C   UNL A   1      39.147  31.155  31.243  1.00  0.00     0.010 A 
ATOM     42  C   UNL A   1      38.928  29.788  31.118  1.00  0.00    -0.014 A 
BRANCH  42  43
ATOM     43  C   UNL A   1      40.090  28.938  30.890  1.00  0.00     0.031 A 
ATOM     44  C   UNL A   1      40.893  28.647  32.104  1.00  0.00     0.074 A 
ATOM     45  C   UNL A   1      40.287  28.271  29.732  1.00  0.00     0.049 A 
ATOM     46  N   UNL A   1      42.080  29.068  32.383  1.00  0.00    -0.248 NA
ATOM     47  C   UNL A   1      40.250  27.908  33.205  1.00  0.00     0.031 C 
ATOM     48  C   UNL A   1      39.395  28.197  28.564  1.00  0.00     0.029 A 
ATOM     49  N   UNL A   1      41.283  27.408  29.397  1.00  0.00    -0.354 N 
ATOM     50  C   UNL A   1      42.424  28.475  33.594  1.00  0.00     0.074 A 
ATOM     51  C   UNL A   1      41.203  27.937  34.138  1.00  0.00     0.031 C 
ATOM     52  C   UNL A   1      39.766  27.168  27.771  1.00  0.00     0.029 A 
ATOM     53  C   UNL A   1      41.022  26.642  28.266  1.00  0.00     0.049 A 
ATOM     54  H   UNL A   1      42.119  27.332  29.911  1.00  0.00     0.167 HD
ATOM     55  C   UNL A   1      43.726  28.232  33.914  1.00  0.00     0.031 A 
ATOM     56  C   UNL A   1      41.785  25.640  27.768  1.00  0.00     0.031 A 
ATOM     57  C   UNL A   1      44.622  28.925  33.023  1.00  0.00     0.049 A 
ATOM     58  C   UNL A   1      43.144  25.810  28.322  1.00  0.00     0.074 A 
ATOM     59  C   UNL A   1      44.903  30.241  32.727  1.00  0.00     0.029 A 
ATOM     60  N   UNL A   1      45.107  28.177  31.978  1.00  0.00    -0.354 N 
ATOM     61  N   UNL A   1      43.912  26.820  28.033  1.00  0.00    -0.248 NA
ATOM     62  C   UNL A   1      43.503  25.078  29.525  1.00  0.00     0.031 C 
ATOM     63  C   UNL A   1      45.171  30.257  31.325  1.00  0.00     0.029 A 
ATOM     64  C   UNL A   1      45.108  28.946  30.846  1.00  0.00     0.049 A 
ATOM     65  H   UNL A   1      45.405  27.241  32.034  1.00  0.00     0.167 HD
ATOM     66  C   UNL A   1      44.553  27.125  29.224  1.00  0.00     0.074 A 
ATOM     67  C   UNL A   1      44.376  25.938  30.057  1.00  0.00     0.031 C 
ATOM     68  C   UNL A   1      44.908  28.413  29.514  1.00  0.00     0.031 A 
BRANCH  55  69
ATOM     69  C   UNL A   1      44.189  27.020  34.694  1.00  0.00    -0.014 A 
ATOM     70  C   UNL A   1      44.037  25.748  34.108  1.00  0.00     0.009 A 
ATOM     71  C   UNL A   1      44.479  27.044  36.071  1.00  0.00     0.009 A 
ATOM     72  C   UNL A   1      44.089  24.577  34.874  1.00  0.00     0.001 A 
ATOM     73  C   UNL A   1      44.573  25.875  36.832  1.00  0.00     0.001 A 
ATOM     74  C   UNL A   1      44.348  24.642  36.239  1.00  0.00     0.000 A 
ENDBRANCH  55  69
BRANCH  56  75
ATOM     75  C   UNL A   1      41.376  24.423  27.042  1.00  0.00    -0.014 A 
ATOM     76  C   UNL A   1      42.285  23.718  26.239  1.00  0.00     0.009 A 
ATOM     77  C   UNL A   1      40.160  23.794  27.369  1.00  0.00     0.009 A 
ATOM     78  C   UNL A   1      42.003  22.413  25.811  1.00  0.00     0.001 A 
ATOM     79  C   UNL A   1      39.882  22.491  26.944  1.00  0.00     0.001 A 
ATOM     80  C   UNL A   1      40.810  21.794  26.178  1.00  0.00     0.000 A 
ENDBRANCH  56  75
BRANCH  68  81
ATOM     81  C   UNL A   1      44.875  29.416  28.385  1.00  0.00    -0.014 A 
ATOM     82  C   UNL A   1      43.739  30.176  28.052  1.00  0.00     0.009 A 
ATOM     83  C   UNL A   1      46.077  29.695  27.719  1.00  0.00     0.009 A 
ATOM     84  C   UNL A   1      43.801  31.163  27.063  1.00  0.00     0.001 A 
ATOM     85  C   UNL A   1      46.146  30.695  26.748  1.00  0.00     0.001 A 
ATOM     86  C   UNL A   1      45.007  31.426  26.416  1.00  0.00     0.000 A 
ENDBRANCH  68  81
ENDBRANCH  42  43
ENDBRANCH  34  37
ENDBRANCH  32  33
ENDBRANCH  31  32
ENDBRANCH   1  31
TORSDOF 13
ENDMDL
MODEL 3
REMARK VINA RESULT:     -11.7      3.173      5.959
REMARK SMILES CC1=Nc2c(c(C)nn2-c2ccc(F)cc2)[C@H](c2ccc(C(=O)NCCCCNC(=O)c3ccc(-c4c5nc(c(-c6ccccc6)c6ccc([nH]6)c(-c6ccccc6)c6nc(c(-c7ccccc7)c7ccc4[nH]7)C=C6)C=C5)cc3)cc2)S1
REMARK SMILES IDX 26 1 25 2 24 3 22 4 23 5 21 7 18 8 19 9 81 10 20 11 80 12
REMARK SMILES IDX 17 13 1 14 2 15 3 16 82 17 4 18 5 19 9 20 6 21 8 22 7 23
REMARK SMILES IDX 10 24 11 25 16 26 12 27 15 28 13 29 14 30 27 31 28 32 29 33
REMARK SMILES IDX 30 34 31 36 32 37 33 38 79 39 34 40 78 41 35 42 36 43 37 44
REMARK SMILES IDX 72 45 38 46 77 47 71 48 73 49 39 50 76 51 70 52 69 53 40 55
REMARK SMILES IDX 62 56 47 57 61 58 48 59 51 60 60 61 74 62 49 63 50 64 59 66
REMARK SMILES IDX 75 67 52 68 41 69 42 70 46 71 43 72 45 73 44 74 63 75 64 76
REMARK SMILES IDX 68 77 65 78 67 79 66 80 53 81 54 82 58 83 55 84 57 85 56 86
REMARK H PARENT 24 6 29 35 73 54 51 65
REMARK Flexibility Score: inf
ROOT
ATOM      1  C   UNL A   1      40.033  23.233  27.585  1.00  0.00     0.023 C 
ENDROOT
BRANCH   1   2
ATOM      2  C   UNL A   1      39.068  23.100  26.403  1.00  0.00     0.116 C 
BRANCH   2   3
ATOM      3  N   UNL A   1      39.037  21.743  25.894  1.00  0.00    -0.352 N 
ATOM      4  C   UNL A   1      38.072  21.028  25.231  1.00  0.00     0.251 C 
ATOM      5  O   UNL A   1      38.361  19.888  24.866  1.00  0.00    -0.269 OA
ATOM      6  H   UNL A   1      39.867  21.239  26.055  1.00  0.00     0.163 HD
BRANCH   4   7
ATOM      7  C   UNL A   1      36.734  21.580  24.885  1.00  0.00     0.039 A 
ATOM      8  C   UNL A   1      34.101  22.480  24.321  1.00  0.00    -0.030 A 
ATOM      9  C   UNL A   1      34.326  21.228  24.916  1.00  0.00     0.006 A 
ATOM     10  C   UNL A   1      35.220  23.278  24.034  1.00  0.00     0.006 A 
ATOM     11  C   UNL A   1      35.621  20.791  25.206  1.00  0.00     0.014 A 
ATOM     12  C   UNL A   1      36.518  22.838  24.324  1.00  0.00     0.014 A 
BRANCH   8  13
ATOM     13  C   UNL A   1      32.670  22.948  24.092  1.00  0.00     0.119 C 
ATOM     14  C   UNL A   1      32.829  25.748  21.024  1.00  0.00     0.075 C 
ATOM     15  C   UNL A   1      32.538  25.130  22.367  1.00  0.00     0.074 C 
ATOM     16  N   UNL A   1      32.505  25.922  23.390  1.00  0.00    -0.227 NA
ATOM     17  S   UNL A   1      32.310  23.387  22.360  1.00  0.00    -0.098 SA
ATOM     18  C   UNL A   1      32.355  25.384  24.623  1.00  0.00     0.161 A 
ATOM     19  C   UNL A   1      32.461  24.076  25.029  1.00  0.00     0.038 A 
ATOM     20  N   UNL A   1      32.184  26.138  25.773  1.00  0.00    -0.215 N 
ATOM     21  C   UNL A   1      32.364  24.126  26.446  1.00  0.00     0.067 A 
ATOM     22  N   UNL A   1      32.306  25.387  26.895  1.00  0.00    -0.171 NA
ATOM     23  C   UNL A   1      32.377  23.003  27.418  1.00  0.00     0.069 C 
BRANCH  20  24
ATOM     24  C   UNL A   1      31.915  27.522  25.836  1.00  0.00     0.067 A 
ATOM     25  C   UNL A   1      31.273  28.149  24.757  1.00  0.00     0.031 A 
ATOM     26  C   UNL A   1      32.322  28.259  26.955  1.00  0.00     0.031 A 
ATOM     27  C   UNL A   1      31.053  29.523  24.789  1.00  0.00     0.041 A 
ATOM     28  C   UNL A   1      32.145  29.645  26.952  1.00  0.00     0.041 A 
ATOM     29  C   UNL A   1      31.510  30.260  25.875  1.00  0.00     0.123 A 
ATOM     30  F   UNL A   1      31.343  31.589  25.881  1.00  0.00    -0.207 F 
ENDBRANCH  20  24
ENDBRANCH   8  13
ENDBRANCH   4   7
ENDBRANCH   2   3
ENDBRANCH   1   2
BRANCH   1  31
ATOM     31  C   UNL A   1      40.996  22.054  27.788  1.00  0.00     0.023 C 
BRANCH  31  32
ATOM     32  C   UNL A   1      42.467  22.435  27.909  1.00  0.00     0.116 C 
BRANCH  32  33
ATOM     33  N   UNL A   1      43.160  22.463  26.620  1.00  0.00    -0.352 N 
ATOM     34  C   UNL A   1      43.203  23.486  25.688  1.00  0.00     0.251 C 
ATOM     35  H   UNL A   1      43.663  21.648  26.387  1.00  0.00     0.163 HD
ATOM     36  O   UNL A   1      43.471  23.272  24.519  1.00  0.00    -0.269 OA
BRANCH  34  37
ATOM     37  C   UNL A   1      42.939  24.859  26.153  1.00  0.00     0.039 A 
ATOM     38  C   UNL A   1      41.952  25.661  25.576  1.00  0.00     0.014 A 
ATOM     39  C   UNL A   1      43.693  25.315  27.228  1.00  0.00     0.014 A 
ATOM     40  C   UNL A   1      41.676  26.898  26.155  1.00  0.00     0.010 A 
ATOM     41  C   UNL A   1      43.307  26.444  27.897  1.00  0.00     0.010 A 
ATOM     42  C   UNL A   1      42.347  27.273  27.330  1.00  0.00    -0.014 A 
BRANCH  42  43
ATOM     43  C   UNL A   1      41.992  28.487  28.055  1.00  0.00     0.031 A 
ATOM     44  C   UNL A   1      42.959  29.605  27.903  1.00  0.00     0.074 A 
ATOM     45  C   UNL A   1      40.777  28.671  28.616  1.00  0.00     0.049 A 
ATOM     46  N   UNL A   1      43.749  30.089  28.799  1.00  0.00    -0.248 NA
ATOM     47  C   UNL A   1      43.169  30.165  26.556  1.00  0.00     0.031 C 
ATOM     48  C   UNL A   1      39.605  27.785  28.551  1.00  0.00     0.029 A 
ATOM     49  N   UNL A   1      40.289  29.760  29.269  1.00  0.00    -0.354 N 
ATOM     50  C   UNL A   1      44.406  31.158  28.196  1.00  0.00     0.074 A 
ATOM     51  C   UNL A   1      44.155  31.035  26.782  1.00  0.00     0.031 C 
ATOM     52  C   UNL A   1      38.498  28.466  28.921  1.00  0.00     0.029 A 
ATOM     53  C   UNL A   1      38.908  29.759  29.431  1.00  0.00     0.049 A 
ATOM     54  H   UNL A   1      40.864  30.487  29.598  1.00  0.00     0.167 HD
ATOM     55  C   UNL A   1      44.865  32.208  28.931  1.00  0.00     0.031 A 
ATOM     56  C   UNL A   1      38.149  30.754  29.948  1.00  0.00     0.031 A 
ATOM     57  C   UNL A   1      44.854  31.904  30.340  1.00  0.00     0.049 A 
ATOM     58  C   UNL A   1      39.045  31.620  30.738  1.00  0.00     0.074 A 
ATOM     59  C   UNL A   1      45.493  31.002  31.163  1.00  0.00     0.029 A 
ATOM     60  N   UNL A   1      43.757  32.355  31.032  1.00  0.00    -0.354 N 
ATOM     61  N   UNL A   1      39.642  31.228  31.827  1.00  0.00    -0.248 NA
ATOM     62  C   UNL A   1      39.617  32.796  30.104  1.00  0.00     0.031 C 
ATOM     63  C   UNL A   1      44.520  30.641  32.143  1.00  0.00     0.029 A 
ATOM     64  C   UNL A   1      43.361  31.388  31.915  1.00  0.00     0.049 A 
ATOM     65  H   UNL A   1      43.325  33.232  30.912  1.00  0.00     0.167 HD
ATOM     66  C   UNL A   1      40.900  31.807  31.765  1.00  0.00     0.074 A 
ATOM     67  C   UNL A   1      40.773  32.870  30.770  1.00  0.00     0.031 C 
ATOM     68  C   UNL A   1      41.984  31.180  32.314  1.00  0.00     0.031 A 
BRANCH  55  69
ATOM     69  C   UNL A   1      44.861  33.642  28.446  1.00  0.00    -0.014 A 
ATOM     70  C   UNL A   1      43.620  34.263  28.202  1.00  0.00     0.009 A 
ATOM     71  C   UNL A   1      45.999  34.296  27.938  1.00  0.00     0.009 A 
ATOM     72  C   UNL A   1      43.522  35.422  27.422  1.00  0.00     0.001 A 
ATOM     73  C   UNL A   1      45.909  35.476  27.194  1.00  0.00     0.001 A 
ATOM     74  C   UNL A   1      44.667  36.023  26.910  1.00  0.00     0.000 A 
ENDBRANCH  55  69
BRANCH  56  75
ATOM     75  C   UNL A   1      36.763  31.141  29.622  1.00  0.00    -0.014 A 
ATOM     76  C   UNL A   1      35.938  31.756  30.576  1.00  0.00     0.009 A 
ATOM     77  C   UNL A   1      36.345  31.162  28.278  1.00  0.00     0.009 A 
ATOM     78  C   UNL A   1      34.757  32.405  30.193  1.00  0.00     0.001 A 
ATOM     79  C   UNL A   1      35.167  31.813  27.896  1.00  0.00     0.001 A 
ATOM     80  C   UNL A   1      34.380  32.448  28.852  1.00  0.00     0.000 A 
ENDBRANCH  56  75
BRANCH  68  81
ATOM     81  C   UNL A   1      41.721  30.023  33.248  1.00  0.00    -0.014 A 
ATOM     82  C   UNL A   1      41.615  28.687  32.821  1.00  0.00     0.009 A 
ATOM     83  C   UNL A   1      41.709  30.282  34.626  1.00  0.00     0.009 A 
ATOM     84  C   UNL A   1      41.473  27.648  33.748  1.00  0.00     0.001 A 
ATOM     85  C   UNL A   1      41.590  29.244  35.552  1.00  0.00     0.001 A 
ATOM     86  C   UNL A   1      41.467  27.927  35.113  1.00  0.00     0.000 A 
ENDBRANCH  68  81
ENDBRANCH  42  43
ENDBRANCH  34  37
ENDBRANCH  32  33
ENDBRANCH  31  32
ENDBRANCH   1  31
TORSDOF 13
ENDMDL
