MODEL 1
REMARK VINA RESULT:     -13.5      0.000      0.000
REMARK SMILES CC(C)Oc1ccc(/C=C(\NC(=O)c2ccccc2)C(=O)NCCCCNC(=O)c2ccc(-c3c4nc(c(-c5ccccc5)c5ccc([nH]5)c(-c5ccccc5)c5nc(c(-c6ccccc6)c6ccc3[nH]6)C=C5)C=C4)cc2)cc1
REMARK SMILES IDX 24 1 23 2 22 3 20 4 21 5 10 7 9 8 8 9 5 10 6 11 79 12 7 13
REMARK SMILES IDX 78 14 4 15 2 16 1 17 3 18 11 19 12 20 13 22 14 23 15 24
REMARK SMILES IDX 19 25 16 26 18 27 17 28 25 29 26 30 27 31 28 32 29 34 30 35
REMARK SMILES IDX 31 36 77 37 32 38 76 39 33 40 34 41 35 42 70 43 36 44 75 45
REMARK SMILES IDX 69 46 71 47 37 48 74 49 68 50 67 51 38 53 60 54 45 55 59 56
REMARK SMILES IDX 46 57 49 58 58 59 72 60 47 61 48 62 57 64 73 65 50 66 39 67
REMARK SMILES IDX 40 68 44 69 41 70 43 71 42 72 61 73 62 74 66 75 63 76 65 77
REMARK SMILES IDX 64 78 51 79 52 80 56 81 53 82 55 83 54 84
REMARK H PARENT 22 6 11 21 27 33 71 52 49 63
REMARK Flexibility Score: inf
ROOT
ATOM      1  C   UNL A   1      33.312  28.246  26.128  1.00  0.00     0.023 C 
ENDROOT
BRANCH   1   2
ATOM      2  C   UNL A   1      32.416  26.407  26.130  1.00  0.00     0.116 C 
BRANCH   2   3
ATOM      3  N   UNL A   1      30.856  26.751  25.052  1.00  0.00    -0.351 N 
ATOM      4  C   UNL A   1      30.238  25.943  24.136  1.00  0.00     0.267 C 
ATOM      5  O   UNL A   1      29.140  26.210  23.687  1.00  0.00    -0.268 OA
ATOM      6  H   UNL A   1      30.444  27.635  25.180  1.00  0.00     0.163 HD
BRANCH   4   7
ATOM      7  C   UNL A   1      31.013  24.725  23.747  1.00  0.00     0.107 C 
ATOM      8  C   UNL A   1      31.093  23.720  24.639  1.00  0.00     0.040 C 
BRANCH   8   9
ATOM      9  C   UNL A   1      31.844  22.445  24.574  1.00  0.00    -0.023 A 
ATOM     10  C   UNL A   1      33.310  20.035  24.631  1.00  0.00     0.119 A 
ATOM     11  C   UNL A   1      32.660  20.430  23.467  1.00  0.00     0.047 A 
ATOM     12  C   UNL A   1      33.321  20.881  25.731  1.00  0.00     0.047 A 
ATOM     13  C   UNL A   1      31.947  21.635  23.433  1.00  0.00     0.012 A 
ATOM     14  C   UNL A   1      32.579  22.068  25.708  1.00  0.00     0.012 A 
BRANCH  10  15
ATOM     15  O   UNL A   1      33.981  18.849  24.602  1.00  0.00    -0.491 OA
BRANCH  15  16
ATOM     16  C   UNL A   1      33.231  17.676  24.231  1.00  0.00     0.167 C 
ATOM     17  C   UNL A   1      34.030  16.809  23.262  1.00  0.00     0.052 C 
ATOM     18  C   UNL A   1      32.629  16.860  25.377  1.00  0.00     0.052 C 
ENDBRANCH  15  16
ENDBRANCH  10  15
ENDBRANCH   8   9
BRANCH   7  19
ATOM     19  N   UNL A   1      31.580  24.668  22.508  1.00  0.00    -0.317 N 
ATOM     20  C   UNL A   1      32.901  24.811  22.139  1.00  0.00     0.255 C 
ATOM     21  H   UNL A   1      30.953  24.500  21.766  1.00  0.00     0.170 HD
ATOM     22  O   UNL A   1      33.159  24.728  20.947  1.00  0.00    -0.269 OA
BRANCH  20  23
ATOM     23  C   UNL A   1      34.241  24.561  23.569  1.00  0.00     0.040 A 
ATOM     24  C   UNL A   1      34.748  24.851  25.347  1.00  0.00     0.014 A 
ATOM     25  C   UNL A   1      35.322  23.099  23.099  1.00  0.00     0.014 A 
ATOM     26  C   UNL A   1      35.739  24.074  26.002  1.00  0.00     0.001 A 
ATOM     27  C   UNL A   1      36.229  22.492  23.998  1.00  0.00     0.001 A 
ATOM     28  C   UNL A   1      36.396  22.971  25.350  1.00  0.00     0.000 A 
ENDBRANCH  20  23
ENDBRANCH   7  19
ENDBRANCH   4   7
ENDBRANCH   2   3
ENDBRANCH   1   2
BRANCH   1  29
ATOM     29  C   UNL A   1      33.878  28.940  27.428  1.00  0.00     0.023 C 
BRANCH  29  30
ATOM     30  C   UNL A   1      34.404  30.391  27.290  1.00  0.00     0.116 C 
BRANCH  30  31
ATOM     31  N   UNL A   1      34.455  31.114  28.549  1.00  0.00    -0.352 N 
ATOM     32  C   UNL A   1      35.405  31.110  29.540  1.00  0.00     0.251 C 
ATOM     33  H   UNL A   1      33.684  31.702  28.719  1.00  0.00     0.163 HD
ATOM     34  O   UNL A   1      35.192  31.687  30.601  1.00  0.00    -0.269 OA
BRANCH  32  35
ATOM     35  C   UNL A   1      36.668  30.364  29.372  1.00  0.00     0.039 A 
ATOM     36  C   UNL A   1      37.275  30.385  28.113  1.00  0.00     0.014 A 
ATOM     37  C   UNL A   1      37.230  29.616  30.410  1.00  0.00     0.014 A 
ATOM     38  C   UNL A   1      38.489  29.725  27.916  1.00  0.00     0.010 A 
ATOM     39  C   UNL A   1      38.461  28.978  30.221  1.00  0.00     0.010 A 
ATOM     40  C   UNL A   1      39.110  29.048  28.979  1.00  0.00    -0.014 A 
BRANCH  40  41
ATOM     41  C   UNL A   1      40.484  28.520  28.806  1.00  0.00     0.031 A 
ATOM     42  C   UNL A   1      40.746  27.098  28.414  1.00  0.00     0.074 A 
ATOM     43  C   UNL A   1      41.520  29.356  29.013  1.00  0.00     0.049 A 
ATOM     44  N   UNL A   1      41.889  26.523  28.134  1.00  0.00    -0.248 NA
ATOM     45  C   UNL A   1      39.584  26.201  28.341  1.00  0.00     0.031 C 
ATOM     46  C   UNL A   1      41.408  30.752  29.443  1.00  0.00     0.029 A 
ATOM     47  N   UNL A   1      42.871  29.156  28.876  1.00  0.00    -0.354 N 
ATOM     48  C   UNL A   1      41.590  25.197  27.856  1.00  0.00     0.074 A 
ATOM     49  C   UNL A   1      40.158  25.047  28.021  1.00  0.00     0.031 C 
ATOM     50  C   UNL A   1      42.635  31.292  29.501  1.00  0.00     0.029 A 
ATOM     51  C   UNL A   1      43.617  30.282  29.119  1.00  0.00     0.049 A 
ATOM     52  H   UNL A   1      43.266  28.289  28.629  1.00  0.00     0.167 HD
ATOM     53  C   UNL A   1      42.429  24.199  27.487  1.00  0.00     0.031 A 
ATOM     54  C   UNL A   1      44.942  30.491  29.022  1.00  0.00     0.031 A 
ATOM     55  C   UNL A   1      43.849  24.342  27.301  1.00  0.00     0.049 A 
ATOM     56  C   UNL A   1      45.841  29.382  28.572  1.00  0.00     0.074 A 
ATOM     57  C   UNL A   1      44.761  23.398  26.858  1.00  0.00     0.029 A 
ATOM     58  N   UNL A   1      44.565  25.500  27.552  1.00  0.00    -0.354 N 
ATOM     59  N   UNL A   1      45.530  28.154  28.238  1.00  0.00    -0.248 NA
ATOM     60  C   UNL A   1      47.275  29.695  28.471  1.00  0.00     0.031 C 
ATOM     61  C   UNL A   1      46.034  23.980  26.861  1.00  0.00     0.029 A 
ATOM     62  C   UNL A   1      45.909  25.291  27.288  1.00  0.00     0.049 A 
ATOM     63  H   UNL A   1      44.177  26.347  27.871  1.00  0.00     0.167 HD
ATOM     64  C   UNL A   1      46.725  27.551  27.872  1.00  0.00     0.074 A 
ATOM     65  C   UNL A   1      47.767  28.548  28.022  1.00  0.00     0.031 C 
ATOM     66  C   UNL A   1      46.936  26.284  27.446  1.00  0.00     0.031 A 
BRANCH  53  67
ATOM     67  C   UNL A   1      41.827  22.846  27.256  1.00  0.00    -0.014 A 
ATOM     68  C   UNL A   1      41.098  22.576  26.089  1.00  0.00     0.009 A 
ATOM     69  C   UNL A   1      42.042  21.818  28.185  1.00  0.00     0.009 A 
ATOM     70  C   UNL A   1      40.577  21.300  25.865  1.00  0.00     0.001 A 
ATOM     71  C   UNL A   1      41.529  20.540  27.952  1.00  0.00     0.001 A 
ATOM     72  C   UNL A   1      40.795  20.284  26.795  1.00  0.00     0.000 A 
ENDBRANCH  53  67
BRANCH  54  73
ATOM     73  C   UNL A   1      45.491  31.834  29.314  1.00  0.00    -0.014 A 
ATOM     74  C   UNL A   1      45.927  32.148  30.610  1.00  0.00     0.009 A 
ATOM     75  C   UNL A   1      45.599  32.795  28.300  1.00  0.00     0.009 A 
ATOM     76  C   UNL A   1      46.452  33.410  30.889  1.00  0.00     0.001 A 
ATOM     77  C   UNL A   1      46.135  34.053  28.580  1.00  0.00     0.001 A 
ATOM     78  C   UNL A   1      46.558  34.361  29.873  1.00  0.00     0.000 A 
ENDBRANCH  54  73
BRANCH  66  79
ATOM     79  C   UNL A   1      48.345  25.913  27.100  1.00  0.00    -0.014 A 
ATOM     80  C   UNL A   1      49.147  25.214  28.014  1.00  0.00     0.009 A 
ATOM     81  C   UNL A   1      48.872  26.256  25.846  1.00  0.00     0.009 A 
ATOM     82  C   UNL A   1      50.464  24.885  27.686  1.00  0.00     0.001 A 
ATOM     83  C   UNL A   1      50.183  25.916  25.517  1.00  0.00     0.001 A 
ATOM     84  C   UNL A   1      50.980  25.236  26.438  1.00  0.00     0.000 A 
ENDBRANCH  66  79
ENDBRANCH  40  41
ENDBRANCH  32  35
ENDBRANCH  30  31
ENDBRANCH  29  30
ENDBRANCH   1  29
TORSDOF 16
ENDMDL
MODEL 2
REMARK VINA RESULT:     -13.3      3.629      5.266
REMARK SMILES CC(C)Oc1ccc(/C=C(\NC(=O)c2ccccc2)C(=O)NCCCCNC(=O)c2ccc(-c3c4nc(c(-c5ccccc5)c5ccc([nH]5)c(-c5ccccc5)c5nc(c(-c6ccccc6)c6ccc3[nH]6)C=C5)C=C4)cc2)cc1
REMARK SMILES IDX 24 1 23 2 22 3 20 4 21 5 10 7 9 8 8 9 5 10 6 11 79 12 7 13
REMARK SMILES IDX 78 14 4 15 2 16 1 17 3 18 11 19 12 20 13 22 14 23 15 24
REMARK SMILES IDX 19 25 16 26 18 27 17 28 25 29 26 30 27 31 28 32 29 34 30 35
REMARK SMILES IDX 31 36 77 37 32 38 76 39 33 40 34 41 35 42 70 43 36 44 75 45
REMARK SMILES IDX 69 46 71 47 37 48 74 49 68 50 67 51 38 53 60 54 45 55 59 56
REMARK SMILES IDX 46 57 49 58 58 59 72 60 47 61 48 62 57 64 73 65 50 66 39 67
REMARK SMILES IDX 40 68 44 69 41 70 43 71 42 72 61 73 62 74 66 75 63 76 65 77
REMARK SMILES IDX 64 78 51 79 52 80 56 81 53 82 55 83 54 84
REMARK H PARENT 22 6 11 21 27 33 71 52 49 63
REMARK Flexibility Score: inf
ROOT
ATOM      1  C   UNL A   1      31.764  29.837  26.159  1.00  0.00     0.023 C 
ENDROOT
BRANCH   1   2
ATOM      2  C   UNL A   1      32.650  29.229  24.418  1.00  0.00     0.116 C 
BRANCH   2   3
ATOM      3  N   UNL A   1      31.274  29.646  23.134  1.00  0.00    -0.351 N 
ATOM      4  C   UNL A   1      30.429  28.804  22.463  1.00  0.00     0.267 C 
ATOM      5  O   UNL A   1      29.470  29.222  21.843  1.00  0.00    -0.268 OA
ATOM      6  H   UNL A   1      31.164  30.602  22.932  1.00  0.00     0.163 HD
BRANCH   4   7
ATOM      7  C   UNL A   1      30.776  27.352  22.562  1.00  0.00     0.107 C 
ATOM      8  C   UNL A   1      30.374  26.684  23.659  1.00  0.00     0.040 C 
BRANCH   8   9
ATOM      9  C   UNL A   1      30.635  25.286  24.072  1.00  0.00    -0.023 A 
ATOM     10  C   UNL A   1      31.119  22.678  25.034  1.00  0.00     0.119 A 
ATOM     11  C   UNL A   1      30.983  22.905  23.668  1.00  0.00     0.047 A 
ATOM     12  C   UNL A   1      31.119  23.753  25.911  1.00  0.00     0.047 A 
ATOM     13  C   UNL A   1      30.761  24.202  23.189  1.00  0.00     0.012 A 
ATOM     14  C   UNL A   1      30.861  25.044  25.435  1.00  0.00     0.012 A 
BRANCH  10  15
ATOM     15  O   UNL A   1      31.327  21.393  25.437  1.00  0.00    -0.491 OA
BRANCH  15  16
ATOM     16  C   UNL A   1      32.559  20.765  25.028  1.00  0.00     0.167 C 
ATOM     17  C   UNL A   1      33.559  20.738  26.180  1.00  0.00     0.052 C 
ATOM     18  C   UNL A   1      32.433  19.405  24.336  1.00  0.00     0.052 C 
ENDBRANCH  15  16
ENDBRANCH  10  15
ENDBRANCH   8   9
BRANCH   7  19
ATOM     19  N   UNL A   1      31.456  26.763  21.538  1.00  0.00    -0.317 N 
ATOM     20  C   UNL A   1      32.765  26.332  21.485  1.00  0.00     0.255 C 
ATOM     21  H   UNL A   1      30.935  26.624  20.713  1.00  0.00     0.170 HD
ATOM     22  O   UNL A   1      33.148  25.839  20.434  1.00  0.00    -0.269 OA
BRANCH  20  23
ATOM     23  C   UNL A   1      33.661  26.041  23.221  1.00  0.00     0.040 A 
ATOM     24  C   UNL A   1      33.868  26.541  25.012  1.00  0.00     0.014 A 
ATOM     25  C   UNL A   1      34.338  24.289  23.235  1.00  0.00     0.014 A 
ATOM     26  C   UNL A   1      34.438  25.685  25.990  1.00  0.00     0.001 A 
ATOM     27  C   UNL A   1      34.831  23.664  24.403  1.00  0.00     0.001 A 
ATOM     28  C   UNL A   1      34.859  24.344  25.677  1.00  0.00     0.000 A 
ENDBRANCH  20  23
ENDBRANCH   7  19
ENDBRANCH   4   7
ENDBRANCH   2   3
ENDBRANCH   1   2
BRANCH   1  29
ATOM     29  C   UNL A   1      31.573  31.353  26.556  1.00  0.00     0.023 C 
BRANCH  29  30
ATOM     30  C   UNL A   1      32.834  32.139  26.996  1.00  0.00     0.116 C 
BRANCH  30  31
ATOM     31  N   UNL A   1      32.549  33.483  27.466  1.00  0.00    -0.352 N 
ATOM     32  C   UNL A   1      33.213  34.268  28.376  1.00  0.00     0.251 C 
ATOM     33  H   UNL A   1      31.750  33.899  27.068  1.00  0.00     0.163 HD
ATOM     34  O   UNL A   1      32.725  35.330  28.746  1.00  0.00    -0.269 OA
BRANCH  32  35
ATOM     35  C   UNL A   1      34.489  33.821  28.968  1.00  0.00     0.039 A 
ATOM     36  C   UNL A   1      34.436  33.087  30.156  1.00  0.00     0.014 A 
ATOM     37  C   UNL A   1      35.724  34.150  28.401  1.00  0.00     0.014 A 
ATOM     38  C   UNL A   1      35.614  32.611  30.733  1.00  0.00     0.010 A 
ATOM     39  C   UNL A   1      36.903  33.649  28.963  1.00  0.00     0.010 A 
ATOM     40  C   UNL A   1      36.854  32.857  30.120  1.00  0.00    -0.014 A 
BRANCH  40  41
ATOM     41  C   UNL A   1      38.070  32.184  30.636  1.00  0.00     0.031 A 
ATOM     42  C   UNL A   1      38.585  30.909  30.040  1.00  0.00     0.074 A 
ATOM     43  C   UNL A   1      38.721  32.745  31.673  1.00  0.00     0.049 A 
ATOM     44  N   UNL A   1      39.687  30.259  30.324  1.00  0.00    -0.248 NA
ATOM     45  C   UNL A   1      37.757  30.272  29.006  1.00  0.00     0.031 C 
ATOM     46  C   UNL A   1      38.301  33.960  32.376  1.00  0.00     0.029 A 
ATOM     47  N   UNL A   1      39.879  32.375  32.307  1.00  0.00    -0.354 N 
ATOM     48  C   UNL A   1      39.684  29.135  29.512  1.00  0.00     0.074 A 
ATOM     49  C   UNL A   1      38.461  29.179  28.736  1.00  0.00     0.031 C 
ATOM     50  C   UNL A   1      39.208  34.253  33.322  1.00  0.00     0.029 A 
ATOM     51  C   UNL A   1      40.265  33.247  33.294  1.00  0.00     0.049 A 
ATOM     52  H   UNL A   1      40.384  31.561  32.078  1.00  0.00     0.167 HD
ATOM     53  C   UNL A   1      40.620  28.159  29.413  1.00  0.00     0.031 A 
ATOM     54  C   UNL A   1      41.360  33.256  34.075  1.00  0.00     0.031 A 
ATOM     55  C   UNL A   1      41.848  28.115  30.163  1.00  0.00     0.049 A 
ATOM     56  C   UNL A   1      42.399  32.189  33.916  1.00  0.00     0.074 A 
ATOM     57  C   UNL A   1      42.884  27.200  30.070  1.00  0.00     0.029 A 
ATOM     58  N   UNL A   1      42.203  29.021  31.149  1.00  0.00    -0.354 N 
ATOM     59  N   UNL A   1      42.416  31.175  33.087  1.00  0.00    -0.248 NA
ATOM     60  C   UNL A   1      43.576  32.279  34.793  1.00  0.00     0.031 C 
ATOM     61  C   UNL A   1      43.859  27.542  31.016  1.00  0.00     0.029 A 
ATOM     62  C   UNL A   1      43.435  28.679  31.682  1.00  0.00     0.049 A 
ATOM     63  H   UNL A   1      41.661  29.794  31.429  1.00  0.00     0.167 HD
ATOM     64  C   UNL A   1      43.612  30.515  33.330  1.00  0.00     0.074 A 
ATOM     65  C   UNL A   1      44.294  31.243  34.380  1.00  0.00     0.031 C 
ATOM     66  C   UNL A   1      44.100  29.404  32.729  1.00  0.00     0.031 A 
BRANCH  53  67
ATOM     67  C   UNL A   1      40.352  27.045  28.446  1.00  0.00    -0.014 A 
ATOM     68  C   UNL A   1      39.587  25.934  28.828  1.00  0.00     0.009 A 
ATOM     69  C   UNL A   1      40.821  27.137  27.127  1.00  0.00     0.009 A 
ATOM     70  C   UNL A   1      39.310  24.922  27.908  1.00  0.00     0.001 A 
ATOM     71  C   UNL A   1      40.532  26.127  26.206  1.00  0.00     0.001 A 
ATOM     72  C   UNL A   1      39.780  25.020  26.598  1.00  0.00     0.000 A 
ENDBRANCH  53  67
BRANCH  54  73
ATOM     73  C   UNL A   1      41.549  34.352  35.052  1.00  0.00    -0.014 A 
ATOM     74  C   UNL A   1      42.239  35.515  34.678  1.00  0.00     0.009 A 
ATOM     75  C   UNL A   1      41.026  34.248  36.348  1.00  0.00     0.009 A 
ATOM     76  C   UNL A   1      42.413  36.553  35.593  1.00  0.00     0.001 A 
ATOM     77  C   UNL A   1      41.193  35.294  37.258  1.00  0.00     0.001 A 
ATOM     78  C   UNL A   1      41.889  36.443  36.881  1.00  0.00     0.000 A 
ENDBRANCH  54  73
BRANCH  66  79
ATOM     79  C   UNL A   1      45.442  28.922  33.189  1.00  0.00    -0.014 A 
ATOM     80  C   UNL A   1      45.551  27.992  34.233  1.00  0.00     0.009 A 
ATOM     81  C   UNL A   1      46.607  29.393  32.564  1.00  0.00     0.009 A 
ATOM     82  C   UNL A   1      46.807  27.560  34.662  1.00  0.00     0.001 A 
ATOM     83  C   UNL A   1      47.860  28.950  32.987  1.00  0.00     0.001 A 
ATOM     84  C   UNL A   1      47.960  28.039  34.039  1.00  0.00     0.000 A 
ENDBRANCH  66  79
ENDBRANCH  40  41
ENDBRANCH  32  35
ENDBRANCH  30  31
ENDBRANCH  29  30
ENDBRANCH   1  29
TORSDOF 16
ENDMDL
MODEL 3
REMARK VINA RESULT:     -13.2      3.698      7.659
REMARK SMILES CC(C)Oc1ccc(/C=C(\NC(=O)c2ccccc2)C(=O)NCCCCNC(=O)c2ccc(-c3c4nc(c(-c5ccccc5)c5ccc([nH]5)c(-c5ccccc5)c5nc(c(-c6ccccc6)c6ccc3[nH]6)C=C5)C=C4)cc2)cc1
REMARK SMILES IDX 24 1 23 2 22 3 20 4 21 5 10 7 9 8 8 9 5 10 6 11 79 12 7 13
REMARK SMILES IDX 78 14 4 15 2 16 1 17 3 18 11 19 12 20 13 22 14 23 15 24
REMARK SMILES IDX 19 25 16 26 18 27 17 28 25 29 26 30 27 31 28 32 29 34 30 35
REMARK SMILES IDX 31 36 77 37 32 38 76 39 33 40 34 41 35 42 70 43 36 44 75 45
REMARK SMILES IDX 69 46 71 47 37 48 74 49 68 50 67 51 38 53 60 54 45 55 59 56
REMARK SMILES IDX 46 57 49 58 58 59 72 60 47 61 48 62 57 64 73 65 50 66 39 67
REMARK SMILES IDX 40 68 44 69 41 70 43 71 42 72 61 73 62 74 66 75 63 76 65 77
REMARK SMILES IDX 64 78 51 79 52 80 56 81 53 82 55 83 54 84
REMARK H PARENT 22 6 11 21 27 33 71 52 49 63
REMARK Flexibility Score: inf
ROOT
ATOM      1  C   UNL A   1      31.807  29.678  26.194  1.00  0.00     0.023 C 
ENDROOT
BRANCH   1   2
ATOM      2  C   UNL A   1      33.255  29.353  24.787  1.00  0.00     0.116 C 
BRANCH   2   3
ATOM      3  N   UNL A   1      32.214  28.617  23.342  1.00  0.00    -0.351 N 
ATOM      4  C   UNL A   1      31.828  27.323  23.121  1.00  0.00     0.267 C 
ATOM      5  O   UNL A   1      30.995  27.039  22.282  1.00  0.00    -0.268 OA
ATOM      6  H   UNL A   1      31.917  29.266  22.665  1.00  0.00     0.163 HD
BRANCH   4   7
ATOM      7  C   UNL A   1      32.501  26.308  23.990  1.00  0.00     0.107 C 
ATOM      8  C   UNL A   1      33.628  25.736  23.528  1.00  0.00     0.040 C 
BRANCH   8   9
ATOM      9  C   UNL A   1      34.457  24.657  24.113  1.00  0.00    -0.023 A 
ATOM     10  C   UNL A   1      36.023  22.688  25.390  1.00  0.00     0.119 A 
ATOM     11  C   UNL A   1      35.656  22.532  24.058  1.00  0.00     0.047 A 
ATOM     12  C   UNL A   1      35.705  23.863  26.057  1.00  0.00     0.047 A 
ATOM     13  C   UNL A   1      34.894  23.518  23.418  1.00  0.00     0.012 A 
ATOM     14  C   UNL A   1      34.913  24.831  25.428  1.00  0.00     0.012 A 
BRANCH  10  15
ATOM     15  O   UNL A   1      36.760  21.691  25.957  1.00  0.00    -0.491 OA
BRANCH  15  16
ATOM     16  C   UNL A   1      37.914  21.227  25.228  1.00  0.00     0.167 C 
ATOM     17  C   UNL A   1      39.199  21.586  25.967  1.00  0.00     0.052 C 
ATOM     18  C   UNL A   1      37.892  19.764  24.777  1.00  0.00     0.052 C 
ENDBRANCH  15  16
ENDBRANCH  10  15
ENDBRANCH   8   9
BRANCH   7  19
ATOM     19  N   UNL A   1      31.967  26.024  25.212  1.00  0.00    -0.317 N 
ATOM     20  C   UNL A   1      31.229  24.931  25.615  1.00  0.00     0.255 C 
ATOM     21  H   UNL A   1      32.132  26.700  25.910  1.00  0.00     0.170 HD
ATOM     22  O   UNL A   1      30.849  24.912  26.777  1.00  0.00    -0.269 OA
BRANCH  20  23
ATOM     23  C   UNL A   1      31.363  23.318  24.482  1.00  0.00     0.040 A 
ATOM     24  C   UNL A   1      31.491  22.581  22.768  1.00  0.00     0.014 A 
ATOM     25  C   UNL A   1      32.011  21.915  25.549  1.00  0.00     0.014 A 
ATOM     26  C   UNL A   1      31.962  21.264  22.528  1.00  0.00     0.001 A 
ATOM     27  C   UNL A   1      32.452  20.682  25.014  1.00  0.00     0.001 A 
ATOM     28  C   UNL A   1      32.419  20.412  23.596  1.00  0.00     0.000 A 
ENDBRANCH  20  23
ENDBRANCH   7  19
ENDBRANCH   4   7
ENDBRANCH   2   3
ENDBRANCH   1   2
BRANCH   1  29
ATOM     29  C   UNL A   1      31.610  31.055  26.940  1.00  0.00     0.023 C 
BRANCH  29  30
ATOM     30  C   UNL A   1      32.774  32.075  26.871  1.00  0.00     0.116 C 
BRANCH  30  31
ATOM     31  N   UNL A   1      32.429  33.389  27.388  1.00  0.00    -0.352 N 
ATOM     32  C   UNL A   1      33.075  34.183  28.303  1.00  0.00     0.251 C 
ATOM     33  H   UNL A   1      31.598  33.770  27.024  1.00  0.00     0.163 HD
ATOM     34  O   UNL A   1      32.541  35.207  28.716  1.00  0.00    -0.269 OA
BRANCH  32  35
ATOM     35  C   UNL A   1      34.390  33.791  28.847  1.00  0.00     0.039 A 
ATOM     36  C   UNL A   1      34.409  33.024  30.015  1.00  0.00     0.014 A 
ATOM     37  C   UNL A   1      35.588  34.202  28.257  1.00  0.00     0.014 A 
ATOM     38  C   UNL A   1      35.628  32.598  30.547  1.00  0.00     0.010 A 
ATOM     39  C   UNL A   1      36.808  33.752  28.773  1.00  0.00     0.010 A 
ATOM     40  C   UNL A   1      36.835  32.928  29.908  1.00  0.00    -0.014 A 
BRANCH  40  41
ATOM     41  C   UNL A   1      38.100  32.309  30.372  1.00  0.00     0.031 A 
ATOM     42  C   UNL A   1      38.906  32.893  31.491  1.00  0.00     0.074 A 
ATOM     43  C   UNL A   1      38.526  31.189  29.757  1.00  0.00     0.049 A 
ATOM     44  N   UNL A   1      39.980  32.410  32.066  1.00  0.00    -0.248 NA
ATOM     45  C   UNL A   1      38.465  34.189  32.026  1.00  0.00     0.031 C 
ATOM     46  C   UNL A   1      37.862  30.541  28.624  1.00  0.00     0.029 A 
ATOM     47  N   UNL A   1      39.613  30.390  30.009  1.00  0.00    -0.354 N 
ATOM     48  C   UNL A   1      40.348  33.341  33.026  1.00  0.00     0.074 A 
ATOM     49  C   UNL A   1      39.396  34.430  32.943  1.00  0.00     0.031 C 
ATOM     50  C   UNL A   1      38.535  29.426  28.301  1.00  0.00     0.029 A 
ATOM     51  C   UNL A   1      39.678  29.284  29.199  1.00  0.00     0.049 A 
ATOM     52  H   UNL A   1      40.281  30.590  30.704  1.00  0.00     0.167 HD
ATOM     53  C   UNL A   1      41.380  33.290  33.903  1.00  0.00     0.031 A 
ATOM     54  C   UNL A   1      40.543  28.255  29.190  1.00  0.00     0.031 A 
ATOM     55  C   UNL A   1      42.321  32.205  34.007  1.00  0.00     0.049 A 
ATOM     56  C   UNL A   1      41.650  28.203  30.197  1.00  0.00     0.074 A 
ATOM     57  C   UNL A   1      43.352  32.041  34.918  1.00  0.00     0.029 A 
ATOM     58  N   UNL A   1      42.349  31.102  33.171  1.00  0.00    -0.354 N 
ATOM     59  N   UNL A   1      41.937  29.055  31.149  1.00  0.00    -0.248 NA
ATOM     60  C   UNL A   1      42.542  27.036  30.136  1.00  0.00     0.031 C 
ATOM     61  C   UNL A   1      44.018  30.846  34.618  1.00  0.00     0.029 A 
ATOM     62  C   UNL A   1      43.388  30.260  33.534  1.00  0.00     0.049 A 
ATOM     63  H   UNL A   1      41.723  30.939  32.429  1.00  0.00     0.167 HD
ATOM     64  C   UNL A   1      43.033  28.522  31.811  1.00  0.00     0.074 A 
ATOM     65  C   UNL A   1      43.358  27.270  31.156  1.00  0.00     0.031 C 
ATOM     66  C   UNL A   1      43.706  29.025  32.872  1.00  0.00     0.031 A 
BRANCH  53  67
ATOM     67  C   UNL A   1      41.550  34.453  34.833  1.00  0.00    -0.014 A 
ATOM     68  C   UNL A   1      42.361  35.541  34.479  1.00  0.00     0.009 A 
ATOM     69  C   UNL A   1      40.847  34.485  36.046  1.00  0.00     0.009 A 
ATOM     70  C   UNL A   1      42.480  36.637  35.336  1.00  0.00     0.001 A 
ATOM     71  C   UNL A   1      40.960  35.589  36.895  1.00  0.00     0.001 A 
ATOM     72  C   UNL A   1      41.778  36.661  36.541  1.00  0.00     0.000 A 
ENDBRANCH  53  67
BRANCH  54  73
ATOM     73  C   UNL A   1      40.361  27.158  28.213  1.00  0.00    -0.014 A 
ATOM     74  C   UNL A   1      40.961  27.237  26.948  1.00  0.00     0.009 A 
ATOM     75  C   UNL A   1      39.608  26.025  28.549  1.00  0.00     0.009 A 
ATOM     76  C   UNL A   1      40.799  26.201  26.027  1.00  0.00     0.001 A 
ATOM     77  C   UNL A   1      39.456  24.986  27.628  1.00  0.00     0.001 A 
ATOM     78  C   UNL A   1      40.048  25.076  26.369  1.00  0.00     0.000 A 
ENDBRANCH  54  73
BRANCH  66  79
ATOM     79  C   UNL A   1      44.851  28.212  33.394  1.00  0.00    -0.014 A 
ATOM     80  C   UNL A   1      44.640  27.210  34.353  1.00  0.00     0.009 A 
ATOM     81  C   UNL A   1      46.149  28.442  32.915  1.00  0.00     0.009 A 
ATOM     82  C   UNL A   1      45.717  26.467  34.842  1.00  0.00     0.001 A 
ATOM     83  C   UNL A   1      47.221  27.690  33.397  1.00  0.00     0.001 A 
ATOM     84  C   UNL A   1      47.005  26.708  34.364  1.00  0.00     0.000 A 
ENDBRANCH  66  79
ENDBRANCH  40  41
ENDBRANCH  32  35
ENDBRANCH  30  31
ENDBRANCH  29  30
ENDBRANCH   1  29
TORSDOF 16
ENDMDL
