MODEL 1
REMARK VINA RESULT:      -9.7      0.000      0.000
REMARK SMILES COCC[NH2+][C@]1(C(=O)NCCCCNC(=O)c2ccc(-c3c4nc(c(-c5ccccc5)c5ccc([nH]5)c(-c5ccccc5)c5nc(c(-c6ccccc6)c6ccc3[nH]6)C=C5)C=C4)cc2)CCCS[C@H]1C
REMARK SMILES IDX 10 1 9 2 7 3 8 4 6 6 65 7 69 8 66 9 68 10 70 11 67 12 5 13
REMARK SMILES IDX 4 16 3 17 2 18 1 19 11 20 12 21 13 22 14 23 15 24 16 26
REMARK SMILES IDX 17 27 18 28 64 29 19 30 63 31 20 32 21 33 22 34 57 35 23 36
REMARK SMILES IDX 62 37 56 38 58 39 24 40 61 41 55 42 54 43 25 45 47 46 32 47
REMARK SMILES IDX 46 48 33 49 36 50 45 51 59 52 34 53 35 54 44 56 60 57 37 58
REMARK SMILES IDX 26 59 27 60 31 61 28 62 30 63 29 64 48 65 49 66 53 67 50 68
REMARK SMILES IDX 52 69 51 70 38 71 39 72 43 73 40 74 42 75 41 76
REMARK H PARENT 9 5 5 14 5 15 14 25 58 44 36 55
REMARK Flexibility Score: inf
ROOT
ATOM      1  C   UNL A   1      32.655  29.710  25.224  1.00  0.00     0.116 C 
ENDROOT
BRANCH   1   2
ATOM      2  N   UNL A   1      33.177  28.370  25.386  1.00  0.00    -0.351 N 
ATOM      3  C   UNL A   1      32.789  27.142  24.950  1.00  0.00     0.282 C 
ATOM      4  O   UNL A   1      33.463  26.221  25.426  1.00  0.00    -0.268 OA
ATOM      5  H   UNL A   1      33.994  28.341  25.934  1.00  0.00     0.163 HD
BRANCH   3   6
ATOM      6  C   UNL A   1      31.685  26.882  23.847  1.00  0.00     0.187 C 
ATOM      7  C   UNL A   1      32.355  27.112  22.464  1.00  0.00     0.081 C 
ATOM      8  C   UNL A   1      31.135  25.409  23.966  1.00  0.00     0.115 C 
ATOM      9  C   UNL A   1      33.435  26.098  22.079  1.00  0.00     0.018 C 
ATOM     10  S   UNL A   1      32.262  24.035  23.488  1.00  0.00    -0.152 SA
ATOM     11  C   UNL A   1      30.570  25.072  25.357  1.00  0.00     0.027 C 
ATOM     12  C   UNL A   1      32.893  24.687  21.928  1.00  0.00     0.070 C 
BRANCH   6  13
ATOM     13  N   UNL A   1      30.481  27.740  24.078  1.00  0.00    -0.331 N 
ATOM     14  H   UNL A   1      29.854  27.214  24.686  1.00  0.00     0.347 HD
ATOM     15  H   UNL A   1      30.869  28.605  24.456  1.00  0.00     0.347 HD
BRANCH  13  16
ATOM     16  C   UNL A   1      29.690  28.187  22.932  1.00  0.00     0.290 C 
BRANCH  16  17
ATOM     17  C   UNL A   1      29.782  29.710  22.724  1.00  0.00     0.221 C 
BRANCH  17  18
ATOM     18  O   UNL A   1      29.525  30.068  21.362  1.00  0.00    -0.379 OA
ATOM     19  C   UNL A   1      28.196  30.541  21.170  1.00  0.00     0.195 C 
ENDBRANCH  17  18
ENDBRANCH  16  17
ENDBRANCH  13  16
ENDBRANCH   6  13
ENDBRANCH   3   6
ENDBRANCH   1   2
BRANCH   1  20
ATOM     20  C   UNL A   1      31.920  30.158  26.488  1.00  0.00     0.023 C 
BRANCH  20  21
ATOM     21  C   UNL A   1      31.695  31.666  26.588  1.00  0.00     0.023 C 
BRANCH  21  22
ATOM     22  C   UNL A   1      32.812  32.433  27.287  1.00  0.00     0.116 C 
BRANCH  22  23
ATOM     23  N   UNL A   1      32.460  33.801  27.642  1.00  0.00    -0.352 N 
ATOM     24  C   UNL A   1      33.106  34.660  28.501  1.00  0.00     0.251 C 
ATOM     25  H   UNL A   1      31.651  34.159  27.210  1.00  0.00     0.163 HD
ATOM     26  O   UNL A   1      32.643  35.762  28.753  1.00  0.00    -0.269 OA
BRANCH  24  27
ATOM     27  C   UNL A   1      34.349  34.206  29.156  1.00  0.00     0.039 A 
ATOM     28  C   UNL A   1      34.253  33.474  30.340  1.00  0.00     0.014 A 
ATOM     29  C   UNL A   1      35.590  34.439  28.561  1.00  0.00     0.014 A 
ATOM     30  C   UNL A   1      35.402  32.901  30.885  1.00  0.00     0.010 A 
ATOM     31  C   UNL A   1      36.718  33.797  29.056  1.00  0.00     0.010 A 
ATOM     32  C   UNL A   1      36.634  33.019  30.221  1.00  0.00    -0.014 A 
BRANCH  32  33
ATOM     33  C   UNL A   1      37.844  32.322  30.720  1.00  0.00     0.031 A 
ATOM     34  C   UNL A   1      38.595  32.865  31.904  1.00  0.00     0.074 A 
ATOM     35  C   UNL A   1      38.311  31.245  30.058  1.00  0.00     0.049 A 
ATOM     36  N   UNL A   1      39.695  32.422  32.456  1.00  0.00    -0.248 NA
ATOM     37  C   UNL A   1      38.060  34.088  32.525  1.00  0.00     0.031 C 
ATOM     38  C   UNL A   1      37.716  30.664  28.852  1.00  0.00     0.029 A 
ATOM     39  N   UNL A   1      39.400  30.449  30.307  1.00  0.00    -0.354 N 
ATOM     40  C   UNL A   1      39.997  33.324  33.468  1.00  0.00     0.074 A 
ATOM     41  C   UNL A   1      38.996  34.366  33.420  1.00  0.00     0.031 C 
ATOM     42  C   UNL A   1      38.428  29.586  28.487  1.00  0.00     0.029 A 
ATOM     43  C   UNL A   1      39.543  29.417  29.413  1.00  0.00     0.049 A 
ATOM     44  H   UNL A   1      40.021  30.603  31.056  1.00  0.00     0.167 HD
ATOM     45  C   UNL A   1      41.004  33.278  34.371  1.00  0.00     0.031 A 
ATOM     46  C   UNL A   1      40.466  28.440  29.348  1.00  0.00     0.031 A 
ATOM     47  C   UNL A   1      41.982  32.227  34.438  1.00  0.00     0.049 A 
ATOM     48  C   UNL A   1      41.546  28.383  30.391  1.00  0.00     0.074 A 
ATOM     49  C   UNL A   1      42.993  32.045  35.365  1.00  0.00     0.029 A 
ATOM     50  N   UNL A   1      42.067  31.175  33.539  1.00  0.00    -0.354 N 
ATOM     51  N   UNL A   1      41.766  29.195  31.396  1.00  0.00    -0.248 NA
ATOM     52  C   UNL A   1      42.494  27.264  30.298  1.00  0.00     0.031 C 
ATOM     53  C   UNL A   1      43.714  30.902  35.004  1.00  0.00     0.029 A 
ATOM     54  C   UNL A   1      43.124  30.349  33.880  1.00  0.00     0.049 A 
ATOM     55  H   UNL A   1      41.465  31.036  32.772  1.00  0.00     0.167 HD
ATOM     56  C   UNL A   1      42.864  28.675  32.068  1.00  0.00     0.074 A 
ATOM     57  C   UNL A   1      43.251  27.467  31.368  1.00  0.00     0.031 C 
ATOM     58  C   UNL A   1      43.497  29.156  33.166  1.00  0.00     0.031 A 
BRANCH  45  59
ATOM     59  C   UNL A   1      41.090  34.407  35.360  1.00  0.00    -0.014 A 
ATOM     60  C   UNL A   1      41.863  35.550  35.095  1.00  0.00     0.009 A 
ATOM     61  C   UNL A   1      40.382  34.331  36.569  1.00  0.00     0.009 A 
ATOM     62  C   UNL A   1      41.959  36.573  36.040  1.00  0.00     0.001 A 
ATOM     63  C   UNL A   1      40.457  35.370  37.499  1.00  0.00     0.001 A 
ATOM     64  C   UNL A   1      41.253  36.484  37.238  1.00  0.00     0.000 A 
ENDBRANCH  45  59
BRANCH  46  65
ATOM     65  C   UNL A   1      40.388  27.413  28.279  1.00  0.00    -0.014 A 
ATOM     66  C   UNL A   1      39.664  26.229  28.484  1.00  0.00     0.009 A 
ATOM     67  C   UNL A   1      41.032  27.610  27.048  1.00  0.00     0.009 A 
ATOM     68  C   UNL A   1      39.608  25.251  27.488  1.00  0.00     0.001 A 
ATOM     69  C   UNL A   1      40.954  26.642  26.045  1.00  0.00     0.001 A 
ATOM     70  C   UNL A   1      40.250  25.460  26.269  1.00  0.00     0.000 A 
ENDBRANCH  46  65
BRANCH  58  71
ATOM     71  C   UNL A   1      44.657  28.358  33.686  1.00  0.00    -0.014 A 
ATOM     72  C   UNL A   1      45.968  28.621  33.260  1.00  0.00     0.009 A 
ATOM     73  C   UNL A   1      44.437  27.348  34.636  1.00  0.00     0.009 A 
ATOM     74  C   UNL A   1      47.034  27.863  33.750  1.00  0.00     0.001 A 
ATOM     75  C   UNL A   1      45.508  26.610  35.143  1.00  0.00     0.001 A 
ATOM     76  C   UNL A   1      46.803  26.862  34.693  1.00  0.00     0.000 A 
ENDBRANCH  58  71
ENDBRANCH  32  33
ENDBRANCH  24  27
ENDBRANCH  22  23
ENDBRANCH  21  22
ENDBRANCH  20  21
ENDBRANCH   1  20
TORSDOF 15
ENDMDL
MODEL 2
REMARK VINA RESULT:      -9.7      1.560      6.550
REMARK SMILES COCC[NH2+][C@]1(C(=O)NCCCCNC(=O)c2ccc(-c3c4nc(c(-c5ccccc5)c5ccc([nH]5)c(-c5ccccc5)c5nc(c(-c6ccccc6)c6ccc3[nH]6)C=C5)C=C4)cc2)CCCS[C@H]1C
REMARK SMILES IDX 10 1 9 2 7 3 8 4 6 6 65 7 69 8 66 9 68 10 70 11 67 12 5 13
REMARK SMILES IDX 4 16 3 17 2 18 1 19 11 20 12 21 13 22 14 23 15 24 16 26
REMARK SMILES IDX 17 27 18 28 64 29 19 30 63 31 20 32 21 33 22 34 57 35 23 36
REMARK SMILES IDX 62 37 56 38 58 39 24 40 61 41 55 42 54 43 25 45 47 46 32 47
REMARK SMILES IDX 46 48 33 49 36 50 45 51 59 52 34 53 35 54 44 56 60 57 37 58
REMARK SMILES IDX 26 59 27 60 31 61 28 62 30 63 29 64 48 65 49 66 53 67 50 68
REMARK SMILES IDX 52 69 51 70 38 71 39 72 43 73 40 74 42 75 41 76
REMARK H PARENT 9 5 5 14 5 15 14 25 58 44 36 55
REMARK Flexibility Score: inf
ROOT
ATOM      1  C   UNL A   1      33.591  29.423  26.970  1.00  0.00     0.116 C 
ENDROOT
BRANCH   1   2
ATOM      2  N   UNL A   1      33.819  29.309  25.545  1.00  0.00    -0.351 N 
ATOM      3  C   UNL A   1      33.504  28.379  24.605  1.00  0.00     0.282 C 
ATOM      4  O   UNL A   1      34.001  28.616  23.498  1.00  0.00    -0.268 OA
ATOM      5  H   UNL A   1      34.312  30.077  25.174  1.00  0.00     0.163 HD
BRANCH   3   6
ATOM      6  C   UNL A   1      32.499  27.177  24.825  1.00  0.00     0.187 C 
ATOM      7  C   UNL A   1      31.082  27.789  25.001  1.00  0.00     0.081 C 
ATOM      8  C   UNL A   1      32.539  26.202  23.587  1.00  0.00     0.115 C 
ATOM      9  C   UNL A   1      30.499  28.467  23.759  1.00  0.00     0.018 C 
ATOM     10  S   UNL A   1      31.828  26.806  22.001  1.00  0.00    -0.152 SA
ATOM     11  C   UNL A   1      33.945  25.656  23.277  1.00  0.00     0.027 C 
ATOM     12  C   UNL A   1      30.277  27.500  22.608  1.00  0.00     0.070 C 
BRANCH   6  13
ATOM     13  N   UNL A   1      32.928  26.322  25.976  1.00  0.00    -0.331 N 
ATOM     14  H   UNL A   1      33.594  25.643  25.610  1.00  0.00     0.347 HD
ATOM     15  H   UNL A   1      33.283  26.993  26.657  1.00  0.00     0.347 HD
BRANCH  13  16
ATOM     16  C   UNL A   1      31.920  25.569  26.723  1.00  0.00     0.290 C 
BRANCH  16  17
ATOM     17  C   UNL A   1      32.167  24.051  26.660  1.00  0.00     0.221 C 
BRANCH  17  18
ATOM     18  O   UNL A   1      31.280  23.340  27.531  1.00  0.00    -0.379 OA
ATOM     19  C   UNL A   1      30.077  22.952  26.876  1.00  0.00     0.195 C 
ENDBRANCH  17  18
ENDBRANCH  16  17
ENDBRANCH  13  16
ENDBRANCH   6  13
ENDBRANCH   3   6
ENDBRANCH   1   2
BRANCH   1  20
ATOM     20  C   UNL A   1      32.210  30.019  27.247  1.00  0.00     0.023 C 
BRANCH  20  21
ATOM     21  C   UNL A   1      32.038  31.463  26.778  1.00  0.00     0.023 C 
BRANCH  21  22
ATOM     22  C   UNL A   1      33.125  32.422  27.251  1.00  0.00     0.116 C 
BRANCH  22  23
ATOM     23  N   UNL A   1      32.637  33.754  27.582  1.00  0.00    -0.352 N 
ATOM     24  C   UNL A   1      33.094  34.623  28.546  1.00  0.00     0.251 C 
ATOM     25  H   UNL A   1      31.880  34.077  27.042  1.00  0.00     0.163 HD
ATOM     26  O   UNL A   1      32.529  35.686  28.752  1.00  0.00    -0.269 OA
BRANCH  24  27
ATOM     27  C   UNL A   1      34.254  34.223  29.369  1.00  0.00     0.039 A 
ATOM     28  C   UNL A   1      34.026  33.505  30.543  1.00  0.00     0.014 A 
ATOM     29  C   UNL A   1      35.554  34.492  28.938  1.00  0.00     0.014 A 
ATOM     30  C   UNL A   1      35.111  32.982  31.246  1.00  0.00     0.010 A 
ATOM     31  C   UNL A   1      36.627  33.898  29.590  1.00  0.00     0.010 A 
ATOM     32  C   UNL A   1      36.416  33.134  30.748  1.00  0.00    -0.014 A 
BRANCH  32  33
ATOM     33  C   UNL A   1      37.572  32.490  31.417  1.00  0.00     0.031 A 
ATOM     34  C   UNL A   1      38.270  31.328  30.767  1.00  0.00     0.074 A 
ATOM     35  C   UNL A   1      37.942  32.901  32.646  1.00  0.00     0.049 A 
ATOM     36  N   UNL A   1      39.266  30.609  31.216  1.00  0.00    -0.248 NA
ATOM     37  C   UNL A   1      37.757  30.894  29.457  1.00  0.00     0.031 C 
ATOM     38  C   UNL A   1      37.298  33.968  33.415  1.00  0.00     0.029 A 
ATOM     39  N   UNL A   1      38.951  32.463  33.465  1.00  0.00    -0.354 N 
ATOM     40  C   UNL A   1      39.480  29.624  30.261  1.00  0.00     0.074 A 
ATOM     41  C   UNL A   1      38.478  29.806  29.234  1.00  0.00     0.031 C 
ATOM     42  C   UNL A   1      37.949  34.124  34.579  1.00  0.00     0.029 A 
ATOM     43  C   UNL A   1      39.034  33.152  34.651  1.00  0.00     0.049 A 
ATOM     44  H   UNL A   1      39.558  31.725  33.227  1.00  0.00     0.167 HD
ATOM     45  C   UNL A   1      40.438  28.669  30.228  1.00  0.00     0.031 A 
ATOM     46  C   UNL A   1      39.892  33.018  35.679  1.00  0.00     0.031 A 
ATOM     47  C   UNL A   1      41.452  28.507  31.233  1.00  0.00     0.049 A 
ATOM     48  C   UNL A   1      40.977  31.981  35.597  1.00  0.00     0.074 A 
ATOM     49  C   UNL A   1      42.517  27.623  31.252  1.00  0.00     0.029 A 
ATOM     50  N   UNL A   1      41.528  29.253  32.399  1.00  0.00    -0.354 N 
ATOM     51  N   UNL A   1      41.220  31.115  34.644  1.00  0.00    -0.248 NA
ATOM     52  C   UNL A   1      41.914  31.918  36.727  1.00  0.00     0.031 C 
ATOM     53  C   UNL A   1      43.215  27.809  32.450  1.00  0.00     0.029 A 
ATOM     54  C   UNL A   1      42.612  28.838  33.154  1.00  0.00     0.049 A 
ATOM     55  H   UNL A   1      40.904  29.971  32.653  1.00  0.00     0.167 HD
ATOM     56  C   UNL A   1      42.349  30.417  35.049  1.00  0.00     0.074 A 
ATOM     57  C   UNL A   1      42.755  30.975  36.323  1.00  0.00     0.031 C 
ATOM     58  C   UNL A   1      42.994  29.402  34.422  1.00  0.00     0.031 A 
BRANCH  45  59
ATOM     59  C   UNL A   1      40.426  27.725  29.058  1.00  0.00    -0.014 A 
ATOM     60  C   UNL A   1      41.157  28.003  27.892  1.00  0.00     0.009 A 
ATOM     61  C   UNL A   1      39.682  26.537  29.127  1.00  0.00     0.009 A 
ATOM     62  C   UNL A   1      41.108  27.132  26.801  1.00  0.00     0.001 A 
ATOM     63  C   UNL A   1      39.659  25.654  28.045  1.00  0.00     0.001 A 
ATOM     64  C   UNL A   1      40.362  25.957  26.881  1.00  0.00     0.000 A 
ENDBRANCH  45  59
BRANCH  46  65
ATOM     65  C   UNL A   1      39.784  33.913  36.859  1.00  0.00    -0.014 A 
ATOM     66  C   UNL A   1      39.024  33.528  37.973  1.00  0.00     0.009 A 
ATOM     67  C   UNL A   1      40.441  35.153  36.880  1.00  0.00     0.009 A 
ATOM     68  C   UNL A   1      38.902  34.379  39.075  1.00  0.00     0.001 A 
ATOM     69  C   UNL A   1      40.338  35.990  37.993  1.00  0.00     0.001 A 
ATOM     70  C   UNL A   1      39.562  35.606  39.085  1.00  0.00     0.000 A 
ENDBRANCH  46  65
BRANCH  58  71
ATOM     71  C   UNL A   1      44.215  28.851  35.099  1.00  0.00    -0.014 A 
ATOM     72  C   UNL A   1      45.485  29.403  34.868  1.00  0.00     0.009 A 
ATOM     73  C   UNL A   1      44.088  27.784  36.001  1.00  0.00     0.009 A 
ATOM     74  C   UNL A   1      46.610  28.872  35.502  1.00  0.00     0.001 A 
ATOM     75  C   UNL A   1      45.211  27.273  36.653  1.00  0.00     0.001 A 
ATOM     76  C   UNL A   1      46.471  27.811  36.397  1.00  0.00     0.000 A 
ENDBRANCH  58  71
ENDBRANCH  32  33
ENDBRANCH  24  27
ENDBRANCH  22  23
ENDBRANCH  21  22
ENDBRANCH  20  21
ENDBRANCH   1  20
TORSDOF 15
ENDMDL
MODEL 3
REMARK VINA RESULT:      -9.6      4.264      9.348
REMARK SMILES COCC[NH2+][C@]1(C(=O)NCCCCNC(=O)c2ccc(-c3c4nc(c(-c5ccccc5)c5ccc([nH]5)c(-c5ccccc5)c5nc(c(-c6ccccc6)c6ccc3[nH]6)C=C5)C=C4)cc2)CCCS[C@H]1C
REMARK SMILES IDX 10 1 9 2 7 3 8 4 6 6 65 7 69 8 66 9 68 10 70 11 67 12 5 13
REMARK SMILES IDX 4 16 3 17 2 18 1 19 11 20 12 21 13 22 14 23 15 24 16 26
REMARK SMILES IDX 17 27 18 28 64 29 19 30 63 31 20 32 21 33 22 34 57 35 23 36
REMARK SMILES IDX 62 37 56 38 58 39 24 40 61 41 55 42 54 43 25 45 47 46 32 47
REMARK SMILES IDX 46 48 33 49 36 50 45 51 59 52 34 53 35 54 44 56 60 57 37 58
REMARK SMILES IDX 26 59 27 60 31 61 28 62 30 63 29 64 48 65 49 66 53 67 50 68
REMARK SMILES IDX 52 69 51 70 38 71 39 72 43 73 40 74 42 75 41 76
REMARK H PARENT 9 5 5 14 5 15 14 25 58 44 36 55
REMARK Flexibility Score: inf
ROOT
ATOM      1  C   UNL A   1      36.178  22.478  25.670  1.00  0.00     0.116 C 
ENDROOT
BRANCH   1   2
ATOM      2  N   UNL A   1      35.659  23.773  25.284  1.00  0.00    -0.351 N 
ATOM      3  C   UNL A   1      34.478  24.206  24.767  1.00  0.00     0.282 C 
ATOM      4  O   UNL A   1      34.490  25.405  24.465  1.00  0.00    -0.268 OA
ATOM      5  H   UNL A   1      36.305  24.502  25.429  1.00  0.00     0.163 HD
BRANCH   3   6
ATOM      6  C   UNL A   1      33.161  23.335  24.669  1.00  0.00     0.187 C 
ATOM      7  C   UNL A   1      32.507  23.332  26.078  1.00  0.00     0.081 C 
ATOM      8  C   UNL A   1      32.182  23.950  23.597  1.00  0.00     0.115 C 
ATOM      9  C   UNL A   1      31.962  24.682  26.554  1.00  0.00     0.018 C 
ATOM     10  S   UNL A   1      31.368  25.550  24.003  1.00  0.00    -0.152 SA
ATOM     11  C   UNL A   1      32.811  24.100  22.201  1.00  0.00     0.027 C 
ATOM     12  C   UNL A   1      30.826  25.198  25.688  1.00  0.00     0.070 C 
BRANCH   6  13
ATOM     13  N   UNL A   1      33.460  21.966  24.146  1.00  0.00    -0.331 N 
ATOM     14  H   UNL A   1      33.343  22.002  23.134  1.00  0.00     0.347 HD
ATOM     15  H   UNL A   1      34.399  21.773  24.494  1.00  0.00     0.347 HD
BRANCH  13  16
ATOM     16  C   UNL A   1      32.673  20.829  24.626  1.00  0.00     0.290 C 
BRANCH  16  17
ATOM     17  C   UNL A   1      33.520  19.548  24.743  1.00  0.00     0.221 C 
BRANCH  17  18
ATOM     18  O   UNL A   1      32.750  18.382  24.432  1.00  0.00    -0.379 OA
ATOM     19  C   UNL A   1      32.613  17.512  25.551  1.00  0.00     0.195 C 
ENDBRANCH  17  18
ENDBRANCH  16  17
ENDBRANCH  13  16
ENDBRANCH   6  13
ENDBRANCH   3   6
ENDBRANCH   1   2
BRANCH   1  20
ATOM     20  C   UNL A   1      36.922  21.827  24.502  1.00  0.00     0.023 C 
BRANCH  20  21
ATOM     21  C   UNL A   1      37.645  20.529  24.858  1.00  0.00     0.023 C 
BRANCH  21  22
ATOM     22  C   UNL A   1      38.832  20.697  25.799  1.00  0.00     0.116 C 
BRANCH  22  23
ATOM     23  N   UNL A   1      39.832  19.644  25.685  1.00  0.00    -0.352 N 
ATOM     24  C   UNL A   1      41.171  19.691  26.000  1.00  0.00     0.251 C 
ATOM     25  H   UNL A   1      39.507  18.783  25.337  1.00  0.00     0.163 HD
ATOM     26  O   UNL A   1      41.902  18.738  25.779  1.00  0.00    -0.269 OA
BRANCH  24  27
ATOM     27  C   UNL A   1      41.722  20.939  26.565  1.00  0.00     0.039 A 
ATOM     28  C   UNL A   1      42.208  21.913  25.692  1.00  0.00     0.014 A 
ATOM     29  C   UNL A   1      41.688  21.170  27.942  1.00  0.00     0.014 A 
ATOM     30  C   UNL A   1      42.583  23.158  26.196  1.00  0.00     0.010 A 
ATOM     31  C   UNL A   1      41.979  22.437  28.431  1.00  0.00     0.010 A 
ATOM     32  C   UNL A   1      42.425  23.444  27.562  1.00  0.00    -0.014 A 
BRANCH  32  33
ATOM     33  C   UNL A   1      42.709  24.797  28.099  1.00  0.00     0.031 A 
ATOM     34  C   UNL A   1      44.102  25.166  28.523  1.00  0.00     0.074 A 
ATOM     35  C   UNL A   1      41.694  25.666  28.279  1.00  0.00     0.049 A 
ATOM     36  N   UNL A   1      44.534  26.280  29.055  1.00  0.00    -0.248 NA
ATOM     37  C   UNL A   1      45.140  24.134  28.363  1.00  0.00     0.031 C 
ATOM     38  C   UNL A   1      40.285  25.402  27.976  1.00  0.00     0.029 A 
ATOM     39  N   UNL A   1      41.695  26.948  28.764  1.00  0.00    -0.354 N 
ATOM     40  C   UNL A   1      45.882  26.073  29.318  1.00  0.00     0.074 A 
ATOM     41  C   UNL A   1      46.185  24.712  28.935  1.00  0.00     0.031 C 
ATOM     42  C   UNL A   1      39.564  26.501  28.252  1.00  0.00     0.029 A 
ATOM     43  C   UNL A   1      40.452  27.533  28.776  1.00  0.00     0.049 A 
ATOM     44  H   UNL A   1      42.509  27.407  29.075  1.00  0.00     0.167 HD
ATOM     45  C   UNL A   1      46.793  26.944  29.811  1.00  0.00     0.031 A 
ATOM     46  C   UNL A   1      40.071  28.765  29.161  1.00  0.00     0.031 A 
ATOM     47  C   UNL A   1      46.500  28.306  30.164  1.00  0.00     0.049 A 
ATOM     48  C   UNL A   1      41.109  29.730  29.660  1.00  0.00     0.074 A 
ATOM     49  C   UNL A   1      47.369  29.294  30.594  1.00  0.00     0.029 A 
ATOM     50  N   UNL A   1      45.235  28.874  30.121  1.00  0.00    -0.354 N 
ATOM     51  N   UNL A   1      42.397  29.546  29.819  1.00  0.00    -0.248 NA
ATOM     52  C   UNL A   1      40.640  31.076  30.017  1.00  0.00     0.031 C 
ATOM     53  C   UNL A   1      46.622  30.449  30.849  1.00  0.00     0.029 A 
ATOM     54  C   UNL A   1      45.298  30.194  30.534  1.00  0.00     0.049 A 
ATOM     55  H   UNL A   1      44.415  28.407  29.839  1.00  0.00     0.167 HD
ATOM     56  C   UNL A   1      42.897  30.759  30.274  1.00  0.00     0.074 A 
ATOM     57  C   UNL A   1      41.776  31.675  30.346  1.00  0.00     0.031 C 
ATOM     58  C   UNL A   1      44.170  31.085  30.605  1.00  0.00     0.031 A 
BRANCH  45  59
ATOM     59  C   UNL A   1      48.197  26.439  29.996  1.00  0.00    -0.014 A 
ATOM     60  C   UNL A   1      49.139  26.514  28.957  1.00  0.00     0.009 A 
ATOM     61  C   UNL A   1      48.585  25.890  31.227  1.00  0.00     0.009 A 
ATOM     62  C   UNL A   1      50.429  26.008  29.134  1.00  0.00     0.001 A 
ATOM     63  C   UNL A   1      49.885  25.412  31.410  1.00  0.00     0.001 A 
ATOM     64  C   UNL A   1      50.801  25.462  30.361  1.00  0.00     0.000 A 
ENDBRANCH  45  59
BRANCH  46  65
ATOM     65  C   UNL A   1      38.646  29.169  29.055  1.00  0.00    -0.014 A 
ATOM     66  C   UNL A   1      38.135  29.652  27.841  1.00  0.00     0.009 A 
ATOM     67  C   UNL A   1      37.789  29.073  30.162  1.00  0.00     0.009 A 
ATOM     68  C   UNL A   1      36.801  30.055  27.744  1.00  0.00     0.001 A 
ATOM     69  C   UNL A   1      36.450  29.453  30.055  1.00  0.00     0.001 A 
ATOM     70  C   UNL A   1      35.959  29.951  28.850  1.00  0.00     0.000 A 
ENDBRANCH  46  65
BRANCH  58  71
ATOM     71  C   UNL A   1      44.416  32.497  31.051  1.00  0.00    -0.014 A 
ATOM     72  C   UNL A   1      44.772  33.498  30.134  1.00  0.00     0.009 A 
ATOM     73  C   UNL A   1      44.261  32.836  32.404  1.00  0.00     0.009 A 
ATOM     74  C   UNL A   1      45.003  34.804  30.569  1.00  0.00     0.001 A 
ATOM     75  C   UNL A   1      44.467  34.148  32.832  1.00  0.00     0.001 A 
ATOM     76  C   UNL A   1      44.846  35.128  31.917  1.00  0.00     0.000 A 
ENDBRANCH  58  71
ENDBRANCH  32  33
ENDBRANCH  24  27
ENDBRANCH  22  23
ENDBRANCH  21  22
ENDBRANCH  20  21
ENDBRANCH   1  20
TORSDOF 15
ENDMDL
