MODEL 1
REMARK VINA RESULT:     -11.6      0.000      0.000
REMARK SMILES Cc1cc(Cl)c2c(c1)C=C(C(=O)NCCCCNC(=O)c1ccc(-c3c4nc(c(-c5ccccc5)c5ccc([nH]5)c(-c5ccccc5)c5nc(c(-c6ccccc6)c6ccc3[nH]6)C=C5)C=C4)cc1)[C@@H](C(F)(F)F)O2
REMARK SMILES IDX 16 1 15 2 14 3 13 4 11 5 12 6 10 8 1 9 2 10 3 11 8 12 4 13
REMARK SMILES IDX 7 14 5 15 6 16 9 17 74 18 69 19 70 20 71 21 72 22 73 23
REMARK SMILES IDX 17 24 18 25 19 26 20 28 21 29 22 30 68 31 23 32 67 33 24 34
REMARK SMILES IDX 25 35 26 36 61 37 27 38 66 39 60 40 62 41 28 42 65 43 59 44
REMARK SMILES IDX 58 45 29 47 51 48 36 49 50 50 37 51 40 52 49 53 63 54 38 55
REMARK SMILES IDX 39 56 48 58 64 59 41 60 30 61 31 62 35 63 32 64 34 65 33 66
REMARK SMILES IDX 52 67 53 68 57 69 54 70 56 71 55 72 42 73 43 74 47 75 44 76
REMARK SMILES IDX 46 77 45 78
REMARK H PARENT 13 7 18 27 62 46 40 57
REMARK Flexibility Score: inf
ROOT
ATOM      1  C   UNL A   1      32.259  28.531  26.597  1.00  0.00     0.023 C 
ENDROOT
BRANCH   1   2
ATOM      2  C   UNL A   1      32.287  28.457  25.068  1.00  0.00     0.023 C 
BRANCH   2   3
ATOM      3  C   UNL A   1      31.822  27.120  24.498  1.00  0.00     0.116 C 
BRANCH   3   4
ATOM      4  N   UNL A   1      31.011  26.379  25.447  1.00  0.00    -0.352 N 
ATOM      5  C   UNL A   1      31.005  25.136  25.985  1.00  0.00     0.251 C 
ATOM      6  O   UNL A   1      30.088  24.918  26.783  1.00  0.00    -0.270 OA
ATOM      7  H   UNL A   1      30.267  26.925  25.791  1.00  0.00     0.163 HD
BRANCH   5   8
ATOM      8  C   UNL A   1      31.996  24.059  25.686  1.00  0.00     0.067 C 
ATOM      9  C   UNL A   1      38.085  22.953  25.995  1.00  0.00     0.044 C 
ATOM     10  C   UNL A   1      36.632  22.638  25.793  1.00  0.00    -0.049 A 
ATOM     11  C   UNL A   1      36.252  21.368  25.344  1.00  0.00     0.028 A 
ATOM     12  C   UNL A   1      35.645  23.608  26.020  1.00  0.00     0.015 A 
ATOM     13  C   UNL A   1      34.904  21.068  25.138  1.00  0.00     0.084 A 
ATOM     14  C   UNL A   1      34.292  23.311  25.811  1.00  0.00     0.019 A 
ATOM     15  Cl  UNL A   1      34.486  19.484  24.593  1.00  0.00    -0.080 Cl
ATOM     16  C   UNL A   1      33.924  22.039  25.363  1.00  0.00     0.146 A 
ATOM     17  C   UNL A   1      33.258  24.301  26.091  1.00  0.00     0.025 C 
ATOM     18  O   UNL A   1      32.612  21.698  25.184  1.00  0.00    -0.474 OA
ATOM     19  C   UNL A   1      31.680  22.788  24.950  1.00  0.00     0.314 C 
BRANCH  19  20
ATOM     20  C   UNL A   1      31.516  23.008  23.434  1.00  0.00     0.429 C 
ATOM     21  F   UNL A   1      30.277  23.483  23.153  1.00  0.00    -0.167 F 
ATOM     22  F   UNL A   1      32.393  23.919  22.946  1.00  0.00    -0.167 F 
ATOM     23  F   UNL A   1      31.690  21.874  22.721  1.00  0.00    -0.167 F 
ENDBRANCH  19  20
ENDBRANCH   5   8
ENDBRANCH   3   4
ENDBRANCH   2   3
ENDBRANCH   1   2
BRANCH   1  24
ATOM     24  C   UNL A   1      33.579  28.931  27.259  1.00  0.00     0.116 C 
BRANCH  24  25
ATOM     25  N   UNL A   1      33.591  30.292  27.773  1.00  0.00    -0.352 N 
ATOM     26  C   UNL A   1      34.625  30.954  28.390  1.00  0.00     0.251 C 
ATOM     27  H   UNL A   1      32.755  30.803  27.664  1.00  0.00     0.163 HD
ATOM     28  O   UNL A   1      34.468  32.082  28.846  1.00  0.00    -0.269 OA
BRANCH  26  29
ATOM     29  C   UNL A   1      35.920  30.266  28.539  1.00  0.00     0.039 A 
ATOM     30  C   UNL A   1      36.816  30.277  27.467  1.00  0.00     0.014 A 
ATOM     31  C   UNL A   1      36.264  29.666  29.753  1.00  0.00     0.014 A 
ATOM     32  C   UNL A   1      38.096  29.752  27.639  1.00  0.00     0.010 A 
ATOM     33  C   UNL A   1      37.557  29.192  29.938  1.00  0.00     0.010 A 
ATOM     34  C   UNL A   1      38.486  29.241  28.887  1.00  0.00    -0.014 A 
BRANCH  34  35
ATOM     35  C   UNL A   1      39.867  28.759  29.128  1.00  0.00     0.031 A 
ATOM     36  C   UNL A   1      40.884  29.682  29.732  1.00  0.00     0.074 A 
ATOM     37  C   UNL A   1      40.219  27.522  28.734  1.00  0.00     0.049 A 
ATOM     38  N   UNL A   1      42.166  29.494  29.907  1.00  0.00    -0.248 NA
ATOM     39  C   UNL A   1      40.398  30.998  30.179  1.00  0.00     0.031 C 
ATOM     40  C   UNL A   1      39.325  26.535  28.124  1.00  0.00     0.029 A 
ATOM     41  N   UNL A   1      41.434  26.886  28.781  1.00  0.00    -0.354 N 
ATOM     42  C   UNL A   1      42.644  30.671  30.467  1.00  0.00     0.074 A 
ATOM     43  C   UNL A   1      41.522  31.580  30.568  1.00  0.00     0.031 C 
ATOM     44  C   UNL A   1      40.017  25.412  27.873  1.00  0.00     0.029 A 
ATOM     45  C   UNL A   1      41.409  25.613  28.265  1.00  0.00     0.049 A 
ATOM     46  H   UNL A   1      42.247  27.301  29.149  1.00  0.00     0.167 HD
ATOM     47  C   UNL A   1      43.902  30.964  30.872  1.00  0.00     0.031 A 
ATOM     48  C   UNL A   1      42.397  24.712  28.117  1.00  0.00     0.031 A 
ATOM     49  C   UNL A   1      45.016  30.061  30.775  1.00  0.00     0.049 A 
ATOM     50  C   UNL A   1      43.788  25.068  28.557  1.00  0.00     0.074 A 
ATOM     51  C   UNL A   1      46.326  30.261  31.171  1.00  0.00     0.029 A 
ATOM     52  N   UNL A   1      44.946  28.779  30.252  1.00  0.00    -0.354 N 
ATOM     53  N   UNL A   1      44.225  26.184  29.090  1.00  0.00    -0.248 NA
ATOM     54  C   UNL A   1      44.822  24.039  28.380  1.00  0.00     0.031 C 
ATOM     55  C   UNL A   1      47.057  29.110  30.858  1.00  0.00     0.029 A 
ATOM     56  C   UNL A   1      46.191  28.177  30.311  1.00  0.00     0.049 A 
ATOM     57  H   UNL A   1      44.131  28.359  29.891  1.00  0.00     0.167 HD
ATOM     58  C   UNL A   1      45.576  25.982  29.337  1.00  0.00     0.074 A 
ATOM     59  C   UNL A   1      45.885  24.634  28.904  1.00  0.00     0.031 C 
ATOM     60  C   UNL A   1      46.479  26.836  29.877  1.00  0.00     0.031 A 
BRANCH  47  61
ATOM     61  C   UNL A   1      44.135  32.327  31.458  1.00  0.00    -0.014 A 
ATOM     62  C   UNL A   1      44.053  32.541  32.843  1.00  0.00     0.009 A 
ATOM     63  C   UNL A   1      44.469  33.403  30.622  1.00  0.00     0.009 A 
ATOM     64  C   UNL A   1      44.274  33.812  33.376  1.00  0.00     0.001 A 
ATOM     65  C   UNL A   1      44.714  34.667  31.160  1.00  0.00     0.001 A 
ATOM     66  C   UNL A   1      44.609  34.873  32.535  1.00  0.00     0.000 A 
ENDBRANCH  47  61
BRANCH  48  67
ATOM     67  C   UNL A   1      42.100  23.374  27.548  1.00  0.00    -0.014 A 
ATOM     68  C   UNL A   1      41.559  22.367  28.361  1.00  0.00     0.009 A 
ATOM     69  C   UNL A   1      42.341  23.098  26.193  1.00  0.00     0.009 A 
ATOM     70  C   UNL A   1      41.281  21.104  27.834  1.00  0.00     0.001 A 
ATOM     71  C   UNL A   1      42.040  21.841  25.663  1.00  0.00     0.001 A 
ATOM     72  C   UNL A   1      41.516  20.844  26.485  1.00  0.00     0.000 A 
ENDBRANCH  48  67
BRANCH  60  73
ATOM     73  C   UNL A   1      47.877  26.325  30.066  1.00  0.00    -0.014 A 
ATOM     74  C   UNL A   1      48.828  26.406  29.038  1.00  0.00     0.009 A 
ATOM     75  C   UNL A   1      48.259  25.798  31.310  1.00  0.00     0.009 A 
ATOM     76  C   UNL A   1      50.129  25.942  29.243  1.00  0.00     0.001 A 
ATOM     77  C   UNL A   1      49.566  25.358  31.521  1.00  0.00     0.001 A 
ATOM     78  C   UNL A   1      50.497  25.423  30.485  1.00  0.00     0.000 A 
ENDBRANCH  60  73
ENDBRANCH  34  35
ENDBRANCH  26  29
ENDBRANCH  24  25
ENDBRANCH   1  24
TORSDOF 12
ENDMDL
MODEL 2
REMARK VINA RESULT:     -11.5      2.882      7.887
REMARK SMILES Cc1cc(Cl)c2c(c1)C=C(C(=O)NCCCCNC(=O)c1ccc(-c3c4nc(c(-c5ccccc5)c5ccc([nH]5)c(-c5ccccc5)c5nc(c(-c6ccccc6)c6ccc3[nH]6)C=C5)C=C4)cc1)[C@@H](C(F)(F)F)O2
REMARK SMILES IDX 16 1 15 2 14 3 13 4 11 5 12 6 10 8 1 9 2 10 3 11 8 12 4 13
REMARK SMILES IDX 7 14 5 15 6 16 9 17 74 18 69 19 70 20 71 21 72 22 73 23
REMARK SMILES IDX 17 24 18 25 19 26 20 28 21 29 22 30 68 31 23 32 67 33 24 34
REMARK SMILES IDX 25 35 26 36 61 37 27 38 66 39 60 40 62 41 28 42 65 43 59 44
REMARK SMILES IDX 58 45 29 47 51 48 36 49 50 50 37 51 40 52 49 53 63 54 38 55
REMARK SMILES IDX 39 56 48 58 64 59 41 60 30 61 31 62 35 63 32 64 34 65 33 66
REMARK SMILES IDX 52 67 53 68 57 69 54 70 56 71 55 72 42 73 43 74 47 75 44 76
REMARK SMILES IDX 46 77 45 78
REMARK H PARENT 13 7 18 27 62 46 40 57
REMARK Flexibility Score: inf
ROOT
ATOM      1  C   UNL A   1      36.058  22.887  26.097  1.00  0.00     0.023 C 
ENDROOT
BRANCH   1   2
ATOM      2  C   UNL A   1      34.785  23.723  25.936  1.00  0.00     0.023 C 
BRANCH   2   3
ATOM      3  C   UNL A   1      33.696  23.051  25.106  1.00  0.00     0.116 C 
BRANCH   3   4
ATOM      4  N   UNL A   1      33.795  23.396  23.699  1.00  0.00    -0.352 N 
ATOM      5  C   UNL A   1      33.486  24.458  22.918  1.00  0.00     0.251 C 
ATOM      6  O   UNL A   1      33.747  24.315  21.719  1.00  0.00    -0.270 OA
ATOM      7  H   UNL A   1      34.192  22.664  23.174  1.00  0.00     0.163 HD
BRANCH   5   8
ATOM      8  C   UNL A   1      32.877  25.736  23.394  1.00  0.00     0.067 C 
ATOM      9  C   UNL A   1      34.011  30.392  27.322  1.00  0.00     0.044 C 
ATOM     10  C   UNL A   1      33.304  29.649  26.227  1.00  0.00    -0.049 A 
ATOM     11  C   UNL A   1      32.118  30.165  25.690  1.00  0.00     0.028 A 
ATOM     12  C   UNL A   1      33.795  28.426  25.750  1.00  0.00     0.015 A 
ATOM     13  C   UNL A   1      31.443  29.476  24.681  1.00  0.00     0.084 A 
ATOM     14  C   UNL A   1      33.118  27.730  24.741  1.00  0.00     0.019 A 
ATOM     15  Cl  UNL A   1      29.991  30.160  24.045  1.00  0.00    -0.080 Cl
ATOM     16  C   UNL A   1      31.936  28.255  24.212  1.00  0.00     0.146 A 
ATOM     17  C   UNL A   1      33.650  26.480  24.209  1.00  0.00     0.025 C 
ATOM     18  O   UNL A   1      31.266  27.625  23.199  1.00  0.00    -0.474 OA
ATOM     19  C   UNL A   1      31.488  26.196  23.060  1.00  0.00     0.314 C 
BRANCH  19  20
ATOM     20  C   UNL A   1      30.406  25.430  23.845  1.00  0.00     0.429 C 
ATOM     21  F   UNL A   1      30.866  25.078  25.071  1.00  0.00    -0.167 F 
ATOM     22  F   UNL A   1      29.294  26.176  24.055  1.00  0.00    -0.167 F 
ATOM     23  F   UNL A   1      30.008  24.301  23.218  1.00  0.00    -0.167 F 
ENDBRANCH  19  20
ENDBRANCH   5   8
ENDBRANCH   3   4
ENDBRANCH   2   3
ENDBRANCH   1   2
BRANCH   1  24
ATOM     24  C   UNL A   1      37.279  23.394  25.330  1.00  0.00     0.116 C 
BRANCH  24  25
ATOM     25  N   UNL A   1      38.474  22.588  25.525  1.00  0.00    -0.352 N 
ATOM     26  C   UNL A   1      39.636  22.939  26.170  1.00  0.00     0.251 C 
ATOM     27  H   UNL A   1      38.448  21.677  25.150  1.00  0.00     0.163 HD
ATOM     28  O   UNL A   1      40.599  22.179  26.191  1.00  0.00    -0.269 OA
BRANCH  26  29
ATOM     29  C   UNL A   1      39.724  24.269  26.799  1.00  0.00     0.039 A 
ATOM     30  C   UNL A   1      39.184  24.447  28.075  1.00  0.00     0.014 A 
ATOM     31  C   UNL A   1      40.390  25.313  26.152  1.00  0.00     0.014 A 
ATOM     32  C   UNL A   1      39.380  25.657  28.740  1.00  0.00     0.010 A 
ATOM     33  C   UNL A   1      40.630  26.498  26.837  1.00  0.00     0.010 A 
ATOM     34  C   UNL A   1      40.137  26.676  28.139  1.00  0.00    -0.014 A 
BRANCH  34  35
ATOM     35  C   UNL A   1      40.442  27.938  28.854  1.00  0.00     0.031 A 
ATOM     36  C   UNL A   1      41.749  28.091  29.573  1.00  0.00     0.074 A 
ATOM     37  C   UNL A   1      39.512  28.909  28.917  1.00  0.00     0.049 A 
ATOM     38  N   UNL A   1      42.151  29.060  30.355  1.00  0.00    -0.248 NA
ATOM     39  C   UNL A   1      42.725  27.001  29.408  1.00  0.00     0.031 C 
ATOM     40  C   UNL A   1      38.198  28.873  28.270  1.00  0.00     0.029 A 
ATOM     41  N   UNL A   1      39.529  30.116  29.569  1.00  0.00    -0.354 N 
ATOM     42  C   UNL A   1      43.417  28.690  30.789  1.00  0.00     0.074 A 
ATOM     43  C   UNL A   1      43.701  27.392  30.213  1.00  0.00     0.031 C 
ATOM     44  C   UNL A   1      37.545  30.016  28.541  1.00  0.00     0.029 A 
ATOM     45  C   UNL A   1      38.374  30.843  29.411  1.00  0.00     0.049 A 
ATOM     46  H   UNL A   1      40.296  30.432  30.099  1.00  0.00     0.167 HD
ATOM     47  C   UNL A   1      44.271  29.375  31.584  1.00  0.00     0.031 A 
ATOM     48  C   UNL A   1      38.021  32.038  29.918  1.00  0.00     0.031 A 
ATOM     49  C   UNL A   1      43.991  30.665  32.153  1.00  0.00     0.049 A 
ATOM     50  C   UNL A   1      38.978  32.770  30.813  1.00  0.00     0.074 A 
ATOM     51  C   UNL A   1      44.798  31.445  32.960  1.00  0.00     0.029 A 
ATOM     52  N   UNL A   1      42.812  31.368  31.963  1.00  0.00    -0.354 N 
ATOM     53  N   UNL A   1      40.175  32.410  31.211  1.00  0.00    -0.248 NA
ATOM     54  C   UNL A   1      38.539  34.076  31.326  1.00  0.00     0.031 C 
ATOM     55  C   UNL A   1      44.095  32.609  33.286  1.00  0.00     0.029 A 
ATOM     56  C   UNL A   1      42.868  32.573  32.642  1.00  0.00     0.049 A 
ATOM     57  H   UNL A   1      42.047  31.058  31.426  1.00  0.00     0.167 HD
ATOM     58  C   UNL A   1      40.643  33.454  31.997  1.00  0.00     0.074 A 
ATOM     59  C   UNL A   1      39.605  34.465  32.012  1.00  0.00     0.031 C 
ATOM     60  C   UNL A   1      41.827  33.567  32.645  1.00  0.00     0.031 A 
BRANCH  47  61
ATOM     61  C   UNL A   1      45.594  28.732  31.886  1.00  0.00    -0.014 A 
ATOM     62  C   UNL A   1      46.713  28.966  31.071  1.00  0.00     0.009 A 
ATOM     63  C   UNL A   1      45.733  27.907  33.012  1.00  0.00     0.009 A 
ATOM     64  C   UNL A   1      47.939  28.364  31.362  1.00  0.00     0.001 A 
ATOM     65  C   UNL A   1      46.966  27.328  33.316  1.00  0.00     0.001 A 
ATOM     66  C   UNL A   1      48.065  27.550  32.487  1.00  0.00     0.000 A 
ENDBRANCH  47  61
BRANCH  48  67
ATOM     67  C   UNL A   1      36.705  32.631  29.567  1.00  0.00    -0.014 A 
ATOM     68  C   UNL A   1      35.626  32.527  30.456  1.00  0.00     0.009 A 
ATOM     69  C   UNL A   1      36.524  33.312  28.353  1.00  0.00     0.009 A 
ATOM     70  C   UNL A   1      34.385  33.078  30.131  1.00  0.00     0.001 A 
ATOM     71  C   UNL A   1      35.288  33.883  28.040  1.00  0.00     0.001 A 
ATOM     72  C   UNL A   1      34.218  33.760  28.926  1.00  0.00     0.000 A 
ENDBRANCH  48  67
BRANCH  60  73
ATOM     73  C   UNL A   1      42.081  34.843  33.393  1.00  0.00    -0.014 A 
ATOM     74  C   UNL A   1      41.605  35.028  34.699  1.00  0.00     0.009 A 
ATOM     75  C   UNL A   1      42.848  35.855  32.796  1.00  0.00     0.009 A 
ATOM     76  C   UNL A   1      41.869  36.217  35.383  1.00  0.00     0.001 A 
ATOM     77  C   UNL A   1      43.132  37.031  33.489  1.00  0.00     0.001 A 
ATOM     78  C   UNL A   1      42.637  37.214  34.780  1.00  0.00     0.000 A 
ENDBRANCH  60  73
ENDBRANCH  34  35
ENDBRANCH  26  29
ENDBRANCH  24  25
ENDBRANCH   1  24
TORSDOF 12
ENDMDL
MODEL 3
REMARK VINA RESULT:     -11.4      2.580      7.560
REMARK SMILES Cc1cc(Cl)c2c(c1)C=C(C(=O)NCCCCNC(=O)c1ccc(-c3c4nc(c(-c5ccccc5)c5ccc([nH]5)c(-c5ccccc5)c5nc(c(-c6ccccc6)c6ccc3[nH]6)C=C5)C=C4)cc1)[C@@H](C(F)(F)F)O2
REMARK SMILES IDX 16 1 15 2 14 3 13 4 11 5 12 6 10 8 1 9 2 10 3 11 8 12 4 13
REMARK SMILES IDX 7 14 5 15 6 16 9 17 74 18 69 19 70 20 71 21 72 22 73 23
REMARK SMILES IDX 17 24 18 25 19 26 20 28 21 29 22 30 68 31 23 32 67 33 24 34
REMARK SMILES IDX 25 35 26 36 61 37 27 38 66 39 60 40 62 41 28 42 65 43 59 44
REMARK SMILES IDX 58 45 29 47 51 48 36 49 50 50 37 51 40 52 49 53 63 54 38 55
REMARK SMILES IDX 39 56 48 58 64 59 41 60 30 61 31 62 35 63 32 64 34 65 33 66
REMARK SMILES IDX 52 67 53 68 57 69 54 70 56 71 55 72 42 73 43 74 47 75 44 76
REMARK SMILES IDX 46 77 45 78
REMARK H PARENT 13 7 18 27 62 46 40 57
REMARK Flexibility Score: inf
ROOT
ATOM      1  C   UNL A   1      39.446  21.470  26.113  1.00  0.00     0.023 C 
ENDROOT
BRANCH   1   2
ATOM      2  C   UNL A   1      39.444  22.953  26.498  1.00  0.00     0.023 C 
BRANCH   2   3
ATOM      3  C   UNL A   1      38.130  23.673  26.207  1.00  0.00     0.116 C 
BRANCH   3   4
ATOM      4  N   UNL A   1      37.666  23.427  24.854  1.00  0.00    -0.352 N 
ATOM      5  C   UNL A   1      36.481  23.437  24.199  1.00  0.00     0.251 C 
ATOM      6  O   UNL A   1      36.547  23.149  22.999  1.00  0.00    -0.270 OA
ATOM      7  H   UNL A   1      38.409  23.191  24.254  1.00  0.00     0.163 HD
BRANCH   5   8
ATOM      8  C   UNL A   1      35.156  23.760  24.808  1.00  0.00     0.067 C 
ATOM      9  C   UNL A   1      31.941  28.605  26.949  1.00  0.00     0.044 C 
ATOM     10  C   UNL A   1      32.182  27.189  26.518  1.00  0.00    -0.049 A 
ATOM     11  C   UNL A   1      31.178  26.228  26.693  1.00  0.00     0.028 A 
ATOM     12  C   UNL A   1      33.412  26.800  25.969  1.00  0.00     0.015 A 
ATOM     13  C   UNL A   1      31.396  24.904  26.309  1.00  0.00     0.084 A 
ATOM     14  C   UNL A   1      33.635  25.471  25.588  1.00  0.00     0.019 A 
ATOM     15  Cl  UNL A   1      30.122  23.760  26.536  1.00  0.00    -0.080 Cl
ATOM     16  C   UNL A   1      32.625  24.522  25.765  1.00  0.00     0.146 A 
ATOM     17  C   UNL A   1      34.896  25.072  24.972  1.00  0.00     0.025 C 
ATOM     18  O   UNL A   1      32.790  23.223  25.370  1.00  0.00    -0.474 OA
ATOM     19  C   UNL A   1      34.156  22.740  25.269  1.00  0.00     0.314 C 
BRANCH  19  20
ATOM     20  C   UNL A   1      34.563  22.070  26.596  1.00  0.00     0.429 C 
ATOM     21  F   UNL A   1      34.967  23.001  27.495  1.00  0.00    -0.167 F 
ATOM     22  F   UNL A   1      33.535  21.403  27.175  1.00  0.00    -0.167 F 
ATOM     23  F   UNL A   1      35.571  21.183  26.445  1.00  0.00    -0.167 F 
ENDBRANCH  19  20
ENDBRANCH   5   8
ENDBRANCH   3   4
ENDBRANCH   2   3
ENDBRANCH   1   2
BRANCH   1  24
ATOM     24  C   UNL A   1      40.397  20.584  26.919  1.00  0.00     0.116 C 
BRANCH  24  25
ATOM     25  N   UNL A   1      41.480  20.015  26.131  1.00  0.00    -0.352 N 
ATOM     26  C   UNL A   1      42.673  20.604  25.784  1.00  0.00     0.251 C 
ATOM     27  H   UNL A   1      41.343  19.095  25.808  1.00  0.00     0.163 HD
ATOM     28  O   UNL A   1      43.466  20.030  25.045  1.00  0.00    -0.269 OA
BRANCH  26  29
ATOM     29  C   UNL A   1      42.964  21.962  26.276  1.00  0.00     0.039 A 
ATOM     30  C   UNL A   1      43.069  23.005  25.353  1.00  0.00     0.014 A 
ATOM     31  C   UNL A   1      43.073  22.207  27.648  1.00  0.00     0.014 A 
ATOM     32  C   UNL A   1      43.205  24.315  25.811  1.00  0.00     0.010 A 
ATOM     33  C   UNL A   1      43.156  23.517  28.103  1.00  0.00     0.010 A 
ATOM     34  C   UNL A   1      43.212  24.582  27.190  1.00  0.00    -0.014 A 
BRANCH  34  35
ATOM     35  C   UNL A   1      43.264  25.969  27.709  1.00  0.00     0.031 A 
ATOM     36  C   UNL A   1      44.584  26.576  28.083  1.00  0.00     0.074 A 
ATOM     37  C   UNL A   1      42.120  26.648  27.914  1.00  0.00     0.049 A 
ATOM     38  N   UNL A   1      44.829  27.720  28.668  1.00  0.00    -0.248 NA
ATOM     39  C   UNL A   1      45.786  25.782  27.779  1.00  0.00     0.031 C 
ATOM     40  C   UNL A   1      40.774  26.161  27.602  1.00  0.00     0.029 A 
ATOM     41  N   UNL A   1      41.909  27.895  28.445  1.00  0.00    -0.354 N 
ATOM     42  C   UNL A   1      46.208  27.776  28.817  1.00  0.00     0.074 A 
ATOM     43  C   UNL A   1      46.743  26.536  28.296  1.00  0.00     0.031 C 
ATOM     44  C   UNL A   1      39.879  27.109  27.928  1.00  0.00     0.029 A 
ATOM     45  C   UNL A   1      40.583  28.248  28.508  1.00  0.00     0.049 A 
ATOM     46  H   UNL A   1      42.638  28.481  28.751  1.00  0.00     0.167 HD
ATOM     47  C   UNL A   1      46.962  28.776  29.330  1.00  0.00     0.031 A 
ATOM     48  C   UNL A   1      40.000  29.362  28.987  1.00  0.00     0.031 A 
ATOM     49  C   UNL A   1      46.432  30.009  29.844  1.00  0.00     0.049 A 
ATOM     50  C   UNL A   1      40.857  30.449  29.569  1.00  0.00     0.074 A 
ATOM     51  C   UNL A   1      47.116  31.089  30.373  1.00  0.00     0.029 A 
ATOM     52  N   UNL A   1      45.084  30.329  29.885  1.00  0.00    -0.354 N 
ATOM     53  N   UNL A   1      42.161  30.491  29.699  1.00  0.00    -0.248 NA
ATOM     54  C   UNL A   1      40.162  31.645  30.066  1.00  0.00     0.031 C 
ATOM     55  C   UNL A   1      46.179  32.051  30.763  1.00  0.00     0.029 A 
ATOM     56  C   UNL A   1      44.915  31.589  30.433  1.00  0.00     0.049 A 
ATOM     57  H   UNL A   1      44.354  29.747  29.570  1.00  0.00     0.167 HD
ATOM     58  C   UNL A   1      42.445  31.726  30.266  1.00  0.00     0.074 A 
ATOM     59  C   UNL A   1      41.179  32.406  30.446  1.00  0.00     0.031 C 
ATOM     60  C   UNL A   1      43.648  32.250  30.604  1.00  0.00     0.031 A 
BRANCH  47  61
ATOM     61  C   UNL A   1      48.450  28.570  29.359  1.00  0.00    -0.014 A 
ATOM     62  C   UNL A   1      49.073  27.969  30.463  1.00  0.00     0.009 A 
ATOM     63  C   UNL A   1      49.233  28.953  28.260  1.00  0.00     0.009 A 
ATOM     64  C   UNL A   1      50.457  27.781  30.478  1.00  0.00     0.001 A 
ATOM     65  C   UNL A   1      50.612  28.740  28.267  1.00  0.00     0.001 A 
ATOM     66  C   UNL A   1      51.224  28.162  29.378  1.00  0.00     0.000 A 
ENDBRANCH  47  61
BRANCH  48  67
ATOM     67  C   UNL A   1      38.525  29.516  28.913  1.00  0.00    -0.014 A 
ATOM     68  C   UNL A   1      37.731  29.260  30.040  1.00  0.00     0.009 A 
ATOM     69  C   UNL A   1      37.904  29.929  27.724  1.00  0.00     0.009 A 
ATOM     70  C   UNL A   1      36.344  29.398  29.976  1.00  0.00     0.001 A 
ATOM     71  C   UNL A   1      36.517  30.090  27.669  1.00  0.00     0.001 A 
ATOM     72  C   UNL A   1      35.739  29.818  28.793  1.00  0.00     0.000 A 
ENDBRANCH  48  67
BRANCH  60  73
ATOM     73  C   UNL A   1      43.656  33.641  31.166  1.00  0.00    -0.014 A 
ATOM     74  C   UNL A   1      43.598  33.868  32.549  1.00  0.00     0.009 A 
ATOM     75  C   UNL A   1      43.772  34.738  30.298  1.00  0.00     0.009 A 
ATOM     76  C   UNL A   1      43.625  35.171  33.051  1.00  0.00     0.001 A 
ATOM     77  C   UNL A   1      43.824  36.038  30.803  1.00  0.00     0.001 A 
ATOM     78  C   UNL A   1      43.744  36.253  32.178  1.00  0.00     0.000 A 
ENDBRANCH  60  73
ENDBRANCH  34  35
ENDBRANCH  26  29
ENDBRANCH  24  25
ENDBRANCH   1  24
TORSDOF 12
ENDMDL
