MODEL 1
REMARK VINA RESULT:     -11.5      0.000      0.000
REMARK SMILES CCN(CC)c1ncc(NC(=O)c2ccc(C)cc2)cc1C(=O)NCCCCNC(=O)c1ccc(-c2c3nc(c(-c4ccccc4)c4ccc([nH]4)c(-c4ccccc4)c4nc(c(-c5ccccc5)c5ccc2[nH]5)C=C4)C=C3)cc1
REMARK SMILES IDX 26 1 25 2 24 3 22 4 23 5 21 7 6 8 7 9 8 10 20 11 9 12 3 13
REMARK SMILES IDX 2 14 1 15 4 16 5 17 10 18 11 19 12 21 13 22 14 23 19 24
REMARK SMILES IDX 15 25 18 26 16 27 17 28 27 29 28 30 29 31 30 32 31 34 32 35
REMARK SMILES IDX 33 36 79 37 34 38 78 39 35 40 36 41 37 42 72 43 38 44 77 45
REMARK SMILES IDX 71 46 73 47 39 48 76 49 70 50 69 51 40 53 62 54 47 55 61 56
REMARK SMILES IDX 48 57 51 58 60 59 74 60 49 61 50 62 59 64 75 65 52 66 41 67
REMARK SMILES IDX 42 68 46 69 43 70 45 71 44 72 63 73 64 74 68 75 65 76 67 77
REMARK SMILES IDX 66 78 53 79 54 80 58 81 55 82 57 83 56 84
REMARK H PARENT 24 6 10 20 29 33 73 52 51 63
REMARK Flexibility Score: inf
ROOT
ATOM      1  C   UNL A   1      36.922  23.703  26.184  1.00  0.00     0.023 C 
ENDROOT
BRANCH   1   2
ATOM      2  C   UNL A   1      35.864  24.370  25.302  1.00  0.00     0.116 C 
BRANCH   2   3
ATOM      3  N   UNL A   1      35.507  23.658  24.081  1.00  0.00    -0.352 N 
ATOM      4  C   UNL A   1      34.425  23.620  23.222  1.00  0.00     0.255 C 
ATOM      5  O   UNL A   1      34.652  23.098  22.130  1.00  0.00    -0.269 OA
ATOM      6  H   UNL A   1      36.223  23.045  23.794  1.00  0.00     0.163 HD
BRANCH   4   7
ATOM      7  C   UNL A   1      33.062  24.151  23.531  1.00  0.00     0.084 A 
ATOM      8  C   UNL A   1      32.236  23.556  24.509  1.00  0.00     0.141 A 
ATOM      9  N   UNL A   1      30.968  24.002  24.713  1.00  0.00    -0.236 NA
ATOM     10  C   UNL A   1      30.491  25.028  23.978  1.00  0.00     0.139 A 
ATOM     11  C   UNL A   1      32.510  25.192  22.770  1.00  0.00     0.045 A 
ATOM     12  C   UNL A   1      31.234  25.695  23.028  1.00  0.00     0.060 A 
BRANCH   8  13
ATOM     13  N   UNL A   1      32.607  22.495  25.318  1.00  0.00    -0.357 N 
BRANCH  13  14
ATOM     14  C   UNL A   1      33.011  22.792  26.689  1.00  0.00     0.114 C 
ATOM     15  C   UNL A   1      33.727  21.616  27.330  1.00  0.00     0.027 C 
ENDBRANCH  13  14
BRANCH  13  16
ATOM     16  C   UNL A   1      31.954  21.205  25.062  1.00  0.00     0.114 C 
ATOM     17  C   UNL A   1      32.401  20.520  23.771  1.00  0.00     0.027 C 
ENDBRANCH  13  16
ENDBRANCH   8  13
BRANCH  12  18
ATOM     18  N   UNL A   1      30.805  26.802  22.274  1.00  0.00    -0.321 N 
ATOM     19  C   UNL A   1      30.780  28.153  22.536  1.00  0.00     0.255 C 
ATOM     20  H   UNL A   1      30.456  26.564  21.384  1.00  0.00     0.170 HD
ATOM     21  O   UNL A   1      30.137  28.891  21.790  1.00  0.00    -0.269 OA
BRANCH  19  22
ATOM     22  C   UNL A   1      31.545  28.763  23.645  1.00  0.00     0.040 A 
ATOM     23  C   UNL A   1      30.846  29.509  24.599  1.00  0.00     0.014 A 
ATOM     24  C   UNL A   1      32.938  28.656  23.726  1.00  0.00     0.014 A 
ATOM     25  C   UNL A   1      31.529  30.077  25.676  1.00  0.00     0.004 A 
ATOM     26  C   UNL A   1      33.615  29.209  24.816  1.00  0.00     0.004 A 
ATOM     27  C   UNL A   1      32.913  29.905  25.808  1.00  0.00    -0.051 A 
ATOM     28  C   UNL A   1      33.633  30.503  26.982  1.00  0.00     0.044 C 
ENDBRANCH  19  22
ENDBRANCH  12  18
ENDBRANCH   4   7
ENDBRANCH   2   3
ENDBRANCH   1   2
BRANCH   1  29
ATOM     29  C   UNL A   1      38.156  23.154  25.457  1.00  0.00     0.023 C 
BRANCH  29  30
ATOM     30  C   UNL A   1      39.001  22.152  26.243  1.00  0.00     0.116 C 
BRANCH  30  31
ATOM     31  N   UNL A   1      40.436  22.402  26.271  1.00  0.00    -0.352 N 
ATOM     32  C   UNL A   1      41.127  23.599  26.450  1.00  0.00     0.251 C 
ATOM     33  H   UNL A   1      41.001  21.606  26.145  1.00  0.00     0.163 HD
ATOM     34  O   UNL A   1      42.333  23.629  26.336  1.00  0.00    -0.269 OA
BRANCH  32  35
ATOM     35  C   UNL A   1      40.395  24.807  26.927  1.00  0.00     0.039 A 
ATOM     36  C   UNL A   1      40.517  25.978  26.168  1.00  0.00     0.014 A 
ATOM     37  C   UNL A   1      39.811  24.855  28.188  1.00  0.00     0.014 A 
ATOM     38  C   UNL A   1      40.334  27.212  26.785  1.00  0.00     0.010 A 
ATOM     39  C   UNL A   1      39.736  26.074  28.835  1.00  0.00     0.010 A 
ATOM     40  C   UNL A   1      40.082  27.244  28.153  1.00  0.00    -0.014 A 
BRANCH  40  41
ATOM     41  C   UNL A   1      40.312  28.424  28.978  1.00  0.00     0.031 A 
ATOM     42  C   UNL A   1      39.270  29.454  29.126  1.00  0.00     0.074 A 
ATOM     43  C   UNL A   1      41.475  28.535  29.661  1.00  0.00     0.049 A 
ATOM     44  N   UNL A   1      39.494  30.657  29.533  1.00  0.00    -0.248 NA
ATOM     45  C   UNL A   1      37.883  29.230  28.728  1.00  0.00     0.031 C 
ATOM     46  C   UNL A   1      41.791  29.450  30.754  1.00  0.00     0.029 A 
ATOM     47  N   UNL A   1      42.704  27.967  29.317  1.00  0.00    -0.354 N 
ATOM     48  C   UNL A   1      38.276  31.257  29.736  1.00  0.00     0.074 A 
ATOM     49  C   UNL A   1      37.322  30.387  29.093  1.00  0.00     0.031 C 
ATOM     50  C   UNL A   1      43.124  29.585  30.834  1.00  0.00     0.029 A 
ATOM     51  C   UNL A   1      43.696  28.893  29.690  1.00  0.00     0.049 A 
ATOM     52  H   UNL A   1      42.849  27.090  28.896  1.00  0.00     0.167 HD
ATOM     53  C   UNL A   1      38.202  32.344  30.553  1.00  0.00     0.031 A 
ATOM     54  C   UNL A   1      44.502  29.478  28.757  1.00  0.00     0.031 A 
ATOM     55  C   UNL A   1      39.532  32.866  30.872  1.00  0.00     0.049 A 
ATOM     56  C   UNL A   1      44.396  30.987  28.711  1.00  0.00     0.074 A 
ATOM     57  C   UNL A   1      40.331  32.817  32.003  1.00  0.00     0.029 A 
ATOM     58  N   UNL A   1      40.340  33.327  29.838  1.00  0.00    -0.354 N 
ATOM     59  N   UNL A   1      43.399  31.668  29.204  1.00  0.00    -0.248 NA
ATOM     60  C   UNL A   1      45.389  31.841  28.066  1.00  0.00     0.031 C 
ATOM     61  C   UNL A   1      41.654  33.171  31.617  1.00  0.00     0.029 A 
ATOM     62  C   UNL A   1      41.644  33.479  30.267  1.00  0.00     0.049 A 
ATOM     63  H   UNL A   1      40.027  33.519  28.926  1.00  0.00     0.167 HD
ATOM     64  C   UNL A   1      43.588  33.003  28.958  1.00  0.00     0.074 A 
ATOM     65  C   UNL A   1      44.857  33.062  28.256  1.00  0.00     0.031 C 
ATOM     66  C   UNL A   1      42.672  33.943  29.341  1.00  0.00     0.031 A 
BRANCH  53  67
ATOM     67  C   UNL A   1      36.940  32.789  31.264  1.00  0.00    -0.014 A 
ATOM     68  C   UNL A   1      36.712  32.378  32.592  1.00  0.00     0.009 A 
ATOM     69  C   UNL A   1      35.888  33.510  30.669  1.00  0.00     0.009 A 
ATOM     70  C   UNL A   1      35.500  32.632  33.256  1.00  0.00     0.001 A 
ATOM     71  C   UNL A   1      34.680  33.777  31.326  1.00  0.00     0.001 A 
ATOM     72  C   UNL A   1      34.480  33.326  32.619  1.00  0.00     0.000 A 
ENDBRANCH  53  67
BRANCH  54  73
ATOM     73  C   UNL A   1      44.776  28.616  27.572  1.00  0.00    -0.014 A 
ATOM     74  C   UNL A   1      45.683  27.546  27.715  1.00  0.00     0.009 A 
ATOM     75  C   UNL A   1      43.917  28.621  26.464  1.00  0.00     0.009 A 
ATOM     76  C   UNL A   1      45.648  26.455  26.842  1.00  0.00     0.001 A 
ATOM     77  C   UNL A   1      43.896  27.533  25.583  1.00  0.00     0.001 A 
ATOM     78  C   UNL A   1      44.733  26.436  25.793  1.00  0.00     0.000 A 
ENDBRANCH  54  73
BRANCH  66  79
ATOM     79  C   UNL A   1      42.657  35.401  28.937  1.00  0.00    -0.014 A 
ATOM     80  C   UNL A   1      43.268  36.437  29.655  1.00  0.00     0.009 A 
ATOM     81  C   UNL A   1      42.099  35.754  27.685  1.00  0.00     0.009 A 
ATOM     82  C   UNL A   1      43.281  37.755  29.175  1.00  0.00     0.001 A 
ATOM     83  C   UNL A   1      42.150  37.055  27.180  1.00  0.00     0.001 A 
ATOM     84  C   UNL A   1      42.733  38.062  27.933  1.00  0.00     0.000 A 
ENDBRANCH  66  79
ENDBRANCH  40  41
ENDBRANCH  32  35
ENDBRANCH  30  31
ENDBRANCH  29  30
ENDBRANCH   1  29
TORSDOF 16
ENDMDL
MODEL 2
REMARK VINA RESULT:     -11.5      1.977      3.225
REMARK SMILES CCN(CC)c1ncc(NC(=O)c2ccc(C)cc2)cc1C(=O)NCCCCNC(=O)c1ccc(-c2c3nc(c(-c4ccccc4)c4ccc([nH]4)c(-c4ccccc4)c4nc(c(-c5ccccc5)c5ccc2[nH]5)C=C4)C=C3)cc1
REMARK SMILES IDX 26 1 25 2 24 3 22 4 23 5 21 7 6 8 7 9 8 10 20 11 9 12 3 13
REMARK SMILES IDX 2 14 1 15 4 16 5 17 10 18 11 19 12 21 13 22 14 23 19 24
REMARK SMILES IDX 15 25 18 26 16 27 17 28 27 29 28 30 29 31 30 32 31 34 32 35
REMARK SMILES IDX 33 36 79 37 34 38 78 39 35 40 36 41 37 42 72 43 38 44 77 45
REMARK SMILES IDX 71 46 73 47 39 48 76 49 70 50 69 51 40 53 62 54 47 55 61 56
REMARK SMILES IDX 48 57 51 58 60 59 74 60 49 61 50 62 59 64 75 65 52 66 41 67
REMARK SMILES IDX 42 68 46 69 43 70 45 71 44 72 63 73 64 74 68 75 65 76 67 77
REMARK SMILES IDX 66 78 53 79 54 80 58 81 55 82 57 83 56 84
REMARK H PARENT 24 6 10 20 29 33 73 52 51 63
REMARK Flexibility Score: inf
ROOT
ATOM      1  C   UNL A   1      37.783  23.950  26.197  1.00  0.00     0.023 C 
ENDROOT
BRANCH   1   2
ATOM      2  C   UNL A   1      36.349  24.138  25.698  1.00  0.00     0.116 C 
BRANCH   2   3
ATOM      3  N   UNL A   1      36.045  23.566  24.392  1.00  0.00    -0.352 N 
ATOM      4  C   UNL A   1      34.915  23.374  23.620  1.00  0.00     0.255 C 
ATOM      5  O   UNL A   1      35.137  23.121  22.436  1.00  0.00    -0.269 OA
ATOM      6  H   UNL A   1      36.855  23.229  23.944  1.00  0.00     0.163 HD
BRANCH   4   7
ATOM      7  C   UNL A   1      33.508  23.453  24.119  1.00  0.00     0.084 A 
ATOM      8  C   UNL A   1      32.959  22.456  24.957  1.00  0.00     0.141 A 
ATOM      9  N   UNL A   1      31.652  22.504  25.328  1.00  0.00    -0.236 NA
ATOM     10  C   UNL A   1      30.868  23.513  24.898  1.00  0.00     0.139 A 
ATOM     11  C   UNL A   1      32.644  24.463  23.672  1.00  0.00     0.045 A 
ATOM     12  C   UNL A   1      31.322  24.549  24.111  1.00  0.00     0.060 A 
BRANCH   8  13
ATOM     13  N   UNL A   1      33.658  21.369  25.454  1.00  0.00    -0.357 N 
BRANCH  13  14
ATOM     14  C   UNL A   1      33.561  21.094  26.885  1.00  0.00     0.114 C 
ATOM     15  C   UNL A   1      34.110  22.241  27.715  1.00  0.00     0.027 C 
ENDBRANCH  13  14
BRANCH  13  16
ATOM     16  C   UNL A   1      33.842  20.228  24.549  1.00  0.00     0.114 C 
ATOM     17  C   UNL A   1      32.579  19.399  24.320  1.00  0.00     0.027 C 
ENDBRANCH  13  16
ENDBRANCH   8  13
BRANCH  12  18
ATOM     18  N   UNL A   1      30.564  25.651  23.680  1.00  0.00    -0.321 N 
ATOM     19  C   UNL A   1      30.512  26.963  24.093  1.00  0.00     0.255 C 
ATOM     20  H   UNL A   1      29.951  25.445  22.937  1.00  0.00     0.170 HD
ATOM     21  O   UNL A   1      29.588  27.675  23.698  1.00  0.00    -0.269 OA
BRANCH  19  22
ATOM     22  C   UNL A   1      31.556  27.571  24.946  1.00  0.00     0.040 A 
ATOM     23  C   UNL A   1      31.364  27.568  26.331  1.00  0.00     0.014 A 
ATOM     24  C   UNL A   1      32.687  28.189  24.400  1.00  0.00     0.014 A 
ATOM     25  C   UNL A   1      32.340  28.107  27.170  1.00  0.00     0.004 A 
ATOM     26  C   UNL A   1      33.671  28.709  25.244  1.00  0.00     0.004 A 
ATOM     27  C   UNL A   1      33.513  28.653  26.635  1.00  0.00    -0.051 A 
ATOM     28  C   UNL A   1      34.565  29.211  27.549  1.00  0.00     0.044 C 
ENDBRANCH  19  22
ENDBRANCH  12  18
ENDBRANCH   4   7
ENDBRANCH   2   3
ENDBRANCH   1   2
BRANCH   1  29
ATOM     29  C   UNL A   1      38.419  22.582  25.920  1.00  0.00     0.023 C 
BRANCH  29  30
ATOM     30  C   UNL A   1      39.679  22.259  26.720  1.00  0.00     0.116 C 
BRANCH  30  31
ATOM     31  N   UNL A   1      40.492  21.156  26.225  1.00  0.00    -0.352 N 
ATOM     32  C   UNL A   1      41.878  21.049  26.121  1.00  0.00     0.251 C 
ATOM     33  H   UNL A   1      39.987  20.369  25.918  1.00  0.00     0.163 HD
ATOM     34  O   UNL A   1      42.377  20.088  25.579  1.00  0.00    -0.269 OA
BRANCH  32  35
ATOM     35  C   UNL A   1      42.746  22.049  26.807  1.00  0.00     0.039 A 
ATOM     36  C   UNL A   1      42.769  22.032  28.208  1.00  0.00     0.014 A 
ATOM     37  C   UNL A   1      43.323  23.109  26.117  1.00  0.00     0.014 A 
ATOM     38  C   UNL A   1      43.093  23.196  28.898  1.00  0.00     0.010 A 
ATOM     39  C   UNL A   1      43.539  24.296  26.790  1.00  0.00     0.010 A 
ATOM     40  C   UNL A   1      43.339  24.357  28.172  1.00  0.00    -0.014 A 
BRANCH  40  41
ATOM     41  C   UNL A   1      43.245  25.693  28.750  1.00  0.00     0.031 A 
ATOM     42  C   UNL A   1      41.998  26.471  28.648  1.00  0.00     0.074 A 
ATOM     43  C   UNL A   1      44.298  26.189  29.438  1.00  0.00     0.049 A 
ATOM     44  N   UNL A   1      41.927  27.748  28.811  1.00  0.00    -0.248 NA
ATOM     45  C   UNL A   1      40.728  25.869  28.252  1.00  0.00     0.031 C 
ATOM     46  C   UNL A   1      44.323  27.341  30.335  1.00  0.00     0.029 A 
ATOM     47  N   UNL A   1      45.644  25.858  29.262  1.00  0.00    -0.354 N 
ATOM     48  C   UNL A   1      40.597  28.086  28.844  1.00  0.00     0.074 A 
ATOM     49  C   UNL A   1      39.905  26.918  28.356  1.00  0.00     0.031 C 
ATOM     50  C   UNL A   1      45.585  27.786  30.434  1.00  0.00     0.029 A 
ATOM     51  C   UNL A   1      46.382  27.037  29.476  1.00  0.00     0.049 A 
ATOM     52  H   UNL A   1      46.005  24.973  29.032  1.00  0.00     0.167 HD
ATOM     53  C   UNL A   1      40.227  29.263  29.422  1.00  0.00     0.031 A 
ATOM     54  C   UNL A   1      47.117  27.601  28.474  1.00  0.00     0.031 A 
ATOM     55  C   UNL A   1      41.385  30.121  29.678  1.00  0.00     0.049 A 
ATOM     56  C   UNL A   1      46.696  29.011  28.121  1.00  0.00     0.074 A 
ATOM     57  C   UNL A   1      42.083  30.467  30.823  1.00  0.00     0.029 A 
ATOM     58  N   UNL A   1      42.157  30.549  28.602  1.00  0.00    -0.354 N 
ATOM     59  N   UNL A   1      45.540  29.531  28.429  1.00  0.00    -0.248 NA
ATOM     60  C   UNL A   1      47.532  29.929  27.354  1.00  0.00     0.031 C 
ATOM     61  C   UNL A   1      43.325  31.031  30.423  1.00  0.00     0.029 A 
ATOM     62  C   UNL A   1      43.359  31.067  29.040  1.00  0.00     0.049 A 
ATOM     63  H   UNL A   1      41.884  30.489  27.659  1.00  0.00     0.167 HD
ATOM     64  C   UNL A   1      45.459  30.803  27.926  1.00  0.00     0.074 A 
ATOM     65  C   UNL A   1      46.739  31.012  27.273  1.00  0.00     0.031 C 
ATOM     66  C   UNL A   1      44.336  31.567  28.077  1.00  0.00     0.031 A 
BRANCH  53  67
ATOM     67  C   UNL A   1      38.846  29.538  29.981  1.00  0.00    -0.014 A 
ATOM     68  C   UNL A   1      38.039  30.522  29.377  1.00  0.00     0.009 A 
ATOM     69  C   UNL A   1      38.316  28.961  31.149  1.00  0.00     0.009 A 
ATOM     70  C   UNL A   1      36.813  30.928  29.930  1.00  0.00     0.001 A 
ATOM     71  C   UNL A   1      37.090  29.351  31.703  1.00  0.00     0.001 A 
ATOM     72  C   UNL A   1      36.341  30.346  31.099  1.00  0.00     0.000 A 
ENDBRANCH  53  67
BRANCH  54  73
ATOM     73  C   UNL A   1      47.663  26.615  27.499  1.00  0.00    -0.014 A 
ATOM     74  C   UNL A   1      46.998  26.448  26.268  1.00  0.00     0.009 A 
ATOM     75  C   UNL A   1      48.973  26.132  27.622  1.00  0.00     0.009 A 
ATOM     76  C   UNL A   1      47.664  25.923  25.158  1.00  0.00     0.001 A 
ATOM     77  C   UNL A   1      49.633  25.591  26.510  1.00  0.00     0.001 A 
ATOM     78  C   UNL A   1      48.992  25.521  25.273  1.00  0.00     0.000 A 
ENDBRANCH  54  73
BRANCH  66  79
ATOM     79  C   UNL A   1      44.043  32.882  27.386  1.00  0.00    -0.014 A 
ATOM     80  C   UNL A   1      44.034  33.073  25.999  1.00  0.00     0.009 A 
ATOM     81  C   UNL A   1      43.625  33.983  28.172  1.00  0.00     0.009 A 
ATOM     82  C   UNL A   1      43.673  34.304  25.430  1.00  0.00     0.001 A 
ATOM     83  C   UNL A   1      43.220  35.195  27.609  1.00  0.00     0.001 A 
ATOM     84  C   UNL A   1      43.255  35.360  26.233  1.00  0.00     0.000 A 
ENDBRANCH  66  79
ENDBRANCH  40  41
ENDBRANCH  32  35
ENDBRANCH  30  31
ENDBRANCH  29  30
ENDBRANCH   1  29
TORSDOF 16
ENDMDL
MODEL 3
REMARK VINA RESULT:     -11.4      3.468      8.869
REMARK SMILES CCN(CC)c1ncc(NC(=O)c2ccc(C)cc2)cc1C(=O)NCCCCNC(=O)c1ccc(-c2c3nc(c(-c4ccccc4)c4ccc([nH]4)c(-c4ccccc4)c4nc(c(-c5ccccc5)c5ccc2[nH]5)C=C4)C=C3)cc1
REMARK SMILES IDX 26 1 25 2 24 3 22 4 23 5 21 7 6 8 7 9 8 10 20 11 9 12 3 13
REMARK SMILES IDX 2 14 1 15 4 16 5 17 10 18 11 19 12 21 13 22 14 23 19 24
REMARK SMILES IDX 15 25 18 26 16 27 17 28 27 29 28 30 29 31 30 32 31 34 32 35
REMARK SMILES IDX 33 36 79 37 34 38 78 39 35 40 36 41 37 42 72 43 38 44 77 45
REMARK SMILES IDX 71 46 73 47 39 48 76 49 70 50 69 51 40 53 62 54 47 55 61 56
REMARK SMILES IDX 48 57 51 58 60 59 74 60 49 61 50 62 59 64 75 65 52 66 41 67
REMARK SMILES IDX 42 68 46 69 43 70 45 71 44 72 63 73 64 74 68 75 65 76 67 77
REMARK SMILES IDX 66 78 53 79 54 80 58 81 55 82 57 83 56 84
REMARK H PARENT 24 6 10 20 29 33 73 52 51 63
REMARK Flexibility Score: inf
ROOT
ATOM      1  C   UNL A   1      32.134  28.738  27.470  1.00  0.00     0.023 C 
ENDROOT
BRANCH   1   2
ATOM      2  C   UNL A   1      32.004  27.392  26.753  1.00  0.00     0.116 C 
BRANCH   2   3
ATOM      3  N   UNL A   1      30.764  27.175  26.020  1.00  0.00    -0.352 N 
ATOM      4  C   UNL A   1      30.339  26.359  24.988  1.00  0.00     0.255 C 
ATOM      5  O   UNL A   1      29.117  26.276  24.866  1.00  0.00    -0.269 OA
ATOM      6  H   UNL A   1      30.041  27.761  26.342  1.00  0.00     0.163 HD
BRANCH   4   7
ATOM      7  C   UNL A   1      31.238  25.608  24.059  1.00  0.00     0.084 A 
ATOM      8  C   UNL A   1      31.820  26.224  22.928  1.00  0.00     0.141 A 
ATOM      9  N   UNL A   1      32.564  25.500  22.049  1.00  0.00    -0.236 NA
ATOM     10  C   UNL A   1      32.755  24.182  22.258  1.00  0.00     0.139 A 
ATOM     11  C   UNL A   1      31.438  24.229  24.213  1.00  0.00     0.045 A 
ATOM     12  C   UNL A   1      32.259  23.503  23.349  1.00  0.00     0.060 A 
BRANCH   8  13
ATOM     13  N   UNL A   1      31.690  27.564  22.603  1.00  0.00    -0.357 N 
BRANCH  13  14
ATOM     14  C   UNL A   1      30.367  28.046  22.217  1.00  0.00     0.114 C 
ATOM     15  C   UNL A   1      30.214  29.534  22.480  1.00  0.00     0.027 C 
ENDBRANCH  13  14
BRANCH  13  16
ATOM     16  C   UNL A   1      32.588  28.502  23.287  1.00  0.00     0.114 C 
ATOM     17  C   UNL A   1      34.029  28.476  22.779  1.00  0.00     0.027 C 
ENDBRANCH  13  16
ENDBRANCH   8  13
BRANCH  12  18
ATOM     18  N   UNL A   1      32.472  22.144  23.642  1.00  0.00    -0.321 N 
ATOM     19  C   UNL A   1      33.582  21.446  24.061  1.00  0.00     0.255 C 
ATOM     20  H   UNL A   1      31.671  21.583  23.525  1.00  0.00     0.170 HD
ATOM     21  O   UNL A   1      33.558  20.215  24.023  1.00  0.00    -0.269 OA
BRANCH  19  22
ATOM     22  C   UNL A   1      34.780  22.113  24.614  1.00  0.00     0.040 A 
ATOM     23  C   UNL A   1      34.740  22.551  25.941  1.00  0.00     0.014 A 
ATOM     24  C   UNL A   1      35.913  22.360  23.831  1.00  0.00     0.014 A 
ATOM     25  C   UNL A   1      35.861  23.161  26.507  1.00  0.00     0.004 A 
ATOM     26  C   UNL A   1      37.040  22.952  24.408  1.00  0.00     0.004 A 
ATOM     27  C   UNL A   1      37.028  23.337  25.754  1.00  0.00    -0.051 A 
ATOM     28  C   UNL A   1      38.234  23.975  26.381  1.00  0.00     0.044 C 
ENDBRANCH  19  22
ENDBRANCH  12  18
ENDBRANCH   4   7
ENDBRANCH   2   3
ENDBRANCH   1   2
BRANCH   1  29
ATOM     29  C   UNL A   1      33.022  29.784  26.783  1.00  0.00     0.023 C 
BRANCH  29  30
ATOM     30  C   UNL A   1      34.526  29.623  26.994  1.00  0.00     0.116 C 
BRANCH  30  31
ATOM     31  N   UNL A   1      35.232  30.786  27.517  1.00  0.00    -0.352 N 
ATOM     32  C   UNL A   1      36.501  30.874  28.085  1.00  0.00     0.251 C 
ATOM     33  H   UNL A   1      34.738  31.635  27.460  1.00  0.00     0.163 HD
ATOM     34  O   UNL A   1      36.882  31.918  28.567  1.00  0.00    -0.269 OA
BRANCH  32  35
ATOM     35  C   UNL A   1      37.441  29.723  27.968  1.00  0.00     0.039 A 
ATOM     36  C   UNL A   1      37.448  28.785  29.008  1.00  0.00     0.014 A 
ATOM     37  C   UNL A   1      38.440  29.693  27.001  1.00  0.00     0.014 A 
ATOM     38  C   UNL A   1      38.595  28.032  29.239  1.00  0.00     0.010 A 
ATOM     39  C   UNL A   1      39.619  29.031  27.288  1.00  0.00     0.010 A 
ATOM     40  C   UNL A   1      39.720  28.270  28.456  1.00  0.00    -0.014 A 
BRANCH  40  41
ATOM     41  C   UNL A   1      41.069  27.896  28.864  1.00  0.00     0.031 A 
ATOM     42  C   UNL A   1      41.700  26.670  28.346  1.00  0.00     0.074 A 
ATOM     43  C   UNL A   1      41.764  28.723  29.679  1.00  0.00     0.049 A 
ATOM     44  N   UNL A   1      42.713  26.090  28.895  1.00  0.00    -0.248 NA
ATOM     45  C   UNL A   1      41.168  25.937  27.202  1.00  0.00     0.031 C 
ATOM     46  C   UNL A   1      43.195  28.707  29.966  1.00  0.00     0.029 A 
ATOM     47  N   UNL A   1      41.234  29.621  30.609  1.00  0.00    -0.354 N 
ATOM     48  C   UNL A   1      43.143  25.112  28.034  1.00  0.00     0.074 A 
ATOM     49  C   UNL A   1      42.076  24.965  27.075  1.00  0.00     0.031 C 
ATOM     50  C   UNL A   1      43.411  29.335  31.133  1.00  0.00     0.029 A 
ATOM     51  C   UNL A   1      42.109  29.626  31.711  1.00  0.00     0.049 A 
ATOM     52  H   UNL A   1      40.408  30.148  30.512  1.00  0.00     0.167 HD
ATOM     53  C   UNL A   1      44.418  24.645  28.148  1.00  0.00     0.031 A 
ATOM     54  C   UNL A   1      41.697  29.201  32.941  1.00  0.00     0.031 A 
ATOM     55  C   UNL A   1      45.045  25.096  29.391  1.00  0.00     0.049 A 
ATOM     56  C   UNL A   1      42.482  28.025  33.480  1.00  0.00     0.074 A 
ATOM     57  C   UNL A   1      46.005  26.051  29.685  1.00  0.00     0.029 A 
ATOM     58  N   UNL A   1      44.482  24.718  30.606  1.00  0.00    -0.354 N 
ATOM     59  N   UNL A   1      43.212  27.231  32.746  1.00  0.00    -0.248 NA
ATOM     60  C   UNL A   1      42.470  27.629  34.885  1.00  0.00     0.031 C 
ATOM     61  C   UNL A   1      45.953  26.306  31.083  1.00  0.00     0.029 A 
ATOM     62  C   UNL A   1      44.995  25.475  31.640  1.00  0.00     0.049 A 
ATOM     63  H   UNL A   1      43.809  24.008  30.713  1.00  0.00     0.167 HD
ATOM     64  C   UNL A   1      43.751  26.245  33.531  1.00  0.00     0.074 A 
ATOM     65  C   UNL A   1      43.268  26.548  34.866  1.00  0.00     0.031 C 
ATOM     66  C   UNL A   1      44.535  25.256  33.008  1.00  0.00     0.031 A 
BRANCH  53  67
ATOM     67  C   UNL A   1      45.185  23.983  27.021  1.00  0.00    -0.014 A 
ATOM     68  C   UNL A   1      45.990  24.771  26.176  1.00  0.00     0.009 A 
ATOM     69  C   UNL A   1      45.081  22.627  26.660  1.00  0.00     0.009 A 
ATOM     70  C   UNL A   1      46.609  24.245  25.028  1.00  0.00     0.001 A 
ATOM     71  C   UNL A   1      45.702  22.092  25.524  1.00  0.00     0.001 A 
ATOM     72  C   UNL A   1      46.458  22.905  24.698  1.00  0.00     0.000 A 
ENDBRANCH  53  67
BRANCH  54  73
ATOM     73  C   UNL A   1      40.251  29.444  33.209  1.00  0.00    -0.014 A 
ATOM     74  C   UNL A   1      39.824  30.766  33.445  1.00  0.00     0.009 A 
ATOM     75  C   UNL A   1      39.288  28.477  32.888  1.00  0.00     0.009 A 
ATOM     76  C   UNL A   1      38.491  31.135  33.249  1.00  0.00     0.001 A 
ATOM     77  C   UNL A   1      37.950  28.849  32.707  1.00  0.00     0.001 A 
ATOM     78  C   UNL A   1      37.559  30.180  32.851  1.00  0.00     0.000 A 
ENDBRANCH  54  73
BRANCH  66  79
ATOM     79  C   UNL A   1      44.999  24.004  33.721  1.00  0.00    -0.014 A 
ATOM     80  C   UNL A   1      44.222  22.853  33.905  1.00  0.00     0.009 A 
ATOM     81  C   UNL A   1      46.351  23.919  34.132  1.00  0.00     0.009 A 
ATOM     82  C   UNL A   1      44.750  21.700  34.506  1.00  0.00     0.001 A 
ATOM     83  C   UNL A   1      46.894  22.758  34.687  1.00  0.00     0.001 A 
ATOM     84  C   UNL A   1      46.088  21.648  34.886  1.00  0.00     0.000 A 
ENDBRANCH  66  79
ENDBRANCH  40  41
ENDBRANCH  32  35
ENDBRANCH  30  31
ENDBRANCH  29  30
ENDBRANCH   1  29
TORSDOF 16
ENDMDL
