MODEL 1
REMARK VINA RESULT:     -11.6      0.000      0.000
REMARK SMILES O=C(CC[N@H+]1CCC[C@H](c2nccn2Cc2cscn2)C1)NCCCCNC(=O)c1ccc(-c2c3nc(c(-c4ccccc4)c4ccc([nH]4)c(-c4ccccc4)c4nc(c(-c5ccccc5)c5ccc2[nH]5)C=C4)C=C3)cc1
REMARK SMILES IDX 23 1 22 2 1 3 2 4 3 6 4 7 5 8 6 9 21 10 7 12 9 13 8 14 10 15
REMARK SMILES IDX 11 16 14 17 12 18 13 19 15 20 16 21 17 22 20 23 18 24 19 25
REMARK SMILES IDX 24 26 25 27 26 28 27 29 28 30 29 32 30 33 31 34 77 35 32 36
REMARK SMILES IDX 76 37 33 38 34 39 35 40 70 41 36 42 75 43 69 44 71 45 37 46
REMARK SMILES IDX 74 47 68 48 67 49 38 51 60 52 45 53 59 54 46 55 49 56 58 57
REMARK SMILES IDX 72 58 47 59 48 60 57 62 73 63 50 64 39 65 40 66 44 67 41 68
REMARK SMILES IDX 43 69 42 70 61 71 62 72 66 73 63 74 65 75 64 76 51 77 52 78
REMARK SMILES IDX 56 79 53 80 55 81 54 82
REMARK H PARENT 22 5 5 11 27 31 71 50 49 61
REMARK Flexibility Score: inf
ROOT
ATOM      1  C   UNL A   1      34.713  33.344  32.225  1.00  0.00     0.116 C 
ENDROOT
BRANCH   1   2
ATOM      2  N   UNL A   1      34.629  32.372  31.152  1.00  0.00    -0.356 N 
ATOM      3  O   UNL A   1      35.483  33.775  29.540  1.00  0.00    -0.275 OA
ATOM      4  C   UNL A   1      35.109  32.660  29.888  1.00  0.00     0.225 C 
ATOM      5  H   UNL A   1      34.222  31.493  31.325  1.00  0.00     0.163 HD
BRANCH   4   6
ATOM      6  C   UNL A   1      35.212  31.456  28.978  1.00  0.00     0.161 C 
BRANCH   6   7
ATOM      7  C   UNL A   1      34.489  31.691  27.647  1.00  0.00     0.272 C 
BRANCH   7   8
ATOM      8  N   UNL A   1      33.744  30.578  27.045  1.00  0.00    -0.334 N 
ATOM      9  C   UNL A   1      34.115  29.261  27.546  1.00  0.00     0.262 C 
ATOM     10  C   UNL A   1      32.353  30.842  26.715  1.00  0.00     0.273 C 
ATOM     11  H   UNL A   1      34.097  30.512  26.090  1.00  0.00     0.348 HD
ATOM     12  C   UNL A   1      33.260  28.092  27.067  1.00  0.00     0.062 C 
ATOM     13  C   UNL A   1      31.660  29.677  26.006  1.00  0.00     0.111 C 
ATOM     14  C   UNL A   1      31.789  28.460  26.936  1.00  0.00     0.023 C 
BRANCH  13  15
ATOM     15  C   UNL A   1      32.074  29.262  24.604  1.00  0.00     0.117 A 
ATOM     16  N   UNL A   1      33.370  29.225  24.308  1.00  0.00    -0.241 NA
ATOM     17  N   UNL A   1      31.334  29.001  23.460  1.00  0.00    -0.328 N 
ATOM     18  C   UNL A   1      33.471  28.981  22.977  1.00  0.00     0.131 A 
ATOM     19  C   UNL A   1      32.237  28.769  22.440  1.00  0.00     0.108 A 
BRANCH  17  20
ATOM     20  C   UNL A   1      29.899  28.881  23.226  1.00  0.00     0.180 C 
BRANCH  20  21
ATOM     21  C   UNL A   1      29.268  30.180  22.811  1.00  0.00     0.071 A 
ATOM     22  C   UNL A   1      28.756  30.514  21.568  1.00  0.00     0.092 A 
ATOM     23  N   UNL A   1      29.086  31.174  23.764  1.00  0.00    -0.248 NA
ATOM     24  S   UNL A   1      28.191  32.128  21.571  1.00  0.00    -0.130 S 
ATOM     25  C   UNL A   1      28.611  32.265  23.213  1.00  0.00     0.175 A 
ENDBRANCH  20  21
ENDBRANCH  17  20
ENDBRANCH  13  15
ENDBRANCH   7   8
ENDBRANCH   6   7
ENDBRANCH   4   6
ENDBRANCH   1   2
BRANCH   1  26
ATOM     26  C   UNL A   1      35.879  33.097  33.186  1.00  0.00     0.023 C 
BRANCH  26  27
ATOM     27  C   UNL A   1      36.859  34.266  33.386  1.00  0.00     0.023 C 
BRANCH  27  28
ATOM     28  C   UNL A   1      38.187  34.128  32.643  1.00  0.00     0.116 C 
BRANCH  28  29
ATOM     29  N   UNL A   1      38.103  34.453  31.227  1.00  0.00    -0.352 N 
ATOM     30  C   UNL A   1      38.761  33.858  30.164  1.00  0.00     0.251 C 
ATOM     31  H   UNL A   1      37.499  35.195  30.994  1.00  0.00     0.163 HD
ATOM     32  O   UNL A   1      38.842  34.445  29.095  1.00  0.00    -0.269 OA
BRANCH  30  33
ATOM     33  C   UNL A   1      39.380  32.516  30.311  1.00  0.00     0.039 A 
ATOM     34  C   UNL A   1      38.572  31.374  30.365  1.00  0.00     0.014 A 
ATOM     35  C   UNL A   1      40.760  32.385  30.441  1.00  0.00     0.014 A 
ATOM     36  C   UNL A   1      39.164  30.110  30.452  1.00  0.00     0.010 A 
ATOM     37  C   UNL A   1      41.350  31.129  30.445  1.00  0.00     0.010 A 
ATOM     38  C   UNL A   1      40.562  29.982  30.455  1.00  0.00    -0.014 A 
BRANCH  38  39
ATOM     39  C   UNL A   1      41.184  28.662  30.251  1.00  0.00     0.031 A 
ATOM     40  C   UNL A   1      41.972  28.184  31.427  1.00  0.00     0.074 A 
ATOM     41  C   UNL A   1      40.898  27.818  29.230  1.00  0.00     0.049 A 
ATOM     42  N   UNL A   1      43.236  27.913  31.487  1.00  0.00    -0.248 NA
ATOM     43  C   UNL A   1      41.293  28.122  32.731  1.00  0.00     0.031 C 
ATOM     44  C   UNL A   1      39.902  28.015  28.172  1.00  0.00     0.029 A 
ATOM     45  N   UNL A   1      41.349  26.546  28.980  1.00  0.00    -0.354 N 
ATOM     46  C   UNL A   1      43.474  27.457  32.788  1.00  0.00     0.074 A 
ATOM     47  C   UNL A   1      42.291  27.772  33.542  1.00  0.00     0.031 C 
ATOM     48  C   UNL A   1      39.656  26.840  27.551  1.00  0.00     0.029 A 
ATOM     49  C   UNL A   1      40.581  25.839  28.051  1.00  0.00     0.049 A 
ATOM     50  H   UNL A   1      42.144  26.165  29.416  1.00  0.00     0.167 HD
ATOM     51  C   UNL A   1      44.510  26.607  33.051  1.00  0.00     0.031 A 
ATOM     52  C   UNL A   1      40.681  24.527  27.717  1.00  0.00     0.031 A 
ATOM     53  C   UNL A   1      45.425  26.565  31.939  1.00  0.00     0.049 A 
ATOM     54  C   UNL A   1      42.025  24.073  28.125  1.00  0.00     0.074 A 
ATOM     55  C   UNL A   1      46.406  27.363  31.399  1.00  0.00     0.029 A 
ATOM     56  N   UNL A   1      45.069  25.650  30.986  1.00  0.00    -0.354 N 
ATOM     57  N   UNL A   1      43.119  24.441  27.526  1.00  0.00    -0.248 NA
ATOM     58  C   UNL A   1      42.206  23.396  29.403  1.00  0.00     0.031 C 
ATOM     59  C   UNL A   1      46.495  26.999  30.020  1.00  0.00     0.029 A 
ATOM     60  C   UNL A   1      45.603  25.958  29.769  1.00  0.00     0.049 A 
ATOM     61  H   UNL A   1      44.497  24.867  31.157  1.00  0.00     0.167 HD
ATOM     62  C   UNL A   1      44.062  24.461  28.533  1.00  0.00     0.074 A 
ATOM     63  C   UNL A   1      43.507  23.627  29.593  1.00  0.00     0.031 C 
ATOM     64  C   UNL A   1      45.039  25.412  28.553  1.00  0.00     0.031 A 
BRANCH  51  65
ATOM     65  C   UNL A   1      44.397  25.396  33.979  1.00  0.00    -0.014 A 
ATOM     66  C   UNL A   1      45.586  24.720  34.330  1.00  0.00     0.009 A 
ATOM     67  C   UNL A   1      43.204  24.716  34.262  1.00  0.00     0.009 A 
ATOM     68  C   UNL A   1      45.580  23.391  34.774  1.00  0.00     0.001 A 
ATOM     69  C   UNL A   1      43.190  23.387  34.710  1.00  0.00     0.001 A 
ATOM     70  C   UNL A   1      44.380  22.711  34.929  1.00  0.00     0.000 A 
ENDBRANCH  51  65
BRANCH  52  71
ATOM     71  C   UNL A   1      39.710  23.567  27.131  1.00  0.00    -0.014 A 
ATOM     72  C   UNL A   1      38.422  24.000  26.758  1.00  0.00     0.009 A 
ATOM     73  C   UNL A   1      40.105  22.296  26.693  1.00  0.00     0.009 A 
ATOM     74  C   UNL A   1      37.607  23.237  25.911  1.00  0.00     0.001 A 
ATOM     75  C   UNL A   1      39.278  21.520  25.868  1.00  0.00     0.001 A 
ATOM     76  C   UNL A   1      38.047  22.004  25.445  1.00  0.00     0.000 A 
ENDBRANCH  52  71
BRANCH  64  77
ATOM     77  C   UNL A   1      45.409  26.063  27.254  1.00  0.00    -0.014 A 
ATOM     78  C   UNL A   1      44.926  27.312  26.834  1.00  0.00     0.009 A 
ATOM     79  C   UNL A   1      46.353  25.404  26.452  1.00  0.00     0.009 A 
ATOM     80  C   UNL A   1      45.359  27.871  25.627  1.00  0.00     0.001 A 
ATOM     81  C   UNL A   1      46.804  25.973  25.262  1.00  0.00     0.001 A 
ATOM     82  C   UNL A   1      46.302  27.202  24.846  1.00  0.00     0.000 A 
ENDBRANCH  64  77
ENDBRANCH  38  39
ENDBRANCH  30  33
ENDBRANCH  28  29
ENDBRANCH  27  28
ENDBRANCH  26  27
ENDBRANCH   1  26
TORSDOF 16
ENDMDL
MODEL 2
REMARK VINA RESULT:     -11.3      3.390      4.917
REMARK SMILES O=C(CC[N@H+]1CCC[C@H](c2nccn2Cc2cscn2)C1)NCCCCNC(=O)c1ccc(-c2c3nc(c(-c4ccccc4)c4ccc([nH]4)c(-c4ccccc4)c4nc(c(-c5ccccc5)c5ccc2[nH]5)C=C4)C=C3)cc1
REMARK SMILES IDX 23 1 22 2 1 3 2 4 3 6 4 7 5 8 6 9 21 10 7 12 9 13 8 14 10 15
REMARK SMILES IDX 11 16 14 17 12 18 13 19 15 20 16 21 17 22 20 23 18 24 19 25
REMARK SMILES IDX 24 26 25 27 26 28 27 29 28 30 29 32 30 33 31 34 77 35 32 36
REMARK SMILES IDX 76 37 33 38 34 39 35 40 70 41 36 42 75 43 69 44 71 45 37 46
REMARK SMILES IDX 74 47 68 48 67 49 38 51 60 52 45 53 59 54 46 55 49 56 58 57
REMARK SMILES IDX 72 58 47 59 48 60 57 62 73 63 50 64 39 65 40 66 44 67 41 68
REMARK SMILES IDX 43 69 42 70 61 71 62 72 66 73 63 74 65 75 64 76 51 77 52 78
REMARK SMILES IDX 56 79 53 80 55 81 54 82
REMARK H PARENT 22 5 5 11 27 31 71 50 49 61
REMARK Flexibility Score: inf
ROOT
ATOM      1  C   UNL A   1      34.164  30.964  27.626  1.00  0.00     0.116 C 
ENDROOT
BRANCH   1   2
ATOM      2  N   UNL A   1      33.844  30.124  26.488  1.00  0.00    -0.356 N 
ATOM      3  O   UNL A   1      32.456  28.712  27.659  1.00  0.00    -0.275 OA
ATOM      4  C   UNL A   1      32.931  29.092  26.594  1.00  0.00     0.225 C 
ATOM      5  H   UNL A   1      34.286  30.290  25.624  1.00  0.00     0.163 HD
BRANCH   4   6
ATOM      6  C   UNL A   1      32.499  28.510  25.267  1.00  0.00     0.161 C 
BRANCH   6   7
ATOM      7  C   UNL A   1      33.434  27.385  24.812  1.00  0.00     0.272 C 
BRANCH   7   8
ATOM      8  N   UNL A   1      32.931  26.004  24.823  1.00  0.00    -0.334 N 
ATOM      9  C   UNL A   1      31.497  25.885  25.056  1.00  0.00     0.262 C 
ATOM     10  C   UNL A   1      33.577  25.080  23.907  1.00  0.00     0.273 C 
ATOM     11  H   UNL A   1      33.287  25.603  25.690  1.00  0.00     0.348 HD
ATOM     12  C   UNL A   1      30.907  24.485  24.918  1.00  0.00     0.062 C 
ATOM     13  C   UNL A   1      33.075  23.640  24.033  1.00  0.00     0.111 C 
ATOM     14  C   UNL A   1      31.556  23.685  23.798  1.00  0.00     0.023 C 
BRANCH  13  15
ATOM     15  C   UNL A   1      33.347  22.828  25.288  1.00  0.00     0.117 A 
ATOM     16  N   UNL A   1      34.090  23.371  26.249  1.00  0.00    -0.241 NA
ATOM     17  N   UNL A   1      33.057  21.513  25.620  1.00  0.00    -0.328 N 
ATOM     18  C   UNL A   1      34.314  22.407  27.177  1.00  0.00     0.131 A 
ATOM     19  C   UNL A   1      33.633  21.272  26.853  1.00  0.00     0.108 A 
BRANCH  17  20
ATOM     20  C   UNL A   1      32.259  20.487  24.957  1.00  0.00     0.180 C 
BRANCH  20  21
ATOM     21  C   UNL A   1      32.923  19.139  24.969  1.00  0.00     0.071 A 
ATOM     22  C   UNL A   1      34.150  18.794  24.426  1.00  0.00     0.092 A 
ATOM     23  N   UNL A   1      32.314  18.094  25.653  1.00  0.00    -0.248 NA
ATOM     24  S   UNL A   1      34.451  17.125  24.648  1.00  0.00    -0.130 S 
ATOM     25  C   UNL A   1      32.978  16.977  25.482  1.00  0.00     0.175 A 
ENDBRANCH  20  21
ENDBRANCH  17  20
ENDBRANCH  13  15
ENDBRANCH   7   8
ENDBRANCH   6   7
ENDBRANCH   4   6
ENDBRANCH   1   2
BRANCH   1  26
ATOM     26  C   UNL A   1      35.627  31.412  27.667  1.00  0.00     0.023 C 
BRANCH  26  27
ATOM     27  C   UNL A   1      36.066  32.199  28.913  1.00  0.00     0.023 C 
BRANCH  27  28
ATOM     28  C   UNL A   1      37.301  33.079  28.717  1.00  0.00     0.116 C 
BRANCH  28  29
ATOM     29  N   UNL A   1      37.664  33.851  29.896  1.00  0.00    -0.352 N 
ATOM     30  C   UNL A   1      38.346  33.432  31.025  1.00  0.00     0.251 C 
ATOM     31  H   UNL A   1      37.388  34.795  29.890  1.00  0.00     0.163 HD
ATOM     32  O   UNL A   1      38.285  34.093  32.052  1.00  0.00    -0.269 OA
BRANCH  30  33
ATOM     33  C   UNL A   1      39.145  32.180  31.008  1.00  0.00     0.039 A 
ATOM     34  C   UNL A   1      38.628  31.011  31.580  1.00  0.00     0.014 A 
ATOM     35  C   UNL A   1      40.428  32.167  30.467  1.00  0.00     0.014 A 
ATOM     36  C   UNL A   1      39.364  29.824  31.516  1.00  0.00     0.010 A 
ATOM     37  C   UNL A   1      41.123  30.974  30.331  1.00  0.00     0.010 A 
ATOM     38  C   UNL A   1      40.604  29.794  30.856  1.00  0.00    -0.014 A 
BRANCH  38  39
ATOM     39  C   UNL A   1      41.237  28.505  30.531  1.00  0.00     0.031 A 
ATOM     40  C   UNL A   1      42.095  27.966  31.631  1.00  0.00     0.074 A 
ATOM     41  C   UNL A   1      40.913  27.724  29.472  1.00  0.00     0.049 A 
ATOM     42  N   UNL A   1      43.364  27.719  31.607  1.00  0.00    -0.248 NA
ATOM     43  C   UNL A   1      41.487  27.803  32.960  1.00  0.00     0.031 C 
ATOM     44  C   UNL A   1      39.859  27.970  28.482  1.00  0.00     0.029 A 
ATOM     45  N   UNL A   1      41.373  26.482  29.113  1.00  0.00    -0.354 N 
ATOM     46  C   UNL A   1      43.679  27.184  32.860  1.00  0.00     0.074 A 
ATOM     47  C   UNL A   1      42.532  27.422  33.693  1.00  0.00     0.031 C 
ATOM     48  C   UNL A   1      39.602  26.834  27.797  1.00  0.00     0.029 A 
ATOM     49  C   UNL A   1      40.570  25.822  28.180  1.00  0.00     0.049 A 
ATOM     50  H   UNL A   1      42.197  26.090  29.482  1.00  0.00     0.167 HD
ATOM     51  C   UNL A   1      44.742  26.340  33.011  1.00  0.00     0.031 A 
ATOM     52  C   UNL A   1      40.675  24.537  27.753  1.00  0.00     0.031 A 
ATOM     53  C   UNL A   1      45.599  26.392  31.853  1.00  0.00     0.049 A 
ATOM     54  C   UNL A   1      42.047  24.086  28.060  1.00  0.00     0.074 A 
ATOM     55  C   UNL A   1      46.535  27.245  31.319  1.00  0.00     0.029 A 
ATOM     56  N   UNL A   1      45.209  25.535  30.860  1.00  0.00    -0.354 N 
ATOM     57  N   UNL A   1      43.101  24.517  27.431  1.00  0.00    -0.248 NA
ATOM     58  C   UNL A   1      42.307  23.330  29.279  1.00  0.00     0.031 C 
ATOM     59  C   UNL A   1      46.558  26.975  29.916  1.00  0.00     0.029 A 
ATOM     60  C   UNL A   1      45.672  25.934  29.641  1.00  0.00     0.049 A 
ATOM     61  H   UNL A   1      44.661  24.730  31.008  1.00  0.00     0.167 HD
ATOM     62  C   UNL A   1      44.096  24.490  28.388  1.00  0.00     0.074 A 
ATOM     63  C   UNL A   1      43.613  23.576  29.416  1.00  0.00     0.031 C 
ATOM     64  C   UNL A   1      45.055  25.459  28.422  1.00  0.00     0.031 A 
BRANCH  51  65
ATOM     65  C   UNL A   1      44.701  25.068  33.860  1.00  0.00    -0.014 A 
ATOM     66  C   UNL A   1      45.890  24.318  33.985  1.00  0.00     0.009 A 
ATOM     67  C   UNL A   1      43.526  24.419  34.268  1.00  0.00     0.009 A 
ATOM     68  C   UNL A   1      45.878  22.960  34.332  1.00  0.00     0.001 A 
ATOM     69  C   UNL A   1      43.506  23.062  34.620  1.00  0.00     0.001 A 
ATOM     70  C   UNL A   1      44.678  22.322  34.615  1.00  0.00     0.000 A 
ENDBRANCH  51  65
BRANCH  52  71
ATOM     71  C   UNL A   1      39.693  23.598  27.154  1.00  0.00    -0.014 A 
ATOM     72  C   UNL A   1      38.489  24.085  26.608  1.00  0.00     0.009 A 
ATOM     73  C   UNL A   1      40.023  22.265  26.878  1.00  0.00     0.009 A 
ATOM     74  C   UNL A   1      37.702  23.304  25.749  1.00  0.00     0.001 A 
ATOM     75  C   UNL A   1      39.222  21.474  26.041  1.00  0.00     0.001 A 
ATOM     76  C   UNL A   1      38.084  22.003  25.446  1.00  0.00     0.000 A 
ENDBRANCH  52  71
BRANCH  64  77
ATOM     77  C   UNL A   1      45.345  26.202  27.152  1.00  0.00    -0.014 A 
ATOM     78  C   UNL A   1      44.829  27.471  26.850  1.00  0.00     0.009 A 
ATOM     79  C   UNL A   1      46.245  25.610  26.253  1.00  0.00     0.009 A 
ATOM     80  C   UNL A   1      45.187  28.117  25.661  1.00  0.00     0.001 A 
ATOM     81  C   UNL A   1      46.622  26.266  25.082  1.00  0.00     0.001 A 
ATOM     82  C   UNL A   1      46.087  27.516  24.783  1.00  0.00     0.000 A 
ENDBRANCH  64  77
ENDBRANCH  38  39
ENDBRANCH  30  33
ENDBRANCH  28  29
ENDBRANCH  27  28
ENDBRANCH  26  27
ENDBRANCH   1  26
TORSDOF 16
ENDMDL
MODEL 3
REMARK VINA RESULT:     -11.2      3.592      5.624
REMARK SMILES O=C(CC[N@H+]1CCC[C@H](c2nccn2Cc2cscn2)C1)NCCCCNC(=O)c1ccc(-c2c3nc(c(-c4ccccc4)c4ccc([nH]4)c(-c4ccccc4)c4nc(c(-c5ccccc5)c5ccc2[nH]5)C=C4)C=C3)cc1
REMARK SMILES IDX 23 1 22 2 1 3 2 4 3 6 4 7 5 8 6 9 21 10 7 12 9 13 8 14 10 15
REMARK SMILES IDX 11 16 14 17 12 18 13 19 15 20 16 21 17 22 20 23 18 24 19 25
REMARK SMILES IDX 24 26 25 27 26 28 27 29 28 30 29 32 30 33 31 34 77 35 32 36
REMARK SMILES IDX 76 37 33 38 34 39 35 40 70 41 36 42 75 43 69 44 71 45 37 46
REMARK SMILES IDX 74 47 68 48 67 49 38 51 60 52 45 53 59 54 46 55 49 56 58 57
REMARK SMILES IDX 72 58 47 59 48 60 57 62 73 63 50 64 39 65 40 66 44 67 41 68
REMARK SMILES IDX 43 69 42 70 61 71 62 72 66 73 63 74 65 75 64 76 51 77 52 78
REMARK SMILES IDX 56 79 53 80 55 81 54 82
REMARK H PARENT 22 5 5 11 27 31 71 50 49 61
REMARK Flexibility Score: inf
ROOT
ATOM      1  C   UNL A   1      33.911  28.670  25.668  1.00  0.00     0.116 C 
ENDROOT
BRANCH   1   2
ATOM      2  N   UNL A   1      32.734  28.611  24.821  1.00  0.00    -0.356 N 
ATOM      3  O   UNL A   1      33.554  26.957  23.448  1.00  0.00    -0.275 OA
ATOM      4  C   UNL A   1      32.629  27.677  23.808  1.00  0.00     0.225 C 
ATOM      5  H   UNL A   1      31.998  29.247  24.970  1.00  0.00     0.163 HD
BRANCH   4   6
ATOM      6  C   UNL A   1      31.240  27.559  23.220  1.00  0.00     0.161 C 
BRANCH   6   7
ATOM      7  C   UNL A   1      30.369  26.586  24.021  1.00  0.00     0.272 C 
BRANCH   7   8
ATOM      8  N   UNL A   1      30.983  25.357  24.544  1.00  0.00    -0.334 N 
ATOM      9  C   UNL A   1      31.072  25.298  25.997  1.00  0.00     0.262 C 
ATOM     10  C   UNL A   1      30.709  24.138  23.802  1.00  0.00     0.273 C 
ATOM     11  H   UNL A   1      31.972  25.438  24.307  1.00  0.00     0.348 HD
ATOM     12  C   UNL A   1      31.556  23.977  26.589  1.00  0.00     0.062 C 
ATOM     13  C   UNL A   1      31.451  22.913  24.340  1.00  0.00     0.111 C 
ATOM     14  C   UNL A   1      31.045  22.770  25.816  1.00  0.00     0.023 C 
BRANCH  13  15
ATOM     15  C   UNL A   1      32.964  22.815  24.242  1.00  0.00     0.117 A 
ATOM     16  N   UNL A   1      33.618  23.741  23.546  1.00  0.00    -0.241 NA
ATOM     17  N   UNL A   1      33.857  21.840  24.660  1.00  0.00    -0.328 N 
ATOM     18  C   UNL A   1      34.916  23.352  23.480  1.00  0.00     0.131 A 
ATOM     19  C   UNL A   1      35.108  22.221  24.215  1.00  0.00     0.108 A 
BRANCH  17  20
ATOM     20  C   UNL A   1      33.689  20.640  25.473  1.00  0.00     0.180 C 
BRANCH  20  21
ATOM     21  C   UNL A   1      33.601  19.387  24.647  1.00  0.00     0.071 A 
ATOM     22  C   UNL A   1      32.568  18.996  23.811  1.00  0.00     0.092 A 
ATOM     23  N   UNL A   1      34.684  18.518  24.625  1.00  0.00    -0.248 NA
ATOM     24  S   UNL A   1      32.904  17.465  23.127  1.00  0.00    -0.130 S 
ATOM     25  C   UNL A   1      34.400  17.440  23.933  1.00  0.00     0.175 A 
ENDBRANCH  20  21
ENDBRANCH  17  20
ENDBRANCH  13  15
ENDBRANCH   7   8
ENDBRANCH   6   7
ENDBRANCH   4   6
ENDBRANCH   1   2
BRANCH   1  26
ATOM     26  C   UNL A   1      33.591  28.903  27.147  1.00  0.00     0.023 C 
BRANCH  26  27
ATOM     27  C   UNL A   1      33.366  30.362  27.575  1.00  0.00     0.023 C 
BRANCH  27  28
ATOM     28  C   UNL A   1      34.595  31.264  27.461  1.00  0.00     0.116 C 
BRANCH  28  29
ATOM     29  N   UNL A   1      34.818  32.102  28.629  1.00  0.00    -0.352 N 
ATOM     30  C   UNL A   1      35.714  31.915  29.667  1.00  0.00     0.251 C 
ATOM     31  H   UNL A   1      34.258  32.910  28.689  1.00  0.00     0.163 HD
ATOM     32  O   UNL A   1      35.556  32.514  30.722  1.00  0.00    -0.269 OA
BRANCH  30  33
ATOM     33  C   UNL A   1      36.862  30.984  29.520  1.00  0.00     0.039 A 
ATOM     34  C   UNL A   1      38.172  31.477  29.554  1.00  0.00     0.014 A 
ATOM     35  C   UNL A   1      36.648  29.625  29.303  1.00  0.00     0.014 A 
ATOM     36  C   UNL A   1      39.249  30.590  29.465  1.00  0.00     0.010 A 
ATOM     37  C   UNL A   1      37.713  28.737  29.296  1.00  0.00     0.010 A 
ATOM     38  C   UNL A   1      39.021  29.207  29.372  1.00  0.00    -0.014 A 
BRANCH  38  39
ATOM     39  C   UNL A   1      40.131  28.260  29.574  1.00  0.00     0.031 A 
ATOM     40  C   UNL A   1      40.608  28.191  30.989  1.00  0.00     0.074 A 
ATOM     41  C   UNL A   1      40.543  27.341  28.668  1.00  0.00     0.049 A 
ATOM     42  N   UNL A   1      41.783  28.473  31.451  1.00  0.00    -0.248 NA
ATOM     43  C   UNL A   1      39.618  27.895  32.035  1.00  0.00     0.031 C 
ATOM     44  C   UNL A   1      39.955  27.071  27.351  1.00  0.00     0.029 A 
ATOM     45  N   UNL A   1      41.502  26.365  28.769  1.00  0.00    -0.354 N 
ATOM     46  C   UNL A   1      41.736  28.200  32.822  1.00  0.00     0.074 A 
ATOM     47  C   UNL A   1      40.347  28.019  33.143  1.00  0.00     0.031 C 
ATOM     48  C   UNL A   1      40.398  25.881  26.888  1.00  0.00     0.029 A 
ATOM     49  C   UNL A   1      41.416  25.372  27.790  1.00  0.00     0.049 A 
ATOM     50  H   UNL A   1      42.191  26.364  29.472  1.00  0.00     0.167 HD
ATOM     51  C   UNL A   1      42.871  27.867  33.506  1.00  0.00     0.031 A 
ATOM     52  C   UNL A   1      42.115  24.210  27.719  1.00  0.00     0.031 A 
ATOM     53  C   UNL A   1      44.042  28.174  32.725  1.00  0.00     0.049 A 
ATOM     54  C   UNL A   1      43.315  24.371  28.563  1.00  0.00     0.074 A 
ATOM     55  C   UNL A   1      44.760  29.290  32.365  1.00  0.00     0.029 A 
ATOM     56  N   UNL A   1      44.398  27.163  31.874  1.00  0.00    -0.354 N 
ATOM     57  N   UNL A   1      44.315  25.141  28.249  1.00  0.00    -0.248 NA
ATOM     58  C   UNL A   1      43.311  23.872  29.933  1.00  0.00     0.031 C 
ATOM     59  C   UNL A   1      45.429  28.951  31.149  1.00  0.00     0.029 A 
ATOM     60  C   UNL A   1      45.141  27.625  30.827  1.00  0.00     0.049 A 
ATOM     61  H   UNL A   1      44.149  26.219  32.002  1.00  0.00     0.167 HD
ATOM     62  C   UNL A   1      44.791  25.584  29.467  1.00  0.00     0.074 A 
ATOM     63  C   UNL A   1      44.284  24.630  30.446  1.00  0.00     0.031 C 
ATOM     64  C   UNL A   1      45.262  26.856  29.609  1.00  0.00     0.031 A 
BRANCH  51  65
ATOM     65  C   UNL A   1      42.933  26.750  34.549  1.00  0.00    -0.014 A 
ATOM     66  C   UNL A   1      43.166  25.433  34.095  1.00  0.00     0.009 A 
ATOM     67  C   UNL A   1      42.478  26.866  35.871  1.00  0.00     0.009 A 
ATOM     68  C   UNL A   1      42.804  24.312  34.854  1.00  0.00     0.001 A 
ATOM     69  C   UNL A   1      42.118  25.749  36.638  1.00  0.00     0.001 A 
ATOM     70  C   UNL A   1      42.246  24.471  36.114  1.00  0.00     0.000 A 
ENDBRANCH  51  65
BRANCH  52  71
ATOM     71  C   UNL A   1      41.838  22.916  27.046  1.00  0.00    -0.014 A 
ATOM     72  C   UNL A   1      42.868  22.233  26.370  1.00  0.00     0.009 A 
ATOM     73  C   UNL A   1      40.647  22.211  27.267  1.00  0.00     0.009 A 
ATOM     74  C   UNL A   1      42.747  20.881  26.018  1.00  0.00     0.001 A 
ATOM     75  C   UNL A   1      40.514  20.867  26.890  1.00  0.00     0.001 A 
ATOM     76  C   UNL A   1      41.575  20.190  26.301  1.00  0.00     0.000 A 
ENDBRANCH  52  71
BRANCH  64  77
ATOM     77  C   UNL A   1      45.759  27.560  28.381  1.00  0.00    -0.014 A 
ATOM     78  C   UNL A   1      47.050  27.401  27.853  1.00  0.00     0.009 A 
ATOM     79  C   UNL A   1      44.844  28.367  27.689  1.00  0.00     0.009 A 
ATOM     80  C   UNL A   1      47.420  28.060  26.675  1.00  0.00     0.001 A 
ATOM     81  C   UNL A   1      45.204  29.001  26.501  1.00  0.00     0.001 A 
ATOM     82  C   UNL A   1      46.494  28.854  25.998  1.00  0.00     0.000 A 
ENDBRANCH  64  77
ENDBRANCH  38  39
ENDBRANCH  30  33
ENDBRANCH  28  29
ENDBRANCH  27  28
ENDBRANCH  26  27
ENDBRANCH   1  26
TORSDOF 16
ENDMDL
