MODEL 1
REMARK VINA RESULT:     -10.3      0.000      0.000
REMARK SMILES CCc1ccc(C(=O)NC[C@@H](CC(C)C)C(=O)NCCCCNC(=O)c2ccc(-c3c4nc(c(-c5ccccc5)c5ccc([nH]5)c(-c5ccccc5)c5nc(c(-c6ccccc6)c6ccc3[nH]6)C=C5)C=C4)cc2)s1
REMARK SMILES IDX 19 1 18 2 16 3 17 4 11 6 10 7 9 8 7 9 8 10 6 12 3 13 4 14
REMARK SMILES IDX 74 15 5 16 2 17 1 18 12 19 13 20 14 21 15 22 20 23 21 24
REMARK SMILES IDX 22 25 23 26 24 27 25 29 26 30 27 31 73 32 28 33 72 34 29 35
REMARK SMILES IDX 30 36 31 37 66 38 32 39 71 40 65 41 67 42 33 43 70 44 64 45
REMARK SMILES IDX 63 46 34 48 56 49 41 50 55 51 42 52 45 53 54 54 68 55 43 56
REMARK SMILES IDX 44 57 53 59 69 60 46 61 35 62 36 63 40 64 37 65 39 66 38 67
REMARK SMILES IDX 57 68 58 69 62 70 59 71 61 72 60 73 47 74 48 75 52 76 49 77
REMARK SMILES IDX 51 78 50 79
REMARK H PARENT 18 5 9 11 23 28 67 47 45 58
REMARK Flexibility Score: inf
ROOT
ATOM      1  C   UNL A   1      31.834  25.810  26.462  1.00  0.00     0.116 C 
ENDROOT
BRANCH   1   2
ATOM      2  N   UNL A   1      33.138  25.556  25.886  1.00  0.00    -0.356 N 
ATOM      3  C   UNL A   1      33.543  24.689  24.921  1.00  0.00     0.224 C 
ATOM      4  O   UNL A   1      34.699  24.825  24.507  1.00  0.00    -0.275 OA
ATOM      5  H   UNL A   1      33.861  26.110  26.259  1.00  0.00     0.163 HD
BRANCH   3   6
ATOM      6  C   UNL A   1      32.653  23.598  24.331  1.00  0.00     0.098 C 
BRANCH   6   7
ATOM      7  C   UNL A   1      31.583  24.119  23.361  1.00  0.00     0.129 C 
BRANCH   7   8
ATOM      8  N   UNL A   1      32.118  24.455  22.053  1.00  0.00    -0.351 N 
ATOM      9  C   UNL A   1      32.573  25.644  21.531  1.00  0.00     0.261 C 
ATOM     10  O   UNL A   1      33.187  25.533  20.465  1.00  0.00    -0.268 OA
ATOM     11  H   UNL A   1      32.162  23.696  21.428  1.00  0.00     0.163 HD
BRANCH   9  12
ATOM     12  C   UNL A   1      32.340  26.924  22.192  1.00  0.00     0.092 A 
ATOM     13  C   UNL A   1      31.129  28.832  23.271  1.00  0.00     0.005 A 
ATOM     14  C   UNL A   1      32.502  28.944  23.372  1.00  0.00     0.016 A 
ATOM     15  S   UNL A   1      30.704  27.428  22.396  1.00  0.00    -0.135 S 
ATOM     16  C   UNL A   1      33.191  27.841  22.780  1.00  0.00     0.026 A 
BRANCH  13  17
ATOM     17  C   UNL A   1      30.115  29.769  23.880  1.00  0.00     0.043 C 
ATOM     18  C   UNL A   1      29.350  30.665  22.919  1.00  0.00     0.010 C 
ENDBRANCH  13  17
ENDBRANCH   9  12
ENDBRANCH   7   8
ENDBRANCH   6   7
BRANCH   6  19
ATOM     19  C   UNL A   1      33.420  22.347  23.832  1.00  0.00     0.018 C 
BRANCH  19  20
ATOM     20  C   UNL A   1      33.460  21.111  24.756  1.00  0.00    -0.017 C 
ATOM     21  C   UNL A   1      32.630  19.950  24.195  1.00  0.00     0.007 C 
ATOM     22  C   UNL A   1      34.899  20.620  24.953  1.00  0.00     0.007 C 
ENDBRANCH  19  20
ENDBRANCH   6  19
ENDBRANCH   3   6
ENDBRANCH   1   2
BRANCH   1  23
ATOM     23  C   UNL A   1      31.461  27.285  26.462  1.00  0.00     0.023 C 
BRANCH  23  24
ATOM     24  C   UNL A   1      32.083  28.102  27.593  1.00  0.00     0.023 C 
BRANCH  24  25
ATOM     25  C   UNL A   1      33.398  28.799  27.254  1.00  0.00     0.116 C 
BRANCH  25  26
ATOM     26  N   UNL A   1      33.464  30.173  27.735  1.00  0.00    -0.352 N 
ATOM     27  C   UNL A   1      34.502  30.844  28.335  1.00  0.00     0.251 C 
ATOM     28  H   UNL A   1      32.642  30.701  27.609  1.00  0.00     0.163 HD
ATOM     29  O   UNL A   1      34.334  31.977  28.774  1.00  0.00    -0.269 OA
BRANCH  27  30
ATOM     30  C   UNL A   1      35.808  30.175  28.491  1.00  0.00     0.039 A 
ATOM     31  C   UNL A   1      36.703  30.191  27.420  1.00  0.00     0.014 A 
ATOM     32  C   UNL A   1      36.162  29.578  29.703  1.00  0.00     0.014 A 
ATOM     33  C   UNL A   1      37.993  29.688  27.596  1.00  0.00     0.010 A 
ATOM     34  C   UNL A   1      37.471  29.154  29.901  1.00  0.00     0.010 A 
ATOM     35  C   UNL A   1      38.402  29.212  28.853  1.00  0.00    -0.014 A 
BRANCH  35  36
ATOM     36  C   UNL A   1      39.805  28.792  29.093  1.00  0.00     0.031 A 
ATOM     37  C   UNL A   1      40.782  29.737  29.733  1.00  0.00     0.074 A 
ATOM     38  C   UNL A   1      40.216  27.579  28.673  1.00  0.00     0.049 A 
ATOM     39  N   UNL A   1      42.055  29.561  29.984  1.00  0.00    -0.248 NA
ATOM     40  C   UNL A   1      40.269  31.063  30.117  1.00  0.00     0.031 C 
ATOM     41  C   UNL A   1      39.381  26.585  27.994  1.00  0.00     0.029 A 
ATOM     42  N   UNL A   1      41.445  26.974  28.758  1.00  0.00    -0.354 N 
ATOM     43  C   UNL A   1      42.497  30.755  30.538  1.00  0.00     0.074 A 
ATOM     44  C   UNL A   1      41.371  31.665  30.539  1.00  0.00     0.031 C 
ATOM     45  C   UNL A   1      40.112  25.485  27.755  1.00  0.00     0.029 A 
ATOM     46  C   UNL A   1      41.473  25.706  28.230  1.00  0.00     0.049 A 
ATOM     47  H   UNL A   1      42.232  27.409  29.158  1.00  0.00     0.167 HD
ATOM     48  C   UNL A   1      43.722  31.062  31.026  1.00  0.00     0.031 A 
ATOM     49  C   UNL A   1      42.482  24.819  28.140  1.00  0.00     0.031 A 
ATOM     50  C   UNL A   1      44.840  30.157  31.037  1.00  0.00     0.049 A 
ATOM     51  C   UNL A   1      43.833  25.186  28.686  1.00  0.00     0.074 A 
ATOM     52  C   UNL A   1      46.105  30.357  31.560  1.00  0.00     0.029 A 
ATOM     53  N   UNL A   1      44.824  28.879  30.502  1.00  0.00    -0.354 N 
ATOM     54  N   UNL A   1      44.216  26.294  29.271  1.00  0.00    -0.248 NA
ATOM     55  C   UNL A   1      44.889  24.169  28.569  1.00  0.00     0.031 C 
ATOM     56  C   UNL A   1      46.869  29.215  31.302  1.00  0.00     0.029 A 
ATOM     57  C   UNL A   1      46.063  28.285  30.663  1.00  0.00     0.049 A 
ATOM     58  H   UNL A   1      44.046  28.457  30.070  1.00  0.00     0.167 HD
ATOM     59  C   UNL A   1      45.547  26.100  29.616  1.00  0.00     0.074 A 
ATOM     60  C   UNL A   1      45.900  24.762  29.189  1.00  0.00     0.031 C 
ATOM     61  C   UNL A   1      46.400  26.953  30.231  1.00  0.00     0.031 A 
BRANCH  48  62
ATOM     62  C   UNL A   1      43.913  32.444  31.586  1.00  0.00    -0.014 A 
ATOM     63  C   UNL A   1      43.681  32.713  32.946  1.00  0.00     0.009 A 
ATOM     64  C   UNL A   1      44.353  33.484  30.754  1.00  0.00     0.009 A 
ATOM     65  C   UNL A   1      43.851  34.003  33.450  1.00  0.00     0.001 A 
ATOM     66  C   UNL A   1      44.551  34.767  31.268  1.00  0.00     0.001 A 
ATOM     67  C   UNL A   1      44.289  35.027  32.612  1.00  0.00     0.000 A 
ENDBRANCH  48  62
BRANCH  49  68
ATOM     68  C   UNL A   1      42.249  23.484  27.533  1.00  0.00    -0.014 A 
ATOM     69  C   UNL A   1      41.738  22.433  28.308  1.00  0.00     0.009 A 
ATOM     70  C   UNL A   1      42.542  23.251  26.180  1.00  0.00     0.009 A 
ATOM     71  C   UNL A   1      41.551  21.166  27.749  1.00  0.00     0.001 A 
ATOM     72  C   UNL A   1      42.329  21.991  25.617  1.00  0.00     0.001 A 
ATOM     73  C   UNL A   1      41.843  20.947  26.404  1.00  0.00     0.000 A 
ENDBRANCH  49  68
BRANCH  61  74
ATOM     74  C   UNL A   1      47.788  26.452  30.507  1.00  0.00    -0.014 A 
ATOM     75  C   UNL A   1      48.112  25.836  31.726  1.00  0.00     0.009 A 
ATOM     76  C   UNL A   1      48.778  26.569  29.519  1.00  0.00     0.009 A 
ATOM     77  C   UNL A   1      49.410  25.381  31.963  1.00  0.00     0.001 A 
ATOM     78  C   UNL A   1      50.068  26.088  29.748  1.00  0.00     0.001 A 
ATOM     79  C   UNL A   1      50.385  25.502  30.973  1.00  0.00     0.000 A 
ENDBRANCH  61  74
ENDBRANCH  35  36
ENDBRANCH  27  30
ENDBRANCH  25  26
ENDBRANCH  24  25
ENDBRANCH  23  24
ENDBRANCH   1  23
TORSDOF 17
ENDMDL
MODEL 2
REMARK VINA RESULT:     -10.2      2.157      7.204
REMARK SMILES CCc1ccc(C(=O)NC[C@@H](CC(C)C)C(=O)NCCCCNC(=O)c2ccc(-c3c4nc(c(-c5ccccc5)c5ccc([nH]5)c(-c5ccccc5)c5nc(c(-c6ccccc6)c6ccc3[nH]6)C=C5)C=C4)cc2)s1
REMARK SMILES IDX 19 1 18 2 16 3 17 4 11 6 10 7 9 8 7 9 8 10 6 12 3 13 4 14
REMARK SMILES IDX 74 15 5 16 2 17 1 18 12 19 13 20 14 21 15 22 20 23 21 24
REMARK SMILES IDX 22 25 23 26 24 27 25 29 26 30 27 31 73 32 28 33 72 34 29 35
REMARK SMILES IDX 30 36 31 37 66 38 32 39 71 40 65 41 67 42 33 43 70 44 64 45
REMARK SMILES IDX 63 46 34 48 56 49 41 50 55 51 42 52 45 53 54 54 68 55 43 56
REMARK SMILES IDX 44 57 53 59 69 60 46 61 35 62 36 63 40 64 37 65 39 66 38 67
REMARK SMILES IDX 57 68 58 69 62 70 59 71 61 72 60 73 47 74 48 75 52 76 49 77
REMARK SMILES IDX 51 78 50 79
REMARK H PARENT 18 5 9 11 23 28 67 47 45 58
REMARK Flexibility Score: inf
ROOT
ATOM      1  C   UNL A   1      35.635  21.086  25.737  1.00  0.00     0.116 C 
ENDROOT
BRANCH   1   2
ATOM      2  N   UNL A   1      34.700  20.090  25.256  1.00  0.00    -0.356 N 
ATOM      3  C   UNL A   1      33.515  20.210  24.603  1.00  0.00     0.224 C 
ATOM      4  O   UNL A   1      33.023  19.168  24.157  1.00  0.00    -0.275 OA
ATOM      5  H   UNL A   1      34.972  19.161  25.432  1.00  0.00     0.163 HD
BRANCH   3   6
ATOM      6  C   UNL A   1      32.792  21.537  24.389  1.00  0.00     0.098 C 
BRANCH   6   7
ATOM      7  C   UNL A   1      32.031  21.629  23.059  1.00  0.00     0.129 C 
BRANCH   7   8
ATOM      8  N   UNL A   1      32.653  22.537  22.111  1.00  0.00    -0.351 N 
ATOM      9  C   UNL A   1      32.683  23.912  22.049  1.00  0.00     0.261 C 
ATOM     10  O   UNL A   1      33.504  24.370  21.249  1.00  0.00    -0.268 OA
ATOM     11  H   UNL A   1      33.140  22.089  21.382  1.00  0.00     0.163 HD
BRANCH   9  12
ATOM     12  C   UNL A   1      31.806  24.746  22.866  1.00  0.00     0.092 A 
ATOM     13  C   UNL A   1      30.945  26.735  24.121  1.00  0.00     0.005 A 
ATOM     14  C   UNL A   1      30.021  25.712  24.039  1.00  0.00     0.016 A 
ATOM     15  S   UNL A   1      32.407  26.284  23.362  1.00  0.00    -0.135 S 
ATOM     16  C   UNL A   1      30.503  24.589  23.299  1.00  0.00     0.026 A 
BRANCH  13  17
ATOM     17  C   UNL A   1      30.714  28.092  24.738  1.00  0.00     0.043 C 
ATOM     18  C   UNL A   1      31.953  28.890  25.115  1.00  0.00     0.010 C 
ENDBRANCH  13  17
ENDBRANCH   9  12
ENDBRANCH   7   8
ENDBRANCH   6   7
BRANCH   6  19
ATOM     19  C   UNL A   1      31.997  22.038  25.622  1.00  0.00     0.018 C 
BRANCH  19  20
ATOM     20  C   UNL A   1      32.678  23.070  26.547  1.00  0.00    -0.017 C 
ATOM     21  C   UNL A   1      31.774  24.279  26.819  1.00  0.00     0.007 C 
ATOM     22  C   UNL A   1      33.052  22.438  27.892  1.00  0.00     0.007 C 
ENDBRANCH  19  20
ENDBRANCH   6  19
ENDBRANCH   3   6
ENDBRANCH   1   2
BRANCH   1  23
ATOM     23  C   UNL A   1      36.765  21.365  24.757  1.00  0.00     0.023 C 
BRANCH  23  24
ATOM     24  C   UNL A   1      37.884  20.325  24.759  1.00  0.00     0.023 C 
BRANCH  24  25
ATOM     25  C   UNL A   1      38.950  20.508  25.836  1.00  0.00     0.116 C 
BRANCH  25  26
ATOM     26  N   UNL A   1      39.993  19.492  25.795  1.00  0.00    -0.352 N 
ATOM     27  C   UNL A   1      41.330  19.594  26.097  1.00  0.00     0.251 C 
ATOM     28  H   UNL A   1      39.696  18.598  25.509  1.00  0.00     0.163 HD
ATOM     29  O   UNL A   1      42.083  18.646  25.897  1.00  0.00    -0.269 OA
BRANCH  27  30
ATOM     30  C   UNL A   1      41.863  20.866  26.621  1.00  0.00     0.039 A 
ATOM     31  C   UNL A   1      42.316  21.828  25.717  1.00  0.00     0.014 A 
ATOM     32  C   UNL A   1      41.868  21.123  27.995  1.00  0.00     0.014 A 
ATOM     33  C   UNL A   1      42.691  23.087  26.186  1.00  0.00     0.010 A 
ATOM     34  C   UNL A   1      42.162  22.403  28.450  1.00  0.00     0.010 A 
ATOM     35  C   UNL A   1      42.569  23.400  27.551  1.00  0.00    -0.014 A 
BRANCH  35  36
ATOM     36  C   UNL A   1      42.841  24.771  28.050  1.00  0.00     0.031 A 
ATOM     37  C   UNL A   1      44.240  25.180  28.421  1.00  0.00     0.074 A 
ATOM     38  C   UNL A   1      41.817  25.629  28.230  1.00  0.00     0.049 A 
ATOM     39  N   UNL A   1      44.662  26.317  28.912  1.00  0.00    -0.248 NA
ATOM     40  C   UNL A   1      45.296  24.170  28.243  1.00  0.00     0.031 C 
ATOM     41  C   UNL A   1      40.407  25.340  27.956  1.00  0.00     0.029 A 
ATOM     42  N   UNL A   1      41.807  26.922  28.690  1.00  0.00    -0.354 N 
ATOM     43  C   UNL A   1      46.026  26.155  29.115  1.00  0.00     0.074 A 
ATOM     44  C   UNL A   1      46.351  24.794  28.745  1.00  0.00     0.031 C 
ATOM     45  C   UNL A   1      39.676  26.435  28.220  1.00  0.00     0.029 A 
ATOM     46  C   UNL A   1      40.555  27.488  28.715  1.00  0.00     0.049 A 
ATOM     47  H   UNL A   1      42.620  27.399  28.975  1.00  0.00     0.167 HD
ATOM     48  C   UNL A   1      46.934  27.061  29.548  1.00  0.00     0.031 A 
ATOM     49  C   UNL A   1      40.160  28.718  29.091  1.00  0.00     0.031 A 
ATOM     50  C   UNL A   1      46.617  28.418  29.906  1.00  0.00     0.049 A 
ATOM     51  C   UNL A   1      41.186  29.705  29.572  1.00  0.00     0.074 A 
ATOM     52  C   UNL A   1      47.475  29.428  30.302  1.00  0.00     0.029 A 
ATOM     53  N   UNL A   1      45.339  28.954  29.908  1.00  0.00    -0.354 N 
ATOM     54  N   UNL A   1      42.483  29.557  29.692  1.00  0.00    -0.248 NA
ATOM     55  C   UNL A   1      40.692  31.035  29.956  1.00  0.00     0.031 C 
ATOM     56  C   UNL A   1      46.711  30.564  30.587  1.00  0.00     0.029 A 
ATOM     57  C   UNL A   1      45.382  30.275  30.318  1.00  0.00     0.049 A 
ATOM     58  H   UNL A   1      44.521  28.467  29.655  1.00  0.00     0.167 HD
ATOM     59  C   UNL A   1      42.964  30.780  30.140  1.00  0.00     0.074 A 
ATOM     60  C   UNL A   1      41.821  31.664  30.254  1.00  0.00     0.031 C 
ATOM     61  C   UNL A   1      44.237  31.140  30.429  1.00  0.00     0.031 A 
BRANCH  48  62
ATOM     62  C   UNL A   1      48.362  26.606  29.660  1.00  0.00    -0.014 A 
ATOM     63  C   UNL A   1      49.266  26.787  28.600  1.00  0.00     0.009 A 
ATOM     64  C   UNL A   1      48.818  26.012  30.846  1.00  0.00     0.009 A 
ATOM     65  C   UNL A   1      50.586  26.349  28.713  1.00  0.00     0.001 A 
ATOM     66  C   UNL A   1      50.146  25.601  30.968  1.00  0.00     0.001 A 
ATOM     67  C   UNL A   1      51.026  25.760  29.897  1.00  0.00     0.000 A 
ENDBRANCH  48  62
BRANCH  49  68
ATOM     68  C   UNL A   1      38.727  29.099  29.005  1.00  0.00    -0.014 A 
ATOM     69  C   UNL A   1      38.192  29.574  27.799  1.00  0.00     0.009 A 
ATOM     70  C   UNL A   1      37.890  28.999  30.127  1.00  0.00     0.009 A 
ATOM     71  C   UNL A   1      36.854  29.968  27.723  1.00  0.00     0.001 A 
ATOM     72  C   UNL A   1      36.545  29.368  30.042  1.00  0.00     0.001 A 
ATOM     73  C   UNL A   1      36.031  29.861  28.843  1.00  0.00     0.000 A 
ENDBRANCH  49  68
BRANCH  61  74
ATOM     74  C   UNL A   1      44.464  32.558  30.867  1.00  0.00    -0.014 A 
ATOM     75  C   UNL A   1      44.465  32.911  32.226  1.00  0.00     0.009 A 
ATOM     76  C   UNL A   1      44.711  33.551  29.905  1.00  0.00     0.009 A 
ATOM     77  C   UNL A   1      44.675  34.236  32.610  1.00  0.00     0.001 A 
ATOM     78  C   UNL A   1      44.948  34.870  30.294  1.00  0.00     0.001 A 
ATOM     79  C   UNL A   1      44.921  35.213  31.645  1.00  0.00     0.000 A 
ENDBRANCH  61  74
ENDBRANCH  35  36
ENDBRANCH  27  30
ENDBRANCH  25  26
ENDBRANCH  24  25
ENDBRANCH  23  24
ENDBRANCH   1  23
TORSDOF 17
ENDMDL
MODEL 3
REMARK VINA RESULT:     -10.1      2.627      7.498
REMARK SMILES CCc1ccc(C(=O)NC[C@@H](CC(C)C)C(=O)NCCCCNC(=O)c2ccc(-c3c4nc(c(-c5ccccc5)c5ccc([nH]5)c(-c5ccccc5)c5nc(c(-c6ccccc6)c6ccc3[nH]6)C=C5)C=C4)cc2)s1
REMARK SMILES IDX 19 1 18 2 16 3 17 4 11 6 10 7 9 8 7 9 8 10 6 12 3 13 4 14
REMARK SMILES IDX 74 15 5 16 2 17 1 18 12 19 13 20 14 21 15 22 20 23 21 24
REMARK SMILES IDX 22 25 23 26 24 27 25 29 26 30 27 31 73 32 28 33 72 34 29 35
REMARK SMILES IDX 30 36 31 37 66 38 32 39 71 40 65 41 67 42 33 43 70 44 64 45
REMARK SMILES IDX 63 46 34 48 56 49 41 50 55 51 42 52 45 53 54 54 68 55 43 56
REMARK SMILES IDX 44 57 53 59 69 60 46 61 35 62 36 63 40 64 37 65 39 66 38 67
REMARK SMILES IDX 57 68 58 69 62 70 59 71 61 72 60 73 47 74 48 75 52 76 49 77
REMARK SMILES IDX 51 78 50 79
REMARK H PARENT 18 5 9 11 23 28 67 47 45 58
REMARK Flexibility Score: inf
ROOT
ATOM      1  C   UNL A   1      32.356  27.727  26.441  1.00  0.00     0.116 C 
ENDROOT
BRANCH   1   2
ATOM      2  N   UNL A   1      31.227  26.898  26.810  1.00  0.00    -0.356 N 
ATOM      3  C   UNL A   1      30.340  26.198  26.056  1.00  0.00     0.224 C 
ATOM      4  O   UNL A   1      29.585  25.431  26.663  1.00  0.00    -0.275 OA
ATOM      5  H   UNL A   1      31.077  26.828  27.780  1.00  0.00     0.163 HD
BRANCH   3   6
ATOM      6  C   UNL A   1      30.247  26.304  24.537  1.00  0.00     0.098 C 
BRANCH   6   7
ATOM      7  C   UNL A   1      30.843  25.102  23.788  1.00  0.00     0.129 C 
BRANCH   7   8
ATOM      8  N   UNL A   1      30.560  23.833  24.435  1.00  0.00    -0.351 N 
ATOM      9  C   UNL A   1      31.362  22.975  25.152  1.00  0.00     0.261 C 
ATOM     10  O   UNL A   1      30.750  22.100  25.773  1.00  0.00    -0.268 OA
ATOM     11  H   UNL A   1      29.626  23.533  24.345  1.00  0.00     0.163 HD
BRANCH   9  12
ATOM     12  C   UNL A   1      32.817  23.099  25.166  1.00  0.00     0.092 A 
ATOM     13  C   UNL A   1      35.216  22.758  24.535  1.00  0.00     0.005 A 
ATOM     14  C   UNL A   1      35.046  23.754  25.476  1.00  0.00     0.016 A 
ATOM     15  S   UNL A   1      33.715  22.049  24.134  1.00  0.00    -0.135 S 
ATOM     16  C   UNL A   1      33.674  23.966  25.815  1.00  0.00     0.026 A 
BRANCH  13  17
ATOM     17  C   UNL A   1      36.520  22.361  23.889  1.00  0.00     0.043 C 
ATOM     18  C   UNL A   1      37.658  21.982  24.826  1.00  0.00     0.010 C 
ENDBRANCH  13  17
ENDBRANCH   9  12
ENDBRANCH   7   8
ENDBRANCH   6   7
BRANCH   6  19
ATOM     19  C   UNL A   1      28.866  26.769  24.010  1.00  0.00     0.018 C 
BRANCH  19  20
ATOM     20  C   UNL A   1      28.836  27.932  22.996  1.00  0.00    -0.017 C 
ATOM     21  C   UNL A   1      27.500  28.684  23.026  1.00  0.00     0.007 C 
ATOM     22  C   UNL A   1      29.958  28.938  23.281  1.00  0.00     0.007 C 
ENDBRANCH  19  20
ENDBRANCH   6  19
ENDBRANCH   3   6
ENDBRANCH   1   2
BRANCH   1  23
ATOM     23  C   UNL A   1      31.944  29.091  25.908  1.00  0.00     0.023 C 
BRANCH  23  24
ATOM     24  C   UNL A   1      31.811  30.180  26.971  1.00  0.00     0.023 C 
BRANCH  24  25
ATOM     25  C   UNL A   1      32.928  31.219  26.993  1.00  0.00     0.116 C 
BRANCH  25  26
ATOM     26  N   UNL A   1      32.468  32.555  27.349  1.00  0.00    -0.352 N 
ATOM     27  C   UNL A   1      33.070  33.511  28.131  1.00  0.00     0.251 C 
ATOM     28  H   UNL A   1      31.596  32.812  26.971  1.00  0.00     0.163 HD
ATOM     29  O   UNL A   1      32.475  34.547  28.408  1.00  0.00    -0.269 OA
BRANCH  27  30
ATOM     30  C   UNL A   1      34.420  33.263  28.672  1.00  0.00     0.039 A 
ATOM     31  C   UNL A   1      34.542  32.626  29.909  1.00  0.00     0.014 A 
ATOM     32  C   UNL A   1      35.557  33.616  27.941  1.00  0.00     0.014 A 
ATOM     33  C   UNL A   1      35.807  32.259  30.370  1.00  0.00     0.010 A 
ATOM     34  C   UNL A   1      36.807  33.176  28.362  1.00  0.00     0.010 A 
ATOM     35  C   UNL A   1      36.944  32.486  29.576  1.00  0.00    -0.014 A 
BRANCH  35  36
ATOM     36  C   UNL A   1      38.279  31.991  29.991  1.00  0.00     0.031 A 
ATOM     37  C   UNL A   1      38.791  30.671  29.484  1.00  0.00     0.074 A 
ATOM     38  C   UNL A   1      39.005  32.700  30.878  1.00  0.00     0.049 A 
ATOM     39  N   UNL A   1      39.912  30.058  29.768  1.00  0.00    -0.248 NA
ATOM     40  C   UNL A   1      37.918  29.932  28.557  1.00  0.00     0.031 C 
ATOM     41  C   UNL A   1      38.602  33.970  31.486  1.00  0.00     0.029 A 
ATOM     42  N   UNL A   1      40.238  32.449  31.425  1.00  0.00    -0.354 N 
ATOM     43  C   UNL A   1      39.871  28.858  29.071  1.00  0.00     0.074 A 
ATOM     44  C   UNL A   1      38.594  28.806  28.392  1.00  0.00     0.031 C 
ATOM     45  C   UNL A   1      39.584  34.403  32.292  1.00  0.00     0.029 A 
ATOM     46  C   UNL A   1      40.668  33.427  32.289  1.00  0.00     0.049 A 
ATOM     47  H   UNL A   1      40.766  31.644  31.219  1.00  0.00     0.167 HD
ATOM     48  C   UNL A   1      40.819  27.896  28.982  1.00  0.00     0.031 A 
ATOM     49  C   UNL A   1      41.807  33.529  32.998  1.00  0.00     0.031 A 
ATOM     50  C   UNL A   1      42.094  27.950  29.645  1.00  0.00     0.049 A 
ATOM     51  C   UNL A   1      42.842  32.445  32.884  1.00  0.00     0.074 A 
ATOM     52  C   UNL A   1      43.143  27.050  29.573  1.00  0.00     0.029 A 
ATOM     53  N   UNL A   1      42.492  28.962  30.504  1.00  0.00    -0.354 N 
ATOM     54  N   UNL A   1      42.817  31.350  32.165  1.00  0.00    -0.248 NA
ATOM     55  C   UNL A   1      44.069  32.621  33.673  1.00  0.00     0.031 C 
ATOM     56  C   UNL A   1      44.160  27.497  30.421  1.00  0.00     0.029 A 
ATOM     57  C   UNL A   1      43.764  28.700  30.983  1.00  0.00     0.049 A 
ATOM     58  H   UNL A   1      41.952  29.751  30.737  1.00  0.00     0.167 HD
ATOM     59  C   UNL A   1      44.033  30.719  32.393  1.00  0.00     0.074 A 
ATOM     60  C   UNL A   1      44.779  31.563  33.304  1.00  0.00     0.031 C 
ATOM     61  C   UNL A   1      44.492  29.548  31.891  1.00  0.00     0.031 A 
BRANCH  48  62
ATOM     62  C   UNL A   1      40.504  26.696  28.132  1.00  0.00    -0.014 A 
ATOM     63  C   UNL A   1      39.746  25.628  28.639  1.00  0.00     0.009 A 
ATOM     64  C   UNL A   1      40.947  26.644  26.802  1.00  0.00     0.009 A 
ATOM     65  C   UNL A   1      39.471  24.515  27.842  1.00  0.00     0.001 A 
ATOM     66  C   UNL A   1      40.646  25.543  25.998  1.00  0.00     0.001 A 
ATOM     67  C   UNL A   1      39.918  24.475  26.522  1.00  0.00     0.000 A 
ENDBRANCH  48  62
BRANCH  49  68
ATOM     68  C   UNL A   1      42.046  34.714  33.860  1.00  0.00    -0.014 A 
ATOM     69  C   UNL A   1      42.659  35.861  33.333  1.00  0.00     0.009 A 
ATOM     70  C   UNL A   1      41.671  34.705  35.212  1.00  0.00     0.009 A 
ATOM     71  C   UNL A   1      42.918  36.964  34.150  1.00  0.00     0.001 A 
ATOM     72  C   UNL A   1      41.906  35.820  36.020  1.00  0.00     0.001 A 
ATOM     73  C   UNL A   1      42.538  36.945  35.491  1.00  0.00     0.000 A 
ENDBRANCH  49  68
BRANCH  61  74
ATOM     74  C   UNL A   1      45.876  29.127  32.294  1.00  0.00    -0.014 A 
ATOM     75  C   UNL A   1      46.093  28.314  33.418  1.00  0.00     0.009 A 
ATOM     76  C   UNL A   1      46.976  29.524  31.518  1.00  0.00     0.009 A 
ATOM     77  C   UNL A   1      47.388  27.937  33.776  1.00  0.00     0.001 A 
ATOM     78  C   UNL A   1      48.267  29.123  31.862  1.00  0.00     0.001 A 
ATOM     79  C   UNL A   1      48.473  28.338  32.996  1.00  0.00     0.000 A 
ENDBRANCH  61  74
ENDBRANCH  35  36
ENDBRANCH  27  30
ENDBRANCH  25  26
ENDBRANCH  24  25
ENDBRANCH  23  24
ENDBRANCH   1  23
TORSDOF 17
ENDMDL
