MODEL 1
REMARK VINA RESULT:     -12.0      0.000      0.000
REMARK SMILES O=C(CNC(=O)N1CC(NCCCCNC(=O)c2ccc(-c3c4nc(c(-c5ccccc5)c5ccc([nH]5)c(-c5ccccc5)c5nc(c(-c6ccccc6)c6ccc3[nH]6)C=C5)C=C4)cc2)=[NH+]c2ccccc21)N[C@H](C(=O)[O-])c1ccccc1
REMARK SMILES IDX 11 1 10 2 7 3 8 4 72 5 9 6 67 7 71 8 66 9 68 10 70 11 69 14
REMARK SMILES IDX 5 15 4 16 6 18 3 19 2 20 1 21 73 22 74 24 78 25 79 26 83 27
REMARK SMILES IDX 80 28 82 29 81 30 75 31 76 32 77 33 12 34 13 35 14 36 15 37
REMARK SMILES IDX 16 38 17 40 18 41 19 42 65 43 20 44 64 45 21 46 22 47 23 48
REMARK SMILES IDX 58 49 24 50 63 51 57 52 59 53 25 54 62 55 56 56 55 57 26 59
REMARK SMILES IDX 48 60 33 61 47 62 34 63 37 64 46 65 60 66 35 67 36 68 45 70
REMARK SMILES IDX 61 71 38 72 27 73 28 74 32 75 29 76 31 77 30 78 49 79 50 80
REMARK SMILES IDX 54 81 51 82 53 83 52 84 39 85 40 86 44 87 41 88 43 89 42 90
REMARK H PARENT 10 12 66 13 4 17 73 23 15 39 59 58 37 69
REMARK Flexibility Score: inf
ROOT
ATOM      1  C   UNL A   1      35.941  21.471  26.118  1.00  0.00     0.233 C 
ENDROOT
BRANCH   1   2
ATOM      2  N   UNL A   1      35.685  22.802  25.627  1.00  0.00    -0.277 N 
ATOM      3  N   UNL A   1      32.427  23.942  26.793  1.00  0.00    -0.278 N 
ATOM      4  C   UNL A   1      33.703  23.335  27.123  1.00  0.00     0.255 C 
ATOM      5  C   UNL A   1      32.497  25.315  26.459  1.00  0.00     0.093 A 
ATOM      6  C   UNL A   1      34.713  23.689  26.023  1.00  0.00     0.268 C 
ATOM      7  C   UNL A   1      33.653  25.749  25.779  1.00  0.00     0.148 A 
ATOM      8  C   UNL A   1      31.428  26.188  26.694  1.00  0.00     0.031 A 
ATOM      9  N   UNL A   1      34.705  24.865  25.448  1.00  0.00    -0.241 N 
ATOM     10  C   UNL A   1      33.671  27.047  25.267  1.00  0.00     0.054 A 
ATOM     11  C   UNL A   1      31.474  27.486  26.190  1.00  0.00     0.002 A 
ATOM     12  H   UNL A   1      36.286  23.117  24.914  1.00  0.00     0.304 HD
ATOM     13  H   UNL A   1      35.407  25.125  24.809  1.00  0.00     0.312 HD
ATOM     14  C   UNL A   1      32.585  27.909  25.462  1.00  0.00     0.005 A 
BRANCH   3  15
ATOM     15  C   UNL A   1      31.317  23.141  26.710  1.00  0.00     0.323 C 
ATOM     16  N   UNL A   1      31.167  22.320  25.637  1.00  0.00    -0.329 N 
ATOM     17  H   UNL A   1      30.256  21.975  25.492  1.00  0.00     0.165 HD
ATOM     18  O   UNL A   1      30.490  23.064  27.621  1.00  0.00    -0.248 OA
BRANCH  16  19
ATOM     19  C   UNL A   1      32.171  21.880  24.665  1.00  0.00     0.218 C 
BRANCH  19  20
ATOM     20  C   UNL A   1      31.995  22.598  23.340  1.00  0.00     0.240 C 
ATOM     21  O   UNL A   1      31.879  21.967  22.295  1.00  0.00    -0.273 OA
ATOM     22  N   UNL A   1      32.066  23.971  23.460  1.00  0.00    -0.342 N 
ATOM     23  H   UNL A   1      32.311  24.354  24.334  1.00  0.00     0.164 HD
BRANCH  22  24
ATOM     24  C   UNL A   1      31.791  24.893  22.331  1.00  0.00     0.158 C 
BRANCH  24  25
ATOM     25  C   UNL A   1      30.796  25.981  22.724  1.00  0.00    -0.020 A 
ATOM     26  C   UNL A   1      29.676  25.742  23.528  1.00  0.00     0.006 A 
ATOM     27  C   UNL A   1      31.011  27.312  22.301  1.00  0.00     0.006 A 
ATOM     28  C   UNL A   1      28.754  26.756  23.802  1.00  0.00     0.000 A 
ATOM     29  C   UNL A   1      30.085  28.323  22.558  1.00  0.00     0.000 A 
ATOM     30  C   UNL A   1      28.945  28.039  23.298  1.00  0.00     0.000 A 
ENDBRANCH  24  25
BRANCH  24  31
ATOM     31  C   UNL A   1      33.118  25.190  21.544  1.00  0.00     0.068 C 
ATOM     32  O   UNL A   1      33.078  25.409  20.304  1.00  0.00    -0.548 OA
ATOM     33  O   UNL A   1      34.152  25.157  22.295  1.00  0.00    -0.548 OA
ENDBRANCH  24  31
ENDBRANCH  22  24
ENDBRANCH  19  20
ENDBRANCH  16  19
ENDBRANCH   3  15
ENDBRANCH   1   2
BRANCH   1  34
ATOM     34  C   UNL A   1      36.183  20.487  24.975  1.00  0.00     0.048 C 
BRANCH  34  35
ATOM     35  C   UNL A   1      37.653  20.272  24.600  1.00  0.00     0.025 C 
BRANCH  35  36
ATOM     36  C   UNL A   1      38.658  20.437  25.736  1.00  0.00     0.116 C 
BRANCH  36  37
ATOM     37  N   UNL A   1      39.727  19.448  25.714  1.00  0.00    -0.352 N 
ATOM     38  C   UNL A   1      41.049  19.586  26.056  1.00  0.00     0.251 C 
ATOM     39  H   UNL A   1      39.462  18.548  25.410  1.00  0.00     0.163 HD
ATOM     40  O   UNL A   1      41.835  18.656  25.873  1.00  0.00    -0.269 OA
BRANCH  38  41
ATOM     41  C   UNL A   1      41.547  20.862  26.614  1.00  0.00     0.039 A 
ATOM     42  C   UNL A   1      42.091  21.809  25.741  1.00  0.00     0.014 A 
ATOM     43  C   UNL A   1      41.475  21.134  27.983  1.00  0.00     0.014 A 
ATOM     44  C   UNL A   1      42.493  23.054  26.231  1.00  0.00     0.010 A 
ATOM     45  C   UNL A   1      41.805  22.402  28.457  1.00  0.00     0.010 A 
ATOM     46  C   UNL A   1      42.313  23.378  27.586  1.00  0.00    -0.014 A 
BRANCH  46  47
ATOM     47  C   UNL A   1      42.619  24.741  28.093  1.00  0.00     0.031 A 
ATOM     48  C   UNL A   1      44.017  25.113  28.505  1.00  0.00     0.074 A 
ATOM     49  C   UNL A   1      41.620  25.636  28.233  1.00  0.00     0.049 A 
ATOM     50  N   UNL A   1      44.463  26.248  28.982  1.00  0.00    -0.248 NA
ATOM     51  C   UNL A   1      45.047  24.069  28.383  1.00  0.00     0.031 C 
ATOM     52  C   UNL A   1      40.212  25.388  27.918  1.00  0.00     0.029 A 
ATOM     53  N   UNL A   1      41.636  26.933  28.682  1.00  0.00    -0.354 N 
ATOM     54  C   UNL A   1      45.815  26.050  29.230  1.00  0.00     0.074 A 
ATOM     55  C   UNL A   1      46.108  24.674  28.896  1.00  0.00     0.031 C 
ATOM     56  C   UNL A   1      39.505  26.506  28.151  1.00  0.00     0.029 A 
ATOM     57  C   UNL A   1      40.399  27.533  28.675  1.00  0.00     0.049 A 
ATOM     58  H   UNL A   1      42.455  27.391  28.980  1.00  0.00     0.167 HD
ATOM     59  C   UNL A   1      46.736  26.939  29.678  1.00  0.00     0.031 A 
ATOM     60  C   UNL A   1      40.023  28.768  29.055  1.00  0.00     0.031 A 
ATOM     61  C   UNL A   1      46.444  28.307  30.017  1.00  0.00     0.049 A 
ATOM     62  C   UNL A   1      41.058  29.725  29.575  1.00  0.00     0.074 A 
ATOM     63  C   UNL A   1      47.319  29.299  30.426  1.00  0.00     0.029 A 
ATOM     64  N   UNL A   1      45.179  28.874  30.000  1.00  0.00    -0.354 N 
ATOM     65  N   UNL A   1      42.350  29.551  29.717  1.00  0.00    -0.248 NA
ATOM     66  C   UNL A   1      40.584  31.058  29.974  1.00  0.00     0.031 C 
ATOM     67  C   UNL A   1      46.576  30.447  30.716  1.00  0.00     0.029 A 
ATOM     68  C   UNL A   1      45.247  30.193  30.420  1.00  0.00     0.049 A 
ATOM     69  H   UNL A   1      44.354  28.408  29.729  1.00  0.00     0.167 HD
ATOM     70  C   UNL A   1      42.845  30.758  30.196  1.00  0.00     0.074 A 
ATOM     71  C   UNL A   1      41.718  31.662  30.298  1.00  0.00     0.031 C 
ATOM     72  C   UNL A   1      44.120  31.085  30.520  1.00  0.00     0.031 A 
BRANCH  59  73
ATOM     73  C   UNL A   1      48.150  26.450  29.840  1.00  0.00    -0.014 A 
ATOM     74  C   UNL A   1      49.084  26.562  28.798  1.00  0.00     0.009 A 
ATOM     75  C   UNL A   1      48.565  25.906  31.066  1.00  0.00     0.009 A 
ATOM     76  C   UNL A   1      50.393  26.105  28.968  1.00  0.00     0.001 A 
ATOM     77  C   UNL A   1      49.882  25.479  31.243  1.00  0.00     0.001 A 
ATOM     78  C   UNL A   1      50.792  25.569  30.192  1.00  0.00     0.000 A 
ENDBRANCH  59  73
BRANCH  60  79
ATOM     79  C   UNL A   1      38.597  29.178  28.948  1.00  0.00    -0.014 A 
ATOM     80  C   UNL A   1      38.091  29.693  27.744  1.00  0.00     0.009 A 
ATOM     81  C   UNL A   1      37.735  29.062  30.050  1.00  0.00     0.009 A 
ATOM     82  C   UNL A   1      36.760  30.108  27.654  1.00  0.00     0.001 A 
ATOM     83  C   UNL A   1      36.396  29.445  29.948  1.00  0.00     0.001 A 
ATOM     84  C   UNL A   1      35.912  29.979  28.755  1.00  0.00     0.000 A 
ENDBRANCH  60  79
BRANCH  72  85
ATOM     85  C   UNL A   1      44.374  32.494  30.980  1.00  0.00    -0.014 A 
ATOM     86  C   UNL A   1      44.728  33.509  30.077  1.00  0.00     0.009 A 
ATOM     87  C   UNL A   1      44.220  32.818  32.337  1.00  0.00     0.009 A 
ATOM     88  C   UNL A   1      44.959  34.809  30.530  1.00  0.00     0.001 A 
ATOM     89  C   UNL A   1      44.419  34.126  32.782  1.00  0.00     0.001 A 
ATOM     90  C   UNL A   1      44.800  35.117  31.880  1.00  0.00     0.000 A 
ENDBRANCH  72  85
ENDBRANCH  46  47
ENDBRANCH  38  41
ENDBRANCH  36  37
ENDBRANCH  35  36
ENDBRANCH  34  35
ENDBRANCH   1  34
TORSDOF 16
ENDMDL
MODEL 2
REMARK VINA RESULT:     -12.0      0.310      5.637
REMARK SMILES O=C(CNC(=O)N1CC(NCCCCNC(=O)c2ccc(-c3c4nc(c(-c5ccccc5)c5ccc([nH]5)c(-c5ccccc5)c5nc(c(-c6ccccc6)c6ccc3[nH]6)C=C5)C=C4)cc2)=[NH+]c2ccccc21)N[C@H](C(=O)[O-])c1ccccc1
REMARK SMILES IDX 11 1 10 2 7 3 8 4 72 5 9 6 67 7 71 8 66 9 68 10 70 11 69 14
REMARK SMILES IDX 5 15 4 16 6 18 3 19 2 20 1 21 73 22 74 24 78 25 79 26 83 27
REMARK SMILES IDX 80 28 82 29 81 30 75 31 76 32 77 33 12 34 13 35 14 36 15 37
REMARK SMILES IDX 16 38 17 40 18 41 19 42 65 43 20 44 64 45 21 46 22 47 23 48
REMARK SMILES IDX 58 49 24 50 63 51 57 52 59 53 25 54 62 55 56 56 55 57 26 59
REMARK SMILES IDX 48 60 33 61 47 62 34 63 37 64 46 65 60 66 35 67 36 68 45 70
REMARK SMILES IDX 61 71 38 72 27 73 28 74 32 75 29 76 31 77 30 78 49 79 50 80
REMARK SMILES IDX 54 81 51 82 53 83 52 84 39 85 40 86 44 87 41 88 43 89 42 90
REMARK H PARENT 10 12 66 13 4 17 73 23 15 39 59 58 37 69
REMARK Flexibility Score: inf
ROOT
ATOM      1  C   UNL A   1      35.764  21.460  26.122  1.00  0.00     0.233 C 
ENDROOT
BRANCH   1   2
ATOM      2  N   UNL A   1      35.534  22.805  25.657  1.00  0.00    -0.277 N 
ATOM      3  N   UNL A   1      32.280  23.968  26.809  1.00  0.00    -0.278 N 
ATOM      4  C   UNL A   1      33.542  23.335  27.141  1.00  0.00     0.255 C 
ATOM      5  C   UNL A   1      32.374  25.346  26.505  1.00  0.00     0.093 A 
ATOM      6  C   UNL A   1      34.571  23.697  26.060  1.00  0.00     0.268 C 
ATOM      7  C   UNL A   1      33.544  25.777  25.848  1.00  0.00     0.148 A 
ATOM      8  C   UNL A   1      31.315  26.229  26.747  1.00  0.00     0.031 A 
ATOM      9  N   UNL A   1      34.587  24.885  25.511  1.00  0.00    -0.241 N 
ATOM     10  C   UNL A   1      33.588  27.086  25.365  1.00  0.00     0.054 A 
ATOM     11  C   UNL A   1      31.386  27.537  26.272  1.00  0.00     0.002 A 
ATOM     12  H   UNL A   1      36.148  23.125  24.957  1.00  0.00     0.304 HD
ATOM     13  H   UNL A   1      35.300  25.148  24.885  1.00  0.00     0.312 HD
ATOM     14  C   UNL A   1      32.512  27.959  25.566  1.00  0.00     0.005 A 
BRANCH   3  15
ATOM     15  C   UNL A   1      31.159  23.185  26.696  1.00  0.00     0.323 C 
ATOM     16  N   UNL A   1      31.025  22.364  25.621  1.00  0.00    -0.329 N 
ATOM     17  H   UNL A   1      30.114  22.034  25.451  1.00  0.00     0.165 HD
ATOM     18  O   UNL A   1      30.305  23.125  27.584  1.00  0.00    -0.248 OA
BRANCH  16  19
ATOM     19  C   UNL A   1      32.050  21.905  24.679  1.00  0.00     0.218 C 
BRANCH  19  20
ATOM     20  C   UNL A   1      31.934  22.634  23.353  1.00  0.00     0.240 C 
ATOM     21  O   UNL A   1      31.880  22.012  22.298  1.00  0.00    -0.273 OA
ATOM     22  N   UNL A   1      31.982  24.006  23.490  1.00  0.00    -0.342 N 
ATOM     23  H   UNL A   1      32.177  24.384  24.379  1.00  0.00     0.164 HD
BRANCH  22  24
ATOM     24  C   UNL A   1      31.754  24.936  22.357  1.00  0.00     0.158 C 
BRANCH  24  25
ATOM     25  C   UNL A   1      30.775  26.046  22.729  1.00  0.00    -0.020 A 
ATOM     26  C   UNL A   1      29.634  25.831  23.507  1.00  0.00     0.006 A 
ATOM     27  C   UNL A   1      31.030  27.372  22.312  1.00  0.00     0.006 A 
ATOM     28  C   UNL A   1      28.728  26.866  23.762  1.00  0.00     0.000 A 
ATOM     29  C   UNL A   1      30.121  28.403  22.549  1.00  0.00     0.000 A 
ATOM     30  C   UNL A   1      28.959  28.145  23.263  1.00  0.00     0.000 A 
ENDBRANCH  24  25
BRANCH  24  31
ATOM     31  C   UNL A   1      33.107  25.205  21.602  1.00  0.00     0.068 C 
ATOM     32  O   UNL A   1      33.104  25.389  20.355  1.00  0.00    -0.548 OA
ATOM     33  O   UNL A   1      34.118  25.187  22.384  1.00  0.00    -0.548 OA
ENDBRANCH  24  31
ENDBRANCH  22  24
ENDBRANCH  19  20
ENDBRANCH  16  19
ENDBRANCH   3  15
ENDBRANCH   1   2
BRANCH   1  34
ATOM     34  C   UNL A   1      36.136  20.523  24.973  1.00  0.00     0.048 C 
BRANCH  34  35
ATOM     35  C   UNL A   1      37.610  20.552  24.558  1.00  0.00     0.025 C 
BRANCH  35  36
ATOM     36  C   UNL A   1      38.618  20.668  25.698  1.00  0.00     0.116 C 
BRANCH  36  37
ATOM     37  N   UNL A   1      39.639  19.630  25.678  1.00  0.00    -0.352 N 
ATOM     38  C   UNL A   1      40.965  19.705  26.029  1.00  0.00     0.251 C 
ATOM     39  H   UNL A   1      39.335  18.746  25.368  1.00  0.00     0.163 HD
ATOM     40  O   UNL A   1      41.707  18.741  25.846  1.00  0.00    -0.269 OA
BRANCH  38  41
ATOM     41  C   UNL A   1      41.518  20.954  26.598  1.00  0.00     0.039 A 
ATOM     42  C   UNL A   1      42.060  21.904  25.728  1.00  0.00     0.014 A 
ATOM     43  C   UNL A   1      41.498  21.197  27.974  1.00  0.00     0.014 A 
ATOM     44  C   UNL A   1      42.515  23.126  26.230  1.00  0.00     0.010 A 
ATOM     45  C   UNL A   1      41.880  22.444  28.464  1.00  0.00     0.010 A 
ATOM     46  C   UNL A   1      42.387  23.424  27.597  1.00  0.00    -0.014 A 
BRANCH  46  47
ATOM     47  C   UNL A   1      42.750  24.767  28.122  1.00  0.00     0.031 A 
ATOM     48  C   UNL A   1      41.699  25.824  28.322  1.00  0.00     0.074 A 
ATOM     49  C   UNL A   1      44.043  25.054  28.371  1.00  0.00     0.049 A 
ATOM     50  N   UNL A   1      41.835  27.053  28.756  1.00  0.00    -0.248 NA
ATOM     51  C   UNL A   1      40.316  25.463  27.973  1.00  0.00     0.031 C 
ATOM     52  C   UNL A   1      45.167  24.137  28.173  1.00  0.00     0.029 A 
ATOM     53  N   UNL A   1      44.632  26.202  28.840  1.00  0.00    -0.354 N 
ATOM     54  C   UNL A   1      40.564  27.612  28.717  1.00  0.00     0.074 A 
ATOM     55  C   UNL A   1      39.678  26.607  28.173  1.00  0.00     0.031 C 
ATOM     56  C   UNL A   1      46.304  24.745  28.549  1.00  0.00     0.029 A 
ATOM     57  C   UNL A   1      45.997  26.108  28.970  1.00  0.00     0.049 A 
ATOM     58  H   UNL A   1      44.125  27.016  29.064  1.00  0.00     0.167 HD
ATOM     59  C   UNL A   1      40.166  28.846  29.114  1.00  0.00     0.031 A 
ATOM     60  C   UNL A   1      46.904  27.017  29.374  1.00  0.00     0.031 A 
ATOM     61  C   UNL A   1      41.049  29.849  29.649  1.00  0.00     0.049 A 
ATOM     62  C   UNL A   1      46.439  28.387  29.783  1.00  0.00     0.074 A 
ATOM     63  C   UNL A   1      40.731  31.107  30.131  1.00  0.00     0.029 A 
ATOM     64  N   UNL A   1      42.425  29.715  29.760  1.00  0.00    -0.354 N 
ATOM     65  N   UNL A   1      45.222  28.870  29.827  1.00  0.00    -0.248 NA
ATOM     66  C   UNL A   1      47.478  29.334  30.213  1.00  0.00     0.031 C 
ATOM     67  C   UNL A   1      41.920  31.758  30.476  1.00  0.00     0.029 A 
ATOM     68  C   UNL A   1      42.972  30.880  30.274  1.00  0.00     0.049 A 
ATOM     69  H   UNL A   1      42.937  28.911  29.510  1.00  0.00     0.167 HD
ATOM     70  C   UNL A   1      45.345  30.165  30.313  1.00  0.00     0.074 A 
ATOM     71  C   UNL A   1      46.753  30.384  30.571  1.00  0.00     0.031 C 
ATOM     72  C   UNL A   1      44.376  31.089  30.527  1.00  0.00     0.031 A 
BRANCH  59  73
ATOM     73  C   UNL A   1      38.707  29.182  28.972  1.00  0.00    -0.014 A 
ATOM     74  C   UNL A   1      37.813  29.016  30.042  1.00  0.00     0.009 A 
ATOM     75  C   UNL A   1      38.226  29.711  27.763  1.00  0.00     0.009 A 
ATOM     76  C   UNL A   1      36.461  29.337  29.892  1.00  0.00     0.001 A 
ATOM     77  C   UNL A   1      36.881  30.060  27.627  1.00  0.00     0.001 A 
ATOM     78  C   UNL A   1      35.998  29.863  28.686  1.00  0.00     0.000 A 
ENDBRANCH  59  73
BRANCH  60  79
ATOM     79  C   UNL A   1      48.347  26.659  29.422  1.00  0.00    -0.014 A 
ATOM     80  C   UNL A   1      49.197  26.978  28.351  1.00  0.00     0.009 A 
ATOM     81  C   UNL A   1      48.882  25.993  30.535  1.00  0.00     0.009 A 
ATOM     82  C   UNL A   1      50.545  26.612  28.382  1.00  0.00     0.001 A 
ATOM     83  C   UNL A   1      50.237  25.659  30.580  1.00  0.00     0.001 A 
ATOM     84  C   UNL A   1      51.065  25.958  29.499  1.00  0.00     0.000 A 
ENDBRANCH  60  79
BRANCH  72  85
ATOM     85  C   UNL A   1      44.799  32.411  31.105  1.00  0.00    -0.014 A 
ATOM     86  C   UNL A   1      44.852  32.623  32.492  1.00  0.00     0.009 A 
ATOM     87  C   UNL A   1      45.186  33.451  30.245  1.00  0.00     0.009 A 
ATOM     88  C   UNL A   1      45.247  33.861  33.003  1.00  0.00     0.001 A 
ATOM     89  C   UNL A   1      45.614  34.676  30.760  1.00  0.00     0.001 A 
ATOM     90  C   UNL A   1      45.633  34.883  32.137  1.00  0.00     0.000 A 
ENDBRANCH  72  85
ENDBRANCH  46  47
ENDBRANCH  38  41
ENDBRANCH  36  37
ENDBRANCH  35  36
ENDBRANCH  34  35
ENDBRANCH   1  34
TORSDOF 16
ENDMDL
MODEL 3
REMARK VINA RESULT:     -11.8      3.493      8.665
REMARK SMILES O=C(CNC(=O)N1CC(NCCCCNC(=O)c2ccc(-c3c4nc(c(-c5ccccc5)c5ccc([nH]5)c(-c5ccccc5)c5nc(c(-c6ccccc6)c6ccc3[nH]6)C=C5)C=C4)cc2)=[NH+]c2ccccc21)N[C@H](C(=O)[O-])c1ccccc1
REMARK SMILES IDX 11 1 10 2 7 3 8 4 72 5 9 6 67 7 71 8 66 9 68 10 70 11 69 14
REMARK SMILES IDX 5 15 4 16 6 18 3 19 2 20 1 21 73 22 74 24 78 25 79 26 83 27
REMARK SMILES IDX 80 28 82 29 81 30 75 31 76 32 77 33 12 34 13 35 14 36 15 37
REMARK SMILES IDX 16 38 17 40 18 41 19 42 65 43 20 44 64 45 21 46 22 47 23 48
REMARK SMILES IDX 58 49 24 50 63 51 57 52 59 53 25 54 62 55 56 56 55 57 26 59
REMARK SMILES IDX 48 60 33 61 47 62 34 63 37 64 46 65 60 66 35 67 36 68 45 70
REMARK SMILES IDX 61 71 38 72 27 73 28 74 32 75 29 76 31 77 30 78 49 79 50 80
REMARK SMILES IDX 54 81 51 82 53 83 52 84 39 85 40 86 44 87 41 88 43 89 42 90
REMARK H PARENT 10 12 66 13 4 17 73 23 15 39 59 58 37 69
REMARK Flexibility Score: inf
ROOT
ATOM      1  C   UNL A   1      32.457  29.703  25.480  1.00  0.00     0.233 C 
ENDROOT
BRANCH   1   2
ATOM      2  N   UNL A   1      32.861  28.397  25.935  1.00  0.00    -0.277 N 
ATOM      3  N   UNL A   1      33.660  26.287  23.075  1.00  0.00    -0.278 N 
ATOM      4  C   UNL A   1      33.831  27.564  23.741  1.00  0.00     0.255 C 
ATOM      5  C   UNL A   1      34.284  25.195  23.724  1.00  0.00     0.093 A 
ATOM      6  C   UNL A   1      33.476  27.395  25.225  1.00  0.00     0.268 C 
ATOM      7  C   UNL A   1      34.326  25.228  25.132  1.00  0.00     0.148 A 
ATOM      8  C   UNL A   1      34.748  24.082  23.014  1.00  0.00     0.031 A 
ATOM      9  N   UNL A   1      33.781  26.300  25.874  1.00  0.00    -0.241 N 
ATOM     10  C   UNL A   1      34.761  24.087  25.808  1.00  0.00     0.054 A 
ATOM     11  C   UNL A   1      35.194  22.959  23.707  1.00  0.00     0.002 A 
ATOM     12  H   UNL A   1      32.671  28.196  26.880  1.00  0.00     0.304 HD
ATOM     13  H   UNL A   1      33.635  26.226  26.845  1.00  0.00     0.312 HD
ATOM     14  C   UNL A   1      35.183  22.955  25.101  1.00  0.00     0.005 A 
BRANCH   3  15
ATOM     15  C   UNL A   1      32.832  26.218  21.983  1.00  0.00     0.323 C 
ATOM     16  N   UNL A   1      31.494  26.392  22.150  1.00  0.00    -0.329 N 
ATOM     17  H   UNL A   1      30.930  26.077  21.407  1.00  0.00     0.165 HD
ATOM     18  O   UNL A   1      33.264  26.097  20.835  1.00  0.00    -0.248 OA
BRANCH  16  19
ATOM     19  C   UNL A   1      30.775  26.981  23.283  1.00  0.00     0.218 C 
BRANCH  19  20
ATOM     20  C   UNL A   1      30.174  25.903  24.164  1.00  0.00     0.240 C 
ATOM     21  O   UNL A   1      29.026  26.002  24.583  1.00  0.00    -0.273 OA
ATOM     22  N   UNL A   1      31.073  24.903  24.477  1.00  0.00    -0.342 N 
ATOM     23  H   UNL A   1      32.012  25.012  24.200  1.00  0.00     0.164 HD
BRANCH  22  24
ATOM     24  C   UNL A   1      30.687  23.674  25.211  1.00  0.00     0.158 C 
BRANCH  24  25
ATOM     25  C   UNL A   1      31.335  22.432  24.608  1.00  0.00    -0.020 A 
ATOM     26  C   UNL A   1      31.801  21.360  25.377  1.00  0.00     0.006 A 
ATOM     27  C   UNL A   1      31.450  22.314  23.204  1.00  0.00     0.006 A 
ATOM     28  C   UNL A   1      32.453  20.274  24.783  1.00  0.00     0.000 A 
ATOM     29  C   UNL A   1      32.114  21.242  22.609  1.00  0.00     0.000 A 
ATOM     30  C   UNL A   1      32.631  20.227  23.403  1.00  0.00     0.000 A 
ENDBRANCH  24  25
BRANCH  24  31
ATOM     31  C   UNL A   1      30.655  23.959  26.757  1.00  0.00     0.068 C 
ATOM     32  O   UNL A   1      31.559  24.661  27.285  1.00  0.00    -0.548 OA
ATOM     33  O   UNL A   1      29.664  23.400  27.339  1.00  0.00    -0.548 OA
ENDBRANCH  24  31
ENDBRANCH  22  24
ENDBRANCH  19  20
ENDBRANCH  16  19
ENDBRANCH   3  15
ENDBRANCH   1   2
BRANCH   1  34
ATOM     34  C   UNL A   1      31.472  30.357  26.448  1.00  0.00     0.048 C 
BRANCH  34  35
ATOM     35  C   UNL A   1      31.502  31.888  26.476  1.00  0.00     0.025 C 
BRANCH  35  36
ATOM     36  C   UNL A   1      32.682  32.514  27.214  1.00  0.00     0.116 C 
BRANCH  36  37
ATOM     37  N   UNL A   1      32.440  33.887  27.635  1.00  0.00    -0.352 N 
ATOM     38  C   UNL A   1      33.149  34.666  28.517  1.00  0.00     0.251 C 
ATOM     39  H   UNL A   1      31.655  34.321  27.229  1.00  0.00     0.163 HD
ATOM     40  O   UNL A   1      32.731  35.780  28.831  1.00  0.00    -0.269 OA
BRANCH  38  41
ATOM     41  C   UNL A   1      34.401  34.159  29.121  1.00  0.00     0.039 A 
ATOM     42  C   UNL A   1      34.325  33.440  30.317  1.00  0.00     0.014 A 
ATOM     43  C   UNL A   1      35.641  34.381  28.517  1.00  0.00     0.014 A 
ATOM     44  C   UNL A   1      35.482  32.881  30.866  1.00  0.00     0.010 A 
ATOM     45  C   UNL A   1      36.781  33.759  29.023  1.00  0.00     0.010 A 
ATOM     46  C   UNL A   1      36.713  32.999  30.200  1.00  0.00    -0.014 A 
BRANCH  46  47
ATOM     47  C   UNL A   1      37.925  32.303  30.707  1.00  0.00     0.031 A 
ATOM     48  C   UNL A   1      38.721  32.876  31.848  1.00  0.00     0.074 A 
ATOM     49  C   UNL A   1      38.342  31.172  30.102  1.00  0.00     0.049 A 
ATOM     50  N   UNL A   1      39.810  32.413  32.409  1.00  0.00    -0.248 NA
ATOM     51  C   UNL A   1      38.244  34.144  32.421  1.00  0.00     0.031 C 
ATOM     52  C   UNL A   1      37.691  30.537  28.955  1.00  0.00     0.029 A 
ATOM     53  N   UNL A   1      39.417  30.360  30.365  1.00  0.00    -0.354 N 
ATOM     54  C   UNL A   1      40.154  33.338  33.387  1.00  0.00     0.074 A 
ATOM     55  C   UNL A   1      39.187  34.411  33.312  1.00  0.00     0.031 C 
ATOM     56  C   UNL A   1      38.358  29.417  28.634  1.00  0.00     0.029 A 
ATOM     57  C   UNL A   1      39.510  29.279  29.520  1.00  0.00     0.049 A 
ATOM     58  H   UNL A   1      40.060  30.533  31.090  1.00  0.00     0.167 HD
ATOM     59  C   UNL A   1      41.173  33.290  34.280  1.00  0.00     0.031 A 
ATOM     60  C   UNL A   1      40.422  28.292  29.458  1.00  0.00     0.031 A 
ATOM     61  C   UNL A   1      42.140  32.226  34.351  1.00  0.00     0.049 A 
ATOM     62  C   UNL A   1      41.558  28.277  30.442  1.00  0.00     0.074 A 
ATOM     63  C   UNL A   1      43.174  32.060  35.257  1.00  0.00     0.029 A 
ATOM     64  N   UNL A   1      42.201  31.153  33.476  1.00  0.00    -0.354 N 
ATOM     65  N   UNL A   1      41.817  29.110  31.421  1.00  0.00    -0.248 NA
ATOM     66  C   UNL A   1      42.522  27.173  30.322  1.00  0.00     0.031 C 
ATOM     67  C   UNL A   1      43.898  30.921  34.892  1.00  0.00     0.029 A 
ATOM     68  C   UNL A   1      43.274  30.338  33.801  1.00  0.00     0.049 A 
ATOM     69  H   UNL A   1      41.575  30.993  32.732  1.00  0.00     0.167 HD
ATOM     70  C   UNL A   1      42.956  28.618  32.046  1.00  0.00     0.074 A 
ATOM     71  C   UNL A   1      43.323  27.402  31.352  1.00  0.00     0.031 C 
ATOM     72  C   UNL A   1      43.633  29.130  33.103  1.00  0.00     0.031 A 
BRANCH  59  73
ATOM     73  C   UNL A   1      41.300  34.434  35.249  1.00  0.00    -0.014 A 
ATOM     74  C   UNL A   1      40.643  34.416  36.489  1.00  0.00     0.009 A 
ATOM     75  C   UNL A   1      42.121  35.529  34.933  1.00  0.00     0.009 A 
ATOM     76  C   UNL A   1      40.775  35.488  37.377  1.00  0.00     0.001 A 
ATOM     77  C   UNL A   1      42.276  36.583  35.836  1.00  0.00     0.001 A 
ATOM     78  C   UNL A   1      41.596  36.567  37.051  1.00  0.00     0.000 A 
ENDBRANCH  59  73
BRANCH  60  79
ATOM     79  C   UNL A   1      40.295  27.224  28.430  1.00  0.00    -0.014 A 
ATOM     80  C   UNL A   1      40.925  27.358  27.182  1.00  0.00     0.009 A 
ATOM     81  C   UNL A   1      39.541  26.069  28.686  1.00  0.00     0.009 A 
ATOM     82  C   UNL A   1      40.778  26.371  26.204  1.00  0.00     0.001 A 
ATOM     83  C   UNL A   1      39.425  25.068  27.721  1.00  0.00     0.001 A 
ATOM     84  C   UNL A   1      40.033  25.224  26.477  1.00  0.00     0.000 A 
ENDBRANCH  60  79
BRANCH  72  85
ATOM     85  C   UNL A   1      44.821  28.354  33.601  1.00  0.00    -0.014 A 
ATOM     86  C   UNL A   1      44.686  27.337  34.560  1.00  0.00     0.009 A 
ATOM     87  C   UNL A   1      46.094  28.622  33.072  1.00  0.00     0.009 A 
ATOM     88  C   UNL A   1      45.806  26.633  35.006  1.00  0.00     0.001 A 
ATOM     89  C   UNL A   1      47.207  27.893  33.496  1.00  0.00     0.001 A 
ATOM     90  C   UNL A   1      47.063  26.907  34.470  1.00  0.00     0.000 A 
ENDBRANCH  72  85
ENDBRANCH  46  47
ENDBRANCH  38  41
ENDBRANCH  36  37
ENDBRANCH  35  36
ENDBRANCH  34  35
ENDBRANCH   1  34
TORSDOF 16
ENDMDL
