MODEL 1
REMARK VINA RESULT:     -11.7      0.000      0.000
REMARK SMILES C[C@@H]1[C@H](C(=O)NCCCCNC(=O)c2ccc(-c3c4nc(c(-c5ccccc5)c5ccc([nH]5)c(-c5ccccc5)c5nc(c(-c6ccccc6)c6ccc3[nH]6)C=C5)C=C4)cc2)CCN1S(=O)(=O)c1cc(F)cc(F)c1
REMARK SMILES IDX 8 1 7 2 6 3 4 4 5 5 3 7 1 8 2 9 64 10 62 11 63 12 65 13
REMARK SMILES IDX 66 14 67 15 68 16 69 17 75 18 70 19 73 20 71 21 72 22 74 23
REMARK SMILES IDX 9 24 10 25 11 26 12 27 13 29 14 30 15 31 61 32 16 33 60 34
REMARK SMILES IDX 17 35 18 36 19 37 54 38 20 39 59 40 53 41 55 42 21 43 58 44
REMARK SMILES IDX 52 45 51 46 22 48 44 49 29 50 43 51 30 52 33 53 42 54 56 55
REMARK SMILES IDX 31 56 32 57 41 59 57 60 34 61 23 62 24 63 28 64 25 65 27 66
REMARK SMILES IDX 26 67 45 68 46 69 50 70 47 71 49 72 48 73 35 74 36 75 40 76
REMARK SMILES IDX 37 77 39 78 38 79
REMARK H PARENT 6 6 11 28 55 47 33 58
REMARK Flexibility Score: inf
ROOT
ATOM      1  C   UNL A   1      32.858  29.705  25.109  1.00  0.00     0.023 C 
ENDROOT
BRANCH   1   2
ATOM      2  C   UNL A   1      31.327  29.611  25.061  1.00  0.00     0.116 C 
BRANCH   2   3
ATOM      3  N   UNL A   1      30.796  29.754  23.713  1.00  0.00    -0.356 N 
ATOM      4  C   UNL A   1      30.427  28.888  22.736  1.00  0.00     0.224 C 
ATOM      5  O   UNL A   1      30.040  29.416  21.684  1.00  0.00    -0.275 OA
ATOM      6  H   UNL A   1      30.676  30.695  23.450  1.00  0.00     0.163 HD
BRANCH   4   7
ATOM      7  C   UNL A   1      30.480  27.358  22.798  1.00  0.00     0.098 C 
ATOM      8  C   UNL A   1      32.971  27.395  22.277  1.00  0.00     0.026 C 
ATOM      9  C   UNL A   1      31.680  26.635  22.153  1.00  0.00     0.082 C 
ATOM     10  N   UNL A   1      31.694  25.251  22.754  1.00  0.00    -0.194 NA
ATOM     11  C   UNL A   1      30.295  26.674  24.132  1.00  0.00     0.032 C 
ATOM     12  C   UNL A   1      30.599  25.221  23.794  1.00  0.00     0.104 C 
BRANCH  10  13
ATOM     13  S   UNL A   1      33.088  24.437  23.297  1.00  0.00     0.243 S 
ATOM     14  O   UNL A   1      33.995  24.355  22.170  1.00  0.00    -0.207 OA
ATOM     15  O   UNL A   1      33.498  25.105  24.516  1.00  0.00    -0.207 OA
BRANCH  13  16
ATOM     16  C   UNL A   1      32.733  22.764  23.777  1.00  0.00     0.088 A 
ATOM     17  C   UNL A   1      33.038  22.438  25.108  1.00  0.00     0.061 A 
ATOM     18  C   UNL A   1      32.301  21.768  22.907  1.00  0.00     0.061 A 
ATOM     19  C   UNL A   1      32.999  21.111  25.519  1.00  0.00     0.127 A 
ATOM     20  C   UNL A   1      32.340  20.439  23.327  1.00  0.00     0.127 A 
ATOM     21  F   UNL A   1      33.302  20.805  26.787  1.00  0.00    -0.207 F 
ATOM     22  C   UNL A   1      32.692  20.097  24.626  1.00  0.00     0.078 A 
ATOM     23  F   UNL A   1      32.079  19.468  22.443  1.00  0.00    -0.207 F 
ENDBRANCH  13  16
ENDBRANCH  10  13
ENDBRANCH   4   7
ENDBRANCH   2   3
ENDBRANCH   1   2
BRANCH   1  24
ATOM     24  C   UNL A   1      33.592  28.614  25.855  1.00  0.00     0.023 C 
BRANCH  24  25
ATOM     25  C   UNL A   1      33.586  28.774  27.357  1.00  0.00     0.116 C 
BRANCH  25  26
ATOM     26  N   UNL A   1      33.639  30.156  27.816  1.00  0.00    -0.352 N 
ATOM     27  C   UNL A   1      34.723  30.839  28.326  1.00  0.00     0.251 C 
ATOM     28  H   UNL A   1      32.798  30.665  27.754  1.00  0.00     0.163 HD
ATOM     29  O   UNL A   1      34.624  31.985  28.729  1.00  0.00    -0.269 OA
BRANCH  27  30
ATOM     30  C   UNL A   1      36.006  30.114  28.422  1.00  0.00     0.039 A 
ATOM     31  C   UNL A   1      36.907  30.187  27.360  1.00  0.00     0.014 A 
ATOM     32  C   UNL A   1      36.359  29.495  29.623  1.00  0.00     0.014 A 
ATOM     33  C   UNL A   1      38.206  29.711  27.539  1.00  0.00     0.010 A 
ATOM     34  C   UNL A   1      37.681  29.148  29.839  1.00  0.00     0.010 A 
ATOM     35  C   UNL A   1      38.614  29.232  28.794  1.00  0.00    -0.014 A 
BRANCH  35  36
ATOM     36  C   UNL A   1      39.994  28.754  29.040  1.00  0.00     0.031 A 
ATOM     37  C   UNL A   1      40.981  29.685  29.688  1.00  0.00     0.074 A 
ATOM     38  C   UNL A   1      40.381  27.537  28.611  1.00  0.00     0.049 A 
ATOM     39  N   UNL A   1      42.263  29.523  29.891  1.00  0.00    -0.248 NA
ATOM     40  C   UNL A   1      40.468  30.998  30.121  1.00  0.00     0.031 C 
ATOM     41  C   UNL A   1      39.534  26.566  27.915  1.00  0.00     0.029 A 
ATOM     42  N   UNL A   1      41.599  26.914  28.698  1.00  0.00    -0.354 N 
ATOM     43  C   UNL A   1      42.709  30.723  30.427  1.00  0.00     0.074 A 
ATOM     44  C   UNL A   1      41.582  31.625  30.459  1.00  0.00     0.031 C 
ATOM     45  C   UNL A   1      40.248  25.452  27.676  1.00  0.00     0.029 A 
ATOM     46  C   UNL A   1      41.608  25.646  28.168  1.00  0.00     0.049 A 
ATOM     47  H   UNL A   1      42.393  27.334  29.101  1.00  0.00     0.167 HD
ATOM     48  C   UNL A   1      43.941  31.040  30.887  1.00  0.00     0.031 A 
ATOM     49  C   UNL A   1      42.602  24.742  28.098  1.00  0.00     0.031 A 
ATOM     50  C   UNL A   1      45.046  30.123  30.908  1.00  0.00     0.049 A 
ATOM     51  C   UNL A   1      43.949  25.094  28.666  1.00  0.00     0.074 A 
ATOM     52  C   UNL A   1      46.316  30.313  31.418  1.00  0.00     0.029 A 
ATOM     53  N   UNL A   1      44.996  28.829  30.412  1.00  0.00    -0.354 N 
ATOM     54  N   UNL A   1      44.343  26.214  29.224  1.00  0.00    -0.248 NA
ATOM     55  C   UNL A   1      44.982  24.051  28.610  1.00  0.00     0.031 C 
ATOM     56  C   UNL A   1      47.047  29.139  31.207  1.00  0.00     0.029 A 
ATOM     57  C   UNL A   1      46.216  28.208  30.601  1.00  0.00     0.049 A 
ATOM     58  H   UNL A   1      44.210  28.416  29.988  1.00  0.00     0.167 HD
ATOM     59  C   UNL A   1      45.658  26.000  29.613  1.00  0.00     0.074 A 
ATOM     60  C   UNL A   1      45.991  24.642  29.236  1.00  0.00     0.031 C 
ATOM     61  C   UNL A   1      46.516  26.851  30.227  1.00  0.00     0.031 A 
BRANCH  48  62
ATOM     62  C   UNL A   1      44.138  32.435  31.410  1.00  0.00    -0.014 A 
ATOM     63  C   UNL A   1      44.694  33.442  30.603  1.00  0.00     0.009 A 
ATOM     64  C   UNL A   1      43.774  32.743  32.728  1.00  0.00     0.009 A 
ATOM     65  C   UNL A   1      44.928  34.716  31.123  1.00  0.00     0.001 A 
ATOM     66  C   UNL A   1      43.979  34.028  33.236  1.00  0.00     0.001 A 
ATOM     67  C   UNL A   1      44.568  35.008  32.438  1.00  0.00     0.000 A 
ENDBRANCH  48  62
BRANCH  49  68
ATOM     68  C   UNL A   1      42.352  23.399  27.514  1.00  0.00    -0.014 A 
ATOM     69  C   UNL A   1      42.694  23.135  26.178  1.00  0.00     0.009 A 
ATOM     70  C   UNL A   1      41.774  22.377  28.281  1.00  0.00     0.009 A 
ATOM     71  C   UNL A   1      42.438  21.884  25.614  1.00  0.00     0.001 A 
ATOM     72  C   UNL A   1      41.542  21.118  27.721  1.00  0.00     0.001 A 
ATOM     73  C   UNL A   1      41.865  20.875  26.387  1.00  0.00     0.000 A 
ENDBRANCH  49  68
BRANCH  61  74
ATOM     74  C   UNL A   1      47.877  26.322  30.569  1.00  0.00    -0.014 A 
ATOM     75  C   UNL A   1      48.936  26.393  29.653  1.00  0.00     0.009 A 
ATOM     76  C   UNL A   1      48.111  25.791  31.847  1.00  0.00     0.009 A 
ATOM     77  C   UNL A   1      50.200  25.915  30.002  1.00  0.00     0.001 A 
ATOM     78  C   UNL A   1      49.381  25.336  32.201  1.00  0.00     0.001 A 
ATOM     79  C   UNL A   1      50.422  25.391  31.276  1.00  0.00     0.000 A 
ENDBRANCH  61  74
ENDBRANCH  35  36
ENDBRANCH  27  30
ENDBRANCH  25  26
ENDBRANCH  24  25
ENDBRANCH   1  24
TORSDOF 13
ENDMDL
MODEL 2
REMARK VINA RESULT:     -11.6      3.096      7.933
REMARK SMILES C[C@@H]1[C@H](C(=O)NCCCCNC(=O)c2ccc(-c3c4nc(c(-c5ccccc5)c5ccc([nH]5)c(-c5ccccc5)c5nc(c(-c6ccccc6)c6ccc3[nH]6)C=C5)C=C4)cc2)CCN1S(=O)(=O)c1cc(F)cc(F)c1
REMARK SMILES IDX 8 1 7 2 6 3 4 4 5 5 3 7 1 8 2 9 64 10 62 11 63 12 65 13
REMARK SMILES IDX 66 14 67 15 68 16 69 17 75 18 70 19 73 20 71 21 72 22 74 23
REMARK SMILES IDX 9 24 10 25 11 26 12 27 13 29 14 30 15 31 61 32 16 33 60 34
REMARK SMILES IDX 17 35 18 36 19 37 54 38 20 39 59 40 53 41 55 42 21 43 58 44
REMARK SMILES IDX 52 45 51 46 22 48 44 49 29 50 43 51 30 52 33 53 42 54 56 55
REMARK SMILES IDX 31 56 32 57 41 59 57 60 34 61 23 62 24 63 28 64 25 65 27 66
REMARK SMILES IDX 26 67 45 68 46 69 50 70 47 71 49 72 48 73 35 74 36 75 40 76
REMARK SMILES IDX 37 77 39 78 38 79
REMARK H PARENT 6 6 11 28 55 47 33 58
REMARK Flexibility Score: inf
ROOT
ATOM      1  C   UNL A   1      37.471  21.460  24.659  1.00  0.00     0.023 C 
ENDROOT
BRANCH   1   2
ATOM      2  C   UNL A   1      37.282  22.458  25.809  1.00  0.00     0.116 C 
BRANCH   2   3
ATOM      3  N   UNL A   1      36.003  22.301  26.487  1.00  0.00    -0.356 N 
ATOM      4  C   UNL A   1      34.848  23.012  26.523  1.00  0.00     0.224 C 
ATOM      5  O   UNL A   1      33.971  22.552  27.267  1.00  0.00    -0.275 OA
ATOM      6  H   UNL A   1      35.968  21.493  27.048  1.00  0.00     0.163 HD
BRANCH   4   7
ATOM      7  C   UNL A   1      34.550  24.316  25.777  1.00  0.00     0.098 C 
ATOM      8  C   UNL A   1      34.115  23.020  23.630  1.00  0.00     0.026 C 
ATOM      9  C   UNL A   1      34.594  24.309  24.235  1.00  0.00     0.082 C 
ATOM     10  N   UNL A   1      33.837  25.540  23.800  1.00  0.00    -0.194 NA
ATOM     11  C   UNL A   1      33.293  25.083  26.119  1.00  0.00     0.032 C 
ATOM     12  C   UNL A   1      33.282  26.171  25.054  1.00  0.00     0.104 C 
BRANCH  10  13
ATOM     13  S   UNL A   1      32.706  25.590  22.527  1.00  0.00     0.243 S 
ATOM     14  O   UNL A   1      33.417  26.039  21.347  1.00  0.00    -0.207 OA
ATOM     15  O   UNL A   1      32.036  24.305  22.529  1.00  0.00    -0.207 OA
BRANCH  13  16
ATOM     16  C   UNL A   1      31.426  26.785  22.825  1.00  0.00     0.088 A 
ATOM     17  C   UNL A   1      30.266  26.291  23.442  1.00  0.00     0.061 A 
ATOM     18  C   UNL A   1      31.462  28.105  22.387  1.00  0.00     0.061 A 
ATOM     19  C   UNL A   1      29.133  27.091  23.524  1.00  0.00     0.127 A 
ATOM     20  C   UNL A   1      30.289  28.860  22.418  1.00  0.00     0.127 A 
ATOM     21  F   UNL A   1      28.027  26.609  24.104  1.00  0.00    -0.207 F 
ATOM     22  C   UNL A   1      29.120  28.364  22.977  1.00  0.00     0.078 A 
ATOM     23  F   UNL A   1      30.280  30.073  21.851  1.00  0.00    -0.207 F 
ENDBRANCH  13  16
ENDBRANCH  10  13
ENDBRANCH   4   7
ENDBRANCH   2   3
ENDBRANCH   1   2
BRANCH   1  24
ATOM     24  C   UNL A   1      38.107  20.131  24.998  1.00  0.00     0.023 C 
BRANCH  24  25
ATOM     25  C   UNL A   1      39.259  20.223  25.970  1.00  0.00     0.116 C 
BRANCH  25  26
ATOM     26  N   UNL A   1      40.203  19.114  25.894  1.00  0.00    -0.352 N 
ATOM     27  C   UNL A   1      41.569  19.150  26.075  1.00  0.00     0.251 C 
ATOM     28  H   UNL A   1      39.817  18.232  25.689  1.00  0.00     0.163 HD
ATOM     29  O   UNL A   1      42.259  18.156  25.930  1.00  0.00    -0.269 OA
BRANCH  27  30
ATOM     30  C   UNL A   1      42.183  20.454  26.398  1.00  0.00     0.039 A 
ATOM     31  C   UNL A   1      42.535  21.314  25.359  1.00  0.00     0.014 A 
ATOM     32  C   UNL A   1      42.265  20.866  27.730  1.00  0.00     0.014 A 
ATOM     33  C   UNL A   1      42.886  22.631  25.657  1.00  0.00     0.010 A 
ATOM     34  C   UNL A   1      42.484  22.202  28.010  1.00  0.00     0.010 A 
ATOM     35  C   UNL A   1      42.818  23.095  26.980  1.00  0.00    -0.014 A 
BRANCH  35  36
ATOM     36  C   UNL A   1      43.144  24.495  27.338  1.00  0.00     0.031 A 
ATOM     37  C   UNL A   1      44.578  24.945  27.280  1.00  0.00     0.074 A 
ATOM     38  C   UNL A   1      42.184  25.323  27.791  1.00  0.00     0.049 A 
ATOM     39  N   UNL A   1      45.105  26.080  27.659  1.00  0.00    -0.248 NA
ATOM     40  C   UNL A   1      45.559  23.968  26.774  1.00  0.00     0.031 C 
ATOM     41  C   UNL A   1      40.767  24.987  27.952  1.00  0.00     0.029 A 
ATOM     42  N   UNL A   1      42.264  26.628  28.207  1.00  0.00    -0.354 N 
ATOM     43  C   UNL A   1      46.474  25.932  27.480  1.00  0.00     0.074 A 
ATOM     44  C   UNL A   1      46.703  24.582  27.024  1.00  0.00     0.031 C 
ATOM     45  C   UNL A   1      40.105  26.071  28.391  1.00  0.00     0.029 A 
ATOM     46  C   UNL A   1      41.054  27.163  28.577  1.00  0.00     0.049 A 
ATOM     47  H   UNL A   1      43.108  27.134  28.239  1.00  0.00     0.167 HD
ATOM     48  C   UNL A   1      47.454  26.848  27.649  1.00  0.00     0.031 A 
ATOM     49  C   UNL A   1      40.748  28.401  29.009  1.00  0.00     0.031 A 
ATOM     50  C   UNL A   1      47.218  28.207  28.047  1.00  0.00     0.049 A 
ATOM     51  C   UNL A   1      41.846  29.421  29.135  1.00  0.00     0.074 A 
ATOM     52  C   UNL A   1      48.127  29.239  28.177  1.00  0.00     0.029 A 
ATOM     53  N   UNL A   1      45.970  28.723  28.359  1.00  0.00    -0.354 N 
ATOM     54  N   UNL A   1      43.130  29.284  28.907  1.00  0.00    -0.248 NA
ATOM     55  C   UNL A   1      41.448  30.769  29.560  1.00  0.00     0.031 C 
ATOM     56  C   UNL A   1      47.432  30.379  28.594  1.00  0.00     0.029 A 
ATOM     57  C   UNL A   1      46.084  30.062  28.685  1.00  0.00     0.049 A 
ATOM     58  H   UNL A   1      45.128  28.213  28.351  1.00  0.00     0.167 HD
ATOM     59  C   UNL A   1      43.689  30.535  29.131  1.00  0.00     0.074 A 
ATOM     60  C   UNL A   1      42.603  31.418  29.503  1.00  0.00     0.031 C 
ATOM     61  C   UNL A   1      44.985  30.920  29.039  1.00  0.00     0.031 A 
BRANCH  48  62
ATOM     62  C   UNL A   1      48.863  26.396  27.387  1.00  0.00    -0.014 A 
ATOM     63  C   UNL A   1      49.691  25.953  28.432  1.00  0.00     0.009 A 
ATOM     64  C   UNL A   1      49.374  26.425  26.082  1.00  0.00     0.009 A 
ATOM     65  C   UNL A   1      51.017  25.597  28.182  1.00  0.00     0.001 A 
ATOM     66  C   UNL A   1      50.692  26.037  25.829  1.00  0.00     0.001 A 
ATOM     67  C   UNL A   1      51.515  25.637  26.881  1.00  0.00     0.000 A 
ENDBRANCH  48  62
BRANCH  49  68
ATOM     68  C   UNL A   1      39.339  28.762  29.305  1.00  0.00    -0.014 A 
ATOM     69  C   UNL A   1      38.479  29.158  28.268  1.00  0.00     0.009 A 
ATOM     70  C   UNL A   1      38.842  28.714  30.616  1.00  0.00     0.009 A 
ATOM     71  C   UNL A   1      37.159  29.525  28.542  1.00  0.00     0.001 A 
ATOM     72  C   UNL A   1      37.515  29.057  30.883  1.00  0.00     0.001 A 
ATOM     73  C   UNL A   1      36.677  29.470  29.849  1.00  0.00     0.000 A 
ENDBRANCH  49  68
BRANCH  61  74
ATOM     74  C   UNL A   1      45.290  32.365  29.299  1.00  0.00    -0.014 A 
ATOM     75  C   UNL A   1      45.303  33.303  28.257  1.00  0.00     0.009 A 
ATOM     76  C   UNL A   1      45.516  32.798  30.614  1.00  0.00     0.009 A 
ATOM     77  C   UNL A   1      45.566  34.647  28.526  1.00  0.00     0.001 A 
ATOM     78  C   UNL A   1      45.755  34.146  30.882  1.00  0.00     0.001 A 
ATOM     79  C   UNL A   1      45.788  35.067  29.838  1.00  0.00     0.000 A 
ENDBRANCH  61  74
ENDBRANCH  35  36
ENDBRANCH  27  30
ENDBRANCH  25  26
ENDBRANCH  24  25
ENDBRANCH   1  24
TORSDOF 13
ENDMDL
MODEL 3
REMARK VINA RESULT:     -11.6      3.097      7.538
REMARK SMILES C[C@@H]1[C@H](C(=O)NCCCCNC(=O)c2ccc(-c3c4nc(c(-c5ccccc5)c5ccc([nH]5)c(-c5ccccc5)c5nc(c(-c6ccccc6)c6ccc3[nH]6)C=C5)C=C4)cc2)CCN1S(=O)(=O)c1cc(F)cc(F)c1
REMARK SMILES IDX 8 1 7 2 6 3 4 4 5 5 3 7 1 8 2 9 64 10 62 11 63 12 65 13
REMARK SMILES IDX 66 14 67 15 68 16 69 17 75 18 70 19 73 20 71 21 72 22 74 23
REMARK SMILES IDX 9 24 10 25 11 26 12 27 13 29 14 30 15 31 61 32 16 33 60 34
REMARK SMILES IDX 17 35 18 36 19 37 54 38 20 39 59 40 53 41 55 42 21 43 58 44
REMARK SMILES IDX 52 45 51 46 22 48 44 49 29 50 43 51 30 52 33 53 42 54 56 55
REMARK SMILES IDX 31 56 32 57 41 59 57 60 34 61 23 62 24 63 28 64 25 65 27 66
REMARK SMILES IDX 26 67 45 68 46 69 50 70 47 71 49 72 48 73 35 74 36 75 40 76
REMARK SMILES IDX 37 77 39 78 38 79
REMARK H PARENT 6 6 11 28 55 47 33 58
REMARK Flexibility Score: inf
ROOT
ATOM      1  C   UNL A   1      37.443  21.064  24.625  1.00  0.00     0.023 C 
ENDROOT
BRANCH   1   2
ATOM      2  C   UNL A   1      37.564  22.123  25.728  1.00  0.00     0.116 C 
BRANCH   2   3
ATOM      3  N   UNL A   1      36.320  22.322  26.457  1.00  0.00    -0.356 N 
ATOM      4  C   UNL A   1      35.250  23.144  26.314  1.00  0.00     0.224 C 
ATOM      5  O   UNL A   1      34.377  23.027  27.185  1.00  0.00    -0.275 OA
ATOM      6  H   UNL A   1      36.234  21.721  27.232  1.00  0.00     0.163 HD
BRANCH   4   7
ATOM      7  C   UNL A   1      35.046  24.203  25.226  1.00  0.00     0.098 C 
ATOM      8  C   UNL A   1      34.003  22.461  23.690  1.00  0.00     0.026 C 
ATOM      9  C   UNL A   1      34.801  23.732  23.778  1.00  0.00     0.082 C 
ATOM     10  N   UNL A   1      34.197  24.916  23.061  1.00  0.00    -0.194 NA
ATOM     11  C   UNL A   1      34.026  25.295  25.450  1.00  0.00     0.032 C 
ATOM     12  C   UNL A   1      34.002  25.995  24.098  1.00  0.00     0.104 C 
BRANCH  10  13
ATOM     13  S   UNL A   1      32.874  24.837  21.991  1.00  0.00     0.243 S 
ATOM     14  O   UNL A   1      33.278  25.506  20.771  1.00  0.00    -0.207 OA
ATOM     15  O   UNL A   1      32.461  23.448  21.958  1.00  0.00    -0.207 OA
BRANCH  13  16
ATOM     16  C   UNL A   1      31.469  25.729  22.610  1.00  0.00     0.088 A 
ATOM     17  C   UNL A   1      31.236  26.980  22.019  1.00  0.00     0.061 A 
ATOM     18  C   UNL A   1      30.691  25.324  23.691  1.00  0.00     0.061 A 
ATOM     19  C   UNL A   1      30.298  27.843  22.574  1.00  0.00     0.127 A 
ATOM     20  C   UNL A   1      29.809  26.237  24.269  1.00  0.00     0.127 A 
ATOM     21  F   UNL A   1      30.089  29.040  22.011  1.00  0.00    -0.207 F 
ATOM     22  C   UNL A   1      29.608  27.498  23.725  1.00  0.00     0.078 A 
ATOM     23  F   UNL A   1      29.178  25.905  25.403  1.00  0.00    -0.207 F 
ENDBRANCH  13  16
ENDBRANCH  10  13
ENDBRANCH   4   7
ENDBRANCH   2   3
ENDBRANCH   1   2
BRANCH   1  24
ATOM     24  C   UNL A   1      38.020  19.697  24.915  1.00  0.00     0.023 C 
BRANCH  24  25
ATOM     25  C   UNL A   1      38.964  19.657  26.094  1.00  0.00     0.116 C 
BRANCH  25  26
ATOM     26  N   UNL A   1      40.168  18.866  25.876  1.00  0.00    -0.352 N 
ATOM     27  C   UNL A   1      41.481  19.265  26.018  1.00  0.00     0.251 C 
ATOM     28  H   UNL A   1      40.028  17.934  25.594  1.00  0.00     0.163 HD
ATOM     29  O   UNL A   1      42.407  18.518  25.751  1.00  0.00    -0.269 OA
BRANCH  27  30
ATOM     30  C   UNL A   1      41.732  20.653  26.453  1.00  0.00     0.039 A 
ATOM     31  C   UNL A   1      42.085  20.894  27.780  1.00  0.00     0.014 A 
ATOM     32  C   UNL A   1      41.760  21.678  25.505  1.00  0.00     0.014 A 
ATOM     33  C   UNL A   1      42.556  22.158  28.138  1.00  0.00     0.010 A 
ATOM     34  C   UNL A   1      42.350  22.885  25.834  1.00  0.00     0.010 A 
ATOM     35  C   UNL A   1      42.734  23.146  27.157  1.00  0.00    -0.014 A 
BRANCH  35  36
ATOM     36  C   UNL A   1      43.268  24.488  27.485  1.00  0.00     0.031 A 
ATOM     37  C   UNL A   1      42.315  25.558  27.942  1.00  0.00     0.074 A 
ATOM     38  C   UNL A   1      44.571  24.770  27.292  1.00  0.00     0.049 A 
ATOM     39  N   UNL A   1      42.540  26.827  28.167  1.00  0.00    -0.248 NA
ATOM     40  C   UNL A   1      40.907  25.159  28.120  1.00  0.00     0.031 C 
ATOM     41  C   UNL A   1      45.584  23.836  26.795  1.00  0.00     0.029 A 
ATOM     42  N   UNL A   1      45.264  25.936  27.491  1.00  0.00    -0.354 N 
ATOM     43  C   UNL A   1      41.300  27.377  28.465  1.00  0.00     0.074 A 
ATOM     44  C   UNL A   1      40.321  26.326  28.330  1.00  0.00     0.031 C 
ATOM     45  C   UNL A   1      46.777  24.455  26.769  1.00  0.00     0.029 A 
ATOM     46  C   UNL A   1      46.606  25.835  27.211  1.00  0.00     0.049 A 
ATOM     47  H   UNL A   1      44.842  26.769  27.804  1.00  0.00     0.167 HD
ATOM     48  C   UNL A   1      41.004  28.639  28.852  1.00  0.00     0.031 A 
ATOM     49  C   UNL A   1      47.584  26.753  27.309  1.00  0.00     0.031 A 
ATOM     50  C   UNL A   1      41.988  29.667  29.043  1.00  0.00     0.049 A 
ATOM     51  C   UNL A   1      47.242  28.134  27.795  1.00  0.00     0.074 A 
ATOM     52  C   UNL A   1      41.809  30.958  29.503  1.00  0.00     0.029 A 
ATOM     53  N   UNL A   1      43.343  29.506  28.800  1.00  0.00    -0.354 N 
ATOM     54  N   UNL A   1      46.074  28.625  28.131  1.00  0.00    -0.248 NA
ATOM     55  C   UNL A   1      48.358  29.080  27.933  1.00  0.00     0.031 C 
ATOM     56  C   UNL A   1      43.057  31.589  29.514  1.00  0.00     0.029 A 
ATOM     57  C   UNL A   1      44.015  30.677  29.099  1.00  0.00     0.049 A 
ATOM     58  H   UNL A   1      43.764  28.682  28.464  1.00  0.00     0.167 HD
ATOM     59  C   UNL A   1      46.316  29.927  28.548  1.00  0.00     0.074 A 
ATOM     60  C   UNL A   1      47.744  30.144  28.433  1.00  0.00     0.031 C 
ATOM     61  C   UNL A   1      45.438  30.861  28.987  1.00  0.00     0.031 A 
BRANCH  48  62
ATOM     62  C   UNL A   1      39.557  28.955  29.101  1.00  0.00    -0.014 A 
ATOM     63  C   UNL A   1      38.979  28.765  30.368  1.00  0.00     0.009 A 
ATOM     64  C   UNL A   1      38.758  29.437  28.056  1.00  0.00     0.009 A 
ATOM     65  C   UNL A   1      37.619  29.004  30.568  1.00  0.00     0.001 A 
ATOM     66  C   UNL A   1      37.404  29.707  28.267  1.00  0.00     0.001 A 
ATOM     67  C   UNL A   1      36.833  29.477  29.518  1.00  0.00     0.000 A 
ENDBRANCH  48  62
BRANCH  49  68
ATOM     68  C   UNL A   1      48.988  26.386  26.990  1.00  0.00    -0.014 A 
ATOM     69  C   UNL A   1      49.467  26.503  25.676  1.00  0.00     0.009 A 
ATOM     70  C   UNL A   1      49.855  25.920  27.989  1.00  0.00     0.009 A 
ATOM     71  C   UNL A   1      50.778  26.136  25.363  1.00  0.00     0.001 A 
ATOM     72  C   UNL A   1      51.173  25.576  27.678  1.00  0.00     0.001 A 
ATOM     73  C   UNL A   1      51.631  25.676  26.365  1.00  0.00     0.000 A 
ENDBRANCH  49  68
BRANCH  61  74
ATOM     74  C   UNL A   1      46.002  32.181  29.418  1.00  0.00    -0.014 A 
ATOM     75  C   UNL A   1      46.120  33.250  28.518  1.00  0.00     0.009 A 
ATOM     76  C   UNL A   1      46.373  32.370  30.758  1.00  0.00     0.009 A 
ATOM     77  C   UNL A   1      46.626  34.478  28.948  1.00  0.00     0.001 A 
ATOM     78  C   UNL A   1      46.856  33.605  31.190  1.00  0.00     0.001 A 
ATOM     79  C   UNL A   1      46.990  34.655  30.283  1.00  0.00     0.000 A 
ENDBRANCH  61  74
ENDBRANCH  35  36
ENDBRANCH  27  30
ENDBRANCH  25  26
ENDBRANCH  24  25
ENDBRANCH   1  24
TORSDOF 13
ENDMDL
