MODEL 1
REMARK VINA RESULT:     -10.2      0.000      0.000
REMARK SMILES O=C(COc1ccc(N2CCCCC2)cc1)NCCCCNC(=O)c1ccc(-c2c3nc(c(-c4ccccc4)c4ccc([nH]4)c(-c4ccccc4)c4nc(c(-c5ccccc5)c5ccc2[nH]5)C=C4)C=C3)cc1
REMARK SMILES IDX 19 1 18 2 17 3 1 4 2 5 3 7 4 8 5 9 6 10 16 11 7 12 15 13
REMARK SMILES IDX 8 14 9 15 10 16 14 17 11 18 13 19 12 20 20 21 21 22 22 23
REMARK SMILES IDX 23 24 24 26 25 27 26 28 72 29 27 30 71 31 28 32 29 33 30 34
REMARK SMILES IDX 65 35 31 36 70 37 64 38 66 39 32 40 69 41 63 42 62 43 33 45
REMARK SMILES IDX 55 46 40 47 54 48 41 49 44 50 53 51 67 52 42 53 43 54 52 56
REMARK SMILES IDX 68 57 45 58 34 59 35 60 39 61 36 62 38 63 37 64 56 65 57 66
REMARK SMILES IDX 61 67 58 68 60 69 59 70 46 71 47 72 51 73 48 74 50 75 49 76
REMARK H PARENT 17 6 22 25 66 44 44 55
REMARK Flexibility Score: inf
ROOT
ATOM      1  C   UNL A   1      32.897  29.485  25.089  1.00  0.00     0.023 C 
ENDROOT
BRANCH   1   2
ATOM      2  C   UNL A   1      31.424  29.405  24.705  1.00  0.00     0.116 C 
BRANCH   2   3
ATOM      3  N   UNL A   1      30.940  28.047  24.583  1.00  0.00    -0.353 N 
ATOM      4  O   UNL A   1      30.568  28.113  22.315  1.00  0.00    -0.271 OA
ATOM      5  C   UNL A   1      30.642  27.477  23.361  1.00  0.00     0.257 C 
ATOM      6  H   UNL A   1      30.819  27.510  25.401  1.00  0.00     0.163 HD
BRANCH   5   7
ATOM      7  C   UNL A   1      30.405  25.965  23.422  1.00  0.00     0.329 C 
BRANCH   7   8
ATOM      8  O   UNL A   1      31.296  25.187  22.619  1.00  0.00    -0.484 OA
BRANCH   8   9
ATOM      9  C   UNL A   1      32.289  24.593  23.351  1.00  0.00     0.120 A 
ATOM     10  C   UNL A   1      33.491  25.277  23.500  1.00  0.00     0.048 A 
ATOM     11  C   UNL A   1      32.171  23.295  23.841  1.00  0.00     0.048 A 
ATOM     12  C   UNL A   1      34.559  24.667  24.170  1.00  0.00     0.030 A 
ATOM     13  C   UNL A   1      33.249  22.689  24.487  1.00  0.00     0.030 A 
ATOM     14  C   UNL A   1      34.462  23.358  24.662  1.00  0.00     0.037 A 
BRANCH  14  15
ATOM     15  N   UNL A   1      35.537  22.741  25.260  1.00  0.00    -0.372 N 
ATOM     16  C   UNL A   1      36.361  23.441  26.238  1.00  0.00     0.116 C 
ATOM     17  C   UNL A   1      35.813  21.326  25.041  1.00  0.00     0.116 C 
ATOM     18  C   UNL A   1      37.830  23.315  25.838  1.00  0.00     0.021 C 
ATOM     19  C   UNL A   1      37.274  21.176  24.613  1.00  0.00     0.021 C 
ATOM     20  C   UNL A   1      38.222  21.855  25.603  1.00  0.00     0.004 C 
ENDBRANCH  14  15
ENDBRANCH   8   9
ENDBRANCH   7   8
ENDBRANCH   5   7
ENDBRANCH   2   3
ENDBRANCH   1   2
BRANCH   1  21
ATOM     21  C   UNL A   1      33.389  28.362  26.004  1.00  0.00     0.023 C 
BRANCH  21  22
ATOM     22  C   UNL A   1      33.446  28.699  27.491  1.00  0.00     0.116 C 
BRANCH  22  23
ATOM     23  N   UNL A   1      33.545  30.127  27.752  1.00  0.00    -0.352 N 
ATOM     24  C   UNL A   1      34.606  30.859  28.228  1.00  0.00     0.251 C 
ATOM     25  H   UNL A   1      32.731  30.646  27.558  1.00  0.00     0.163 HD
ATOM     26  O   UNL A   1      34.454  32.047  28.509  1.00  0.00    -0.269 OA
BRANCH  24  27
ATOM     27  C   UNL A   1      35.925  30.222  28.441  1.00  0.00     0.039 A 
ATOM     28  C   UNL A   1      36.842  30.204  27.386  1.00  0.00     0.014 A 
ATOM     29  C   UNL A   1      36.263  29.643  29.667  1.00  0.00     0.014 A 
ATOM     30  C   UNL A   1      38.121  29.677  27.585  1.00  0.00     0.010 A 
ATOM     31  C   UNL A   1      37.562  29.189  29.887  1.00  0.00     0.010 A 
ATOM     32  C   UNL A   1      38.507  29.202  28.848  1.00  0.00    -0.014 A 
BRANCH  32  33
ATOM     33  C   UNL A   1      39.895  28.736  29.107  1.00  0.00     0.031 A 
ATOM     34  C   UNL A   1      40.902  29.653  29.747  1.00  0.00     0.074 A 
ATOM     35  C   UNL A   1      40.270  27.503  28.709  1.00  0.00     0.049 A 
ATOM     36  N   UNL A   1      42.170  29.440  30.001  1.00  0.00    -0.248 NA
ATOM     37  C   UNL A   1      40.431  30.993  30.131  1.00  0.00     0.031 C 
ATOM     38  C   UNL A   1      39.405  26.525  28.047  1.00  0.00     0.029 A 
ATOM     39  N   UNL A   1      41.482  26.864  28.800  1.00  0.00    -0.354 N 
ATOM     40  C   UNL A   1      42.648  30.620  30.556  1.00  0.00     0.074 A 
ATOM     41  C   UNL A   1      41.549  31.561  30.557  1.00  0.00     0.031 C 
ATOM     42  C   UNL A   1      40.104  25.401  27.821  1.00  0.00     0.029 A 
ATOM     43  C   UNL A   1      41.477  25.593  28.276  1.00  0.00     0.049 A 
ATOM     44  H   UNL A   1      42.281  27.278  29.202  1.00  0.00     0.167 HD
ATOM     45  C   UNL A   1      43.885  30.891  31.037  1.00  0.00     0.031 A 
ATOM     46  C   UNL A   1      42.466  24.686  28.164  1.00  0.00     0.031 A 
ATOM     47  C   UNL A   1      44.978  29.955  31.042  1.00  0.00     0.049 A 
ATOM     48  C   UNL A   1      43.838  25.026  28.678  1.00  0.00     0.074 A 
ATOM     49  C   UNL A   1      46.251  30.121  31.561  1.00  0.00     0.029 A 
ATOM     50  N   UNL A   1      44.931  28.683  30.496  1.00  0.00    -0.354 N 
ATOM     51  N   UNL A   1      44.253  26.121  29.267  1.00  0.00    -0.248 NA
ATOM     52  C   UNL A   1      44.875  23.996  28.520  1.00  0.00     0.031 C 
ATOM     53  C   UNL A   1      46.994  28.972  31.273  1.00  0.00     0.029 A 
ATOM     54  C   UNL A   1      46.163  28.064  30.637  1.00  0.00     0.049 A 
ATOM     55  H   UNL A   1      44.140  28.279  30.072  1.00  0.00     0.167 HD
ATOM     56  C   UNL A   1      45.589  25.900  29.578  1.00  0.00     0.074 A 
ATOM     57  C   UNL A   1      45.909  24.562  29.128  1.00  0.00     0.031 C 
ATOM     58  C   UNL A   1      46.471  26.732  30.186  1.00  0.00     0.031 A 
BRANCH  45  59
ATOM     59  C   UNL A   1      44.127  32.270  31.590  1.00  0.00    -0.014 A 
ATOM     60  C   UNL A   1      44.560  33.323  30.767  1.00  0.00     0.009 A 
ATOM     61  C   UNL A   1      43.877  32.532  32.947  1.00  0.00     0.009 A 
ATOM     62  C   UNL A   1      44.774  34.596  31.300  1.00  0.00     0.001 A 
ATOM     63  C   UNL A   1      44.061  33.813  33.469  1.00  0.00     0.001 A 
ATOM     64  C   UNL A   1      44.520  34.841  32.648  1.00  0.00     0.000 A 
ENDBRANCH  45  59
BRANCH  46  65
ATOM     65  C   UNL A   1      42.198  23.359  27.549  1.00  0.00    -0.014 A 
ATOM     66  C   UNL A   1      41.540  22.356  28.277  1.00  0.00     0.009 A 
ATOM     67  C   UNL A   1      42.616  23.081  26.237  1.00  0.00     0.009 A 
ATOM     68  C   UNL A   1      41.334  21.093  27.716  1.00  0.00     0.001 A 
ATOM     69  C   UNL A   1      42.379  21.828  25.668  1.00  0.00     0.001 A 
ATOM     70  C   UNL A   1      41.748  20.831  26.413  1.00  0.00     0.000 A 
ENDBRANCH  46  65
BRANCH  58  71
ATOM     71  C   UNL A   1      47.856  26.203  30.438  1.00  0.00    -0.014 A 
ATOM     72  C   UNL A   1      48.216  25.646  31.674  1.00  0.00     0.009 A 
ATOM     73  C   UNL A   1      48.805  26.229  29.402  1.00  0.00     0.009 A 
ATOM     74  C   UNL A   1      49.508  25.159  31.880  1.00  0.00     0.001 A 
ATOM     75  C   UNL A   1      50.085  25.711  29.601  1.00  0.00     0.001 A 
ATOM     76  C   UNL A   1      50.439  25.186  30.842  1.00  0.00     0.000 A 
ENDBRANCH  58  71
ENDBRANCH  32  33
ENDBRANCH  24  27
ENDBRANCH  22  23
ENDBRANCH  21  22
ENDBRANCH   1  21
TORSDOF 14
ENDMDL
MODEL 2
REMARK VINA RESULT:      -9.9      2.599      7.856
REMARK SMILES O=C(COc1ccc(N2CCCCC2)cc1)NCCCCNC(=O)c1ccc(-c2c3nc(c(-c4ccccc4)c4ccc([nH]4)c(-c4ccccc4)c4nc(c(-c5ccccc5)c5ccc2[nH]5)C=C4)C=C3)cc1
REMARK SMILES IDX 19 1 18 2 17 3 1 4 2 5 3 7 4 8 5 9 6 10 16 11 7 12 15 13
REMARK SMILES IDX 8 14 9 15 10 16 14 17 11 18 13 19 12 20 20 21 21 22 22 23
REMARK SMILES IDX 23 24 24 26 25 27 26 28 72 29 27 30 71 31 28 32 29 33 30 34
REMARK SMILES IDX 65 35 31 36 70 37 64 38 66 39 32 40 69 41 63 42 62 43 33 45
REMARK SMILES IDX 55 46 40 47 54 48 41 49 44 50 53 51 67 52 42 53 43 54 52 56
REMARK SMILES IDX 68 57 45 58 34 59 35 60 39 61 36 62 38 63 37 64 56 65 57 66
REMARK SMILES IDX 61 67 58 68 60 69 59 70 46 71 47 72 51 73 48 74 50 75 49 76
REMARK H PARENT 17 6 22 25 66 44 44 55
REMARK Flexibility Score: inf
ROOT
ATOM      1  C   UNL A   1      37.087  21.151  24.609  1.00  0.00     0.023 C 
ENDROOT
BRANCH   1   2
ATOM      2  C   UNL A   1      35.962  21.362  25.616  1.00  0.00     0.116 C 
BRANCH   2   3
ATOM      3  N   UNL A   1      34.662  20.986  25.105  1.00  0.00    -0.353 N 
ATOM      4  O   UNL A   1      33.539  21.176  27.103  1.00  0.00    -0.271 OA
ATOM      5  C   UNL A   1      33.523  21.023  25.886  1.00  0.00     0.257 C 
ATOM      6  H   UNL A   1      34.586  20.695  24.166  1.00  0.00     0.163 HD
BRANCH   5   7
ATOM      7  C   UNL A   1      32.222  20.851  25.096  1.00  0.00     0.329 C 
BRANCH   7   8
ATOM      8  O   UNL A   1      31.080  21.484  25.678  1.00  0.00    -0.484 OA
BRANCH   8   9
ATOM      9  C   UNL A   1      30.998  22.816  25.370  1.00  0.00     0.120 A 
ATOM     10  C   UNL A   1      30.779  23.716  26.407  1.00  0.00     0.048 A 
ATOM     11  C   UNL A   1      31.010  23.272  24.055  1.00  0.00     0.048 A 
ATOM     12  C   UNL A   1      30.605  25.076  26.123  1.00  0.00     0.030 A 
ATOM     13  C   UNL A   1      30.814  24.627  23.780  1.00  0.00     0.030 A 
ATOM     14  C   UNL A   1      30.604  25.553  24.805  1.00  0.00     0.037 A 
BRANCH  14  15
ATOM     15  N   UNL A   1      30.367  26.881  24.528  1.00  0.00    -0.372 N 
ATOM     16  C   UNL A   1      29.282  27.284  23.642  1.00  0.00     0.116 C 
ATOM     17  C   UNL A   1      31.104  27.937  25.211  1.00  0.00     0.116 C 
ATOM     18  C   UNL A   1      29.832  28.227  22.573  1.00  0.00     0.021 C 
ATOM     19  C   UNL A   1      31.687  28.882  24.158  1.00  0.00     0.021 C 
ATOM     20  C   UNL A   1      30.610  29.387  23.197  1.00  0.00     0.004 C 
ENDBRANCH  14  15
ENDBRANCH   8   9
ENDBRANCH   7   8
ENDBRANCH   5   7
ENDBRANCH   2   3
ENDBRANCH   1   2
BRANCH   1  21
ATOM     21  C   UNL A   1      38.002  19.960  24.900  1.00  0.00     0.023 C 
BRANCH  21  22
ATOM     22  C   UNL A   1      39.107  20.210  25.921  1.00  0.00     0.116 C 
BRANCH  22  23
ATOM     23  N   UNL A   1      40.138  19.182  25.913  1.00  0.00    -0.352 N 
ATOM     24  C   UNL A   1      41.490  19.296  26.130  1.00  0.00     0.251 C 
ATOM     25  H   UNL A   1      39.819  18.270  25.725  1.00  0.00     0.163 HD
ATOM     26  O   UNL A   1      42.223  18.324  25.950  1.00  0.00    -0.269 OA
BRANCH  24  27
ATOM     27  C   UNL A   1      42.080  20.589  26.545  1.00  0.00     0.039 A 
ATOM     28  C   UNL A   1      42.581  21.447  25.563  1.00  0.00     0.014 A 
ATOM     29  C   UNL A   1      42.142  20.959  27.891  1.00  0.00     0.014 A 
ATOM     30  C   UNL A   1      43.073  22.705  25.922  1.00  0.00     0.010 A 
ATOM     31  C   UNL A   1      42.561  22.242  28.240  1.00  0.00     0.010 A 
ATOM     32  C   UNL A   1      43.029  23.131  27.259  1.00  0.00    -0.014 A 
BRANCH  32  33
ATOM     33  C   UNL A   1      43.449  24.503  27.646  1.00  0.00     0.031 A 
ATOM     34  C   UNL A   1      42.421  25.546  27.998  1.00  0.00     0.074 A 
ATOM     35  C   UNL A   1      44.756  24.833  27.622  1.00  0.00     0.049 A 
ATOM     36  N   UNL A   1      42.596  26.807  28.307  1.00  0.00    -0.248 NA
ATOM     37  C   UNL A   1      41.012  25.123  27.978  1.00  0.00     0.031 C 
ATOM     38  C   UNL A   1      45.853  23.932  27.267  1.00  0.00     0.029 A 
ATOM     39  N   UNL A   1      45.383  26.024  27.897  1.00  0.00    -0.354 N 
ATOM     40  C   UNL A   1      41.324  27.329  28.499  1.00  0.00     0.074 A 
ATOM     41  C   UNL A   1      40.384  26.263  28.226  1.00  0.00     0.031 C 
ATOM     42  C   UNL A   1      47.018  24.590  27.377  1.00  0.00     0.029 A 
ATOM     43  C   UNL A   1      46.750  25.972  27.762  1.00  0.00     0.049 A 
ATOM     44  H   UNL A   1      44.899  26.839  28.166  1.00  0.00     0.167 HD
ATOM     45  C   UNL A   1      40.967  28.577  28.887  1.00  0.00     0.031 A 
ATOM     46  C   UNL A   1      47.684  26.929  27.920  1.00  0.00     0.031 A 
ATOM     47  C   UNL A   1      41.899  29.637  29.165  1.00  0.00     0.049 A 
ATOM     48  C   UNL A   1      47.258  28.315  28.319  1.00  0.00     0.074 A 
ATOM     49  C   UNL A   1      41.635  30.919  29.619  1.00  0.00     0.029 A 
ATOM     50  N   UNL A   1      43.273  29.544  29.009  1.00  0.00    -0.354 N 
ATOM     51  N   UNL A   1      46.055  28.771  28.569  1.00  0.00    -0.248 NA
ATOM     52  C   UNL A   1      48.325  29.315  28.469  1.00  0.00     0.031 C 
ATOM     53  C   UNL A   1      42.843  31.620  29.677  1.00  0.00     0.029 A 
ATOM     54  C   UNL A   1      43.867  30.755  29.327  1.00  0.00     0.049 A 
ATOM     55  H   UNL A   1      43.754  28.737  28.717  1.00  0.00     0.167 HD
ATOM     56  C   UNL A   1      46.224  30.100  28.935  1.00  0.00     0.074 A 
ATOM     57  C   UNL A   1      47.645  30.372  28.892  1.00  0.00     0.031 C 
ATOM     58  C   UNL A   1      45.283  31.014  29.280  1.00  0.00     0.031 A 
BRANCH  45  59
ATOM     59  C   UNL A   1      39.497  28.870  29.019  1.00  0.00    -0.014 A 
ATOM     60  C   UNL A   1      38.820  28.683  30.235  1.00  0.00     0.009 A 
ATOM     61  C   UNL A   1      38.787  29.383  27.922  1.00  0.00     0.009 A 
ATOM     62  C   UNL A   1      37.456  28.967  30.338  1.00  0.00     0.001 A 
ATOM     63  C   UNL A   1      37.431  29.696  28.036  1.00  0.00     0.001 A 
ATOM     64  C   UNL A   1      36.765  29.477  29.240  1.00  0.00     0.000 A 
ENDBRANCH  45  59
BRANCH  46  65
ATOM     65  C   UNL A   1      49.122  26.612  27.712  1.00  0.00    -0.014 A 
ATOM     66  C   UNL A   1      49.694  26.701  26.434  1.00  0.00     0.009 A 
ATOM     67  C   UNL A   1      49.927  26.198  28.786  1.00  0.00     0.009 A 
ATOM     68  C   UNL A   1      51.031  26.353  26.230  1.00  0.00     0.001 A 
ATOM     69  C   UNL A   1      51.272  25.883  28.585  1.00  0.00     0.001 A 
ATOM     70  C   UNL A   1      51.820  25.950  27.304  1.00  0.00     0.000 A 
ENDBRANCH  46  65
BRANCH  58  71
ATOM     71  C   UNL A   1      45.763  32.382  29.678  1.00  0.00    -0.014 A 
ATOM     72  C   UNL A   1      46.129  32.676  31.001  1.00  0.00     0.009 A 
ATOM     73  C   UNL A   1      45.891  33.383  28.701  1.00  0.00     0.009 A 
ATOM     74  C   UNL A   1      46.576  33.954  31.343  1.00  0.00     0.001 A 
ATOM     75  C   UNL A   1      46.370  34.649  29.039  1.00  0.00     0.001 A 
ATOM     76  C   UNL A   1      46.702  34.937  30.362  1.00  0.00     0.000 A 
ENDBRANCH  58  71
ENDBRANCH  32  33
ENDBRANCH  24  27
ENDBRANCH  22  23
ENDBRANCH  21  22
ENDBRANCH   1  21
TORSDOF 14
ENDMDL
MODEL 3
REMARK VINA RESULT:      -9.8      2.878      7.247
REMARK SMILES O=C(COc1ccc(N2CCCCC2)cc1)NCCCCNC(=O)c1ccc(-c2c3nc(c(-c4ccccc4)c4ccc([nH]4)c(-c4ccccc4)c4nc(c(-c5ccccc5)c5ccc2[nH]5)C=C4)C=C3)cc1
REMARK SMILES IDX 19 1 18 2 17 3 1 4 2 5 3 7 4 8 5 9 6 10 16 11 7 12 15 13
REMARK SMILES IDX 8 14 9 15 10 16 14 17 11 18 13 19 12 20 20 21 21 22 22 23
REMARK SMILES IDX 23 24 24 26 25 27 26 28 72 29 27 30 71 31 28 32 29 33 30 34
REMARK SMILES IDX 65 35 31 36 70 37 64 38 66 39 32 40 69 41 63 42 62 43 33 45
REMARK SMILES IDX 55 46 40 47 54 48 41 49 44 50 53 51 67 52 42 53 43 54 52 56
REMARK SMILES IDX 68 57 45 58 34 59 35 60 39 61 36 62 38 63 37 64 56 65 57 66
REMARK SMILES IDX 61 67 58 68 60 69 59 70 46 71 47 72 51 73 48 74 50 75 49 76
REMARK H PARENT 17 6 22 25 66 44 44 55
REMARK Flexibility Score: inf
ROOT
ATOM      1  C   UNL A   1      31.752  30.153  26.595  1.00  0.00     0.023 C 
ENDROOT
BRANCH   1   2
ATOM      2  C   UNL A   1      32.318  29.641  25.276  1.00  0.00     0.116 C 
BRANCH   2   3
ATOM      3  N   UNL A   1      31.545  28.558  24.706  1.00  0.00    -0.353 N 
ATOM      4  O   UNL A   1      30.093  29.883  23.513  1.00  0.00    -0.271 OA
ATOM      5  C   UNL A   1      30.544  28.774  23.779  1.00  0.00     0.257 C 
ATOM      6  H   UNL A   1      31.740  27.635  24.989  1.00  0.00     0.163 HD
BRANCH   5   7
ATOM      7  C   UNL A   1      30.035  27.496  23.105  1.00  0.00     0.329 C 
BRANCH   7   8
ATOM      8  O   UNL A   1      30.968  26.875  22.217  1.00  0.00    -0.484 OA
BRANCH   8   9
ATOM      9  C   UNL A   1      31.456  25.692  22.703  1.00  0.00     0.120 A 
ATOM     10  C   UNL A   1      30.584  24.857  23.393  1.00  0.00     0.048 A 
ATOM     11  C   UNL A   1      32.807  25.364  22.629  1.00  0.00     0.048 A 
ATOM     12  C   UNL A   1      31.065  23.679  23.978  1.00  0.00     0.030 A 
ATOM     13  C   UNL A   1      33.281  24.198  23.234  1.00  0.00     0.030 A 
ATOM     14  C   UNL A   1      32.423  23.337  23.922  1.00  0.00     0.037 A 
BRANCH  14  15
ATOM     15  N   UNL A   1      32.901  22.211  24.555  1.00  0.00    -0.372 N 
ATOM     16  C   UNL A   1      34.217  22.200  25.180  1.00  0.00     0.116 C 
ATOM     17  C   UNL A   1      32.059  21.035  24.738  1.00  0.00     0.116 C 
ATOM     18  C   UNL A   1      35.002  20.990  24.677  1.00  0.00     0.021 C 
ATOM     19  C   UNL A   1      32.815  19.811  24.216  1.00  0.00     0.021 C 
ATOM     20  C   UNL A   1      34.203  19.696  24.846  1.00  0.00     0.004 C 
ENDBRANCH  14  15
ENDBRANCH   8   9
ENDBRANCH   7   8
ENDBRANCH   5   7
ENDBRANCH   2   3
ENDBRANCH   1   2
BRANCH   1  21
ATOM     21  C   UNL A   1      31.592  31.671  26.685  1.00  0.00     0.023 C 
BRANCH  21  22
ATOM     22  C   UNL A   1      32.817  32.437  27.175  1.00  0.00     0.116 C 
BRANCH  22  23
ATOM     23  N   UNL A   1      32.506  33.784  27.630  1.00  0.00    -0.352 N 
ATOM     24  C   UNL A   1      33.156  34.570  28.551  1.00  0.00     0.251 C 
ATOM     25  H   UNL A   1      31.712  34.194  27.216  1.00  0.00     0.163 HD
ATOM     26  O   UNL A   1      32.662  35.640  28.902  1.00  0.00    -0.269 OA
BRANCH  24  27
ATOM     27  C   UNL A   1      34.433  34.123  29.153  1.00  0.00     0.039 A 
ATOM     28  C   UNL A   1      34.395  33.378  30.335  1.00  0.00     0.014 A 
ATOM     29  C   UNL A   1      35.661  34.433  28.564  1.00  0.00     0.014 A 
ATOM     30  C   UNL A   1      35.581  32.880  30.882  1.00  0.00     0.010 A 
ATOM     31  C   UNL A   1      36.834  33.871  29.067  1.00  0.00     0.010 A 
ATOM     32  C   UNL A   1      36.807  33.086  30.230  1.00  0.00    -0.014 A 
BRANCH  32  33
ATOM     33  C   UNL A   1      38.064  32.476  30.738  1.00  0.00     0.031 A 
ATOM     34  C   UNL A   1      38.591  31.201  30.137  1.00  0.00     0.074 A 
ATOM     35  C   UNL A   1      38.703  33.037  31.785  1.00  0.00     0.049 A 
ATOM     36  N   UNL A   1      39.640  30.496  30.484  1.00  0.00    -0.248 NA
ATOM     37  C   UNL A   1      37.829  30.631  29.015  1.00  0.00     0.031 C 
ATOM     38  C   UNL A   1      38.283  34.253  32.484  1.00  0.00     0.029 A 
ATOM     39  N   UNL A   1      39.841  32.650  32.450  1.00  0.00    -0.354 N 
ATOM     40  C   UNL A   1      39.651  29.395  29.638  1.00  0.00     0.074 A 
ATOM     41  C   UNL A   1      38.481  29.499  28.793  1.00  0.00     0.031 C 
ATOM     42  C   UNL A   1      39.167  34.530  33.455  1.00  0.00     0.029 A 
ATOM     43  C   UNL A   1      40.189  33.489  33.482  1.00  0.00     0.049 A 
ATOM     44  H   UNL A   1      40.360  31.848  32.209  1.00  0.00     0.167 HD
ATOM     45  C   UNL A   1      40.563  28.395  29.556  1.00  0.00     0.031 A 
ATOM     46  C   UNL A   1      41.209  33.424  34.359  1.00  0.00     0.031 A 
ATOM     47  C   UNL A   1      41.730  28.292  30.391  1.00  0.00     0.049 A 
ATOM     48  C   UNL A   1      42.188  32.286  34.267  1.00  0.00     0.074 A 
ATOM     49  C   UNL A   1      42.741  27.347  30.344  1.00  0.00     0.029 A 
ATOM     50  N   UNL A   1      42.040  29.158  31.427  1.00  0.00    -0.354 N 
ATOM     51  N   UNL A   1      42.224  31.293  33.412  1.00  0.00    -0.248 NA
ATOM     52  C   UNL A   1      43.274  32.269  35.257  1.00  0.00     0.031 C 
ATOM     53  C   UNL A   1      43.630  27.604  31.392  1.00  0.00     0.029 A 
ATOM     54  C   UNL A   1      43.210  28.750  32.048  1.00  0.00     0.049 A 
ATOM     55  H   UNL A   1      41.509  29.945  31.684  1.00  0.00     0.167 HD
ATOM     56  C   UNL A   1      43.353  30.553  33.741  1.00  0.00     0.074 A 
ATOM     57  C   UNL A   1      43.981  31.220  34.862  1.00  0.00     0.031 C 
ATOM     58  C   UNL A   1      43.827  29.421  33.163  1.00  0.00     0.031 A 
BRANCH  45  59
ATOM     59  C   UNL A   1      40.324  27.319  28.532  1.00  0.00    -0.014 A 
ATOM     60  C   UNL A   1      40.874  27.400  27.243  1.00  0.00     0.009 A 
ATOM     61  C   UNL A   1      39.572  26.183  28.876  1.00  0.00     0.009 A 
ATOM     62  C   UNL A   1      40.643  26.387  26.309  1.00  0.00     0.001 A 
ATOM     63  C   UNL A   1      39.371  25.157  27.952  1.00  0.00     0.001 A 
ATOM     64  C   UNL A   1      39.897  25.265  26.666  1.00  0.00     0.000 A 
ENDBRANCH  45  59
BRANCH  46  65
ATOM     65  C   UNL A   1      41.368  34.474  35.400  1.00  0.00    -0.014 A 
ATOM     66  C   UNL A   1      40.820  34.298  36.680  1.00  0.00     0.009 A 
ATOM     67  C   UNL A   1      42.051  35.668  35.114  1.00  0.00     0.009 A 
ATOM     68  C   UNL A   1      40.925  35.307  37.641  1.00  0.00     0.001 A 
ATOM     69  C   UNL A   1      42.183  36.660  36.087  1.00  0.00     0.001 A 
ATOM     70  C   UNL A   1      41.610  36.484  37.346  1.00  0.00     0.000 A 
ENDBRANCH  46  65
BRANCH  58  71
ATOM     71  C   UNL A   1      45.111  28.855  33.705  1.00  0.00    -0.014 A 
ATOM     72  C   UNL A   1      45.115  27.898  34.732  1.00  0.00     0.009 A 
ATOM     73  C   UNL A   1      46.335  29.261  33.149  1.00  0.00     0.009 A 
ATOM     74  C   UNL A   1      46.322  27.386  35.214  1.00  0.00     0.001 A 
ATOM     75  C   UNL A   1      47.537  28.723  33.610  1.00  0.00     0.001 A 
ATOM     76  C   UNL A   1      47.530  27.794  34.649  1.00  0.00     0.000 A 
ENDBRANCH  58  71
ENDBRANCH  32  33
ENDBRANCH  24  27
ENDBRANCH  22  23
ENDBRANCH  21  22
ENDBRANCH   1  21
TORSDOF 14
ENDMDL
