MODEL 1
REMARK VINA RESULT:     -11.3      0.000      0.000
REMARK SMILES C[N@H+]1CCO[C@@H](CNS(=O)(=O)N2CCC(C(=O)NCCCCNC(=O)c3ccc(-c4c5nc(c(-c6ccccc6)c6ccc([nH]6)c(-c6ccccc6)c6nc(c(-c7ccccc7)c7ccc4[nH]7)C=C6)C=C5)cc3)CC2)C1
REMARK SMILES IDX 19 1 18 2 16 3 17 4 15 6 12 7 13 8 75 9 14 10 74 11 9 12
REMARK SMILES IDX 10 13 11 14 8 15 7 17 6 18 1 19 2 20 3 21 76 22 4 24 5 25
REMARK SMILES IDX 20 26 21 27 22 28 23 29 24 30 25 32 26 33 27 34 73 35 28 36
REMARK SMILES IDX 72 37 29 38 30 39 31 40 66 41 32 42 71 43 65 44 67 45 33 46
REMARK SMILES IDX 70 47 64 48 63 49 34 51 56 52 41 53 55 54 42 55 45 56 54 57
REMARK SMILES IDX 68 58 43 59 44 60 53 62 69 63 46 64 35 65 36 66 40 67 37 68
REMARK SMILES IDX 39 69 38 70 57 71 58 72 62 73 59 74 61 75 60 76 47 77 48 78
REMARK SMILES IDX 52 79 49 80 51 81 50 82
REMARK H PARENT 18 5 8 16 2 23 23 31 67 50 45 61
REMARK Flexibility Score: inf
ROOT
ATOM      1  C   UNL A   1      35.263  20.456  25.005  1.00  0.00     0.116 C 
ENDROOT
BRANCH   1   2
ATOM      2  N   UNL A   1      34.231  19.476  25.263  1.00  0.00    -0.356 N 
ATOM      3  C   UNL A   1      32.878  19.617  25.189  1.00  0.00     0.223 C 
ATOM      4  O   UNL A   1      32.184  18.621  25.412  1.00  0.00    -0.275 OA
ATOM      5  H   UNL A   1      34.551  18.584  25.527  1.00  0.00     0.163 HD
BRANCH   3   6
ATOM      6  C   UNL A   1      32.222  20.944  24.806  1.00  0.00     0.081 C 
ATOM      7  N   UNL A   1      32.533  23.615  23.650  1.00  0.00    -0.189 NA
ATOM      8  C   UNL A   1      31.797  22.565  22.920  1.00  0.00     0.104 C 
ATOM      9  C   UNL A   1      32.272  23.493  25.111  1.00  0.00     0.104 C 
ATOM     10  C   UNL A   1      32.275  21.174  23.290  1.00  0.00     0.030 C 
ATOM     11  C   UNL A   1      32.705  22.134  25.654  1.00  0.00     0.030 C 
BRANCH   7  12
ATOM     12  S   UNL A   1      34.062  24.151  23.203  1.00  0.00     0.279 S 
ATOM     13  O   UNL A   1      34.727  23.148  22.406  1.00  0.00    -0.195 OA
ATOM     14  O   UNL A   1      34.716  24.700  24.365  1.00  0.00    -0.195 OA
BRANCH  12  15
ATOM     15  N   UNL A   1      33.789  25.452  22.181  1.00  0.00    -0.199 NA
ATOM     16  H   UNL A   1      34.676  25.944  22.068  1.00  0.00     0.142 HD
BRANCH  15  17
ATOM     17  C   UNL A   1      32.780  26.447  22.599  1.00  0.00     0.138 C 
BRANCH  17  18
ATOM     18  C   UNL A   1      33.268  27.533  23.565  1.00  0.00     0.188 C 
ATOM     19  C   UNL A   1      30.630  29.120  22.365  1.00  0.00     0.332 C 
ATOM     20  N   UNL A   1      31.562  29.458  23.430  1.00  0.00    -0.333 N 
ATOM     21  C   UNL A   1      31.100  29.020  24.759  1.00  0.00     0.290 C 
ATOM     22  C   UNL A   1      32.939  28.996  23.195  1.00  0.00     0.295 C 
ATOM     23  H   UNL A   1      31.584  30.478  23.419  1.00  0.00     0.348 HD
ATOM     24  C   UNL A   1      31.393  27.544  25.063  1.00  0.00     0.222 C 
ATOM     25  O   UNL A   1      32.786  27.235  24.898  1.00  0.00    -0.365 OA
ENDBRANCH  17  18
ENDBRANCH  15  17
ENDBRANCH  12  15
ENDBRANCH   7  12
ENDBRANCH   3   6
ENDBRANCH   1   2
BRANCH   1  26
ATOM     26  C   UNL A   1      36.662  19.860  24.962  1.00  0.00     0.023 C 
BRANCH  26  27
ATOM     27  C   UNL A   1      37.757  20.882  24.695  1.00  0.00     0.023 C 
BRANCH  27  28
ATOM     28  C   UNL A   1      38.818  20.965  25.784  1.00  0.00     0.116 C 
BRANCH  28  29
ATOM     29  N   UNL A   1      39.719  19.820  25.802  1.00  0.00    -0.352 N 
ATOM     30  C   UNL A   1      41.059  19.800  26.114  1.00  0.00     0.251 C 
ATOM     31  H   UNL A   1      39.320  18.953  25.562  1.00  0.00     0.163 HD
ATOM     32  O   UNL A   1      41.730  18.787  25.963  1.00  0.00    -0.269 OA
BRANCH  30  33
ATOM     33  C   UNL A   1      41.687  21.043  26.607  1.00  0.00     0.039 A 
ATOM     34  C   UNL A   1      42.178  21.970  25.684  1.00  0.00     0.014 A 
ATOM     35  C   UNL A   1      41.708  21.322  27.975  1.00  0.00     0.014 A 
ATOM     36  C   UNL A   1      42.624  23.213  26.135  1.00  0.00     0.010 A 
ATOM     37  C   UNL A   1      42.057  22.593  28.409  1.00  0.00     0.010 A 
ATOM     38  C   UNL A   1      42.527  23.549  27.496  1.00  0.00    -0.014 A 
BRANCH  38  39
ATOM     39  C   UNL A   1      42.924  24.890  27.995  1.00  0.00     0.031 A 
ATOM     40  C   UNL A   1      41.871  25.932  28.256  1.00  0.00     0.074 A 
ATOM     41  C   UNL A   1      44.227  25.196  28.142  1.00  0.00     0.049 A 
ATOM     42  N   UNL A   1      42.017  27.176  28.634  1.00  0.00    -0.248 NA
ATOM     43  C   UNL A   1      40.473  25.531  28.033  1.00  0.00     0.031 C 
ATOM     44  C   UNL A   1      45.348  24.286  27.891  1.00  0.00     0.029 A 
ATOM     45  N   UNL A   1      44.829  26.363  28.538  1.00  0.00    -0.354 N 
ATOM     46  C   UNL A   1      40.734  27.709  28.666  1.00  0.00     0.074 A 
ATOM     47  C   UNL A   1      39.833  26.674  28.212  1.00  0.00     0.031 C 
ATOM     48  C   UNL A   1      46.497  24.917  28.182  1.00  0.00     0.029 A 
ATOM     49  C   UNL A   1      46.199  26.287  28.590  1.00  0.00     0.049 A 
ATOM     50  H   UNL A   1      44.326  27.178  28.766  1.00  0.00     0.167 HD
ATOM     51  C   UNL A   1      40.336  28.942  29.059  1.00  0.00     0.031 A 
ATOM     52  C   UNL A   1      47.115  27.216  28.925  1.00  0.00     0.031 A 
ATOM     53  C   UNL A   1      41.234  29.971  29.512  1.00  0.00     0.049 A 
ATOM     54  C   UNL A   1      46.655  28.591  29.322  1.00  0.00     0.074 A 
ATOM     55  C   UNL A   1      40.928  31.232  29.991  1.00  0.00     0.029 A 
ATOM     56  N   UNL A   1      42.616  29.859  29.533  1.00  0.00    -0.354 N 
ATOM     57  N   UNL A   1      45.433  29.059  29.420  1.00  0.00    -0.248 NA
ATOM     58  C   UNL A   1      47.701  29.564  29.662  1.00  0.00     0.031 C 
ATOM     59  C   UNL A   1      42.128  31.909  30.232  1.00  0.00     0.029 A 
ATOM     60  C   UNL A   1      43.180  31.042  29.979  1.00  0.00     0.049 A 
ATOM     61  H   UNL A   1      43.121  29.056  29.269  1.00  0.00     0.167 HD
ATOM     62  C   UNL A   1      45.563  30.367  29.869  1.00  0.00     0.074 A 
ATOM     63  C   UNL A   1      46.981  30.615  30.031  1.00  0.00     0.031 C 
ATOM     64  C   UNL A   1      44.593  31.278  30.131  1.00  0.00     0.031 A 
BRANCH  51  65
ATOM     65  C   UNL A   1      38.863  29.248  28.979  1.00  0.00    -0.014 A 
ATOM     66  C   UNL A   1      38.020  29.097  30.092  1.00  0.00     0.009 A 
ATOM     67  C   UNL A   1      38.311  29.691  27.768  1.00  0.00     0.009 A 
ATOM     68  C   UNL A   1      36.646  29.326  29.978  1.00  0.00     0.001 A 
ATOM     69  C   UNL A   1      36.944  29.957  27.666  1.00  0.00     0.001 A 
ATOM     70  C   UNL A   1      36.110  29.758  28.766  1.00  0.00     0.000 A 
ENDBRANCH  51  65
BRANCH  52  71
ATOM     71  C   UNL A   1      48.559  26.865  28.935  1.00  0.00    -0.014 A 
ATOM     72  C   UNL A   1      49.145  26.312  30.085  1.00  0.00     0.009 A 
ATOM     73  C   UNL A   1      49.359  27.066  27.799  1.00  0.00     0.009 A 
ATOM     74  C   UNL A   1      50.503  25.988  30.103  1.00  0.00     0.001 A 
ATOM     75  C   UNL A   1      50.710  26.713  27.811  1.00  0.00     0.001 A 
ATOM     76  C   UNL A   1      51.282  26.182  28.965  1.00  0.00     0.000 A 
ENDBRANCH  52  71
BRANCH  64  77
ATOM     77  C   UNL A   1      45.026  32.616  30.664  1.00  0.00    -0.014 A 
ATOM     78  C   UNL A   1      45.195  32.841  32.039  1.00  0.00     0.009 A 
ATOM     79  C   UNL A   1      45.318  33.656  29.766  1.00  0.00     0.009 A 
ATOM     80  C   UNL A   1      45.615  34.090  32.504  1.00  0.00     0.001 A 
ATOM     81  C   UNL A   1      45.771  34.891  30.231  1.00  0.00     0.001 A 
ATOM     82  C   UNL A   1      45.909  35.110  31.600  1.00  0.00     0.000 A 
ENDBRANCH  64  77
ENDBRANCH  38  39
ENDBRANCH  30  33
ENDBRANCH  28  29
ENDBRANCH  27  28
ENDBRANCH  26  27
ENDBRANCH   1  26
TORSDOF 15
ENDMDL
MODEL 2
REMARK VINA RESULT:     -11.2      2.028      8.064
REMARK SMILES C[N@H+]1CCO[C@@H](CNS(=O)(=O)N2CCC(C(=O)NCCCCNC(=O)c3ccc(-c4c5nc(c(-c6ccccc6)c6ccc([nH]6)c(-c6ccccc6)c6nc(c(-c7ccccc7)c7ccc4[nH]7)C=C6)C=C5)cc3)CC2)C1
REMARK SMILES IDX 19 1 18 2 16 3 17 4 15 6 12 7 13 8 75 9 14 10 74 11 9 12
REMARK SMILES IDX 10 13 11 14 8 15 7 17 6 18 1 19 2 20 3 21 76 22 4 24 5 25
REMARK SMILES IDX 20 26 21 27 22 28 23 29 24 30 25 32 26 33 27 34 73 35 28 36
REMARK SMILES IDX 72 37 29 38 30 39 31 40 66 41 32 42 71 43 65 44 67 45 33 46
REMARK SMILES IDX 70 47 64 48 63 49 34 51 56 52 41 53 55 54 42 55 45 56 54 57
REMARK SMILES IDX 68 58 43 59 44 60 53 62 69 63 46 64 35 65 36 66 40 67 37 68
REMARK SMILES IDX 39 69 38 70 57 71 58 72 62 73 59 74 61 75 60 76 47 77 48 78
REMARK SMILES IDX 52 79 49 80 51 81 50 82
REMARK H PARENT 18 5 8 16 2 23 23 31 67 50 45 61
REMARK Flexibility Score: inf
ROOT
ATOM      1  C   UNL A   1      30.894  27.199  25.799  1.00  0.00     0.116 C 
ENDROOT
BRANCH   1   2
ATOM      2  N   UNL A   1      30.771  25.976  26.561  1.00  0.00    -0.356 N 
ATOM      3  C   UNL A   1      31.499  24.828  26.460  1.00  0.00     0.223 C 
ATOM      4  O   UNL A   1      31.245  23.917  27.252  1.00  0.00    -0.275 OA
ATOM      5  H   UNL A   1      30.066  25.973  27.247  1.00  0.00     0.163 HD
BRANCH   3   6
ATOM      6  C   UNL A   1      32.621  24.669  25.434  1.00  0.00     0.081 C 
ATOM      7  N   UNL A   1      34.759  22.992  24.345  1.00  0.00    -0.189 NA
ATOM      8  C   UNL A   1      33.522  23.223  23.573  1.00  0.00     0.104 C 
ATOM      9  C   UNL A   1      35.127  24.226  25.092  1.00  0.00     0.104 C 
ATOM     10  C   UNL A   1      32.335  23.507  24.473  1.00  0.00     0.030 C 
ATOM     11  C   UNL A   1      34.027  24.654  26.060  1.00  0.00     0.030 C 
BRANCH   7  12
ATOM     12  S   UNL A   1      35.123  21.528  25.087  1.00  0.00     0.279 S 
ATOM     13  O   UNL A   1      34.836  21.602  26.500  1.00  0.00    -0.195 OA
ATOM     14  O   UNL A   1      36.421  21.093  24.636  1.00  0.00    -0.195 OA
BRANCH  12  15
ATOM     15  N   UNL A   1      34.030  20.429  24.447  1.00  0.00    -0.199 NA
ATOM     16  H   UNL A   1      33.103  20.683  24.792  1.00  0.00     0.142 HD
BRANCH  15  17
ATOM     17  C   UNL A   1      34.241  19.000  24.755  1.00  0.00     0.138 C 
BRANCH  17  18
ATOM     18  C   UNL A   1      33.356  18.009  23.990  1.00  0.00     0.188 C 
ATOM     19  C   UNL A   1      35.413  15.828  25.377  1.00  0.00     0.332 C 
ATOM     20  N   UNL A   1      34.208  15.651  24.581  1.00  0.00    -0.333 N 
ATOM     21  C   UNL A   1      32.991  15.517  25.400  1.00  0.00     0.290 C 
ATOM     22  C   UNL A   1      34.011  16.682  23.548  1.00  0.00     0.295 C 
ATOM     23  H   UNL A   1      34.365  14.769  24.093  1.00  0.00     0.348 HD
ATOM     24  C   UNL A   1      32.405  16.857  25.868  1.00  0.00     0.222 C 
ATOM     25  O   UNL A   1      32.162  17.743  24.764  1.00  0.00    -0.365 OA
ENDBRANCH  17  18
ENDBRANCH  15  17
ENDBRANCH  12  15
ENDBRANCH   7  12
ENDBRANCH   3   6
ENDBRANCH   1   2
BRANCH   1  26
ATOM     26  C   UNL A   1      32.266  27.846  25.916  1.00  0.00     0.023 C 
BRANCH  26  27
ATOM     27  C   UNL A   1      32.368  28.877  27.030  1.00  0.00     0.023 C 
BRANCH  27  28
ATOM     28  C   UNL A   1      33.732  29.541  27.149  1.00  0.00     0.116 C 
BRANCH  28  29
ATOM     29  N   UNL A   1      33.718  30.750  27.962  1.00  0.00    -0.352 N 
ATOM     30  C   UNL A   1      34.699  31.217  28.806  1.00  0.00     0.251 C 
ATOM     31  H   UNL A   1      32.905  31.303  27.897  1.00  0.00     0.163 HD
ATOM     32  O   UNL A   1      34.502  32.184  29.532  1.00  0.00    -0.269 OA
BRANCH  30  33
ATOM     33  C   UNL A   1      35.990  30.504  28.849  1.00  0.00     0.039 A 
ATOM     34  C   UNL A   1      36.835  30.558  27.738  1.00  0.00     0.014 A 
ATOM     35  C   UNL A   1      36.395  29.858  30.019  1.00  0.00     0.014 A 
ATOM     36  C   UNL A   1      38.121  30.023  27.830  1.00  0.00     0.010 A 
ATOM     37  C   UNL A   1      37.706  29.419  30.140  1.00  0.00     0.010 A 
ATOM     38  C   UNL A   1      38.581  29.489  29.045  1.00  0.00    -0.014 A 
BRANCH  38  39
ATOM     39  C   UNL A   1      39.967  28.981  29.195  1.00  0.00     0.031 A 
ATOM     40  C   UNL A   1      41.039  29.884  29.739  1.00  0.00     0.074 A 
ATOM     41  C   UNL A   1      40.280  27.740  28.776  1.00  0.00     0.049 A 
ATOM     42  N   UNL A   1      42.319  29.651  29.890  1.00  0.00    -0.248 NA
ATOM     43  C   UNL A   1      40.624  31.239  30.137  1.00  0.00     0.031 C 
ATOM     44  C   UNL A   1      39.340  26.774  28.200  1.00  0.00     0.029 A 
ATOM     45  N   UNL A   1      41.482  27.077  28.770  1.00  0.00    -0.354 N 
ATOM     46  C   UNL A   1      42.860  30.836  30.373  1.00  0.00     0.074 A 
ATOM     47  C   UNL A   1      41.785  31.801  30.431  1.00  0.00     0.031 C 
ATOM     48  C   UNL A   1      39.993  25.630  27.938  1.00  0.00     0.029 A 
ATOM     49  C   UNL A   1      41.403  25.797  28.280  1.00  0.00     0.049 A 
ATOM     50  H   UNL A   1      42.321  27.481  29.089  1.00  0.00     0.167 HD
ATOM     51  C   UNL A   1      44.133  31.095  30.755  1.00  0.00     0.031 A 
ATOM     52  C   UNL A   1      42.359  24.862  28.118  1.00  0.00     0.031 A 
ATOM     53  C   UNL A   1      45.201  30.134  30.698  1.00  0.00     0.049 A 
ATOM     54  C   UNL A   1      43.773  25.182  28.513  1.00  0.00     0.074 A 
ATOM     55  C   UNL A   1      46.511  30.275  31.118  1.00  0.00     0.029 A 
ATOM     56  N   UNL A   1      45.083  28.854  30.177  1.00  0.00    -0.354 N 
ATOM     57  N   UNL A   1      44.257  26.283  29.039  1.00  0.00    -0.248 NA
ATOM     58  C   UNL A   1      44.773  24.127  28.300  1.00  0.00     0.031 C 
ATOM     59  C   UNL A   1      47.203  29.107  30.786  1.00  0.00     0.029 A 
ATOM     60  C   UNL A   1      46.306  28.207  30.230  1.00  0.00     0.049 A 
ATOM     61  H   UNL A   1      44.252  28.462  29.823  1.00  0.00     0.167 HD
ATOM     62  C   UNL A   1      45.608  26.038  29.254  1.00  0.00     0.074 A 
ATOM     63  C   UNL A   1      45.863  24.683  28.809  1.00  0.00     0.031 C 
ATOM     64  C   UNL A   1      46.549  26.860  29.779  1.00  0.00     0.031 A 
BRANCH  51  65
ATOM     65  C   UNL A   1      44.437  32.490  31.236  1.00  0.00    -0.014 A 
ATOM     66  C   UNL A   1      44.409  32.819  32.602  1.00  0.00     0.009 A 
ATOM     67  C   UNL A   1      44.753  33.492  30.306  1.00  0.00     0.009 A 
ATOM     68  C   UNL A   1      44.631  34.133  33.019  1.00  0.00     0.001 A 
ATOM     69  C   UNL A   1      45.013  34.797  30.729  1.00  0.00     0.001 A 
ATOM     70  C   UNL A   1      44.936  35.120  32.083  1.00  0.00     0.000 A 
ENDBRANCH  51  65
BRANCH  52  71
ATOM     71  C   UNL A   1      42.002  23.519  27.589  1.00  0.00    -0.014 A 
ATOM     72  C   UNL A   1      41.496  22.532  28.450  1.00  0.00     0.009 A 
ATOM     73  C   UNL A   1      42.151  23.218  26.227  1.00  0.00     0.009 A 
ATOM     74  C   UNL A   1      41.167  21.266  27.961  1.00  0.00     0.001 A 
ATOM     75  C   UNL A   1      41.792  21.960  25.736  1.00  0.00     0.001 A 
ATOM     76  C   UNL A   1      41.309  20.983  26.604  1.00  0.00     0.000 A 
ENDBRANCH  52  71
BRANCH  64  77
ATOM     77  C   UNL A   1      47.937  26.305  29.947  1.00  0.00    -0.014 A 
ATOM     78  C   UNL A   1      48.371  25.762  31.166  1.00  0.00     0.009 A 
ATOM     79  C   UNL A   1      48.810  26.283  28.846  1.00  0.00     0.009 A 
ATOM     80  C   UNL A   1      49.661  25.238  31.286  1.00  0.00     0.001 A 
ATOM     81  C   UNL A   1      50.084  25.728  28.960  1.00  0.00     0.001 A 
ATOM     82  C   UNL A   1      50.513  25.215  30.183  1.00  0.00     0.000 A 
ENDBRANCH  64  77
ENDBRANCH  38  39
ENDBRANCH  30  33
ENDBRANCH  28  29
ENDBRANCH  27  28
ENDBRANCH  26  27
ENDBRANCH   1  26
TORSDOF 15
ENDMDL
MODEL 3
REMARK VINA RESULT:     -11.1      5.416     10.338
REMARK SMILES C[N@H+]1CCO[C@@H](CNS(=O)(=O)N2CCC(C(=O)NCCCCNC(=O)c3ccc(-c4c5nc(c(-c6ccccc6)c6ccc([nH]6)c(-c6ccccc6)c6nc(c(-c7ccccc7)c7ccc4[nH]7)C=C6)C=C5)cc3)CC2)C1
REMARK SMILES IDX 19 1 18 2 16 3 17 4 15 6 12 7 13 8 75 9 14 10 74 11 9 12
REMARK SMILES IDX 10 13 11 14 8 15 7 17 6 18 1 19 2 20 3 21 76 22 4 24 5 25
REMARK SMILES IDX 20 26 21 27 22 28 23 29 24 30 25 32 26 33 27 34 73 35 28 36
REMARK SMILES IDX 72 37 29 38 30 39 31 40 66 41 32 42 71 43 65 44 67 45 33 46
REMARK SMILES IDX 70 47 64 48 63 49 34 51 56 52 41 53 55 54 42 55 45 56 54 57
REMARK SMILES IDX 68 58 43 59 44 60 53 62 69 63 46 64 35 65 36 66 40 67 37 68
REMARK SMILES IDX 39 69 38 70 57 71 58 72 62 73 59 74 61 75 60 76 47 77 48 78
REMARK SMILES IDX 52 79 49 80 51 81 50 82
REMARK H PARENT 18 5 8 16 2 23 23 31 67 50 45 61
REMARK Flexibility Score: inf
ROOT
ATOM      1  C   UNL A   1      34.121  32.298  28.314  1.00  0.00     0.116 C 
ENDROOT
BRANCH   1   2
ATOM      2  N   UNL A   1      32.951  32.335  27.465  1.00  0.00    -0.356 N 
ATOM      3  C   UNL A   1      32.268  31.299  26.901  1.00  0.00     0.223 C 
ATOM      4  O   UNL A   1      31.261  31.567  26.241  1.00  0.00    -0.275 OA
ATOM      5  H   UNL A   1      32.598  33.233  27.268  1.00  0.00     0.163 HD
BRANCH   3   6
ATOM      6  C   UNL A   1      32.698  29.844  27.099  1.00  0.00     0.081 C 
ATOM      7  N   UNL A   1      32.623  27.087  26.120  1.00  0.00    -0.189 NA
ATOM      8  C   UNL A   1      33.866  27.878  26.035  1.00  0.00     0.104 C 
ATOM      9  C   UNL A   1      31.895  27.422  27.376  1.00  0.00     0.104 C 
ATOM     10  C   UNL A   1      33.589  29.366  25.945  1.00  0.00     0.030 C 
ATOM     11  C   UNL A   1      31.531  28.903  27.445  1.00  0.00     0.030 C 
BRANCH   7  12
ATOM     12  S   UNL A   1      31.677  26.708  24.783  1.00  0.00     0.279 S 
ATOM     13  O   UNL A   1      30.391  26.210  25.209  1.00  0.00    -0.195 OA
ATOM     14  O   UNL A   1      32.475  25.946  23.855  1.00  0.00    -0.195 OA
BRANCH  12  15
ATOM     15  N   UNL A   1      31.381  28.175  24.027  1.00  0.00    -0.199 NA
ATOM     16  H   UNL A   1      31.996  28.869  24.453  1.00  0.00     0.142 HD
BRANCH  15  17
ATOM     17  C   UNL A   1      30.004  28.707  24.086  1.00  0.00     0.138 C 
BRANCH  17  18
ATOM     18  C   UNL A   1      29.116  28.410  22.872  1.00  0.00     0.188 C 
ATOM     19  C   UNL A   1      27.746  31.280  23.768  1.00  0.00     0.332 C 
ATOM     20  N   UNL A   1      27.524  30.418  22.616  1.00  0.00    -0.333 N 
ATOM     21  C   UNL A   1      28.338  30.798  21.449  1.00  0.00     0.290 C 
ATOM     22  C   UNL A   1      27.682  28.982  22.898  1.00  0.00     0.295 C 
ATOM     23  H   UNL A   1      26.542  30.570  22.385  1.00  0.00     0.348 HD
ATOM     24  C   UNL A   1      29.775  30.258  21.491  1.00  0.00     0.222 C 
ATOM     25  O   UNL A   1      29.800  28.833  21.668  1.00  0.00    -0.365 OA
ENDBRANCH  17  18
ENDBRANCH  15  17
ENDBRANCH  12  15
ENDBRANCH   7  12
ENDBRANCH   3   6
ENDBRANCH   1   2
BRANCH   1  26
ATOM     26  C   UNL A   1      34.251  33.520  29.212  1.00  0.00     0.023 C 
BRANCH  26  27
ATOM     27  C   UNL A   1      33.293  34.648  28.860  1.00  0.00     0.023 C 
BRANCH  27  28
ATOM     28  C   UNL A   1      33.546  35.946  29.613  1.00  0.00     0.116 C 
BRANCH  28  29
ATOM     29  N   UNL A   1      32.546  36.227  30.634  1.00  0.00    -0.352 N 
ATOM     30  C   UNL A   1      32.540  35.826  31.951  1.00  0.00     0.251 C 
ATOM     31  H   UNL A   1      31.778  36.772  30.347  1.00  0.00     0.163 HD
ATOM     32  O   UNL A   1      31.568  36.023  32.669  1.00  0.00    -0.269 OA
BRANCH  30  33
ATOM     33  C   UNL A   1      33.723  35.116  32.476  1.00  0.00     0.039 A 
ATOM     34  C   UNL A   1      33.590  33.794  32.904  1.00  0.00     0.014 A 
ATOM     35  C   UNL A   1      34.975  35.736  32.461  1.00  0.00     0.014 A 
ATOM     36  C   UNL A   1      34.731  33.068  33.249  1.00  0.00     0.010 A 
ATOM     37  C   UNL A   1      36.114  34.983  32.707  1.00  0.00     0.010 A 
ATOM     38  C   UNL A   1      36.005  33.644  33.112  1.00  0.00    -0.014 A 
BRANCH  38  39
ATOM     39  C   UNL A   1      37.241  32.874  33.400  1.00  0.00     0.031 A 
ATOM     40  C   UNL A   1      37.988  33.113  34.684  1.00  0.00     0.074 A 
ATOM     41  C   UNL A   1      37.732  32.019  32.483  1.00  0.00     0.049 A 
ATOM     42  N   UNL A   1      39.115  32.589  35.093  1.00  0.00    -0.248 NA
ATOM     43  C   UNL A   1      37.406  34.092  35.615  1.00  0.00     0.031 C 
ATOM     44  C   UNL A   1      37.122  31.721  31.185  1.00  0.00     0.029 A 
ATOM     45  N   UNL A   1      38.864  31.243  32.504  1.00  0.00    -0.354 N 
ATOM     46  C   UNL A   1      39.387  33.195  36.313  1.00  0.00     0.074 A 
ATOM     47  C   UNL A   1      38.343  34.166  36.546  1.00  0.00     0.031 C 
ATOM     48  C   UNL A   1      37.863  30.795  30.555  1.00  0.00     0.029 A 
ATOM     49  C   UNL A   1      39.023  30.471  31.379  1.00  0.00     0.049 A 
ATOM     50  H   UNL A   1      39.499  31.238  33.255  1.00  0.00     0.167 HD
ATOM     51  C   UNL A   1      40.403  32.952  37.175  1.00  0.00     0.031 A 
ATOM     52  C   UNL A   1      39.997  29.603  31.045  1.00  0.00     0.031 A 
ATOM     53  C   UNL A   1      41.441  31.984  36.942  1.00  0.00     0.049 A 
ATOM     54  C   UNL A   1      41.136  29.376  31.999  1.00  0.00     0.074 A 
ATOM     55  C   UNL A   1      42.480  31.617  37.778  1.00  0.00     0.029 A 
ATOM     56  N   UNL A   1      41.576  31.236  35.782  1.00  0.00    -0.354 N 
ATOM     57  N   UNL A   1      41.342  29.900  33.184  1.00  0.00    -0.248 NA
ATOM     58  C   UNL A   1      42.175  28.427  31.573  1.00  0.00     0.031 C 
ATOM     59  C   UNL A   1      43.285  30.700  37.094  1.00  0.00     0.029 A 
ATOM     60  C   UNL A   1      42.704  30.437  35.863  1.00  0.00     0.049 A 
ATOM     61  H   UNL A   1      40.961  31.269  35.014  1.00  0.00     0.167 HD
ATOM     62  C   UNL A   1      42.511  29.319  33.659  1.00  0.00     0.074 A 
ATOM     63  C   UNL A   1      42.964  28.396  32.638  1.00  0.00     0.031 C 
ATOM     64  C   UNL A   1      43.147  29.526  34.838  1.00  0.00     0.031 A 
BRANCH  51  65
ATOM     65  C   UNL A   1      40.451  33.778  38.434  1.00  0.00    -0.014 A 
ATOM     66  C   UNL A   1      41.167  34.984  38.496  1.00  0.00     0.009 A 
ATOM     67  C   UNL A   1      39.769  33.337  39.578  1.00  0.00     0.009 A 
ATOM     68  C   UNL A   1      41.249  35.700  39.693  1.00  0.00     0.001 A 
ATOM     69  C   UNL A   1      39.819  34.074  40.763  1.00  0.00     0.001 A 
ATOM     70  C   UNL A   1      40.573  35.246  40.824  1.00  0.00     0.000 A 
ENDBRANCH  51  65
BRANCH  52  71
ATOM     71  C   UNL A   1      39.918  28.855  29.763  1.00  0.00    -0.014 A 
ATOM     72  C   UNL A   1      40.346  29.454  28.568  1.00  0.00     0.009 A 
ATOM     73  C   UNL A   1      39.426  27.541  29.723  1.00  0.00     0.009 A 
ATOM     74  C   UNL A   1      40.266  28.761  27.359  1.00  0.00     0.001 A 
ATOM     75  C   UNL A   1      39.375  26.840  28.516  1.00  0.00     0.001 A 
ATOM     76  C   UNL A   1      39.787  27.453  27.334  1.00  0.00     0.000 A 
ENDBRANCH  52  71
BRANCH  64  77
ATOM     77  C   UNL A   1      44.379  28.708  35.113  1.00  0.00    -0.014 A 
ATOM     78  C   UNL A   1      44.302  27.433  35.694  1.00  0.00     0.009 A 
ATOM     79  C   UNL A   1      45.638  29.206  34.736  1.00  0.00     0.009 A 
ATOM     80  C   UNL A   1      45.463  26.689  35.922  1.00  0.00     0.001 A 
ATOM     81  C   UNL A   1      46.791  28.447  34.933  1.00  0.00     0.001 A 
ATOM     82  C   UNL A   1      46.704  27.193  35.535  1.00  0.00     0.000 A 
ENDBRANCH  64  77
ENDBRANCH  38  39
ENDBRANCH  30  33
ENDBRANCH  28  29
ENDBRANCH  27  28
ENDBRANCH  26  27
ENDBRANCH   1  26
TORSDOF 15
ENDMDL
