MODEL 1
REMARK VINA RESULT:     -10.5      0.000      0.000
REMARK SMILES CCC[C@H](Oc1ccccc1C)C(=O)NCCCCNC(=O)c1ccc(-c2c3nc(c(-c4ccccc4)c4ccc([nH]4)c(-c4ccccc4)c4nc(c(-c5ccccc5)c5ccc2[nH]5)C=C4)C=C3)cc1
REMARK SMILES IDX 17 1 16 2 15 3 13 4 14 5 4 7 3 8 2 9 1 10 5 11 6 12 7 13
REMARK SMILES IDX 11 14 8 15 10 16 12 17 9 18 18 19 19 20 20 21 21 22 22 24
REMARK SMILES IDX 23 25 24 26 70 27 25 28 69 29 26 30 27 31 28 32 63 33 29 34
REMARK SMILES IDX 68 35 62 36 64 37 30 38 67 39 61 40 60 41 31 43 53 44 38 45
REMARK SMILES IDX 52 46 39 47 42 48 51 49 65 50 40 51 41 52 50 54 66 55 43 56
REMARK SMILES IDX 32 57 33 58 37 59 34 60 36 61 35 62 54 63 55 64 59 65 56 66
REMARK SMILES IDX 58 67 57 68 44 69 45 70 49 71 46 72 48 73 47 74
REMARK H PARENT 15 6 20 23 64 42 42 53
REMARK Flexibility Score: inf
ROOT
ATOM      1  C   UNL A   1      31.801  28.599  27.570  1.00  0.00     0.023 C 
ENDROOT
BRANCH   1   2
ATOM      2  C   UNL A   1      32.079  27.504  26.542  1.00  0.00     0.116 C 
BRANCH   2   3
ATOM      3  N   UNL A   1      31.424  26.243  26.853  1.00  0.00    -0.353 N 
ATOM      4  C   UNL A   1      31.837  24.954  26.671  1.00  0.00     0.261 C 
ATOM      5  O   UNL A   1      31.142  24.069  27.185  1.00  0.00    -0.271 OA
ATOM      6  H   UNL A   1      30.534  26.335  27.263  1.00  0.00     0.163 HD
BRANCH   4   7
ATOM      7  C   UNL A   1      33.128  24.585  25.912  1.00  0.00     0.261 C 
BRANCH   7   8
ATOM      8  C   UNL A   1      32.981  24.674  24.378  1.00  0.00     0.055 C 
BRANCH   8   9
ATOM      9  C   UNL A   1      31.698  24.125  23.741  1.00  0.00     0.001 C 
ATOM     10  C   UNL A   1      31.864  22.739  23.130  1.00  0.00     0.004 C 
ENDBRANCH   8   9
ENDBRANCH   7   8
BRANCH   7  11
ATOM     11  O   UNL A   1      33.634  23.315  26.317  1.00  0.00    -0.480 OA
BRANCH  11  12
ATOM     12  C   UNL A   1      34.904  22.953  25.954  1.00  0.00     0.123 A 
ATOM     13  C   UNL A   1      36.008  23.808  25.986  1.00  0.00     0.047 A 
ATOM     14  C   UNL A   1      35.055  21.646  25.453  1.00  0.00    -0.009 A 
ATOM     15  C   UNL A   1      37.255  23.369  25.532  1.00  0.00     0.004 A 
ATOM     16  C   UNL A   1      36.310  21.218  24.999  1.00  0.00     0.007 A 
ATOM     17  C   UNL A   1      33.904  20.681  25.446  1.00  0.00     0.048 C 
ATOM     18  C   UNL A   1      37.405  22.078  25.033  1.00  0.00     0.001 A 
ENDBRANCH  11  12
ENDBRANCH   7  11
ENDBRANCH   4   7
ENDBRANCH   2   3
ENDBRANCH   1   2
BRANCH   1  19
ATOM     19  C   UNL A   1      32.148  30.017  27.134  1.00  0.00     0.023 C 
BRANCH  19  20
ATOM     20  C   UNL A   1      33.633  30.287  26.949  1.00  0.00     0.116 C 
BRANCH  20  21
ATOM     21  N   UNL A   1      34.185  31.305  27.829  1.00  0.00    -0.352 N 
ATOM     22  C   UNL A   1      35.294  31.256  28.661  1.00  0.00     0.251 C 
ATOM     23  H   UNL A   1      33.697  32.160  27.836  1.00  0.00     0.163 HD
ATOM     24  O   UNL A   1      35.549  32.211  29.376  1.00  0.00    -0.269 OA
BRANCH  22  25
ATOM     25  C   UNL A   1      36.251  30.116  28.580  1.00  0.00     0.039 A 
ATOM     26  C   UNL A   1      36.425  29.329  29.729  1.00  0.00     0.014 A 
ATOM     27  C   UNL A   1      37.099  29.933  27.494  1.00  0.00     0.014 A 
ATOM     28  C   UNL A   1      37.589  28.578  29.880  1.00  0.00     0.010 A 
ATOM     29  C   UNL A   1      38.301  29.288  27.681  1.00  0.00     0.010 A 
ATOM     30  C   UNL A   1      38.573  28.672  28.902  1.00  0.00    -0.014 A 
BRANCH  30  31
ATOM     31  C   UNL A   1      39.954  28.264  29.095  1.00  0.00     0.031 A 
ATOM     32  C   UNL A   1      40.419  26.954  28.605  1.00  0.00     0.074 A 
ATOM     33  C   UNL A   1      40.828  29.147  29.624  1.00  0.00     0.049 A 
ATOM     34  N   UNL A   1      41.495  26.376  29.015  1.00  0.00    -0.248 NA
ATOM     35  C   UNL A   1      39.653  26.144  27.661  1.00  0.00     0.031 C 
ATOM     36  C   UNL A   1      42.285  29.087  29.605  1.00  0.00     0.029 A 
ATOM     37  N   UNL A   1      40.538  30.194  30.495  1.00  0.00    -0.354 N 
ATOM     38  C   UNL A   1      41.728  25.310  28.180  1.00  0.00     0.074 A 
ATOM     39  C   UNL A   1      40.492  25.122  27.463  1.00  0.00     0.031 C 
ATOM     40  C   UNL A   1      42.766  29.874  30.582  1.00  0.00     0.029 A 
ATOM     41  C   UNL A   1      41.631  30.337  31.364  1.00  0.00     0.049 A 
ATOM     42  H   UNL A   1      39.717  30.736  30.500  1.00  0.00     0.167 HD
ATOM     43  C   UNL A   1      42.994  24.818  28.083  1.00  0.00     0.031 A 
ATOM     44  C   UNL A   1      41.481  30.120  32.705  1.00  0.00     0.031 A 
ATOM     45  C   UNL A   1      43.868  25.378  29.116  1.00  0.00     0.049 A 
ATOM     46  C   UNL A   1      42.288  28.949  33.229  1.00  0.00     0.074 A 
ATOM     47  C   UNL A   1      44.882  26.319  29.096  1.00  0.00     0.029 A 
ATOM     48  N   UNL A   1      43.548  25.171  30.454  1.00  0.00    -0.354 N 
ATOM     49  N   UNL A   1      42.810  28.023  32.473  1.00  0.00    -0.248 NA
ATOM     50  C   UNL A   1      42.545  28.716  34.647  1.00  0.00     0.031 C 
ATOM     51  C   UNL A   1      45.105  26.748  30.434  1.00  0.00     0.029 A 
ATOM     52  C   UNL A   1      44.259  26.034  31.265  1.00  0.00     0.049 A 
ATOM     53  H   UNL A   1      42.903  24.502  30.780  1.00  0.00     0.167 HD
ATOM     54  C   UNL A   1      43.451  27.095  33.251  1.00  0.00     0.074 A 
ATOM     55  C   UNL A   1      43.267  27.581  34.608  1.00  0.00     0.031 C 
ATOM     56  C   UNL A   1      44.069  26.004  32.712  1.00  0.00     0.031 A 
BRANCH  43  57
ATOM     57  C   UNL A   1      43.511  24.017  26.904  1.00  0.00    -0.014 A 
ATOM     58  C   UNL A   1      44.070  24.694  25.804  1.00  0.00     0.009 A 
ATOM     59  C   UNL A   1      43.386  22.624  26.757  1.00  0.00     0.009 A 
ATOM     60  C   UNL A   1      44.441  24.026  24.626  1.00  0.00     0.001 A 
ATOM     61  C   UNL A   1      43.770  21.946  25.592  1.00  0.00     0.001 A 
ATOM     62  C   UNL A   1      44.288  22.650  24.519  1.00  0.00     0.000 A 
ENDBRANCH  43  57
BRANCH  44  63
ATOM     63  C   UNL A   1      40.152  30.546  33.225  1.00  0.00    -0.014 A 
ATOM     64  C   UNL A   1      39.916  31.926  33.386  1.00  0.00     0.009 A 
ATOM     65  C   UNL A   1      39.049  29.682  33.170  1.00  0.00     0.009 A 
ATOM     66  C   UNL A   1      38.616  32.438  33.369  1.00  0.00     0.001 A 
ATOM     67  C   UNL A   1      37.746  30.200  33.159  1.00  0.00     0.001 A 
ATOM     68  C   UNL A   1      37.532  31.577  33.222  1.00  0.00     0.000 A 
ENDBRANCH  44  63
BRANCH  56  69
ATOM     69  C   UNL A   1      44.613  24.816  33.471  1.00  0.00    -0.014 A 
ATOM     70  C   UNL A   1      43.899  23.638  33.726  1.00  0.00     0.009 A 
ATOM     71  C   UNL A   1      45.978  24.816  33.847  1.00  0.00     0.009 A 
ATOM     72  C   UNL A   1      44.501  22.540  34.360  1.00  0.00     0.001 A 
ATOM     73  C   UNL A   1      46.594  23.709  34.434  1.00  0.00     0.001 A 
ATOM     74  C   UNL A   1      45.849  22.571  34.703  1.00  0.00     0.000 A 
ENDBRANCH  56  69
ENDBRANCH  30  31
ENDBRANCH  22  25
ENDBRANCH  20  21
ENDBRANCH  19  20
ENDBRANCH   1  19
TORSDOF 15
ENDMDL
MODEL 2
REMARK VINA RESULT:     -10.3      1.643      2.260
REMARK SMILES CCC[C@H](Oc1ccccc1C)C(=O)NCCCCNC(=O)c1ccc(-c2c3nc(c(-c4ccccc4)c4ccc([nH]4)c(-c4ccccc4)c4nc(c(-c5ccccc5)c5ccc2[nH]5)C=C4)C=C3)cc1
REMARK SMILES IDX 17 1 16 2 15 3 13 4 14 5 4 7 3 8 2 9 1 10 5 11 6 12 7 13
REMARK SMILES IDX 11 14 8 15 10 16 12 17 9 18 18 19 19 20 20 21 21 22 22 24
REMARK SMILES IDX 23 25 24 26 70 27 25 28 69 29 26 30 27 31 28 32 63 33 29 34
REMARK SMILES IDX 68 35 62 36 64 37 30 38 67 39 61 40 60 41 31 43 53 44 38 45
REMARK SMILES IDX 52 46 39 47 42 48 51 49 65 50 40 51 41 52 50 54 66 55 43 56
REMARK SMILES IDX 32 57 33 58 37 59 34 60 36 61 35 62 54 63 55 64 59 65 56 66
REMARK SMILES IDX 58 67 57 68 44 69 45 70 49 71 46 72 48 73 47 74
REMARK H PARENT 15 6 20 23 64 42 42 53
REMARK Flexibility Score: inf
ROOT
ATOM      1  C   UNL A   1      31.824  29.210  25.854  1.00  0.00     0.023 C 
ENDROOT
BRANCH   1   2
ATOM      2  C   UNL A   1      32.454  29.237  24.462  1.00  0.00     0.116 C 
BRANCH   2   3
ATOM      3  N   UNL A   1      31.475  29.319  23.390  1.00  0.00    -0.353 N 
ATOM      4  C   UNL A   1      30.906  28.342  22.623  1.00  0.00     0.261 C 
ATOM      5  O   UNL A   1      29.971  28.685  21.890  1.00  0.00    -0.271 OA
ATOM      6  H   UNL A   1      31.172  30.233  23.182  1.00  0.00     0.163 HD
BRANCH   4   7
ATOM      7  C   UNL A   1      31.348  26.866  22.680  1.00  0.00     0.261 C 
BRANCH   7   8
ATOM      8  C   UNL A   1      30.336  25.954  23.406  1.00  0.00     0.055 C 
BRANCH   8   9
ATOM      9  C   UNL A   1      29.858  26.371  24.803  1.00  0.00     0.001 C 
ATOM     10  C   UNL A   1      30.364  25.465  25.918  1.00  0.00     0.004 C 
ENDBRANCH   8   9
ENDBRANCH   7   8
BRANCH   7  11
ATOM     11  O   UNL A   1      32.660  26.727  23.220  1.00  0.00    -0.480 OA
BRANCH  11  12
ATOM     12  C   UNL A   1      33.238  25.487  23.267  1.00  0.00     0.123 A 
ATOM     13  C   UNL A   1      33.175  24.547  22.235  1.00  0.00     0.047 A 
ATOM     14  C   UNL A   1      33.867  25.143  24.478  1.00  0.00    -0.009 A 
ATOM     15  C   UNL A   1      33.739  23.279  22.399  1.00  0.00     0.004 A 
ATOM     16  C   UNL A   1      34.427  23.867  24.631  1.00  0.00     0.007 A 
ATOM     17  C   UNL A   1      33.998  26.140  25.593  1.00  0.00     0.048 C 
ATOM     18  C   UNL A   1      34.359  22.936  23.597  1.00  0.00     0.001 A 
ENDBRANCH  11  12
ENDBRANCH   7  11
ENDBRANCH   4   7
ENDBRANCH   2   3
ENDBRANCH   1   2
BRANCH   1  19
ATOM     19  C   UNL A   1      32.435  30.164  26.872  1.00  0.00     0.023 C 
BRANCH  19  20
ATOM     20  C   UNL A   1      33.941  30.046  27.043  1.00  0.00     0.116 C 
BRANCH  20  21
ATOM     21  N   UNL A   1      34.578  31.188  27.679  1.00  0.00    -0.352 N 
ATOM     22  C   UNL A   1      35.787  31.273  28.352  1.00  0.00     0.251 C 
ATOM     23  H   UNL A   1      34.072  32.031  27.625  1.00  0.00     0.163 HD
ATOM     24  O   UNL A   1      36.110  32.326  28.876  1.00  0.00    -0.269 OA
BRANCH  22  25
ATOM     25  C   UNL A   1      36.756  30.140  28.313  1.00  0.00     0.039 A 
ATOM     26  C   UNL A   1      36.836  29.314  29.445  1.00  0.00     0.014 A 
ATOM     27  C   UNL A   1      37.694  29.999  27.297  1.00  0.00     0.014 A 
ATOM     28  C   UNL A   1      37.988  28.562  29.668  1.00  0.00     0.010 A 
ATOM     29  C   UNL A   1      38.880  29.352  27.564  1.00  0.00     0.010 A 
ATOM     30  C   UNL A   1      39.051  28.694  28.781  1.00  0.00    -0.014 A 
BRANCH  30  31
ATOM     31  C   UNL A   1      40.414  28.284  29.077  1.00  0.00     0.031 A 
ATOM     32  C   UNL A   1      40.946  27.022  28.534  1.00  0.00     0.074 A 
ATOM     33  C   UNL A   1      41.217  29.130  29.757  1.00  0.00     0.049 A 
ATOM     34  N   UNL A   1      41.987  26.422  29.002  1.00  0.00    -0.248 NA
ATOM     35  C   UNL A   1      40.290  26.282  27.459  1.00  0.00     0.031 C 
ATOM     36  C   UNL A   1      42.670  29.086  29.877  1.00  0.00     0.029 A 
ATOM     37  N   UNL A   1      40.826  30.103  30.674  1.00  0.00    -0.354 N 
ATOM     38  C   UNL A   1      42.318  25.428  28.114  1.00  0.00     0.074 A 
ATOM     39  C   UNL A   1      41.161  25.286  27.266  1.00  0.00     0.031 C 
ATOM     40  C   UNL A   1      43.040  29.797  30.955  1.00  0.00     0.029 A 
ATOM     41  C   UNL A   1      41.826  30.186  31.655  1.00  0.00     0.049 A 
ATOM     42  H   UNL A   1      39.999  30.635  30.640  1.00  0.00     0.167 HD
ATOM     43  C   UNL A   1      43.595  24.957  28.104  1.00  0.00     0.031 A 
ATOM     44  C   UNL A   1      41.550  29.863  32.953  1.00  0.00     0.031 A 
ATOM     45  C   UNL A   1      44.355  25.441  29.258  1.00  0.00     0.049 A 
ATOM     46  C   UNL A   1      42.321  28.661  33.462  1.00  0.00     0.074 A 
ATOM     47  C   UNL A   1      45.350  26.390  29.412  1.00  0.00     0.029 A 
ATOM     48  N   UNL A   1      43.909  25.127  30.539  1.00  0.00    -0.354 N 
ATOM     49  N   UNL A   1      42.930  27.803  32.691  1.00  0.00    -0.248 NA
ATOM     50  C   UNL A   1      42.444  28.319  34.876  1.00  0.00     0.031 C 
ATOM     51  C   UNL A   1      45.435  26.714  30.795  1.00  0.00     0.029 A 
ATOM     52  C   UNL A   1      44.523  25.928  31.480  1.00  0.00     0.049 A 
ATOM     53  H   UNL A   1      43.247  24.428  30.745  1.00  0.00     0.167 HD
ATOM     54  C   UNL A   1      43.508  26.822  33.453  1.00  0.00     0.074 A 
ATOM     55  C   UNL A   1      43.184  27.197  34.819  1.00  0.00     0.031 C 
ATOM     56  C   UNL A   1      44.194  25.783  32.894  1.00  0.00     0.031 A 
BRANCH  43  57
ATOM     57  C   UNL A   1      44.238  24.257  26.923  1.00  0.00    -0.014 A 
ATOM     58  C   UNL A   1      44.070  22.868  26.770  1.00  0.00     0.009 A 
ATOM     59  C   UNL A   1      45.103  24.867  25.995  1.00  0.00     0.009 A 
ATOM     60  C   UNL A   1      44.749  22.138  25.782  1.00  0.00     0.001 A 
ATOM     61  C   UNL A   1      45.770  24.149  24.994  1.00  0.00     0.001 A 
ATOM     62  C   UNL A   1      45.602  22.779  24.894  1.00  0.00     0.000 A 
ENDBRANCH  43  57
BRANCH  44  63
ATOM     63  C   UNL A   1      40.170  30.234  33.371  1.00  0.00    -0.014 A 
ATOM     64  C   UNL A   1      39.870  31.603  33.523  1.00  0.00     0.009 A 
ATOM     65  C   UNL A   1      39.108  29.330  33.226  1.00  0.00     0.009 A 
ATOM     66  C   UNL A   1      38.556  32.066  33.408  1.00  0.00     0.001 A 
ATOM     67  C   UNL A   1      37.791  29.799  33.118  1.00  0.00     0.001 A 
ATOM     68  C   UNL A   1      37.520  31.167  33.172  1.00  0.00     0.000 A 
ENDBRANCH  44  63
BRANCH  56  69
ATOM     69  C   UNL A   1      44.681  24.543  33.609  1.00  0.00    -0.014 A 
ATOM     70  C   UNL A   1      43.890  23.421  33.888  1.00  0.00     0.009 A 
ATOM     71  C   UNL A   1      46.060  24.429  33.909  1.00  0.00     0.009 A 
ATOM     72  C   UNL A   1      44.436  22.269  34.475  1.00  0.00     0.001 A 
ATOM     73  C   UNL A   1      46.616  23.268  34.449  1.00  0.00     0.001 A 
ATOM     74  C   UNL A   1      45.798  22.188  34.744  1.00  0.00     0.000 A 
ENDBRANCH  56  69
ENDBRANCH  30  31
ENDBRANCH  22  25
ENDBRANCH  20  21
ENDBRANCH  19  20
ENDBRANCH   1  19
TORSDOF 15
ENDMDL
MODEL 3
REMARK VINA RESULT:     -10.3      3.153      8.435
REMARK SMILES CCC[C@H](Oc1ccccc1C)C(=O)NCCCCNC(=O)c1ccc(-c2c3nc(c(-c4ccccc4)c4ccc([nH]4)c(-c4ccccc4)c4nc(c(-c5ccccc5)c5ccc2[nH]5)C=C4)C=C3)cc1
REMARK SMILES IDX 17 1 16 2 15 3 13 4 14 5 4 7 3 8 2 9 1 10 5 11 6 12 7 13
REMARK SMILES IDX 11 14 8 15 10 16 12 17 9 18 18 19 19 20 20 21 21 22 22 24
REMARK SMILES IDX 23 25 24 26 70 27 25 28 69 29 26 30 27 31 28 32 63 33 29 34
REMARK SMILES IDX 68 35 62 36 64 37 30 38 67 39 61 40 60 41 31 43 53 44 38 45
REMARK SMILES IDX 52 46 39 47 42 48 51 49 65 50 40 51 41 52 50 54 66 55 43 56
REMARK SMILES IDX 32 57 33 58 37 59 34 60 36 61 35 62 54 63 55 64 59 65 56 66
REMARK SMILES IDX 58 67 57 68 44 69 45 70 49 71 46 72 48 73 47 74
REMARK H PARENT 15 6 20 23 64 42 42 53
REMARK Flexibility Score: inf
ROOT
ATOM      1  C   UNL A   1      38.211  21.994  25.803  1.00  0.00     0.023 C 
ENDROOT
BRANCH   1   2
ATOM      2  C   UNL A   1      37.605  23.361  25.489  1.00  0.00     0.116 C 
BRANCH   2   3
ATOM      3  N   UNL A   1      36.887  23.395  24.225  1.00  0.00    -0.353 N 
ATOM      4  C   UNL A   1      35.551  23.492  23.959  1.00  0.00     0.261 C 
ATOM      5  O   UNL A   1      35.230  23.668  22.778  1.00  0.00    -0.271 OA
ATOM      6  H   UNL A   1      37.461  23.338  23.427  1.00  0.00     0.163 HD
BRANCH   4   7
ATOM      7  C   UNL A   1      34.470  23.442  25.058  1.00  0.00     0.261 C 
BRANCH   7   8
ATOM      8  C   UNL A   1      34.081  22.004  25.466  1.00  0.00     0.055 C 
BRANCH   8   9
ATOM      9  C   UNL A   1      33.489  21.083  24.392  1.00  0.00     0.001 C 
ATOM     10  C   UNL A   1      33.494  19.609  24.779  1.00  0.00     0.004 C 
ENDBRANCH   8   9
ENDBRANCH   7   8
BRANCH   7  11
ATOM     11  O   UNL A   1      33.325  24.215  24.710  1.00  0.00    -0.480 OA
BRANCH  11  12
ATOM     12  C   UNL A   1      33.101  25.406  25.347  1.00  0.00     0.123 A 
ATOM     13  C   UNL A   1      34.074  26.388  25.548  1.00  0.00     0.047 A 
ATOM     14  C   UNL A   1      31.813  25.589  25.884  1.00  0.00    -0.009 A 
ATOM     15  C   UNL A   1      33.771  27.546  26.270  1.00  0.00     0.004 A 
ATOM     16  C   UNL A   1      31.521  26.754  26.607  1.00  0.00     0.007 A 
ATOM     17  C   UNL A   1      30.726  24.579  25.649  1.00  0.00     0.048 C 
ATOM     18  C   UNL A   1      32.498  27.726  26.804  1.00  0.00     0.001 A 
ENDBRANCH  11  12
ENDBRANCH   7  11
ENDBRANCH   4   7
ENDBRANCH   2   3
ENDBRANCH   1   2
BRANCH   1  19
ATOM     19  C   UNL A   1      39.696  21.992  26.139  1.00  0.00     0.023 C 
BRANCH  19  20
ATOM     20  C   UNL A   1      40.218  20.700  26.746  1.00  0.00     0.116 C 
BRANCH  20  21
ATOM     21  N   UNL A   1      41.300  20.068  26.008  1.00  0.00    -0.352 N 
ATOM     22  C   UNL A   1      42.623  20.457  25.859  1.00  0.00     0.251 C 
ATOM     23  H   UNL A   1      41.056  19.235  25.542  1.00  0.00     0.163 HD
ATOM     24  O   UNL A   1      43.360  19.811  25.133  1.00  0.00    -0.269 OA
BRANCH  22  25
ATOM     25  C   UNL A   1      43.184  21.562  26.688  1.00  0.00     0.039 A 
ATOM     26  C   UNL A   1      42.865  21.577  28.054  1.00  0.00     0.014 A 
ATOM     27  C   UNL A   1      43.835  22.655  26.127  1.00  0.00     0.014 A 
ATOM     28  C   UNL A   1      42.950  22.771  28.767  1.00  0.00     0.010 A 
ATOM     29  C   UNL A   1      43.814  23.862  26.789  1.00  0.00     0.010 A 
ATOM     30  C   UNL A   1      43.304  23.930  28.085  1.00  0.00    -0.014 A 
BRANCH  30  31
ATOM     31  C   UNL A   1      43.073  25.274  28.589  1.00  0.00     0.031 A 
ATOM     32  C   UNL A   1      41.899  26.045  28.143  1.00  0.00     0.074 A 
ATOM     33  C   UNL A   1      43.883  25.758  29.555  1.00  0.00     0.049 A 
ATOM     34  N   UNL A   1      41.794  27.324  28.260  1.00  0.00    -0.248 NA
ATOM     35  C   UNL A   1      40.770  25.436  27.443  1.00  0.00     0.031 C 
ATOM     36  C   UNL A   1      43.654  26.905  30.426  1.00  0.00     0.029 A 
ATOM     37  N   UNL A   1      45.210  25.406  29.791  1.00  0.00    -0.354 N 
ATOM     38  C   UNL A   1      40.494  27.655  27.964  1.00  0.00     0.074 A 
ATOM     39  C   UNL A   1      39.948  26.484  27.324  1.00  0.00     0.031 C 
ATOM     40  C   UNL A   1      44.833  27.319  30.919  1.00  0.00     0.029 A 
ATOM     41  C   UNL A   1      45.875  26.552  30.255  1.00  0.00     0.049 A 
ATOM     42  H   UNL A   1      45.609  24.517  29.656  1.00  0.00     0.167 HD
ATOM     43  C   UNL A   1      39.990  28.826  28.442  1.00  0.00     0.031 A 
ATOM     44  C   UNL A   1      46.891  27.104  29.529  1.00  0.00     0.031 A 
ATOM     45  C   UNL A   1      41.044  29.674  29.002  1.00  0.00     0.049 A 
ATOM     46  C   UNL A   1      46.594  28.502  29.025  1.00  0.00     0.074 A 
ATOM     47  C   UNL A   1      41.411  30.007  30.295  1.00  0.00     0.029 A 
ATOM     48  N   UNL A   1      42.086  30.089  28.178  1.00  0.00    -0.354 N 
ATOM     49  N   UNL A   1      45.399  29.024  28.977  1.00  0.00    -0.248 NA
ATOM     50  C   UNL A   1      47.615  29.410  28.512  1.00  0.00     0.031 C 
ATOM     51  C   UNL A   1      42.729  30.542  30.249  1.00  0.00     0.029 A 
ATOM     52  C   UNL A   1      43.138  30.575  28.927  1.00  0.00     0.049 A 
ATOM     53  H   UNL A   1      42.074  30.043  27.194  1.00  0.00     0.167 HD
ATOM     54  C   UNL A   1      45.465  30.286  28.449  1.00  0.00     0.074 A 
ATOM     55  C   UNL A   1      46.879  30.488  28.184  1.00  0.00     0.031 C 
ATOM     56  C   UNL A   1      44.349  31.052  28.268  1.00  0.00     0.031 A 
BRANCH  43  57
ATOM     57  C   UNL A   1      38.513  29.107  28.631  1.00  0.00    -0.014 A 
ATOM     58  C   UNL A   1      37.752  29.558  27.537  1.00  0.00     0.009 A 
ATOM     59  C   UNL A   1      37.832  29.058  29.861  1.00  0.00     0.009 A 
ATOM     60  C   UNL A   1      36.416  29.968  27.674  1.00  0.00     0.001 A 
ATOM     61  C   UNL A   1      36.493  29.446  30.005  1.00  0.00     0.001 A 
ATOM     62  C   UNL A   1      35.786  29.914  28.910  1.00  0.00     0.000 A 
ENDBRANCH  43  57
BRANCH  44  63
ATOM     63  C   UNL A   1      47.719  26.094  28.813  1.00  0.00    -0.014 A 
ATOM     64  C   UNL A   1      47.564  25.981  27.417  1.00  0.00     0.009 A 
ATOM     65  C   UNL A   1      48.879  25.569  29.400  1.00  0.00     0.009 A 
ATOM     66  C   UNL A   1      48.593  25.471  26.620  1.00  0.00     0.001 A 
ATOM     67  C   UNL A   1      49.906  25.053  28.598  1.00  0.00     0.001 A 
ATOM     68  C   UNL A   1      49.778  25.038  27.208  1.00  0.00     0.000 A 
ENDBRANCH  44  63
BRANCH  56  69
ATOM     69  C   UNL A   1      44.271  32.355  27.504  1.00  0.00    -0.014 A 
ATOM     70  C   UNL A   1      44.334  32.466  26.110  1.00  0.00     0.009 A 
ATOM     71  C   UNL A   1      43.981  33.543  28.217  1.00  0.00     0.009 A 
ATOM     72  C   UNL A   1      44.163  33.702  25.466  1.00  0.00     0.001 A 
ATOM     73  C   UNL A   1      43.763  34.766  27.577  1.00  0.00     0.001 A 
ATOM     74  C   UNL A   1      43.866  34.847  26.198  1.00  0.00     0.000 A 
ENDBRANCH  56  69
ENDBRANCH  30  31
ENDBRANCH  22  25
ENDBRANCH  20  21
ENDBRANCH  19  20
ENDBRANCH   1  19
TORSDOF 15
ENDMDL
