MODEL 1
REMARK VINA RESULT:     -11.9      0.000      0.000
REMARK SMILES Cc1onc(-c2ccccc2Cl)c1C(=O)N1CCCC[C@@H]1C(=O)NCCCCNC(=O)c1ccc(-c2c3nc(c(-c4ccccc4)c4ccc([nH]4)c(-c4ccccc4)c4nc(c(-c5ccccc5)c5ccc2[nH]5)C=C4)C=C3)cc1
REMARK SMILES IDX 26 1 25 2 24 3 22 4 23 5 21 7 16 8 17 9 18 10 20 11 19 12
REMARK SMILES IDX 14 13 15 14 13 15 1 16 2 17 3 18 4 19 5 20 6 21 7 22 11 23
REMARK SMILES IDX 8 24 10 25 12 26 9 27 27 28 28 29 29 30 30 31 31 33 32 34
REMARK SMILES IDX 33 35 79 36 34 37 78 38 35 39 36 40 37 41 72 42 38 43 77 44
REMARK SMILES IDX 71 45 73 46 39 47 76 48 70 49 69 50 40 52 62 53 47 54 61 55
REMARK SMILES IDX 48 56 51 57 60 58 74 59 49 60 50 61 59 63 75 64 52 65 41 66
REMARK SMILES IDX 42 67 46 68 43 69 45 70 44 71 63 72 64 73 68 74 65 75 67 76
REMARK SMILES IDX 66 77 53 78 54 79 58 80 55 81 57 82 56 83
REMARK H PARENT 24 6 29 32 73 51 51 62
REMARK Flexibility Score: inf
ROOT
ATOM      1  C   UNL A   1      36.106  20.759  25.271  1.00  0.00     0.023 C 
ENDROOT
BRANCH   1   2
ATOM      2  C   UNL A   1      35.475  21.910  24.484  1.00  0.00     0.116 C 
BRANCH   2   3
ATOM      3  N   UNL A   1      34.121  21.585  24.071  1.00  0.00    -0.354 N 
ATOM      4  C   UNL A   1      33.234  22.294  23.320  1.00  0.00     0.242 C 
ATOM      5  O   UNL A   1      32.061  21.911  23.298  1.00  0.00    -0.273 OA
ATOM      6  H   UNL A   1      33.792  20.712  24.385  1.00  0.00     0.163 HD
BRANCH   4   7
ATOM      7  C   UNL A   1      33.632  23.606  22.612  1.00  0.00     0.174 C 
ATOM      8  N   UNL A   1      33.300  24.846  23.356  1.00  0.00    -0.326 N 
ATOM      9  C   UNL A   1      33.312  26.086  22.580  1.00  0.00     0.120 C 
ATOM     10  C   UNL A   1      32.489  25.998  21.311  1.00  0.00     0.022 C 
ATOM     11  C   UNL A   1      32.983  23.553  21.202  1.00  0.00     0.035 C 
ATOM     12  C   UNL A   1      33.010  24.870  20.440  1.00  0.00     0.004 C 
BRANCH   8  13
ATOM     13  C   UNL A   1      33.327  25.036  24.751  1.00  0.00     0.260 C 
ATOM     14  O   UNL A   1      34.394  25.340  25.287  1.00  0.00    -0.269 OA
BRANCH  13  15
ATOM     15  C   UNL A   1      32.154  24.863  25.591  1.00  0.00     0.110 A 
ATOM     16  C   UNL A   1      32.650  22.838  27.231  1.00  0.00     0.092 C 
ATOM     17  C   UNL A   1      31.922  23.961  26.613  1.00  0.00     0.147 A 
ATOM     18  O   UNL A   1      30.741  24.254  27.219  1.00  0.00    -0.360 OA
ATOM     19  N   UNL A   1      30.191  25.381  26.659  1.00  0.00    -0.079 NA
ATOM     20  C   UNL A   1      31.034  25.763  25.691  1.00  0.00     0.128 A 
BRANCH  20  21
ATOM     21  C   UNL A   1      30.751  26.961  24.913  1.00  0.00     0.023 A 
ATOM     22  C   UNL A   1      29.825  26.897  23.859  1.00  0.00     0.012 A 
ATOM     23  C   UNL A   1      31.386  28.180  25.182  1.00  0.00     0.050 A 
ATOM     24  C   UNL A   1      29.502  28.043  23.127  1.00  0.00     0.001 A 
ATOM     25  C   UNL A   1      31.032  29.334  24.474  1.00  0.00     0.021 A 
ATOM     26  Cl  UNL A   1      32.660  28.311  26.343  1.00  0.00    -0.084 Cl
ATOM     27  C   UNL A   1      30.087  29.266  23.450  1.00  0.00     0.002 A 
ENDBRANCH  20  21
ENDBRANCH  13  15
ENDBRANCH   8  13
ENDBRANCH   4   7
ENDBRANCH   2   3
ENDBRANCH   1   2
BRANCH   1  28
ATOM     28  C   UNL A   1      37.479  20.300  24.771  1.00  0.00     0.023 C 
BRANCH  28  29
ATOM     29  C   UNL A   1      38.648  20.575  25.709  1.00  0.00     0.116 C 
BRANCH  29  30
ATOM     30  N   UNL A   1      39.688  19.564  25.666  1.00  0.00    -0.352 N 
ATOM     31  C   UNL A   1      41.001  19.668  26.051  1.00  0.00     0.251 C 
ATOM     32  H   UNL A   1      39.415  18.687  25.314  1.00  0.00     0.163 HD
ATOM     33  O   UNL A   1      41.764  18.719  25.892  1.00  0.00    -0.269 OA
BRANCH  31  34
ATOM     34  C   UNL A   1      41.515  20.938  26.610  1.00  0.00     0.039 A 
ATOM     35  C   UNL A   1      42.061  21.871  25.725  1.00  0.00     0.014 A 
ATOM     36  C   UNL A   1      41.460  21.220  27.978  1.00  0.00     0.014 A 
ATOM     37  C   UNL A   1      42.493  23.108  26.202  1.00  0.00     0.010 A 
ATOM     38  C   UNL A   1      41.837  22.479  28.446  1.00  0.00     0.010 A 
ATOM     39  C   UNL A   1      42.354  23.436  27.562  1.00  0.00    -0.014 A 
BRANCH  39  40
ATOM     40  C   UNL A   1      42.720  24.792  28.041  1.00  0.00     0.031 A 
ATOM     41  C   UNL A   1      41.672  25.851  28.234  1.00  0.00     0.074 A 
ATOM     42  C   UNL A   1      44.013  25.072  28.296  1.00  0.00     0.049 A 
ATOM     43  N   UNL A   1      41.805  27.061  28.718  1.00  0.00    -0.248 NA
ATOM     44  C   UNL A   1      40.302  25.517  27.816  1.00  0.00     0.031 C 
ATOM     45  C   UNL A   1      45.133  24.148  28.100  1.00  0.00     0.029 A 
ATOM     46  N   UNL A   1      44.602  26.210  28.787  1.00  0.00    -0.354 N 
ATOM     47  C   UNL A   1      40.539  27.631  28.666  1.00  0.00     0.074 A 
ATOM     48  C   UNL A   1      39.663  26.654  28.054  1.00  0.00     0.031 C 
ATOM     49  C   UNL A   1      46.267  24.742  28.507  1.00  0.00     0.029 A 
ATOM     50  C   UNL A   1      45.960  26.093  28.965  1.00  0.00     0.049 A 
ATOM     51  H   UNL A   1      44.101  27.032  28.992  1.00  0.00     0.167 HD
ATOM     52  C   UNL A   1      40.138  28.847  29.104  1.00  0.00     0.031 A 
ATOM     53  C   UNL A   1      46.856  26.969  29.454  1.00  0.00     0.031 A 
ATOM     54  C   UNL A   1      41.009  29.823  29.706  1.00  0.00     0.049 A 
ATOM     55  C   UNL A   1      46.385  28.315  29.929  1.00  0.00     0.074 A 
ATOM     56  C   UNL A   1      40.685  31.064  30.228  1.00  0.00     0.029 A 
ATOM     57  N   UNL A   1      42.378  29.670  29.859  1.00  0.00    -0.354 N 
ATOM     58  N   UNL A   1      45.169  28.803  29.954  1.00  0.00    -0.248 NA
ATOM     59  C   UNL A   1      47.412  29.223  30.459  1.00  0.00     0.031 C 
ATOM     60  C   UNL A   1      41.866  31.682  30.652  1.00  0.00     0.029 A 
ATOM     61  C   UNL A   1      42.918  30.804  30.444  1.00  0.00     0.049 A 
ATOM     62  H   UNL A   1      42.891  28.874  29.591  1.00  0.00     0.167 HD
ATOM     63  C   UNL A   1      45.281  30.065  30.524  1.00  0.00     0.074 A 
ATOM     64  C   UNL A   1      46.678  30.256  30.851  1.00  0.00     0.031 C 
ATOM     65  C   UNL A   1      44.312  30.984  30.755  1.00  0.00     0.031 A 
BRANCH  52  66
ATOM     66  C   UNL A   1      38.683  29.194  28.946  1.00  0.00    -0.014 A 
ATOM     67  C   UNL A   1      37.778  29.020  30.006  1.00  0.00     0.009 A 
ATOM     68  C   UNL A   1      38.219  29.740  27.740  1.00  0.00     0.009 A 
ATOM     69  C   UNL A   1      36.431  29.354  29.848  1.00  0.00     0.001 A 
ATOM     70  C   UNL A   1      36.878  30.098  27.594  1.00  0.00     0.001 A 
ATOM     71  C   UNL A   1      35.983  29.897  28.645  1.00  0.00     0.000 A 
ENDBRANCH  52  66
BRANCH  53  72
ATOM     72  C   UNL A   1      48.291  26.594  29.549  1.00  0.00    -0.014 A 
ATOM     73  C   UNL A   1      48.776  25.912  30.677  1.00  0.00     0.009 A 
ATOM     74  C   UNL A   1      49.185  26.928  28.521  1.00  0.00     0.009 A 
ATOM     75  C   UNL A   1      50.133  25.601  30.785  1.00  0.00     0.001 A 
ATOM     76  C   UNL A   1      50.536  26.588  28.619  1.00  0.00     0.001 A 
ATOM     77  C   UNL A   1      51.010  25.935  29.755  1.00  0.00     0.000 A 
ENDBRANCH  53  72
BRANCH  65  78
ATOM     78  C   UNL A   1      44.733  32.267  31.414  1.00  0.00    -0.014 A 
ATOM     79  C   UNL A   1      44.789  32.385  32.811  1.00  0.00     0.009 A 
ATOM     80  C   UNL A   1      45.093  33.370  30.623  1.00  0.00     0.009 A 
ATOM     81  C   UNL A   1      45.157  33.596  33.404  1.00  0.00     0.001 A 
ATOM     82  C   UNL A   1      45.490  34.569  31.218  1.00  0.00     0.001 A 
ATOM     83  C   UNL A   1      45.509  34.685  32.607  1.00  0.00     0.000 A 
ENDBRANCH  65  78
ENDBRANCH  39  40
ENDBRANCH  31  34
ENDBRANCH  29  30
ENDBRANCH  28  29
ENDBRANCH   1  28
TORSDOF 14
ENDMDL
MODEL 2
REMARK VINA RESULT:     -11.9      1.931      7.021
REMARK SMILES Cc1onc(-c2ccccc2Cl)c1C(=O)N1CCCC[C@@H]1C(=O)NCCCCNC(=O)c1ccc(-c2c3nc(c(-c4ccccc4)c4ccc([nH]4)c(-c4ccccc4)c4nc(c(-c5ccccc5)c5ccc2[nH]5)C=C4)C=C3)cc1
REMARK SMILES IDX 26 1 25 2 24 3 22 4 23 5 21 7 16 8 17 9 18 10 20 11 19 12
REMARK SMILES IDX 14 13 15 14 13 15 1 16 2 17 3 18 4 19 5 20 6 21 7 22 11 23
REMARK SMILES IDX 8 24 10 25 12 26 9 27 27 28 28 29 29 30 30 31 31 33 32 34
REMARK SMILES IDX 33 35 79 36 34 37 78 38 35 39 36 40 37 41 72 42 38 43 77 44
REMARK SMILES IDX 71 45 73 46 39 47 76 48 70 49 69 50 40 52 62 53 47 54 61 55
REMARK SMILES IDX 48 56 51 57 60 58 74 59 49 60 50 61 59 63 75 64 52 65 41 66
REMARK SMILES IDX 42 67 46 68 43 69 45 70 44 71 63 72 64 73 68 74 65 75 67 76
REMARK SMILES IDX 66 77 53 78 54 79 58 80 55 81 57 82 56 83
REMARK H PARENT 24 6 29 32 73 51 51 62
REMARK Flexibility Score: inf
ROOT
ATOM      1  C   UNL A   1      33.544  27.836  24.831  1.00  0.00     0.023 C 
ENDROOT
BRANCH   1   2
ATOM      2  C   UNL A   1      33.898  26.385  24.495  1.00  0.00     0.116 C 
BRANCH   2   3
ATOM      3  N   UNL A   1      33.804  25.535  25.668  1.00  0.00    -0.354 N 
ATOM      4  C   UNL A   1      34.534  24.443  26.026  1.00  0.00     0.242 C 
ATOM      5  O   UNL A   1      34.116  23.749  26.958  1.00  0.00    -0.273 OA
ATOM      6  H   UNL A   1      33.100  25.789  26.306  1.00  0.00     0.163 HD
BRANCH   4   7
ATOM      7  C   UNL A   1      35.778  23.998  25.229  1.00  0.00     0.174 C 
ATOM      8  N   UNL A   1      35.569  22.829  24.340  1.00  0.00    -0.326 N 
ATOM      9  C   UNL A   1      36.777  22.154  23.867  1.00  0.00     0.120 C 
ATOM     10  C   UNL A   1      37.733  21.797  24.987  1.00  0.00     0.022 C 
ATOM     11  C   UNL A   1      36.905  23.770  26.274  1.00  0.00     0.035 C 
ATOM     12  C   UNL A   1      38.136  23.054  25.737  1.00  0.00     0.004 C 
BRANCH   8  13
ATOM     13  C   UNL A   1      34.405  22.507  23.616  1.00  0.00     0.260 C 
ATOM     14  O   UNL A   1      34.242  23.009  22.502  1.00  0.00    -0.269 OA
BRANCH  13  15
ATOM     15  C   UNL A   1      33.374  21.626  24.136  1.00  0.00     0.110 A 
ATOM     16  C   UNL A   1      34.504  19.268  24.585  1.00  0.00     0.092 C 
ATOM     17  C   UNL A   1      33.459  20.307  24.541  1.00  0.00     0.147 A 
ATOM     18  O   UNL A   1      32.276  19.923  25.091  1.00  0.00    -0.360 OA
ATOM     19  N   UNL A   1      31.403  20.982  25.118  1.00  0.00    -0.079 NA
ATOM     20  C   UNL A   1      32.053  22.011  24.560  1.00  0.00     0.128 A 
BRANCH  20  21
ATOM     21  C   UNL A   1      31.404  23.312  24.461  1.00  0.00     0.023 A 
ATOM     22  C   UNL A   1      31.336  23.957  23.215  1.00  0.00     0.012 A 
ATOM     23  C   UNL A   1      30.851  23.946  25.581  1.00  0.00     0.050 A 
ATOM     24  C   UNL A   1      30.680  25.183  23.085  1.00  0.00     0.001 A 
ATOM     25  C   UNL A   1      30.160  25.154  25.441  1.00  0.00     0.021 A 
ATOM     26  Cl  UNL A   1      31.037  23.309  27.177  1.00  0.00    -0.084 Cl
ATOM     27  C   UNL A   1      30.071  25.770  24.192  1.00  0.00     0.002 A 
ENDBRANCH  20  21
ENDBRANCH  13  15
ENDBRANCH   8  13
ENDBRANCH   4   7
ENDBRANCH   2   3
ENDBRANCH   1   2
BRANCH   1  28
ATOM     28  C   UNL A   1      34.364  28.462  25.964  1.00  0.00     0.023 C 
BRANCH  28  29
ATOM     29  C   UNL A   1      33.616  28.684  27.273  1.00  0.00     0.116 C 
BRANCH  29  30
ATOM     30  N   UNL A   1      33.612  30.064  27.722  1.00  0.00    -0.352 N 
ATOM     31  C   UNL A   1      34.636  30.786  28.284  1.00  0.00     0.251 C 
ATOM     32  H   UNL A   1      32.761  30.546  27.610  1.00  0.00     0.163 HD
ATOM     33  O   UNL A   1      34.439  31.938  28.660  1.00  0.00    -0.269 OA
BRANCH  31  34
ATOM     34  C   UNL A   1      35.963  30.164  28.484  1.00  0.00     0.039 A 
ATOM     35  C   UNL A   1      36.878  30.216  27.429  1.00  0.00     0.014 A 
ATOM     36  C   UNL A   1      36.315  29.543  29.686  1.00  0.00     0.014 A 
ATOM     37  C   UNL A   1      38.163  29.702  27.601  1.00  0.00     0.010 A 
ATOM     38  C   UNL A   1      37.618  29.083  29.878  1.00  0.00     0.010 A 
ATOM     39  C   UNL A   1      38.555  29.161  28.838  1.00  0.00    -0.014 A 
BRANCH  39  40
ATOM     40  C   UNL A   1      39.955  28.713  29.044  1.00  0.00     0.031 A 
ATOM     41  C   UNL A   1      40.386  27.326  28.663  1.00  0.00     0.074 A 
ATOM     42  C   UNL A   1      40.843  29.567  29.590  1.00  0.00     0.049 A 
ATOM     43  N   UNL A   1      41.584  26.797  28.701  1.00  0.00    -0.248 NA
ATOM     44  C   UNL A   1      39.338  26.407  28.191  1.00  0.00     0.031 C 
ATOM     45  C   UNL A   1      40.539  30.924  30.051  1.00  0.00     0.029 A 
ATOM     46  N   UNL A   1      42.186  29.424  29.837  1.00  0.00    -0.354 N 
ATOM     47  C   UNL A   1      41.435  25.489  28.259  1.00  0.00     0.074 A 
ATOM     48  C   UNL A   1      40.023  25.287  28.008  1.00  0.00     0.031 C 
ATOM     49  C   UNL A   1      41.671  31.502  30.486  1.00  0.00     0.029 A 
ATOM     50  C   UNL A   1      42.771  30.552  30.360  1.00  0.00     0.049 A 
ATOM     51  H   UNL A   1      42.682  28.593  29.658  1.00  0.00     0.167 HD
ATOM     52  C   UNL A   1      42.386  24.547  28.060  1.00  0.00     0.031 A 
ATOM     53  C   UNL A   1      44.052  30.799  30.691  1.00  0.00     0.031 A 
ATOM     54  C   UNL A   1      43.790  24.742  28.316  1.00  0.00     0.049 A 
ATOM     55  C   UNL A   1      45.087  29.734  30.465  1.00  0.00     0.074 A 
ATOM     56  C   UNL A   1      44.837  23.863  28.098  1.00  0.00     0.029 A 
ATOM     57  N   UNL A   1      44.341  25.894  28.855  1.00  0.00    -0.354 N 
ATOM     58  N   UNL A   1      44.942  28.533  29.962  1.00  0.00    -0.248 NA
ATOM     59  C   UNL A   1      46.469  30.069  30.839  1.00  0.00     0.031 C 
ATOM     60  C   UNL A   1      46.016  24.466  28.551  1.00  0.00     0.029 A 
ATOM     61  C   UNL A   1      45.710  25.740  29.000  1.00  0.00     0.049 A 
ATOM     62  H   UNL A   1      43.834  26.702  29.098  1.00  0.00     0.167 HD
ATOM     63  C   UNL A   1      46.215  27.977  29.936  1.00  0.00     0.074 A 
ATOM     64  C   UNL A   1      47.122  28.982  30.452  1.00  0.00     0.031 C 
ATOM     65  C   UNL A   1      46.599  26.745  29.523  1.00  0.00     0.031 A 
BRANCH  52  66
ATOM     66  C   UNL A   1      41.938  23.209  27.539  1.00  0.00    -0.014 A 
ATOM     67  C   UNL A   1      41.957  22.924  26.164  1.00  0.00     0.009 A 
ATOM     68  C   UNL A   1      41.531  22.209  28.434  1.00  0.00     0.009 A 
ATOM     69  C   UNL A   1      41.546  21.675  25.694  1.00  0.00     0.001 A 
ATOM     70  C   UNL A   1      41.145  20.952  27.964  1.00  0.00     0.001 A 
ATOM     71  C   UNL A   1      41.145  20.689  26.594  1.00  0.00     0.000 A 
ENDBRANCH  52  66
BRANCH  53  72
ATOM     72  C   UNL A   1      44.437  32.124  31.243  1.00  0.00    -0.014 A 
ATOM     73  C   UNL A   1      44.672  33.212  30.387  1.00  0.00     0.009 A 
ATOM     74  C   UNL A   1      44.586  32.303  32.626  1.00  0.00     0.009 A 
ATOM     75  C   UNL A   1      45.078  34.444  30.906  1.00  0.00     0.001 A 
ATOM     76  C   UNL A   1      44.964  33.544  33.143  1.00  0.00     0.001 A 
ATOM     77  C   UNL A   1      45.220  34.610  32.282  1.00  0.00     0.000 A 
ENDBRANCH  53  72
BRANCH  65  78
ATOM     78  C   UNL A   1      48.066  26.429  29.592  1.00  0.00    -0.014 A 
ATOM     79  C   UNL A   1      48.622  25.789  30.710  1.00  0.00     0.009 A 
ATOM     80  C   UNL A   1      48.902  26.765  28.515  1.00  0.00     0.009 A 
ATOM     81  C   UNL A   1      49.994  25.529  30.766  1.00  0.00     0.001 A 
ATOM     82  C   UNL A   1      50.267  26.476  28.560  1.00  0.00     0.001 A 
ATOM     83  C   UNL A   1      50.813  25.870  29.690  1.00  0.00     0.000 A 
ENDBRANCH  65  78
ENDBRANCH  39  40
ENDBRANCH  31  34
ENDBRANCH  29  30
ENDBRANCH  28  29
ENDBRANCH   1  28
TORSDOF 14
ENDMDL
MODEL 3
REMARK VINA RESULT:     -11.8      2.055      7.018
REMARK SMILES Cc1onc(-c2ccccc2Cl)c1C(=O)N1CCCC[C@@H]1C(=O)NCCCCNC(=O)c1ccc(-c2c3nc(c(-c4ccccc4)c4ccc([nH]4)c(-c4ccccc4)c4nc(c(-c5ccccc5)c5ccc2[nH]5)C=C4)C=C3)cc1
REMARK SMILES IDX 26 1 25 2 24 3 22 4 23 5 21 7 16 8 17 9 18 10 20 11 19 12
REMARK SMILES IDX 14 13 15 14 13 15 1 16 2 17 3 18 4 19 5 20 6 21 7 22 11 23
REMARK SMILES IDX 8 24 10 25 12 26 9 27 27 28 28 29 29 30 30 31 31 33 32 34
REMARK SMILES IDX 33 35 79 36 34 37 78 38 35 39 36 40 37 41 72 42 38 43 77 44
REMARK SMILES IDX 71 45 73 46 39 47 76 48 70 49 69 50 40 52 62 53 47 54 61 55
REMARK SMILES IDX 48 56 51 57 60 58 74 59 49 60 50 61 59 63 75 64 52 65 41 66
REMARK SMILES IDX 42 67 46 68 43 69 45 70 44 71 63 72 64 73 68 74 65 75 67 76
REMARK SMILES IDX 66 77 53 78 54 79 58 80 55 81 57 82 56 83
REMARK H PARENT 24 6 29 32 73 51 51 62
REMARK Flexibility Score: inf
ROOT
ATOM      1  C   UNL A   1      33.933  27.868  24.880  1.00  0.00     0.023 C 
ENDROOT
BRANCH   1   2
ATOM      2  C   UNL A   1      33.998  26.386  24.505  1.00  0.00     0.116 C 
BRANCH   2   3
ATOM      3  N   UNL A   1      33.894  25.540  25.680  1.00  0.00    -0.354 N 
ATOM      4  C   UNL A   1      34.604  24.435  26.038  1.00  0.00     0.242 C 
ATOM      5  O   UNL A   1      34.177  23.752  26.973  1.00  0.00    -0.273 OA
ATOM      6  H   UNL A   1      33.197  25.809  26.321  1.00  0.00     0.163 HD
BRANCH   4   7
ATOM      7  C   UNL A   1      35.836  23.964  25.236  1.00  0.00     0.174 C 
ATOM      8  N   UNL A   1      35.598  22.803  24.345  1.00  0.00    -0.326 N 
ATOM      9  C   UNL A   1      36.790  22.102  23.867  1.00  0.00     0.120 C 
ATOM     10  C   UNL A   1      37.741  21.722  24.983  1.00  0.00     0.022 C 
ATOM     11  C   UNL A   1      36.960  23.709  26.277  1.00  0.00     0.035 C 
ATOM     12  C   UNL A   1      38.173  22.967  25.734  1.00  0.00     0.004 C 
BRANCH   8  13
ATOM     13  C   UNL A   1      34.426  22.508  23.623  1.00  0.00     0.260 C 
ATOM     14  O   UNL A   1      34.262  23.030  22.519  1.00  0.00    -0.269 OA
BRANCH  13  15
ATOM     15  C   UNL A   1      33.384  21.634  24.137  1.00  0.00     0.110 A 
ATOM     16  C   UNL A   1      34.491  19.262  24.571  1.00  0.00     0.092 C 
ATOM     17  C   UNL A   1      33.456  20.311  24.533  1.00  0.00     0.147 A 
ATOM     18  O   UNL A   1      32.269  19.936  25.080  1.00  0.00    -0.360 OA
ATOM     19  N   UNL A   1      31.406  21.004  25.113  1.00  0.00    -0.079 NA
ATOM     20  C   UNL A   1      32.068  22.030  24.562  1.00  0.00     0.128 A 
BRANCH  20  21
ATOM     21  C   UNL A   1      31.432  23.338  24.472  1.00  0.00     0.023 A 
ATOM     22  C   UNL A   1      31.344  23.977  23.224  1.00  0.00     0.012 A 
ATOM     23  C   UNL A   1      30.911  23.983  25.600  1.00  0.00     0.050 A 
ATOM     24  C   UNL A   1      30.699  25.211  23.103  1.00  0.00     0.001 A 
ATOM     25  C   UNL A   1      30.231  25.199  25.470  1.00  0.00     0.021 A 
ATOM     26  Cl  UNL A   1      31.125  23.352  27.195  1.00  0.00    -0.084 Cl
ATOM     27  C   UNL A   1      30.121  25.810  24.220  1.00  0.00     0.002 A 
ENDBRANCH  20  21
ENDBRANCH  13  15
ENDBRANCH   8  13
ENDBRANCH   4   7
ENDBRANCH   2   3
ENDBRANCH   1   2
BRANCH   1  28
ATOM     28  C   UNL A   1      32.833  28.241  25.879  1.00  0.00     0.023 C 
BRANCH  28  29
ATOM     29  C   UNL A   1      33.308  28.571  27.289  1.00  0.00     0.116 C 
BRANCH  29  30
ATOM     30  N   UNL A   1      33.295  29.989  27.599  1.00  0.00    -0.352 N 
ATOM     31  C   UNL A   1      34.312  30.768  28.088  1.00  0.00     0.251 C 
ATOM     32  H   UNL A   1      32.442  30.452  27.436  1.00  0.00     0.163 HD
ATOM     33  O   UNL A   1      34.108  31.951  28.348  1.00  0.00    -0.269 OA
BRANCH  31  34
ATOM     34  C   UNL A   1      35.642  30.177  28.354  1.00  0.00     0.039 A 
ATOM     35  C   UNL A   1      36.581  30.181  27.318  1.00  0.00     0.014 A 
ATOM     36  C   UNL A   1      35.974  29.630  29.597  1.00  0.00     0.014 A 
ATOM     37  C   UNL A   1      37.868  29.695  27.548  1.00  0.00     0.010 A 
ATOM     38  C   UNL A   1      37.278  29.199  29.843  1.00  0.00     0.010 A 
ATOM     39  C   UNL A   1      38.237  29.231  28.822  1.00  0.00    -0.014 A 
BRANCH  39  40
ATOM     40  C   UNL A   1      39.638  28.815  29.084  1.00  0.00     0.031 A 
ATOM     41  C   UNL A   1      40.592  29.725  29.802  1.00  0.00     0.074 A 
ATOM     42  C   UNL A   1      40.053  27.604  28.661  1.00  0.00     0.049 A 
ATOM     43  N   UNL A   1      41.824  29.491  30.182  1.00  0.00    -0.248 NA
ATOM     44  C   UNL A   1      40.111  31.078  30.122  1.00  0.00     0.031 C 
ATOM     45  C   UNL A   1      39.239  26.646  27.907  1.00  0.00     0.029 A 
ATOM     46  N   UNL A   1      41.258  26.967  28.816  1.00  0.00    -0.354 N 
ATOM     47  C   UNL A   1      42.263  30.662  30.785  1.00  0.00     0.074 A 
ATOM     48  C   UNL A   1      41.186  31.623  30.675  1.00  0.00     0.031 C 
ATOM     49  C   UNL A   1      39.956  25.529  27.703  1.00  0.00     0.029 A 
ATOM     50  C   UNL A   1      41.283  25.701  28.284  1.00  0.00     0.049 A 
ATOM     51  H   UNL A   1      42.033  27.379  29.264  1.00  0.00     0.167 HD
ATOM     52  C   UNL A   1      43.446  30.911  31.395  1.00  0.00     0.031 A 
ATOM     53  C   UNL A   1      42.259  24.775  28.277  1.00  0.00     0.031 A 
ATOM     54  C   UNL A   1      44.523  29.960  31.500  1.00  0.00     0.049 A 
ATOM     55  C   UNL A   1      43.565  25.078  28.955  1.00  0.00     0.074 A 
ATOM     56  C   UNL A   1      45.740  30.102  32.142  1.00  0.00     0.029 A 
ATOM     57  N   UNL A   1      44.512  28.691  30.940  1.00  0.00    -0.354 N 
ATOM     58  N   UNL A   1      43.930  26.159  29.600  1.00  0.00    -0.248 NA
ATOM     59  C   UNL A   1      44.587  24.022  28.918  1.00  0.00     0.031 C 
ATOM     60  C   UNL A   1      46.486  28.938  31.929  1.00  0.00     0.029 A 
ATOM     61  C   UNL A   1      45.712  28.050  31.201  1.00  0.00     0.049 A 
ATOM     62  H   UNL A   1      43.763  28.305  30.432  1.00  0.00     0.167 HD
ATOM     63  C   UNL A   1      45.215  25.905  30.065  1.00  0.00     0.074 A 
ATOM     64  C   UNL A   1      45.554  24.560  29.650  1.00  0.00     0.031 C 
ATOM     65  C   UNL A   1      46.039  26.714  30.773  1.00  0.00     0.031 A 
BRANCH  52  66
ATOM     66  C   UNL A   1      43.641  32.275  31.997  1.00  0.00    -0.014 A 
ATOM     67  C   UNL A   1      44.241  33.311  31.264  1.00  0.00     0.009 A 
ATOM     68  C   UNL A   1      43.184  32.539  33.297  1.00  0.00     0.009 A 
ATOM     69  C   UNL A   1      44.408  34.576  31.833  1.00  0.00     0.001 A 
ATOM     70  C   UNL A   1      43.329  33.811  33.854  1.00  0.00     0.001 A 
ATOM     71  C   UNL A   1      43.948  34.826  33.124  1.00  0.00     0.000 A 
ENDBRANCH  52  66
BRANCH  53  72
ATOM     72  C   UNL A   1      42.032  23.456  27.629  1.00  0.00    -0.014 A 
ATOM     73  C   UNL A   1      42.438  23.233  26.304  1.00  0.00     0.009 A 
ATOM     74  C   UNL A   1      41.395  22.420  28.327  1.00  0.00     0.009 A 
ATOM     75  C   UNL A   1      42.183  22.009  25.683  1.00  0.00     0.001 A 
ATOM     76  C   UNL A   1      41.167  21.187  27.713  1.00  0.00     0.001 A 
ATOM     77  C   UNL A   1      41.552  20.986  26.388  1.00  0.00     0.000 A 
ENDBRANCH  53  72
BRANCH  65  78
ATOM     78  C   UNL A   1      47.378  26.153  31.161  1.00  0.00    -0.014 A 
ATOM     79  C   UNL A   1      47.635  25.719  32.470  1.00  0.00     0.009 A 
ATOM     80  C   UNL A   1      48.392  26.043  30.196  1.00  0.00     0.009 A 
ATOM     81  C   UNL A   1      48.895  25.226  32.817  1.00  0.00     0.001 A 
ATOM     82  C   UNL A   1      49.641  25.521  30.537  1.00  0.00     0.001 A 
ATOM     83  C   UNL A   1      49.895  25.124  31.849  1.00  0.00     0.000 A 
ENDBRANCH  65  78
ENDBRANCH  39  40
ENDBRANCH  31  34
ENDBRANCH  29  30
ENDBRANCH  28  29
ENDBRANCH   1  28
TORSDOF 14
ENDMDL
