MODEL 1
REMARK VINA RESULT:     -10.3      0.000      0.000
REMARK SMILES O=C(NCCCCNC(=O)[C@H]1CCCCN1C(=O)CCl)c1ccc(-c2c3nc(c(-c4ccccc4)c4ccc([nH]4)c(-c4ccccc4)c4nc(c(-c5ccccc5)c5ccc2[nH]5)C=C4)C=C3)cc1
REMARK SMILES IDX 5 1 4 2 3 3 1 4 2 5 21 7 22 8 68 9 23 10 67 11 24 12 25 13
REMARK SMILES IDX 26 14 61 15 27 16 66 17 60 18 62 19 28 20 65 21 59 22 58 23
REMARK SMILES IDX 29 25 51 26 36 27 50 28 37 29 40 30 49 31 63 32 38 33 39 34
REMARK SMILES IDX 48 36 64 37 41 38 30 39 31 40 35 41 32 42 34 43 33 44 52 45
REMARK SMILES IDX 53 46 57 47 54 48 56 49 55 50 42 51 43 52 47 53 44 54 46 55
REMARK SMILES IDX 45 56 6 57 7 58 8 59 9 60 10 62 11 63 12 64 16 65 13 66
REMARK SMILES IDX 15 67 14 68 17 69 18 70 19 71 20 72
REMARK H PARENT 3 6 62 24 40 35 8 61
REMARK Flexibility Score: inf
ROOT
ATOM      1  C   UNL A   1      37.680  20.538  24.944  1.00  0.00     0.023 C 
ENDROOT
BRANCH   1   2
ATOM      2  C   UNL A   1      38.932  20.770  25.777  1.00  0.00     0.116 C 
BRANCH   2   3
ATOM      3  N   UNL A   1      39.886  19.669  25.737  1.00  0.00    -0.352 N 
ATOM      4  O   UNL A   1      41.919  18.696  25.954  1.00  0.00    -0.269 OA
ATOM      5  C   UNL A   1      41.213  19.686  26.100  1.00  0.00     0.251 C 
ATOM      6  H   UNL A   1      39.539  18.808  25.411  1.00  0.00     0.163 HD
BRANCH   5   7
ATOM      7  C   UNL A   1      41.778  20.944  26.621  1.00  0.00     0.039 A 
ATOM      8  C   UNL A   1      41.733  21.210  27.991  1.00  0.00     0.014 A 
ATOM      9  C   UNL A   1      42.259  21.896  25.721  1.00  0.00     0.014 A 
ATOM     10  C   UNL A   1      42.010  22.491  28.443  1.00  0.00     0.010 A 
ATOM     11  C   UNL A   1      42.626  23.156  26.192  1.00  0.00     0.010 A 
ATOM     12  C   UNL A   1      42.465  23.475  27.549  1.00  0.00    -0.014 A 
BRANCH  12  13
ATOM     13  C   UNL A   1      42.808  24.818  28.070  1.00  0.00     0.031 A 
ATOM     14  C   UNL A   1      41.747  25.852  28.315  1.00  0.00     0.074 A 
ATOM     15  C   UNL A   1      44.097  25.082  28.352  1.00  0.00     0.049 A 
ATOM     16  N   UNL A   1      41.884  27.078  28.753  1.00  0.00    -0.248 NA
ATOM     17  C   UNL A   1      40.356  25.467  28.029  1.00  0.00     0.031 C 
ATOM     18  C   UNL A   1      45.209  24.146  28.164  1.00  0.00     0.029 A 
ATOM     19  N   UNL A   1      44.688  26.199  28.877  1.00  0.00    -0.354 N 
ATOM     20  C   UNL A   1      40.605  27.622  28.764  1.00  0.00     0.074 A 
ATOM     21  C   UNL A   1      39.706  26.596  28.281  1.00  0.00     0.031 C 
ATOM     22  C   UNL A   1      46.338  24.708  28.617  1.00  0.00     0.029 A 
ATOM     23  C   UNL A   1      46.042  26.066  29.057  1.00  0.00     0.049 A 
ATOM     24  H   UNL A   1      44.189  27.017  29.104  1.00  0.00     0.167 HD
ATOM     25  C   UNL A   1      40.222  28.865  29.140  1.00  0.00     0.031 A 
ATOM     26  C   UNL A   1      46.953  26.946  29.503  1.00  0.00     0.031 A 
ATOM     27  C   UNL A   1      41.122  29.877  29.628  1.00  0.00     0.049 A 
ATOM     28  C   UNL A   1      46.505  28.322  29.890  1.00  0.00     0.074 A 
ATOM     29  C   UNL A   1      40.828  31.161  30.055  1.00  0.00     0.029 A 
ATOM     30  N   UNL A   1      42.493  29.717  29.758  1.00  0.00    -0.354 N 
ATOM     31  N   UNL A   1      45.292  28.819  29.892  1.00  0.00    -0.248 NA
ATOM     32  C   UNL A   1      47.548  29.255  30.328  1.00  0.00     0.031 C 
ATOM     33  C   UNL A   1      42.029  31.791  30.402  1.00  0.00     0.029 A 
ATOM     34  C   UNL A   1      43.063  30.885  30.237  1.00  0.00     0.049 A 
ATOM     35  H   UNL A   1      42.989  28.894  29.540  1.00  0.00     0.167 HD
ATOM     36  C   UNL A   1      45.424  30.127  30.336  1.00  0.00     0.074 A 
ATOM     37  C   UNL A   1      46.832  30.335  30.616  1.00  0.00     0.031 C 
ATOM     38  C   UNL A   1      44.466  31.072  30.495  1.00  0.00     0.031 A 
BRANCH  25  39
ATOM     39  C   UNL A   1      38.766  29.216  29.001  1.00  0.00    -0.014 A 
ATOM     40  C   UNL A   1      38.239  29.691  27.790  1.00  0.00     0.009 A 
ATOM     41  C   UNL A   1      37.902  29.028  30.090  1.00  0.00     0.009 A 
ATOM     42  C   UNL A   1      36.879  29.997  27.683  1.00  0.00     0.001 A 
ATOM     43  C   UNL A   1      36.540  29.313  29.975  1.00  0.00     0.001 A 
ATOM     44  C   UNL A   1      36.031  29.805  28.773  1.00  0.00     0.000 A 
ENDBRANCH  25  39
BRANCH  26  45
ATOM     45  C   UNL A   1      48.379  26.544  29.578  1.00  0.00    -0.014 A 
ATOM     46  C   UNL A   1      49.253  26.813  28.515  1.00  0.00     0.009 A 
ATOM     47  C   UNL A   1      48.883  25.934  30.739  1.00  0.00     0.009 A 
ATOM     48  C   UNL A   1      50.604  26.472  28.612  1.00  0.00     0.001 A 
ATOM     49  C   UNL A   1      50.238  25.620  30.842  1.00  0.00     0.001 A 
ATOM     50  C   UNL A   1      51.096  25.885  29.776  1.00  0.00     0.000 A 
ENDBRANCH  26  45
BRANCH  38  51
ATOM     51  C   UNL A   1      44.918  32.406  31.010  1.00  0.00    -0.014 A 
ATOM     52  C   UNL A   1      44.980  32.666  32.387  1.00  0.00     0.009 A 
ATOM     53  C   UNL A   1      45.302  33.408  30.106  1.00  0.00     0.009 A 
ATOM     54  C   UNL A   1      45.389  33.917  32.849  1.00  0.00     0.001 A 
ATOM     55  C   UNL A   1      45.732  34.651  30.571  1.00  0.00     0.001 A 
ATOM     56  C   UNL A   1      45.767  34.907  31.941  1.00  0.00     0.000 A 
ENDBRANCH  38  51
ENDBRANCH  12  13
ENDBRANCH   5   7
ENDBRANCH   2   3
ENDBRANCH   1   2
BRANCH   1  57
ATOM     57  C   UNL A   1      37.040  21.810  24.400  1.00  0.00     0.023 C 
BRANCH  57  58
ATOM     58  C   UNL A   1      35.519  21.880  24.527  1.00  0.00     0.116 C 
BRANCH  58  59
ATOM     59  N   UNL A   1      35.100  21.800  25.904  1.00  0.00    -0.354 N 
ATOM     60  C   UNL A   1      33.936  21.425  26.493  1.00  0.00     0.242 C 
ATOM     61  H   UNL A   1      35.795  22.073  26.545  1.00  0.00     0.163 HD
ATOM     62  O   UNL A   1      33.924  21.537  27.729  1.00  0.00    -0.273 OA
BRANCH  60  63
ATOM     63  C   UNL A   1      32.640  20.962  25.754  1.00  0.00     0.174 C 
ATOM     64  C   UNL A   1      31.665  22.148  25.655  1.00  0.00     0.035 C 
ATOM     65  N   UNL A   1      32.680  20.170  24.503  1.00  0.00    -0.330 N 
ATOM     66  C   UNL A   1      31.913  22.982  24.410  1.00  0.00     0.004 C 
ATOM     67  C   UNL A   1      32.597  20.860  23.209  1.00  0.00     0.120 C 
ATOM     68  C   UNL A   1      31.727  22.109  23.182  1.00  0.00     0.022 C 
BRANCH  65  69
ATOM     69  C   UNL A   1      32.868  18.789  24.633  1.00  0.00     0.238 C 
ATOM     70  O   UNL A   1      31.964  18.049  25.030  1.00  0.00    -0.273 OA
BRANCH  69  71
ATOM     71  C   UNL A   1      34.238  18.201  24.345  1.00  0.00     0.209 C 
ATOM     72  Cl  UNL A   1      34.084  16.825  23.236  1.00  0.00    -0.116 Cl
ENDBRANCH  69  71
ENDBRANCH  65  69
ENDBRANCH  60  63
ENDBRANCH  58  59
ENDBRANCH  57  58
ENDBRANCH   1  57
TORSDOF 13
ENDMDL
MODEL 2
REMARK VINA RESULT:     -10.3      5.582      9.968
REMARK SMILES O=C(NCCCCNC(=O)[C@H]1CCCCN1C(=O)CCl)c1ccc(-c2c3nc(c(-c4ccccc4)c4ccc([nH]4)c(-c4ccccc4)c4nc(c(-c5ccccc5)c5ccc2[nH]5)C=C4)C=C3)cc1
REMARK SMILES IDX 5 1 4 2 3 3 1 4 2 5 21 7 22 8 68 9 23 10 67 11 24 12 25 13
REMARK SMILES IDX 26 14 61 15 27 16 66 17 60 18 62 19 28 20 65 21 59 22 58 23
REMARK SMILES IDX 29 25 51 26 36 27 50 28 37 29 40 30 49 31 63 32 38 33 39 34
REMARK SMILES IDX 48 36 64 37 41 38 30 39 31 40 35 41 32 42 34 43 33 44 52 45
REMARK SMILES IDX 53 46 57 47 54 48 56 49 55 50 42 51 43 52 47 53 44 54 46 55
REMARK SMILES IDX 45 56 6 57 7 58 8 59 9 60 10 62 11 63 12 64 16 65 13 66
REMARK SMILES IDX 15 67 14 68 17 69 18 70 19 71 20 72
REMARK H PARENT 3 6 62 24 40 35 8 61
REMARK Flexibility Score: inf
ROOT
ATOM      1  C   UNL A   1      31.733  31.663  26.601  1.00  0.00     0.023 C 
ENDROOT
BRANCH   1   2
ATOM      2  C   UNL A   1      32.818  32.473  27.297  1.00  0.00     0.116 C 
BRANCH   2   3
ATOM      3  N   UNL A   1      32.431  33.843  27.608  1.00  0.00    -0.352 N 
ATOM      4  O   UNL A   1      32.572  35.830  28.684  1.00  0.00    -0.269 OA
ATOM      5  C   UNL A   1      33.046  34.721  28.470  1.00  0.00     0.251 C 
ATOM      6  H   UNL A   1      31.632  34.183  27.144  1.00  0.00     0.163 HD
BRANCH   5   7
ATOM      7  C   UNL A   1      34.262  34.273  29.171  1.00  0.00     0.039 A 
ATOM      8  C   UNL A   1      35.515  34.489  28.593  1.00  0.00     0.014 A 
ATOM      9  C   UNL A   1      34.135  33.550  30.357  1.00  0.00     0.014 A 
ATOM     10  C   UNL A   1      36.623  33.834  29.110  1.00  0.00     0.010 A 
ATOM     11  C   UNL A   1      35.268  32.970  30.929  1.00  0.00     0.010 A 
ATOM     12  C   UNL A   1      36.511  33.074  30.286  1.00  0.00    -0.014 A 
BRANCH  12  13
ATOM     13  C   UNL A   1      37.722  32.434  30.847  1.00  0.00     0.031 A 
ATOM     14  C   UNL A   1      38.341  31.232  30.195  1.00  0.00     0.074 A 
ATOM     15  C   UNL A   1      38.280  32.978  31.946  1.00  0.00     0.049 A 
ATOM     16  N   UNL A   1      39.392  30.546  30.568  1.00  0.00    -0.248 NA
ATOM     17  C   UNL A   1      37.701  30.730  28.969  1.00  0.00     0.031 C 
ATOM     18  C   UNL A   1      37.769  34.154  32.655  1.00  0.00     0.029 A 
ATOM     19  N   UNL A   1      39.406  32.632  32.642  1.00  0.00    -0.354 N 
ATOM     20  C   UNL A   1      39.519  29.514  29.647  1.00  0.00     0.074 A 
ATOM     21  C   UNL A   1      38.435  29.657  28.700  1.00  0.00     0.031 C 
ATOM     22  C   UNL A   1      38.608  34.463  33.653  1.00  0.00     0.029 A 
ATOM     23  C   UNL A   1      39.671  33.467  33.698  1.00  0.00     0.049 A 
ATOM     24  H   UNL A   1      39.971  31.860  32.407  1.00  0.00     0.167 HD
ATOM     25  C   UNL A   1      40.455  28.536  29.602  1.00  0.00     0.031 A 
ATOM     26  C   UNL A   1      40.647  33.425  34.620  1.00  0.00     0.031 A 
ATOM     27  C   UNL A   1      41.537  28.406  30.543  1.00  0.00     0.049 A 
ATOM     28  C   UNL A   1      41.655  32.320  34.559  1.00  0.00     0.074 A 
ATOM     29  C   UNL A   1      42.549  27.462  30.569  1.00  0.00     0.029 A 
ATOM     30  N   UNL A   1      41.748  29.249  31.623  1.00  0.00    -0.354 N 
ATOM     31  N   UNL A   1      41.760  31.351  33.682  1.00  0.00    -0.248 NA
ATOM     32  C   UNL A   1      42.673  32.297  35.616  1.00  0.00     0.031 C 
ATOM     33  C   UNL A   1      43.348  27.710  31.692  1.00  0.00     0.029 A 
ATOM     34  C   UNL A   1      42.861  28.835  32.335  1.00  0.00     0.049 A 
ATOM     35  H   UNL A   1      41.188  30.027  31.851  1.00  0.00     0.167 HD
ATOM     36  C   UNL A   1      42.859  30.603  34.078  1.00  0.00     0.074 A 
ATOM     37  C   UNL A   1      43.400  31.246  35.260  1.00  0.00     0.031 C 
ATOM     38  C   UNL A   1      43.372  29.483  33.515  1.00  0.00     0.031 A 
BRANCH  25  39
ATOM     39  C   UNL A   1      40.329  27.503  28.517  1.00  0.00    -0.014 A 
ATOM     40  C   UNL A   1      40.966  27.660  27.276  1.00  0.00     0.009 A 
ATOM     41  C   UNL A   1      39.591  26.332  28.757  1.00  0.00     0.009 A 
ATOM     42  C   UNL A   1      40.843  26.678  26.289  1.00  0.00     0.001 A 
ATOM     43  C   UNL A   1      39.489  25.343  27.778  1.00  0.00     0.001 A 
ATOM     44  C   UNL A   1      40.109  25.520  26.542  1.00  0.00     0.000 A 
ENDBRANCH  25  39
BRANCH  26  45
ATOM     45  C   UNL A   1      40.689  34.457  35.685  1.00  0.00    -0.014 A 
ATOM     46  C   UNL A   1      39.995  34.268  36.889  1.00  0.00     0.009 A 
ATOM     47  C   UNL A   1      41.468  35.615  35.520  1.00  0.00     0.009 A 
ATOM     48  C   UNL A   1      40.076  35.223  37.904  1.00  0.00     0.001 A 
ATOM     49  C   UNL A   1      41.567  36.553  36.548  1.00  0.00     0.001 A 
ATOM     50  C   UNL A   1      40.867  36.359  37.736  1.00  0.00     0.000 A 
ENDBRANCH  26  45
BRANCH  38  51
ATOM     51  C   UNL A   1      44.589  28.900  34.169  1.00  0.00    -0.014 A 
ATOM     52  C   UNL A   1      44.474  27.922  35.169  1.00  0.00     0.009 A 
ATOM     53  C   UNL A   1      45.865  29.320  33.767  1.00  0.00     0.009 A 
ATOM     54  C   UNL A   1      45.616  27.399  35.776  1.00  0.00     0.001 A 
ATOM     55  C   UNL A   1      47.007  28.780  34.360  1.00  0.00     0.001 A 
ATOM     56  C   UNL A   1      46.881  27.827  35.370  1.00  0.00     0.000 A 
ENDBRANCH  38  51
ENDBRANCH  12  13
ENDBRANCH   5   7
ENDBRANCH   2   3
ENDBRANCH   1   2
BRANCH   1  57
ATOM     57  C   UNL A   1      32.031  30.173  26.492  1.00  0.00     0.023 C 
BRANCH  57  58
ATOM     58  C   UNL A   1      31.434  29.476  25.271  1.00  0.00     0.116 C 
BRANCH  58  59
ATOM     59  N   UNL A   1      32.383  29.408  24.186  1.00  0.00    -0.354 N 
ATOM     60  C   UNL A   1      32.333  28.844  22.953  1.00  0.00     0.242 C 
ATOM     61  H   UNL A   1      33.235  29.860  24.378  1.00  0.00     0.163 HD
ATOM     62  O   UNL A   1      33.381  28.945  22.297  1.00  0.00    -0.273 OA
BRANCH  60  63
ATOM     63  C   UNL A   1      31.132  28.040  22.358  1.00  0.00     0.174 C 
ATOM     64  C   UNL A   1      31.518  26.554  22.264  1.00  0.00     0.035 C 
ATOM     65  N   UNL A   1      29.741  28.224  22.832  1.00  0.00    -0.330 N 
ATOM     66  C   UNL A   1      31.204  25.807  23.549  1.00  0.00     0.004 C 
ATOM     67  C   UNL A   1      29.208  27.330  23.867  1.00  0.00     0.120 C 
ATOM     68  C   UNL A   1      29.714  25.895  23.825  1.00  0.00     0.022 C 
BRANCH  65  69
ATOM     69  C   UNL A   1      29.029  29.307  22.302  1.00  0.00     0.238 C 
ATOM     70  O   UNL A   1      29.495  30.006  21.399  1.00  0.00    -0.273 OA
BRANCH  69  71
ATOM     71  C   UNL A   1      27.682  29.669  22.903  1.00  0.00     0.209 C 
ATOM     72  Cl  UNL A   1      27.746  31.302  23.591  1.00  0.00    -0.116 Cl
ENDBRANCH  69  71
ENDBRANCH  65  69
ENDBRANCH  60  63
ENDBRANCH  58  59
ENDBRANCH  57  58
ENDBRANCH   1  57
TORSDOF 13
ENDMDL
MODEL 3
REMARK VINA RESULT:     -10.2      5.766      9.929
REMARK SMILES O=C(NCCCCNC(=O)[C@H]1CCCCN1C(=O)CCl)c1ccc(-c2c3nc(c(-c4ccccc4)c4ccc([nH]4)c(-c4ccccc4)c4nc(c(-c5ccccc5)c5ccc2[nH]5)C=C4)C=C3)cc1
REMARK SMILES IDX 5 1 4 2 3 3 1 4 2 5 21 7 22 8 68 9 23 10 67 11 24 12 25 13
REMARK SMILES IDX 26 14 61 15 27 16 66 17 60 18 62 19 28 20 65 21 59 22 58 23
REMARK SMILES IDX 29 25 51 26 36 27 50 28 37 29 40 30 49 31 63 32 38 33 39 34
REMARK SMILES IDX 48 36 64 37 41 38 30 39 31 40 35 41 32 42 34 43 33 44 52 45
REMARK SMILES IDX 53 46 57 47 54 48 56 49 55 50 42 51 43 52 47 53 44 54 46 55
REMARK SMILES IDX 45 56 6 57 7 58 8 59 9 60 10 62 11 63 12 64 16 65 13 66
REMARK SMILES IDX 15 67 14 68 17 69 18 70 19 71 20 72
REMARK H PARENT 3 6 62 24 40 35 8 61
REMARK Flexibility Score: inf
ROOT
ATOM      1  C   UNL A   1      31.679  31.768  26.852  1.00  0.00     0.023 C 
ENDROOT
BRANCH   1   2
ATOM      2  C   UNL A   1      32.810  32.683  27.297  1.00  0.00     0.116 C 
BRANCH   2   3
ATOM      3  N   UNL A   1      32.382  34.032  27.647  1.00  0.00    -0.352 N 
ATOM      4  O   UNL A   1      32.444  35.979  28.801  1.00  0.00    -0.269 OA
ATOM      5  C   UNL A   1      32.950  34.889  28.560  1.00  0.00     0.251 C 
ATOM      6  H   UNL A   1      31.591  34.372  27.170  1.00  0.00     0.163 HD
BRANCH   5   7
ATOM      7  C   UNL A   1      34.154  34.441  29.283  1.00  0.00     0.039 A 
ATOM      8  C   UNL A   1      35.410  34.575  28.689  1.00  0.00     0.014 A 
ATOM      9  C   UNL A   1      34.007  33.797  30.512  1.00  0.00     0.014 A 
ATOM     10  C   UNL A   1      36.496  33.914  29.241  1.00  0.00     0.010 A 
ATOM     11  C   UNL A   1      35.122  33.212  31.114  1.00  0.00     0.010 A 
ATOM     12  C   UNL A   1      36.364  33.231  30.461  1.00  0.00    -0.014 A 
BRANCH  12  13
ATOM     13  C   UNL A   1      37.555  32.583  31.056  1.00  0.00     0.031 A 
ATOM     14  C   UNL A   1      38.137  33.064  32.354  1.00  0.00     0.074 A 
ATOM     15  C   UNL A   1      38.089  31.524  30.420  1.00  0.00     0.049 A 
ATOM     16  N   UNL A   1      39.184  32.616  32.999  1.00  0.00    -0.248 NA
ATOM     17  C   UNL A   1      37.464  34.196  33.012  1.00  0.00     0.031 C 
ATOM     18  C   UNL A   1      37.596  30.963  29.158  1.00  0.00     0.029 A 
ATOM     19  N   UNL A   1      39.142  30.716  30.754  1.00  0.00    -0.354 N 
ATOM     20  C   UNL A   1      39.317  33.428  34.119  1.00  0.00     0.074 A 
ATOM     21  C   UNL A   1      38.248  34.403  34.063  1.00  0.00     0.031 C 
ATOM     22  C   UNL A   1      38.313  29.872  28.853  1.00  0.00     0.029 A 
ATOM     23  C   UNL A   1      39.357  29.702  29.856  1.00  0.00     0.049 A 
ATOM     24  H   UNL A   1      39.691  30.850  31.561  1.00  0.00     0.167 HD
ATOM     25  C   UNL A   1      40.248  33.365  35.099  1.00  0.00     0.031 A 
ATOM     26  C   UNL A   1      40.305  28.751  29.824  1.00  0.00     0.031 A 
ATOM     27  C   UNL A   1      41.303  32.386  35.153  1.00  0.00     0.049 A 
ATOM     28  C   UNL A   1      41.337  28.718  30.909  1.00  0.00     0.074 A 
ATOM     29  C   UNL A   1      42.283  32.225  36.117  1.00  0.00     0.029 A 
ATOM     30  N   UNL A   1      41.511  31.399  34.202  1.00  0.00    -0.354 N 
ATOM     31  N   UNL A   1      41.448  29.495  31.960  1.00  0.00    -0.248 NA
ATOM     32  C   UNL A   1      42.374  27.686  30.802  1.00  0.00     0.031 C 
ATOM     33  C   UNL A   1      43.111  31.166  35.726  1.00  0.00     0.029 A 
ATOM     34  C   UNL A   1      42.617  30.639  34.544  1.00  0.00     0.049 A 
ATOM     35  H   UNL A   1      40.956  31.260  33.401  1.00  0.00     0.167 HD
ATOM     36  C   UNL A   1      42.567  29.043  32.643  1.00  0.00     0.074 A 
ATOM     37  C   UNL A   1      43.084  27.910  31.900  1.00  0.00     0.031 C 
ATOM     38  C   UNL A   1      43.120  29.525  33.782  1.00  0.00     0.031 A 
BRANCH  25  39
ATOM     39  C   UNL A   1      40.193  34.410  36.179  1.00  0.00    -0.014 A 
ATOM     40  C   UNL A   1      40.898  35.619  36.066  1.00  0.00     0.009 A 
ATOM     41  C   UNL A   1      39.390  34.196  37.310  1.00  0.00     0.009 A 
ATOM     42  C   UNL A   1      40.819  36.579  37.078  1.00  0.00     0.001 A 
ATOM     43  C   UNL A   1      39.295  35.166  38.309  1.00  0.00     0.001 A 
ATOM     44  C   UNL A   1      40.016  36.355  38.196  1.00  0.00     0.000 A 
ENDBRANCH  25  39
BRANCH  26  45
ATOM     45  C   UNL A   1      40.322  27.774  28.707  1.00  0.00    -0.014 A 
ATOM     46  C   UNL A   1      39.652  26.548  28.822  1.00  0.00     0.009 A 
ATOM     47  C   UNL A   1      40.966  28.090  27.500  1.00  0.00     0.009 A 
ATOM     48  C   UNL A   1      39.634  25.653  27.750  1.00  0.00     0.001 A 
ATOM     49  C   UNL A   1      40.923  27.205  26.422  1.00  0.00     0.001 A 
ATOM     50  C   UNL A   1      40.261  25.986  26.550  1.00  0.00     0.000 A 
ENDBRANCH  26  45
BRANCH  38  51
ATOM     51  C   UNL A   1      44.335  28.811  34.294  1.00  0.00    -0.014 A 
ATOM     52  C   UNL A   1      45.624  29.220  33.920  1.00  0.00     0.009 A 
ATOM     53  C   UNL A   1      44.188  27.730  35.175  1.00  0.00     0.009 A 
ATOM     54  C   UNL A   1      46.744  28.536  34.395  1.00  0.00     0.001 A 
ATOM     55  C   UNL A   1      45.311  27.062  35.666  1.00  0.00     0.001 A 
ATOM     56  C   UNL A   1      46.586  27.460  35.269  1.00  0.00     0.000 A 
ENDBRANCH  38  51
ENDBRANCH  12  13
ENDBRANCH   5   7
ENDBRANCH   2   3
ENDBRANCH   1   2
BRANCH   1  57
ATOM     57  C   UNL A   1      32.047  30.290  26.800  1.00  0.00     0.023 C 
BRANCH  57  58
ATOM     58  C   UNL A   1      31.583  29.547  25.548  1.00  0.00     0.116 C 
BRANCH  58  59
ATOM     59  N   UNL A   1      32.605  29.541  24.530  1.00  0.00    -0.354 N 
ATOM     60  C   UNL A   1      32.651  29.028  23.275  1.00  0.00     0.242 C 
ATOM     61  H   UNL A   1      33.432  30.000  24.798  1.00  0.00     0.163 HD
ATOM     62  O   UNL A   1      33.740  29.174  22.697  1.00  0.00    -0.273 OA
BRANCH  60  63
ATOM     63  C   UNL A   1      31.512  28.227  22.567  1.00  0.00     0.174 C 
ATOM     64  C   UNL A   1      31.903  26.740  22.505  1.00  0.00     0.035 C 
ATOM     65  N   UNL A   1      30.082  28.410  22.909  1.00  0.00    -0.330 N 
ATOM     66  C   UNL A   1      31.470  25.989  23.752  1.00  0.00     0.004 C 
ATOM     67  C   UNL A   1      29.453  27.513  23.886  1.00  0.00     0.120 C 
ATOM     68  C   UNL A   1      29.961  26.078  23.887  1.00  0.00     0.022 C 
BRANCH  65  69
ATOM     69  C   UNL A   1      29.424  29.495  22.317  1.00  0.00     0.238 C 
ATOM     70  O   UNL A   1      29.749  29.920  21.206  1.00  0.00    -0.273 OA
BRANCH  69  71
ATOM     71  C   UNL A   1      28.331  30.207  23.095  1.00  0.00     0.209 C 
ATOM     72  Cl  UNL A   1      29.014  31.593  23.967  1.00  0.00    -0.116 Cl
ENDBRANCH  69  71
ENDBRANCH  65  69
ENDBRANCH  60  63
ENDBRANCH  58  59
ENDBRANCH  57  58
ENDBRANCH   1  57
TORSDOF 13
ENDMDL
