MODEL 1
REMARK VINA RESULT:     -12.3      0.000      0.000
REMARK SMILES C[NH+]1CCC2(CC1)OC[C@H](C(=O)NCCCCNC(=O)c1ccc(-c3c4nc(c(-c5ccccc5)c5ccc([nH]5)c(-c5ccccc5)c5nc(c(-c6ccccc6)c6ccc3[nH]6)C=C5)C=C4)cc1)N2C(=O)c1cc(C(F)(F)F)cc(C(F)(F)F)c1
REMARK SMILES IDX 15 1 14 2 13 3 11 4 12 5 10 7 1 8 2 9 3 10 7 11 4 13 6 14
REMARK SMILES IDX 5 15 8 16 69 17 9 18 70 19 71 20 72 21 73 22 85 23 74 24
REMARK SMILES IDX 80 25 79 26 75 27 76 28 77 29 78 30 81 31 82 32 83 33 84 34
REMARK SMILES IDX 16 35 17 36 18 37 19 38 20 40 21 41 22 42 68 43 23 44 67 45
REMARK SMILES IDX 24 46 25 47 26 48 61 49 27 50 66 51 60 52 62 53 28 54 65 55
REMARK SMILES IDX 59 56 58 57 29 59 51 60 36 61 50 62 37 63 40 64 49 65 63 66
REMARK SMILES IDX 38 67 39 68 48 70 64 71 41 72 30 73 31 74 35 75 32 76 34 77
REMARK SMILES IDX 33 78 52 79 53 80 57 81 54 82 56 83 55 84 42 85 43 86 47 87
REMARK SMILES IDX 44 88 46 89 45 90
REMARK H PARENT 13 6 2 12 18 39 62 58 40 69
REMARK Flexibility Score: inf
ROOT
ATOM      1  C   UNL A   1      31.629  30.619  26.125  1.00  0.00     0.023 C 
ENDROOT
BRANCH   1   2
ATOM      2  C   UNL A   1      31.977  29.437  27.030  1.00  0.00     0.116 C 
BRANCH   2   3
ATOM      3  N   UNL A   1      33.057  28.663  26.455  1.00  0.00    -0.354 N 
ATOM      4  C   UNL A   1      33.109  27.315  26.248  1.00  0.00     0.245 C 
ATOM      5  O   UNL A   1      34.230  26.816  26.134  1.00  0.00    -0.273 OA
ATOM      6  H   UNL A   1      33.854  29.173  26.180  1.00  0.00     0.163 HD
BRANCH   4   7
ATOM      7  C   UNL A   1      31.798  26.526  26.065  1.00  0.00     0.203 C 
ATOM      8  C   UNL A   1      32.957  23.123  20.787  1.00  0.00     0.332 C 
ATOM      9  N   UNL A   1      32.873  23.217  22.238  1.00  0.00    -0.337 N 
ATOM     10  C   UNL A   1      33.729  24.281  22.755  1.00  0.00     0.267 C 
ATOM     11  C   UNL A   1      31.507  23.137  22.753  1.00  0.00     0.267 C 
ATOM     12  H   UNL A   1      33.276  22.370  22.640  1.00  0.00     0.347 HD
ATOM     13  C   UNL A   1      33.018  25.570  23.077  1.00  0.00     0.120 C 
ATOM     14  C   UNL A   1      30.842  24.404  23.274  1.00  0.00     0.120 C 
ATOM     15  C   UNL A   1      31.785  25.385  23.965  1.00  0.00     0.155 C 
ATOM     16  O   UNL A   1      31.105  26.682  23.832  1.00  0.00    -0.352 OA
ATOM     17  N   UNL A   1      31.990  25.234  25.431  1.00  0.00    -0.295 N 
ATOM     18  C   UNL A   1      30.878  27.250  25.123  1.00  0.00     0.198 C 
BRANCH  17  19
ATOM     19  C   UNL A   1      32.275  24.203  26.322  1.00  0.00     0.256 C 
ATOM     20  O   UNL A   1      31.692  24.091  27.404  1.00  0.00    -0.269 OA
BRANCH  19  21
ATOM     21  C   UNL A   1      33.227  23.124  26.039  1.00  0.00     0.041 A 
ATOM     22  C   UNL A   1      32.764  21.832  25.756  1.00  0.00     0.027 A 
ATOM     23  C   UNL A   1      34.590  23.350  26.196  1.00  0.00     0.027 A 
ATOM     24  C   UNL A   1      33.680  20.797  25.483  1.00  0.00     0.057 A 
ATOM     25  C   UNL A   1      35.517  22.383  25.787  1.00  0.00     0.057 A 
ATOM     26  C   UNL A   1      35.053  21.101  25.453  1.00  0.00     0.026 A 
BRANCH  24  27
ATOM     27  C   UNL A   1      33.193  19.392  25.216  1.00  0.00     0.416 C 
ATOM     28  F   UNL A   1      32.141  19.363  24.353  1.00  0.00    -0.166 F 
ATOM     29  F   UNL A   1      34.155  18.603  24.667  1.00  0.00    -0.166 F 
ATOM     30  F   UNL A   1      32.773  18.743  26.339  1.00  0.00    -0.166 F 
ENDBRANCH  24  27
BRANCH  25  31
ATOM     31  C   UNL A   1      36.977  22.737  25.624  1.00  0.00     0.416 C 
ATOM     32  F   UNL A   1      37.298  23.912  26.229  1.00  0.00    -0.166 F 
ATOM     33  F   UNL A   1      37.801  21.800  26.173  1.00  0.00    -0.166 F 
ATOM     34  F   UNL A   1      37.368  22.863  24.326  1.00  0.00    -0.166 F 
ENDBRANCH  25  31
ENDBRANCH  19  21
ENDBRANCH  17  19
ENDBRANCH   4   7
ENDBRANCH   2   3
ENDBRANCH   1   2
BRANCH   1  35
ATOM     35  C   UNL A   1      31.382  31.936  26.873  1.00  0.00     0.023 C 
BRANCH  35  36
ATOM     36  C   UNL A   1      32.640  32.712  27.250  1.00  0.00     0.116 C 
BRANCH  36  37
ATOM     37  N   UNL A   1      32.362  34.096  27.596  1.00  0.00    -0.352 N 
ATOM     38  C   UNL A   1      32.983  34.906  28.516  1.00  0.00     0.251 C 
ATOM     39  H   UNL A   1      31.623  34.514  27.097  1.00  0.00     0.163 HD
ATOM     40  O   UNL A   1      32.517  36.007  28.779  1.00  0.00    -0.269 OA
BRANCH  38  41
ATOM     41  C   UNL A   1      34.197  34.431  29.213  1.00  0.00     0.039 A 
ATOM     42  C   UNL A   1      34.056  33.797  30.448  1.00  0.00     0.014 A 
ATOM     43  C   UNL A   1      35.465  34.603  28.651  1.00  0.00     0.014 A 
ATOM     44  C   UNL A   1      35.181  33.277  31.092  1.00  0.00     0.010 A 
ATOM     45  C   UNL A   1      36.574  34.019  29.255  1.00  0.00     0.010 A 
ATOM     46  C   UNL A   1      36.444  33.351  30.483  1.00  0.00    -0.014 A 
BRANCH  46  47
ATOM     47  C   UNL A   1      37.636  32.722  31.108  1.00  0.00     0.031 A 
ATOM     48  C   UNL A   1      38.269  31.508  30.491  1.00  0.00     0.074 A 
ATOM     49  C   UNL A   1      38.104  33.203  32.277  1.00  0.00     0.049 A 
ATOM     50  N   UNL A   1      39.280  30.794  30.921  1.00  0.00    -0.248 NA
ATOM     51  C   UNL A   1      37.674  31.013  29.238  1.00  0.00     0.031 C 
ATOM     52  C   UNL A   1      37.549  34.345  33.006  1.00  0.00     0.029 A 
ATOM     53  N   UNL A   1      39.150  32.783  33.061  1.00  0.00    -0.354 N 
ATOM     54  C   UNL A   1      39.425  29.756  30.008  1.00  0.00     0.074 A 
ATOM     55  C   UNL A   1      38.371  29.906  29.029  1.00  0.00     0.031 C 
ATOM     56  C   UNL A   1      38.272  34.548  34.120  1.00  0.00     0.029 A 
ATOM     57  C   UNL A   1      39.311  33.526  34.205  1.00  0.00     0.049 A 
ATOM     58  H   UNL A   1      39.728  32.021  32.827  1.00  0.00     0.167 HD
ATOM     59  C   UNL A   1      40.358  28.776  29.979  1.00  0.00     0.031 A 
ATOM     60  C   UNL A   1      40.188  33.396  35.219  1.00  0.00     0.031 A 
ATOM     61  C   UNL A   1      41.409  28.631  30.952  1.00  0.00     0.049 A 
ATOM     62  C   UNL A   1      41.213  32.298  35.168  1.00  0.00     0.074 A 
ATOM     63  C   UNL A   1      42.447  27.715  30.969  1.00  0.00     0.029 A 
ATOM     64  N   UNL A   1      41.548  29.414  32.088  1.00  0.00    -0.354 N 
ATOM     65  N   UNL A   1      41.392  31.377  34.252  1.00  0.00    -0.248 NA
ATOM     66  C   UNL A   1      42.166  32.230  36.285  1.00  0.00     0.031 C 
ATOM     67  C   UNL A   1      43.175  27.901  32.150  1.00  0.00     0.029 A 
ATOM     68  C   UNL A   1      42.633  28.979  32.832  1.00  0.00     0.049 A 
ATOM     69  H   UNL A   1      40.963  30.168  32.331  1.00  0.00     0.167 HD
ATOM     70  C   UNL A   1      42.492  30.637  34.669  1.00  0.00     0.074 A 
ATOM     71  C   UNL A   1      42.948  31.227  35.911  1.00  0.00     0.031 C 
ATOM     72  C   UNL A   1      43.072  29.567  34.073  1.00  0.00     0.031 A 
BRANCH  59  73
ATOM     73  C   UNL A   1      40.268  27.765  28.868  1.00  0.00    -0.014 A 
ATOM     74  C   UNL A   1      40.897  27.975  27.630  1.00  0.00     0.009 A 
ATOM     75  C   UNL A   1      39.559  26.570  29.071  1.00  0.00     0.009 A 
ATOM     76  C   UNL A   1      40.779  27.034  26.605  1.00  0.00     0.001 A 
ATOM     77  C   UNL A   1      39.472  25.614  28.057  1.00  0.00     0.001 A 
ATOM     78  C   UNL A   1      40.070  25.853  26.821  1.00  0.00     0.000 A 
ENDBRANCH  59  73
BRANCH  60  79
ATOM     79  C   UNL A   1      40.134  34.339  36.366  1.00  0.00    -0.014 A 
ATOM     80  C   UNL A   1      40.791  35.578  36.307  1.00  0.00     0.009 A 
ATOM     81  C   UNL A   1      39.410  34.012  37.523  1.00  0.00     0.009 A 
ATOM     82  C   UNL A   1      40.739  36.459  37.390  1.00  0.00     0.001 A 
ATOM     83  C   UNL A   1      39.334  34.907  38.592  1.00  0.00     0.001 A 
ATOM     84  C   UNL A   1      40.007  36.126  38.528  1.00  0.00     0.000 A 
ENDBRANCH  60  79
BRANCH  72  85
ATOM     85  C   UNL A   1      44.286  28.980  34.738  1.00  0.00    -0.014 A 
ATOM     86  C   UNL A   1      44.179  27.923  35.656  1.00  0.00     0.009 A 
ATOM     87  C   UNL A   1      45.561  29.465  34.408  1.00  0.00     0.009 A 
ATOM     88  C   UNL A   1      45.323  27.387  36.253  1.00  0.00     0.001 A 
ATOM     89  C   UNL A   1      46.704  28.907  34.981  1.00  0.00     0.001 A 
ATOM     90  C   UNL A   1      46.584  27.876  35.910  1.00  0.00     0.000 A 
ENDBRANCH  72  85
ENDBRANCH  46  47
ENDBRANCH  38  41
ENDBRANCH  36  37
ENDBRANCH  35  36
ENDBRANCH   1  35
TORSDOF 15
ENDMDL
MODEL 2
REMARK VINA RESULT:     -12.2      0.328      5.603
REMARK SMILES C[NH+]1CCC2(CC1)OC[C@H](C(=O)NCCCCNC(=O)c1ccc(-c3c4nc(c(-c5ccccc5)c5ccc([nH]5)c(-c5ccccc5)c5nc(c(-c6ccccc6)c6ccc3[nH]6)C=C5)C=C4)cc1)N2C(=O)c1cc(C(F)(F)F)cc(C(F)(F)F)c1
REMARK SMILES IDX 15 1 14 2 13 3 11 4 12 5 10 7 1 8 2 9 3 10 7 11 4 13 6 14
REMARK SMILES IDX 5 15 8 16 69 17 9 18 70 19 71 20 72 21 73 22 85 23 74 24
REMARK SMILES IDX 80 25 79 26 75 27 76 28 77 29 78 30 81 31 82 32 83 33 84 34
REMARK SMILES IDX 16 35 17 36 18 37 19 38 20 40 21 41 22 42 68 43 23 44 67 45
REMARK SMILES IDX 24 46 25 47 26 48 61 49 27 50 66 51 60 52 62 53 28 54 65 55
REMARK SMILES IDX 59 56 58 57 29 59 51 60 36 61 50 62 37 63 40 64 49 65 63 66
REMARK SMILES IDX 38 67 39 68 48 70 64 71 41 72 30 73 31 74 35 75 32 76 34 77
REMARK SMILES IDX 33 78 52 79 53 80 57 81 54 82 56 83 55 84 42 85 43 86 47 87
REMARK SMILES IDX 44 88 46 89 45 90
REMARK H PARENT 13 6 2 12 18 39 62 58 40 69
REMARK Flexibility Score: inf
ROOT
ATOM      1  C   UNL A   1      31.497  30.768  25.912  1.00  0.00     0.023 C 
ENDROOT
BRANCH   1   2
ATOM      2  C   UNL A   1      31.851  29.595  26.825  1.00  0.00     0.116 C 
BRANCH   2   3
ATOM      3  N   UNL A   1      32.946  28.832  26.263  1.00  0.00    -0.354 N 
ATOM      4  C   UNL A   1      33.031  27.480  26.092  1.00  0.00     0.245 C 
ATOM      5  O   UNL A   1      34.163  27.007  25.983  1.00  0.00    -0.273 OA
ATOM      6  H   UNL A   1      33.728  29.354  25.967  1.00  0.00     0.163 HD
BRANCH   4   7
ATOM      7  C   UNL A   1      31.738  26.654  25.942  1.00  0.00     0.203 C 
ATOM      8  C   UNL A   1      32.910  23.200  20.699  1.00  0.00     0.332 C 
ATOM      9  N   UNL A   1      32.845  23.314  22.151  1.00  0.00    -0.337 N 
ATOM     10  C   UNL A   1      33.680  24.409  22.638  1.00  0.00     0.267 C 
ATOM     11  C   UNL A   1      31.489  23.207  22.687  1.00  0.00     0.267 C 
ATOM     12  H   UNL A   1      33.276  22.485  22.559  1.00  0.00     0.347 HD
ATOM     13  C   UNL A   1      32.940  25.684  22.950  1.00  0.00     0.120 C 
ATOM     14  C   UNL A   1      30.798  24.464  23.199  1.00  0.00     0.120 C 
ATOM     15  C   UNL A   1      31.725  25.481  23.860  1.00  0.00     0.155 C 
ATOM     16  O   UNL A   1      31.009  26.757  23.718  1.00  0.00    -0.352 OA
ATOM     17  N   UNL A   1      31.956  25.358  25.324  1.00  0.00    -0.295 N 
ATOM     18  C   UNL A   1      30.786  27.338  25.002  1.00  0.00     0.198 C 
BRANCH  17  19
ATOM     19  C   UNL A   1      32.281  24.349  26.227  1.00  0.00     0.256 C 
ATOM     20  O   UNL A   1      31.694  24.218  27.305  1.00  0.00    -0.269 OA
BRANCH  19  21
ATOM     21  C   UNL A   1      33.287  23.315  25.963  1.00  0.00     0.041 A 
ATOM     22  C   UNL A   1      32.889  22.012  25.634  1.00  0.00     0.027 A 
ATOM     23  C   UNL A   1      34.633  23.591  26.180  1.00  0.00     0.027 A 
ATOM     24  C   UNL A   1      33.856  21.021  25.378  1.00  0.00     0.057 A 
ATOM     25  C   UNL A   1      35.614  22.671  25.792  1.00  0.00     0.057 A 
ATOM     26  C   UNL A   1      35.216  21.379  25.412  1.00  0.00     0.026 A 
BRANCH  24  27
ATOM     27  C   UNL A   1      33.437  19.604  25.063  1.00  0.00     0.416 C 
ATOM     28  F   UNL A   1      32.886  18.975  26.136  1.00  0.00    -0.166 F 
ATOM     29  F   UNL A   1      32.508  19.544  24.070  1.00  0.00    -0.166 F 
ATOM     30  F   UNL A   1      34.470  18.813  24.656  1.00  0.00    -0.166 F 
ENDBRANCH  24  27
BRANCH  25  31
ATOM     31  C   UNL A   1      37.064  23.086  25.697  1.00  0.00     0.416 C 
ATOM     32  F   UNL A   1      37.917  22.066  25.988  1.00  0.00    -0.166 F 
ATOM     33  F   UNL A   1      37.401  23.506  24.445  1.00  0.00    -0.166 F 
ATOM     34  F   UNL A   1      37.397  24.105  26.536  1.00  0.00    -0.166 F 
ENDBRANCH  25  31
ENDBRANCH  19  21
ENDBRANCH  17  19
ENDBRANCH   4   7
ENDBRANCH   2   3
ENDBRANCH   1   2
BRANCH   1  35
ATOM     35  C   UNL A   1      31.258  32.092  26.651  1.00  0.00     0.023 C 
BRANCH  35  36
ATOM     36  C   UNL A   1      32.508  32.740  27.238  1.00  0.00     0.116 C 
BRANCH  36  37
ATOM     37  N   UNL A   1      32.292  34.125  27.625  1.00  0.00    -0.352 N 
ATOM     38  C   UNL A   1      32.944  34.877  28.574  1.00  0.00     0.251 C 
ATOM     39  H   UNL A   1      31.576  34.591  27.137  1.00  0.00     0.163 HD
ATOM     40  O   UNL A   1      32.528  35.989  28.869  1.00  0.00    -0.269 OA
BRANCH  38  41
ATOM     41  C   UNL A   1      34.131  34.324  29.261  1.00  0.00     0.039 A 
ATOM     42  C   UNL A   1      33.946  33.596  30.437  1.00  0.00     0.014 A 
ATOM     43  C   UNL A   1      35.416  34.516  28.747  1.00  0.00     0.014 A 
ATOM     44  C   UNL A   1      35.044  33.005  31.066  1.00  0.00     0.010 A 
ATOM     45  C   UNL A   1      36.499  33.865  29.331  1.00  0.00     0.010 A 
ATOM     46  C   UNL A   1      36.325  33.104  30.497  1.00  0.00    -0.014 A 
BRANCH  46  47
ATOM     47  C   UNL A   1      37.488  32.404  31.100  1.00  0.00     0.031 A 
ATOM     48  C   UNL A   1      38.098  32.903  32.379  1.00  0.00     0.074 A 
ATOM     49  C   UNL A   1      38.042  31.359  30.455  1.00  0.00     0.049 A 
ATOM     50  N   UNL A   1      39.145  32.455  33.026  1.00  0.00    -0.248 NA
ATOM     51  C   UNL A   1      37.466  34.078  33.002  1.00  0.00     0.031 C 
ATOM     52  C   UNL A   1      37.577  30.806  29.181  1.00  0.00     0.029 A 
ATOM     53  N   UNL A   1      39.125  30.580  30.780  1.00  0.00    -0.354 N 
ATOM     54  C   UNL A   1      39.310  33.303  34.113  1.00  0.00     0.074 A 
ATOM     55  C   UNL A   1      38.286  34.320  34.013  1.00  0.00     0.031 C 
ATOM     56  C   UNL A   1      38.356  29.766  28.843  1.00  0.00     0.029 A 
ATOM     57  C   UNL A   1      39.399  29.606  29.851  1.00  0.00     0.049 A 
ATOM     58  H   UNL A   1      39.656  30.709  31.599  1.00  0.00     0.167 HD
ATOM     59  C   UNL A   1      40.222  33.235  35.112  1.00  0.00     0.031 A 
ATOM     60  C   UNL A   1      40.387  28.691  29.806  1.00  0.00     0.031 A 
ATOM     61  C   UNL A   1      41.237  32.220  35.212  1.00  0.00     0.049 A 
ATOM     62  C   UNL A   1      41.390  28.636  30.923  1.00  0.00     0.074 A 
ATOM     63  C   UNL A   1      42.160  32.022  36.224  1.00  0.00     0.029 A 
ATOM     64  N   UNL A   1      41.473  31.240  34.259  1.00  0.00    -0.354 N 
ATOM     65  N   UNL A   1      41.480  29.392  31.991  1.00  0.00    -0.248 NA
ATOM     66  C   UNL A   1      42.422  27.593  30.835  1.00  0.00     0.031 C 
ATOM     67  C   UNL A   1      42.997  30.964  35.852  1.00  0.00     0.029 A 
ATOM     68  C   UNL A   1      42.549  30.458  34.643  1.00  0.00     0.049 A 
ATOM     69  H   UNL A   1      40.951  31.119  33.433  1.00  0.00     0.167 HD
ATOM     70  C   UNL A   1      42.559  28.900  32.714  1.00  0.00     0.074 A 
ATOM     71  C   UNL A   1      43.082  27.771  31.971  1.00  0.00     0.031 C 
ATOM     72  C   UNL A   1      43.068  29.343  33.890  1.00  0.00     0.031 A 
BRANCH  59  73
ATOM     73  C   UNL A   1      40.175  34.308  36.167  1.00  0.00    -0.014 A 
ATOM     74  C   UNL A   1      39.371  34.180  37.311  1.00  0.00     0.009 A 
ATOM     75  C   UNL A   1      40.969  35.457  36.024  1.00  0.00     0.009 A 
ATOM     76  C   UNL A   1      39.327  35.199  38.265  1.00  0.00     0.001 A 
ATOM     77  C   UNL A   1      40.950  36.459  36.996  1.00  0.00     0.001 A 
ATOM     78  C   UNL A   1      40.119  36.336  38.108  1.00  0.00     0.000 A 
ENDBRANCH  59  73
BRANCH  60  79
ATOM     79  C   UNL A   1      40.467  27.749  28.659  1.00  0.00    -0.014 A 
ATOM     80  C   UNL A   1      41.140  28.109  27.482  1.00  0.00     0.009 A 
ATOM     81  C   UNL A   1      39.884  26.475  28.743  1.00  0.00     0.009 A 
ATOM     82  C   UNL A   1      41.210  27.222  26.406  1.00  0.00     0.001 A 
ATOM     83  C   UNL A   1      39.980  25.578  27.677  1.00  0.00     0.001 A 
ATOM     84  C   UNL A   1      40.635  25.955  26.506  1.00  0.00     0.000 A 
ENDBRANCH  60  79
BRANCH  72  85
ATOM     85  C   UNL A   1      44.234  28.587  34.466  1.00  0.00    -0.014 A 
ATOM     86  C   UNL A   1      45.559  28.962  34.189  1.00  0.00     0.009 A 
ATOM     87  C   UNL A   1      44.001  27.510  35.335  1.00  0.00     0.009 A 
ATOM     88  C   UNL A   1      46.625  28.251  34.745  1.00  0.00     0.001 A 
ATOM     89  C   UNL A   1      45.068  26.822  35.914  1.00  0.00     0.001 A 
ATOM     90  C   UNL A   1      46.378  27.186  35.611  1.00  0.00     0.000 A 
ENDBRANCH  72  85
ENDBRANCH  46  47
ENDBRANCH  38  41
ENDBRANCH  36  37
ENDBRANCH  35  36
ENDBRANCH   1  35
TORSDOF 15
ENDMDL
MODEL 3
REMARK VINA RESULT:     -11.9      4.878      9.293
REMARK SMILES C[NH+]1CCC2(CC1)OC[C@H](C(=O)NCCCCNC(=O)c1ccc(-c3c4nc(c(-c5ccccc5)c5ccc([nH]5)c(-c5ccccc5)c5nc(c(-c6ccccc6)c6ccc3[nH]6)C=C5)C=C4)cc1)N2C(=O)c1cc(C(F)(F)F)cc(C(F)(F)F)c1
REMARK SMILES IDX 15 1 14 2 13 3 11 4 12 5 10 7 1 8 2 9 3 10 7 11 4 13 6 14
REMARK SMILES IDX 5 15 8 16 69 17 9 18 70 19 71 20 72 21 73 22 85 23 74 24
REMARK SMILES IDX 80 25 79 26 75 27 76 28 77 29 78 30 81 31 82 32 83 33 84 34
REMARK SMILES IDX 16 35 17 36 18 37 19 38 20 40 21 41 22 42 68 43 23 44 67 45
REMARK SMILES IDX 24 46 25 47 26 48 61 49 27 50 66 51 60 52 62 53 28 54 65 55
REMARK SMILES IDX 59 56 58 57 29 59 51 60 36 61 50 62 37 63 40 64 49 65 63 66
REMARK SMILES IDX 38 67 39 68 48 70 64 71 41 72 30 73 31 74 35 75 32 76 34 77
REMARK SMILES IDX 33 78 52 79 53 80 57 81 54 82 56 83 55 84 42 85 43 86 47 87
REMARK SMILES IDX 44 88 46 89 45 90
REMARK H PARENT 13 6 2 12 18 39 62 58 40 69
REMARK Flexibility Score: inf
ROOT
ATOM      1  C   UNL A   1      39.633  21.528  26.109  1.00  0.00     0.023 C 
ENDROOT
BRANCH   1   2
ATOM      2  C   UNL A   1      38.304  21.764  25.392  1.00  0.00     0.116 C 
BRANCH   2   3
ATOM      3  N   UNL A   1      37.463  22.650  26.168  1.00  0.00    -0.354 N 
ATOM      4  C   UNL A   1      36.310  23.271  25.780  1.00  0.00     0.245 C 
ATOM      5  O   UNL A   1      35.978  24.269  26.422  1.00  0.00    -0.273 OA
ATOM      6  H   UNL A   1      37.758  22.826  27.091  1.00  0.00     0.163 HD
BRANCH   4   7
ATOM      7  C   UNL A   1      35.454  22.648  24.660  1.00  0.00     0.203 C 
ATOM      8  C   UNL A   1      29.564  22.914  27.114  1.00  0.00     0.332 C 
ATOM      9  N   UNL A   1      30.593  23.452  26.233  1.00  0.00    -0.337 N 
ATOM     10  C   UNL A   1      31.821  23.749  26.965  1.00  0.00     0.267 C 
ATOM     11  C   UNL A   1      30.718  22.729  24.968  1.00  0.00     0.267 C 
ATOM     12  H   UNL A   1      30.287  24.366  25.899  1.00  0.00     0.347 HD
ATOM     13  C   UNL A   1      32.899  22.702  26.852  1.00  0.00     0.120 C 
ATOM     14  C   UNL A   1      31.918  21.815  24.757  1.00  0.00     0.120 C 
ATOM     15  C   UNL A   1      33.212  22.297  25.408  1.00  0.00     0.155 C 
ATOM     16  O   UNL A   1      33.996  21.067  25.590  1.00  0.00    -0.352 OA
ATOM     17  N   UNL A   1      34.104  23.179  24.609  1.00  0.00    -0.295 N 
ATOM     18  C   UNL A   1      35.248  21.181  24.913  1.00  0.00     0.198 C 
BRANCH  17  19
ATOM     19  C   UNL A   1      33.975  24.321  23.823  1.00  0.00     0.256 C 
ATOM     20  O   UNL A   1      34.402  24.374  22.666  1.00  0.00    -0.269 OA
BRANCH  19  21
ATOM     21  C   UNL A   1      33.271  25.533  24.258  1.00  0.00     0.041 A 
ATOM     22  C   UNL A   1      33.851  26.381  25.210  1.00  0.00     0.027 A 
ATOM     23  C   UNL A   1      31.967  25.761  23.833  1.00  0.00     0.027 A 
ATOM     24  C   UNL A   1      33.175  27.544  25.625  1.00  0.00     0.057 A 
ATOM     25  C   UNL A   1      31.336  26.979  24.114  1.00  0.00     0.057 A 
ATOM     26  C   UNL A   1      31.940  27.857  25.029  1.00  0.00     0.026 A 
BRANCH  24  27
ATOM     27  C   UNL A   1      33.774  28.444  26.681  1.00  0.00     0.416 C 
ATOM     28  F   UNL A   1      33.176  28.289  27.893  1.00  0.00    -0.166 F 
ATOM     29  F   UNL A   1      35.099  28.206  26.878  1.00  0.00    -0.166 F 
ATOM     30  F   UNL A   1      33.673  29.770  26.381  1.00  0.00    -0.166 F 
ENDBRANCH  24  27
BRANCH  25  31
ATOM     31  C   UNL A   1      30.078  27.382  23.380  1.00  0.00     0.416 C 
ATOM     32  F   UNL A   1      29.059  26.502  23.574  1.00  0.00    -0.166 F 
ATOM     33  F   UNL A   1      29.605  28.593  23.791  1.00  0.00    -0.166 F 
ATOM     34  F   UNL A   1      30.239  27.481  22.032  1.00  0.00    -0.166 F 
ENDBRANCH  25  31
ENDBRANCH  19  21
ENDBRANCH  17  19
ENDBRANCH   4   7
ENDBRANCH   2   3
ENDBRANCH   1   2
BRANCH   1  35
ATOM     35  C   UNL A   1      40.123  20.074  26.069  1.00  0.00     0.023 C 
BRANCH  35  36
ATOM     36  C   UNL A   1      41.454  19.820  26.770  1.00  0.00     0.116 C 
BRANCH  36  37
ATOM     37  N   UNL A   1      42.556  19.654  25.838  1.00  0.00    -0.352 N 
ATOM     38  C   UNL A   1      43.415  20.598  25.325  1.00  0.00     0.251 C 
ATOM     39  H   UNL A   1      42.711  18.732  25.529  1.00  0.00     0.163 HD
ATOM     40  O   UNL A   1      44.196  20.298  24.433  1.00  0.00    -0.269 OA
BRANCH  38  41
ATOM     41  C   UNL A   1      43.368  21.986  25.834  1.00  0.00     0.039 A 
ATOM     42  C   UNL A   1      43.542  22.204  27.202  1.00  0.00     0.014 A 
ATOM     43  C   UNL A   1      43.162  23.064  24.970  1.00  0.00     0.014 A 
ATOM     44  C   UNL A   1      43.573  23.510  27.696  1.00  0.00     0.010 A 
ATOM     45  C   UNL A   1      43.268  24.366  25.451  1.00  0.00     0.010 A 
ATOM     46  C   UNL A   1      43.473  24.603  26.819  1.00  0.00    -0.014 A 
BRANCH  46  47
ATOM     47  C   UNL A   1      43.597  25.997  27.315  1.00  0.00     0.031 A 
ATOM     48  C   UNL A   1      44.947  26.643  27.446  1.00  0.00     0.074 A 
ATOM     49  C   UNL A   1      42.494  26.659  27.718  1.00  0.00     0.049 A 
ATOM     50  N   UNL A   1      45.255  27.829  27.907  1.00  0.00    -0.248 NA
ATOM     51  C   UNL A   1      46.109  25.840  27.029  1.00  0.00     0.031 C 
ATOM     52  C   UNL A   1      41.130  26.129  27.689  1.00  0.00     0.029 A 
ATOM     53  N   UNL A   1      42.350  27.921  28.239  1.00  0.00    -0.354 N 
ATOM     54  C   UNL A   1      46.641  27.906  27.859  1.00  0.00     0.074 A 
ATOM     55  C   UNL A   1      47.117  26.631  27.369  1.00  0.00     0.031 C 
ATOM     56  C   UNL A   1      40.286  27.065  28.152  1.00  0.00     0.029 A 
ATOM     57  C   UNL A   1      41.051  28.242  28.550  1.00  0.00     0.049 A 
ATOM     58  H   UNL A   1      43.106  28.536  28.379  1.00  0.00     0.167 HD
ATOM     59  C   UNL A   1      47.445  28.947  28.179  1.00  0.00     0.031 A 
ATOM     60  C   UNL A   1      40.531  29.354  29.104  1.00  0.00     0.031 A 
ATOM     61  C   UNL A   1      46.970  30.217  28.663  1.00  0.00     0.049 A 
ATOM     62  C   UNL A   1      41.443  30.496  29.456  1.00  0.00     0.074 A 
ATOM     63  C   UNL A   1      47.700  31.359  28.944  1.00  0.00     0.029 A 
ATOM     64  N   UNL A   1      45.645  30.508  28.949  1.00  0.00    -0.354 N 
ATOM     65  N   UNL A   1      42.744  30.585  29.321  1.00  0.00    -0.248 NA
ATOM     66  C   UNL A   1      40.812  31.695  30.024  1.00  0.00     0.031 C 
ATOM     67  C   UNL A   1      46.825  32.319  29.465  1.00  0.00     0.029 A 
ATOM     68  C   UNL A   1      45.541  31.800  29.438  1.00  0.00     0.049 A 
ATOM     69  H   UNL A   1      44.890  29.889  28.822  1.00  0.00     0.167 HD
ATOM     70  C   UNL A   1      43.084  31.858  29.763  1.00  0.00     0.074 A 
ATOM     71  C   UNL A   1      41.850  32.509  30.154  1.00  0.00     0.031 C 
ATOM     72  C   UNL A   1      44.308  32.435  29.835  1.00  0.00     0.031 A 
BRANCH  59  73
ATOM     73  C   UNL A   1      48.930  28.745  28.039  1.00  0.00    -0.014 A 
ATOM     74  C   UNL A   1      49.597  29.006  26.831  1.00  0.00     0.009 A 
ATOM     75  C   UNL A   1      49.679  28.308  29.143  1.00  0.00     0.009 A 
ATOM     76  C   UNL A   1      50.972  28.788  26.718  1.00  0.00     0.001 A 
ATOM     77  C   UNL A   1      51.059  28.124  29.038  1.00  0.00     0.001 A 
ATOM     78  C   UNL A   1      51.702  28.351  27.822  1.00  0.00     0.000 A 
ENDBRANCH  59  73
BRANCH  60  79
ATOM     79  C   UNL A   1      39.069  29.438  29.355  1.00  0.00    -0.014 A 
ATOM     80  C   UNL A   1      38.527  29.024  30.581  1.00  0.00     0.009 A 
ATOM     81  C   UNL A   1      38.206  29.949  28.372  1.00  0.00     0.009 A 
ATOM     82  C   UNL A   1      37.151  29.102  30.811  1.00  0.00     0.001 A 
ATOM     83  C   UNL A   1      36.835  30.054  28.614  1.00  0.00     0.001 A 
ATOM     84  C   UNL A   1      36.308  29.622  29.830  1.00  0.00     0.000 A 
ENDBRANCH  60  79
BRANCH  72  85
ATOM     85  C   UNL A   1      44.375  33.854  30.327  1.00  0.00    -0.014 A 
ATOM     86  C   UNL A   1      44.561  34.151  31.686  1.00  0.00     0.009 A 
ATOM     87  C   UNL A   1      44.294  34.911  29.407  1.00  0.00     0.009 A 
ATOM     88  C   UNL A   1      44.631  35.478  32.117  1.00  0.00     0.001 A 
ATOM     89  C   UNL A   1      44.397  36.235  29.835  1.00  0.00     0.001 A 
ATOM     90  C   UNL A   1      44.555  36.518  31.190  1.00  0.00     0.000 A 
ENDBRANCH  72  85
ENDBRANCH  46  47
ENDBRANCH  38  41
ENDBRANCH  36  37
ENDBRANCH  35  36
ENDBRANCH   1  35
TORSDOF 15
ENDMDL
