MODEL 1
REMARK VINA RESULT:     -11.4      0.000      0.000
REMARK SMILES Cc1ccc(NS(=O)(=O)N2CCCC[C@@H]2C(=O)NCCCCNC(=O)c2ccc(-c3c4nc(c(-c5ccccc5)c5ccc([nH]5)c(-c5ccccc5)c5nc(c(-c6ccccc6)c6ccc3[nH]6)C=C5)C=C4)cc2)c(C)n1
REMARK SMILES IDX 20 1 19 2 18 3 16 4 17 5 15 7 10 8 11 9 12 10 14 11 13 12
REMARK SMILES IDX 7 13 8 14 9 15 6 16 5 18 1 19 2 20 3 21 76 22 4 23 74 24
REMARK SMILES IDX 75 25 21 26 22 27 23 28 24 29 25 31 26 32 27 33 73 34 28 35
REMARK SMILES IDX 72 36 29 37 30 38 31 39 66 40 32 41 71 42 65 43 67 44 33 45
REMARK SMILES IDX 70 46 64 47 63 48 34 50 56 51 41 52 55 53 42 54 45 55 54 56
REMARK SMILES IDX 68 57 43 58 44 59 53 61 69 62 46 63 35 64 36 65 40 66 37 67
REMARK SMILES IDX 39 68 38 69 57 70 58 71 62 72 59 73 61 74 60 75 47 76 48 77
REMARK SMILES IDX 52 78 49 79 51 80 50 81
REMARK H PARENT 18 6 6 17 23 30 67 49 45 60
REMARK Flexibility Score: inf
ROOT
ATOM      1  C   UNL A   1      35.302  29.723  27.341  1.00  0.00     0.023 C 
ENDROOT
BRANCH   1   2
ATOM      2  C   UNL A   1      34.244  28.697  26.788  1.00  0.00     0.116 C 
BRANCH   2   3
ATOM      3  N   UNL A   1      33.023  28.472  27.554  1.00  0.00    -0.355 N 
ATOM      4  C   UNL A   1      31.744  28.095  27.214  1.00  0.00     0.238 C 
ATOM      5  O   UNL A   1      31.027  27.866  28.202  1.00  0.00    -0.273 OA
ATOM      6  H   UNL A   1      33.138  28.622  28.520  1.00  0.00     0.163 HD
BRANCH   4   7
ATOM      7  C   UNL A   1      31.134  27.939  25.778  1.00  0.00     0.163 C 
ATOM      8  N   UNL A   1      31.380  26.620  25.050  1.00  0.00    -0.172 NA
ATOM      9  C   UNL A   1      30.756  26.591  23.679  1.00  0.00     0.105 C 
ATOM     10  C   UNL A   1      31.278  27.728  22.828  1.00  0.00     0.017 C 
ATOM     11  C   UNL A   1      31.414  29.145  24.858  1.00  0.00     0.030 C 
ATOM     12  C   UNL A   1      30.830  29.033  23.450  1.00  0.00     0.004 C 
BRANCH   8  13
ATOM     13  S   UNL A   1      30.952  25.176  25.880  1.00  0.00     0.302 S 
ATOM     14  O   UNL A   1      29.653  25.369  26.496  1.00  0.00    -0.189 OA
ATOM     15  O   UNL A   1      32.059  24.753  26.695  1.00  0.00    -0.189 OA
BRANCH  13  16
ATOM     16  N   UNL A   1      30.719  24.053  24.677  1.00  0.00    -0.269 N 
ATOM     17  H   UNL A   1      29.906  24.102  24.124  1.00  0.00     0.181 HD
BRANCH  16  18
ATOM     18  C   UNL A   1      31.669  23.018  24.426  1.00  0.00     0.071 A 
ATOM     19  C   UNL A   1      35.005  20.600  24.988  1.00  0.00     0.067 C 
ATOM     20  C   UNL A   1      33.665  21.150  24.608  1.00  0.00     0.038 A 
ATOM     21  C   UNL A   1      32.430  20.871  25.182  1.00  0.00     0.026 A 
ATOM     22  N   UNL A   1      33.796  22.148  23.742  1.00  0.00    -0.256 NA
ATOM     23  C   UNL A   1      31.419  21.821  25.088  1.00  0.00     0.030 A 
ATOM     24  C   UNL A   1      32.826  23.079  23.646  1.00  0.00     0.062 A 
ATOM     25  C   UNL A   1      33.303  24.170  22.765  1.00  0.00     0.069 C 
ENDBRANCH  16  18
ENDBRANCH  13  16
ENDBRANCH   8  13
ENDBRANCH   4   7
ENDBRANCH   2   3
ENDBRANCH   1   2
BRANCH   1  26
ATOM     26  C   UNL A   1      34.951  31.203  27.639  1.00  0.00     0.023 C 
BRANCH  26  27
ATOM     27  C   UNL A   1      33.482  31.728  27.816  1.00  0.00     0.116 C 
BRANCH  27  28
ATOM     28  N   UNL A   1      33.199  33.150  27.673  1.00  0.00    -0.352 N 
ATOM     29  C   UNL A   1      33.314  34.189  28.566  1.00  0.00     0.251 C 
ATOM     30  H   UNL A   1      32.867  33.411  26.783  1.00  0.00     0.163 HD
ATOM     31  O   UNL A   1      32.763  35.269  28.415  1.00  0.00    -0.269 OA
BRANCH  29  32
ATOM     32  C   UNL A   1      34.356  34.034  29.565  1.00  0.00     0.039 A 
ATOM     33  C   UNL A   1      34.096  33.411  30.778  1.00  0.00     0.014 A 
ATOM     34  C   UNL A   1      35.640  34.394  29.150  1.00  0.00     0.014 A 
ATOM     35  C   UNL A   1      35.182  33.005  31.536  1.00  0.00     0.010 A 
ATOM     36  C   UNL A   1      36.711  33.896  29.848  1.00  0.00     0.010 A 
ATOM     37  C   UNL A   1      36.483  33.181  31.032  1.00  0.00    -0.014 A 
BRANCH  37  38
ATOM     38  C   UNL A   1      37.649  32.590  31.701  1.00  0.00     0.031 A 
ATOM     39  C   UNL A   1      38.343  31.434  31.055  1.00  0.00     0.074 A 
ATOM     40  C   UNL A   1      37.970  33.025  32.933  1.00  0.00     0.049 A 
ATOM     41  N   UNL A   1      39.324  30.707  31.512  1.00  0.00    -0.248 NA
ATOM     42  C   UNL A   1      37.823  31.003  29.745  1.00  0.00     0.031 C 
ATOM     43  C   UNL A   1      37.286  34.097  33.664  1.00  0.00     0.029 A 
ATOM     44  N   UNL A   1      38.957  32.620  33.787  1.00  0.00    -0.354 N 
ATOM     45  C   UNL A   1      39.517  29.717  30.560  1.00  0.00     0.074 A 
ATOM     46  C   UNL A   1      38.497  29.883  29.551  1.00  0.00     0.031 C 
ATOM     47  C   UNL A   1      37.919  34.308  34.829  1.00  0.00     0.029 A 
ATOM     48  C   UNL A   1      39.018  33.359  34.942  1.00  0.00     0.049 A 
ATOM     49  H   UNL A   1      39.566  31.871  33.592  1.00  0.00     0.167 HD
ATOM     50  C   UNL A   1      40.485  28.775  30.519  1.00  0.00     0.031 A 
ATOM     51  C   UNL A   1      39.886  33.279  35.966  1.00  0.00     0.031 A 
ATOM     52  C   UNL A   1      41.495  28.652  31.531  1.00  0.00     0.049 A 
ATOM     53  C   UNL A   1      40.968  32.240  35.892  1.00  0.00     0.074 A 
ATOM     54  C   UNL A   1      42.574  27.792  31.581  1.00  0.00     0.029 A 
ATOM     55  N   UNL A   1      41.542  29.429  32.683  1.00  0.00    -0.354 N 
ATOM     56  N   UNL A   1      41.202  31.358  34.947  1.00  0.00    -0.248 NA
ATOM     57  C   UNL A   1      41.913  32.192  37.012  1.00  0.00     0.031 C 
ATOM     58  C   UNL A   1      43.246  28.015  32.787  1.00  0.00     0.029 A 
ATOM     59  C   UNL A   1      42.621  29.057  33.461  1.00  0.00     0.049 A 
ATOM     60  H   UNL A   1      40.901  30.142  32.910  1.00  0.00     0.167 HD
ATOM     61  C   UNL A   1      42.341  30.671  35.343  1.00  0.00     0.074 A 
ATOM     62  C   UNL A   1      42.751  31.248  36.609  1.00  0.00     0.031 C 
ATOM     63  C   UNL A   1      42.994  29.660  34.716  1.00  0.00     0.031 A 
BRANCH  50  64
ATOM     64  C   UNL A   1      40.462  27.825  29.353  1.00  0.00    -0.014 A 
ATOM     65  C   UNL A   1      41.173  28.097  28.171  1.00  0.00     0.009 A 
ATOM     66  C   UNL A   1      39.674  26.666  29.414  1.00  0.00     0.009 A 
ATOM     67  C   UNL A   1      41.038  27.271  27.053  1.00  0.00     0.001 A 
ATOM     68  C   UNL A   1      39.572  25.820  28.308  1.00  0.00     0.001 A 
ATOM     69  C   UNL A   1      40.239  26.133  27.123  1.00  0.00     0.000 A 
ENDBRANCH  50  64
BRANCH  51  70
ATOM     70  C   UNL A   1      39.809  34.253  37.084  1.00  0.00    -0.014 A 
ATOM     71  C   UNL A   1      40.372  35.531  36.943  1.00  0.00     0.009 A 
ATOM     72  C   UNL A   1      39.137  33.938  38.276  1.00  0.00     0.009 A 
ATOM     73  C   UNL A   1      40.285  36.465  37.978  1.00  0.00     0.001 A 
ATOM     74  C   UNL A   1      39.029  34.882  39.300  1.00  0.00     0.001 A 
ATOM     75  C   UNL A   1      39.609  36.142  39.153  1.00  0.00     0.000 A 
ENDBRANCH  51  70
BRANCH  63  76
ATOM     76  C   UNL A   1      44.241  29.148  35.375  1.00  0.00    -0.014 A 
ATOM     77  C   UNL A   1      45.494  29.722  35.115  1.00  0.00     0.009 A 
ATOM     78  C   UNL A   1      44.143  28.114  36.320  1.00  0.00     0.009 A 
ATOM     79  C   UNL A   1      46.631  29.252  35.772  1.00  0.00     0.001 A 
ATOM     80  C   UNL A   1      45.275  27.670  36.999  1.00  0.00     0.001 A 
ATOM     81  C   UNL A   1      46.519  28.232  36.718  1.00  0.00     0.000 A 
ENDBRANCH  63  76
ENDBRANCH  37  38
ENDBRANCH  29  32
ENDBRANCH  27  28
ENDBRANCH  26  27
ENDBRANCH   1  26
TORSDOF 14
ENDMDL
MODEL 2
REMARK VINA RESULT:     -11.4      5.525      9.439
REMARK SMILES Cc1ccc(NS(=O)(=O)N2CCCC[C@@H]2C(=O)NCCCCNC(=O)c2ccc(-c3c4nc(c(-c5ccccc5)c5ccc([nH]5)c(-c5ccccc5)c5nc(c(-c6ccccc6)c6ccc3[nH]6)C=C5)C=C4)cc2)c(C)n1
REMARK SMILES IDX 20 1 19 2 18 3 16 4 17 5 15 7 10 8 11 9 12 10 14 11 13 12
REMARK SMILES IDX 7 13 8 14 9 15 6 16 5 18 1 19 2 20 3 21 76 22 4 23 74 24
REMARK SMILES IDX 75 25 21 26 22 27 23 28 24 29 25 31 26 32 27 33 73 34 28 35
REMARK SMILES IDX 72 36 29 37 30 38 31 39 66 40 32 41 71 42 65 43 67 44 33 45
REMARK SMILES IDX 70 46 64 47 63 48 34 50 56 51 41 52 55 53 42 54 45 55 54 56
REMARK SMILES IDX 68 57 43 58 44 59 53 61 69 62 46 63 35 64 36 65 40 66 37 67
REMARK SMILES IDX 39 68 38 69 57 70 58 71 62 72 59 73 61 74 60 75 47 76 48 77
REMARK SMILES IDX 52 78 49 79 51 80 50 81
REMARK H PARENT 18 6 6 17 23 30 67 49 45 60
REMARK Flexibility Score: inf
ROOT
ATOM      1  C   UNL A   1      38.833  23.585  26.416  1.00  0.00     0.023 C 
ENDROOT
BRANCH   1   2
ATOM      2  C   UNL A   1      37.362  23.771  25.888  1.00  0.00     0.116 C 
BRANCH   2   3
ATOM      3  N   UNL A   1      37.045  23.333  24.533  1.00  0.00    -0.355 N 
ATOM      4  C   UNL A   1      35.942  23.475  23.722  1.00  0.00     0.238 C 
ATOM      5  O   UNL A   1      36.139  23.076  22.563  1.00  0.00    -0.273 OA
ATOM      6  H   UNL A   1      37.774  22.827  24.109  1.00  0.00     0.163 HD
BRANCH   4   7
ATOM      7  C   UNL A   1      34.536  24.056  24.099  1.00  0.00     0.163 C 
ATOM      8  N   UNL A   1      33.462  23.065  24.539  1.00  0.00    -0.172 NA
ATOM      9  C   UNL A   1      32.153  23.736  24.864  1.00  0.00     0.105 C 
ATOM     10  C   UNL A   1      31.641  24.519  23.675  1.00  0.00     0.017 C 
ATOM     11  C   UNL A   1      33.983  25.051  23.057  1.00  0.00     0.030 C 
ATOM     12  C   UNL A   1      32.615  25.642  23.391  1.00  0.00     0.004 C 
BRANCH   8  13
ATOM     13  S   UNL A   1      33.865  21.993  25.824  1.00  0.00     0.302 S 
ATOM     14  O   UNL A   1      33.822  22.735  27.069  1.00  0.00    -0.189 OA
ATOM     15  O   UNL A   1      35.058  21.269  25.478  1.00  0.00    -0.189 OA
BRANCH  13  16
ATOM     16  N   UNL A   1      32.595  20.923  25.892  1.00  0.00    -0.269 N 
ATOM     17  H   UNL A   1      31.825  21.126  26.472  1.00  0.00     0.181 HD
BRANCH  16  18
ATOM     18  C   UNL A   1      32.593  19.716  25.131  1.00  0.00     0.071 A 
ATOM     19  C   UNL A   1      34.087  16.514  22.938  1.00  0.00     0.067 C 
ATOM     20  C   UNL A   1      33.268  17.408  23.817  1.00  0.00     0.038 A 
ATOM     21  C   UNL A   1      33.166  17.387  25.203  1.00  0.00     0.026 A 
ATOM     22  N   UNL A   1      32.768  18.421  23.121  1.00  0.00    -0.256 NA
ATOM     23  C   UNL A   1      32.822  18.559  25.867  1.00  0.00     0.030 A 
ATOM     24  C   UNL A   1      32.438  19.565  23.751  1.00  0.00     0.062 A 
ATOM     25  C   UNL A   1      32.096  20.585  22.732  1.00  0.00     0.069 C 
ENDBRANCH  16  18
ENDBRANCH  13  16
ENDBRANCH   8  13
ENDBRANCH   4   7
ENDBRANCH   2   3
ENDBRANCH   1   2
BRANCH   1  26
ATOM     26  C   UNL A   1      39.416  22.196  26.783  1.00  0.00     0.023 C 
BRANCH  26  27
ATOM     27  C   UNL A   1      39.503  20.996  25.774  1.00  0.00     0.116 C 
BRANCH  27  28
ATOM     28  N   UNL A   1      40.256  19.802  26.132  1.00  0.00    -0.352 N 
ATOM     29  C   UNL A   1      41.607  19.546  26.114  1.00  0.00     0.251 C 
ATOM     30  H   UNL A   1      39.701  19.048  26.440  1.00  0.00     0.163 HD
ATOM     31  O   UNL A   1      42.078  18.418  26.149  1.00  0.00    -0.269 OA
BRANCH  29  32
ATOM     32  C   UNL A   1      42.459  20.700  26.333  1.00  0.00     0.039 A 
ATOM     33  C   UNL A   1      42.944  21.444  25.266  1.00  0.00     0.014 A 
ATOM     34  C   UNL A   1      42.603  21.092  27.666  1.00  0.00     0.014 A 
ATOM     35  C   UNL A   1      43.465  22.697  25.542  1.00  0.00     0.010 A 
ATOM     36  C   UNL A   1      43.017  22.373  27.924  1.00  0.00     0.010 A 
ATOM     37  C   UNL A   1      43.429  23.187  26.860  1.00  0.00    -0.014 A 
BRANCH  37  38
ATOM     38  C   UNL A   1      43.781  24.579  27.168  1.00  0.00     0.031 A 
ATOM     39  C   UNL A   1      45.206  25.011  27.031  1.00  0.00     0.074 A 
ATOM     40  C   UNL A   1      42.834  25.380  27.689  1.00  0.00     0.049 A 
ATOM     41  N   UNL A   1      45.749  26.156  27.337  1.00  0.00    -0.248 NA
ATOM     42  C   UNL A   1      46.156  23.998  26.536  1.00  0.00     0.031 C 
ATOM     43  C   UNL A   1      41.437  25.004  27.929  1.00  0.00     0.029 A 
ATOM     44  N   UNL A   1      42.903  26.680  28.106  1.00  0.00    -0.354 N 
ATOM     45  C   UNL A   1      47.107  25.989  27.102  1.00  0.00     0.074 A 
ATOM     46  C   UNL A   1      47.312  24.613  26.715  1.00  0.00     0.031 C 
ATOM     47  C   UNL A   1      40.766  26.072  28.389  1.00  0.00     0.029 A 
ATOM     48  C   UNL A   1      41.696  27.187  28.517  1.00  0.00     0.049 A 
ATOM     49  H   UNL A   1      43.738  27.201  28.112  1.00  0.00     0.167 HD
ATOM     50  C   UNL A   1      48.086  26.917  27.170  1.00  0.00     0.031 A 
ATOM     51  C   UNL A   1      41.383  28.427  28.933  1.00  0.00     0.031 A 
ATOM     52  C   UNL A   1      47.841  28.282  27.540  1.00  0.00     0.049 A 
ATOM     53  C   UNL A   1      42.482  29.450  28.981  1.00  0.00     0.074 A 
ATOM     54  C   UNL A   1      48.725  29.342  27.582  1.00  0.00     0.029 A 
ATOM     55  N   UNL A   1      46.601  28.772  27.933  1.00  0.00    -0.354 N 
ATOM     56  N   UNL A   1      43.751  29.313  28.675  1.00  0.00    -0.248 NA
ATOM     57  C   UNL A   1      42.106  30.799  29.416  1.00  0.00     0.031 C 
ATOM     58  C   UNL A   1      48.029  30.462  28.049  1.00  0.00     0.029 A 
ATOM     59  C   UNL A   1      46.698  30.115  28.239  1.00  0.00     0.049 A 
ATOM     60  H   UNL A   1      45.774  28.239  27.985  1.00  0.00     0.167 HD
ATOM     61  C   UNL A   1      44.321  30.566  28.848  1.00  0.00     0.074 A 
ATOM     62  C   UNL A   1      43.253  31.449  29.279  1.00  0.00     0.031 C 
ATOM     63  C   UNL A   1      45.607  30.957  28.664  1.00  0.00     0.031 A 
BRANCH  50  64
ATOM     64  C   UNL A   1      49.482  26.458  26.849  1.00  0.00    -0.014 A 
ATOM     65  C   UNL A   1      50.348  25.987  27.853  1.00  0.00     0.009 A 
ATOM     66  C   UNL A   1      49.960  26.547  25.533  1.00  0.00     0.009 A 
ATOM     67  C   UNL A   1      51.680  25.688  27.560  1.00  0.00     0.001 A 
ATOM     68  C   UNL A   1      51.281  26.207  25.236  1.00  0.00     0.001 A 
ATOM     69  C   UNL A   1      52.145  25.796  26.251  1.00  0.00     0.000 A 
ENDBRANCH  50  64
BRANCH  51  70
ATOM     70  C   UNL A   1      39.974  28.772  29.249  1.00  0.00    -0.014 A 
ATOM     71  C   UNL A   1      39.127  29.257  28.240  1.00  0.00     0.009 A 
ATOM     72  C   UNL A   1      39.451  28.580  30.537  1.00  0.00     0.009 A 
ATOM     73  C   UNL A   1      37.792  29.563  28.518  1.00  0.00     0.001 A 
ATOM     74  C   UNL A   1      38.109  28.862  30.807  1.00  0.00     0.001 A 
ATOM     75  C   UNL A   1      37.283  29.360  29.800  1.00  0.00     0.000 A 
ENDBRANCH  51  70
BRANCH  63  76
ATOM     76  C   UNL A   1      45.913  32.409  28.887  1.00  0.00    -0.014 A 
ATOM     77  C   UNL A   1      46.340  32.881  30.138  1.00  0.00     0.009 A 
ATOM     78  C   UNL A   1      45.834  33.301  27.807  1.00  0.00     0.009 A 
ATOM     79  C   UNL A   1      46.657  34.229  30.306  1.00  0.00     0.001 A 
ATOM     80  C   UNL A   1      46.182  34.640  27.971  1.00  0.00     0.001 A 
ATOM     81  C   UNL A   1      46.585  35.105  29.222  1.00  0.00     0.000 A 
ENDBRANCH  63  76
ENDBRANCH  37  38
ENDBRANCH  29  32
ENDBRANCH  27  28
ENDBRANCH  26  27
ENDBRANCH   1  26
TORSDOF 14
ENDMDL
MODEL 3
REMARK VINA RESULT:     -11.4      1.540      6.794
REMARK SMILES Cc1ccc(NS(=O)(=O)N2CCCC[C@@H]2C(=O)NCCCCNC(=O)c2ccc(-c3c4nc(c(-c5ccccc5)c5ccc([nH]5)c(-c5ccccc5)c5nc(c(-c6ccccc6)c6ccc3[nH]6)C=C5)C=C4)cc2)c(C)n1
REMARK SMILES IDX 20 1 19 2 18 3 16 4 17 5 15 7 10 8 11 9 12 10 14 11 13 12
REMARK SMILES IDX 7 13 8 14 9 15 6 16 5 18 1 19 2 20 3 21 76 22 4 23 74 24
REMARK SMILES IDX 75 25 21 26 22 27 23 28 24 29 25 31 26 32 27 33 73 34 28 35
REMARK SMILES IDX 72 36 29 37 30 38 31 39 66 40 32 41 71 42 65 43 67 44 33 45
REMARK SMILES IDX 70 46 64 47 63 48 34 50 56 51 41 52 55 53 42 54 45 55 54 56
REMARK SMILES IDX 68 57 43 58 44 59 53 61 69 62 46 63 35 64 36 65 40 66 37 67
REMARK SMILES IDX 39 68 38 69 57 70 58 71 62 72 59 73 61 74 60 75 47 76 48 77
REMARK SMILES IDX 52 78 49 79 51 80 50 81
REMARK H PARENT 18 6 6 17 23 30 67 49 45 60
REMARK Flexibility Score: inf
ROOT
ATOM      1  C   UNL A   1      34.854  29.706  27.558  1.00  0.00     0.023 C 
ENDROOT
BRANCH   1   2
ATOM      2  C   UNL A   1      34.010  28.580  26.853  1.00  0.00     0.116 C 
BRANCH   2   3
ATOM      3  N   UNL A   1      34.057  28.479  25.399  1.00  0.00    -0.355 N 
ATOM      4  C   UNL A   1      33.776  27.469  24.507  1.00  0.00     0.238 C 
ATOM      5  O   UNL A   1      33.800  27.847  23.324  1.00  0.00    -0.273 OA
ATOM      6  H   UNL A   1      34.353  29.309  24.962  1.00  0.00     0.163 HD
BRANCH   4   7
ATOM      7  C   UNL A   1      33.452  25.968  24.820  1.00  0.00     0.163 C 
ATOM      8  N   UNL A   1      32.400  25.685  25.889  1.00  0.00    -0.172 NA
ATOM      9  C   UNL A   1      32.182  24.211  26.110  1.00  0.00     0.105 C 
ATOM     10  C   UNL A   1      33.475  23.529  26.499  1.00  0.00     0.017 C 
ATOM     11  C   UNL A   1      34.709  25.099  25.030  1.00  0.00     0.030 C 
ATOM     12  C   UNL A   1      34.434  23.627  25.333  1.00  0.00     0.004 C 
BRANCH   8  13
ATOM     13  S   UNL A   1      30.869  26.446  25.702  1.00  0.00     0.302 S 
ATOM     14  O   UNL A   1      31.002  27.840  26.077  1.00  0.00    -0.189 OA
ATOM     15  O   UNL A   1      29.861  25.641  26.337  1.00  0.00    -0.189 OA
BRANCH  13  16
ATOM     16  N   UNL A   1      30.596  26.444  24.063  1.00  0.00    -0.269 N 
ATOM     17  H   UNL A   1      30.999  25.736  23.509  1.00  0.00     0.181 HD
BRANCH  16  18
ATOM     18  C   UNL A   1      29.791  27.442  23.438  1.00  0.00     0.071 A 
ATOM     19  C   UNL A   1      27.795  31.056  22.932  1.00  0.00     0.067 C 
ATOM     20  C   UNL A   1      28.530  29.768  22.722  1.00  0.00     0.038 A 
ATOM     21  C   UNL A   1      29.862  29.589  22.368  1.00  0.00     0.026 A 
ATOM     22  N   UNL A   1      27.797  28.738  23.127  1.00  0.00    -0.256 NA
ATOM     23  C   UNL A   1      30.499  28.408  22.732  1.00  0.00     0.030 A 
ATOM     24  C   UNL A   1      28.402  27.590  23.489  1.00  0.00     0.062 A 
ATOM     25  C   UNL A   1      27.388  26.685  24.078  1.00  0.00     0.069 C 
ENDBRANCH  16  18
ENDBRANCH  13  16
ENDBRANCH   8  13
ENDBRANCH   4   7
ENDBRANCH   2   3
ENDBRANCH   1   2
BRANCH   1  26
ATOM     26  C   UNL A   1      34.540  31.214  27.384  1.00  0.00     0.023 C 
BRANCH  26  27
ATOM     27  C   UNL A   1      33.120  31.838  27.625  1.00  0.00     0.116 C 
BRANCH  27  28
ATOM     28  N   UNL A   1      32.942  33.283  27.553  1.00  0.00    -0.352 N 
ATOM     29  C   UNL A   1      33.196  34.273  28.473  1.00  0.00     0.251 C 
ATOM     30  H   UNL A   1      32.576  33.605  26.696  1.00  0.00     0.163 HD
ATOM     31  O   UNL A   1      32.724  35.397  28.398  1.00  0.00    -0.269 OA
BRANCH  29  32
ATOM     32  C   UNL A   1      34.285  33.997  29.394  1.00  0.00     0.039 A 
ATOM     33  C   UNL A   1      34.064  33.297  30.571  1.00  0.00     0.014 A 
ATOM     34  C   UNL A   1      35.559  34.330  28.929  1.00  0.00     0.014 A 
ATOM     35  C   UNL A   1      35.170  32.787  31.232  1.00  0.00     0.010 A 
ATOM     36  C   UNL A   1      36.642  33.734  29.523  1.00  0.00     0.010 A 
ATOM     37  C   UNL A   1      36.447  32.943  30.664  1.00  0.00    -0.014 A 
BRANCH  37  38
ATOM     38  C   UNL A   1      37.619  32.253  31.218  1.00  0.00     0.031 A 
ATOM     39  C   UNL A   1      38.216  32.753  32.493  1.00  0.00     0.074 A 
ATOM     40  C   UNL A   1      38.192  31.277  30.489  1.00  0.00     0.049 A 
ATOM     41  N   UNL A   1      39.298  32.356  33.104  1.00  0.00    -0.248 NA
ATOM     42  C   UNL A   1      37.537  33.892  33.136  1.00  0.00     0.031 C 
ATOM     43  C   UNL A   1      37.712  30.788  29.192  1.00  0.00     0.029 A 
ATOM     44  N   UNL A   1      39.302  30.520  30.739  1.00  0.00    -0.354 N 
ATOM     45  C   UNL A   1      39.442  33.216  34.183  1.00  0.00     0.074 A 
ATOM     46  C   UNL A   1      38.394  34.205  34.092  1.00  0.00     0.031 C 
ATOM     47  C   UNL A   1      38.487  29.766  28.794  1.00  0.00     0.029 A 
ATOM     48  C   UNL A   1      39.538  29.564  29.783  1.00  0.00     0.049 A 
ATOM     49  H   UNL A   1      39.877  30.648  31.527  1.00  0.00     0.167 HD
ATOM     50  C   UNL A   1      40.353  33.158  35.180  1.00  0.00     0.031 A 
ATOM     51  C   UNL A   1      40.493  28.618  29.732  1.00  0.00     0.031 A 
ATOM     52  C   UNL A   1      41.370  32.148  35.249  1.00  0.00     0.049 A 
ATOM     53  C   UNL A   1      41.481  28.557  30.861  1.00  0.00     0.074 A 
ATOM     54  C   UNL A   1      42.310  31.929  36.237  1.00  0.00     0.029 A 
ATOM     55  N   UNL A   1      41.571  31.179  34.273  1.00  0.00    -0.354 N 
ATOM     56  N   UNL A   1      41.564  29.319  31.928  1.00  0.00    -0.248 NA
ATOM     57  C   UNL A   1      42.497  27.501  30.790  1.00  0.00     0.031 C 
ATOM     58  C   UNL A   1      43.113  30.857  35.833  1.00  0.00     0.029 A 
ATOM     59  C   UNL A   1      42.634  30.369  34.624  1.00  0.00     0.049 A 
ATOM     60  H   UNL A   1      41.035  31.083  33.453  1.00  0.00     0.167 HD
ATOM     61  C   UNL A   1      42.621  28.815  32.673  1.00  0.00     0.074 A 
ATOM     62  C   UNL A   1      43.139  27.677  31.936  1.00  0.00     0.031 C 
ATOM     63  C   UNL A   1      43.116  29.245  33.860  1.00  0.00     0.031 A 
BRANCH  50  64
ATOM     64  C   UNL A   1      40.271  34.224  36.239  1.00  0.00    -0.014 A 
ATOM     65  C   UNL A   1      39.441  34.078  37.365  1.00  0.00     0.009 A 
ATOM     66  C   UNL A   1      40.991  35.418  36.083  1.00  0.00     0.009 A 
ATOM     67  C   UNL A   1      39.279  35.129  38.270  1.00  0.00     0.001 A 
ATOM     68  C   UNL A   1      40.858  36.452  37.012  1.00  0.00     0.001 A 
ATOM     69  C   UNL A   1      39.988  36.314  38.093  1.00  0.00     0.000 A 
ENDBRANCH  50  64
BRANCH  51  70
ATOM     70  C   UNL A   1      40.499  27.625  28.629  1.00  0.00    -0.014 A 
ATOM     71  C   UNL A   1      39.759  26.438  28.748  1.00  0.00     0.009 A 
ATOM     72  C   UNL A   1      41.198  27.869  27.436  1.00  0.00     0.009 A 
ATOM     73  C   UNL A   1      39.736  25.506  27.707  1.00  0.00     0.001 A 
ATOM     74  C   UNL A   1      41.153  26.948  26.386  1.00  0.00     0.001 A 
ATOM     75  C   UNL A   1      40.429  25.764  26.525  1.00  0.00     0.000 A 
ENDBRANCH  51  70
BRANCH  63  76
ATOM     76  C   UNL A   1      44.248  28.455  34.450  1.00  0.00    -0.014 A 
ATOM     77  C   UNL A   1      45.586  28.798  34.202  1.00  0.00     0.009 A 
ATOM     78  C   UNL A   1      43.962  27.391  35.319  1.00  0.00     0.009 A 
ATOM     79  C   UNL A   1      46.617  28.071  34.796  1.00  0.00     0.001 A 
ATOM     80  C   UNL A   1      44.994  26.688  35.936  1.00  0.00     0.001 A 
ATOM     81  C   UNL A   1      46.320  27.022  35.667  1.00  0.00     0.000 A 
ENDBRANCH  63  76
ENDBRANCH  37  38
ENDBRANCH  29  32
ENDBRANCH  27  28
ENDBRANCH  26  27
ENDBRANCH   1  26
TORSDOF 14
ENDMDL
