MODEL 1
REMARK VINA RESULT:     -12.0      0.000      0.000
REMARK SMILES C[C@@H](C(=O)NCCCCNC(=O)c1ccc(-c2c3nc(c(-c4ccccc4)c4ccc([nH]4)c(-c4ccccc4)c4nc(c(-c5ccccc5)c5ccc2[nH]5)C=C4)C=C3)cc1)c1ccc(C[C@H]2CCCC2=O)c(-c2ccc(F)cc2)c1
REMARK SMILES IDX 7 1 6 2 5 3 3 4 4 5 2 7 1 8 61 9 62 10 80 11 63 12 72 13
REMARK SMILES IDX 64 14 73 15 74 16 79 17 75 18 78 19 76 20 77 21 65 22 66 23
REMARK SMILES IDX 67 24 70 25 68 26 69 27 71 28 8 29 9 30 10 31 11 32 12 34
REMARK SMILES IDX 13 35 14 36 60 37 15 38 59 39 16 40 17 41 18 42 53 43 19 44
REMARK SMILES IDX 58 45 52 46 54 47 20 48 57 49 51 50 50 51 21 53 43 54 28 55
REMARK SMILES IDX 42 56 29 57 32 58 41 59 55 60 30 61 31 62 40 64 56 65 33 66
REMARK SMILES IDX 22 67 23 68 27 69 24 70 26 71 25 72 44 73 45 74 49 75 46 76
REMARK SMILES IDX 48 77 47 78 34 79 35 80 39 81 36 82 38 83 37 84
REMARK H PARENT 5 6 10 33 54 52 32 63
REMARK Flexibility Score: inf
ROOT
ATOM      1  C   UNL A   1      36.304  19.746  24.995  1.00  0.00     0.023 C 
ENDROOT
BRANCH   1   2
ATOM      2  C   UNL A   1      36.181  21.197  25.466  1.00  0.00     0.116 C 
BRANCH   2   3
ATOM      3  N   UNL A   1      36.218  22.110  24.342  1.00  0.00    -0.356 N 
ATOM      4  C   UNL A   1      35.198  22.754  23.701  1.00  0.00     0.227 C 
ATOM      5  O   UNL A   1      35.493  23.374  22.678  1.00  0.00    -0.274 OA
ATOM      6  H   UNL A   1      37.116  22.295  23.985  1.00  0.00     0.163 HD
BRANCH   4   7
ATOM      7  C   UNL A   1      33.777  22.711  24.284  1.00  0.00     0.105 C 
ATOM      8  C   UNL A   1      33.004  21.460  23.846  1.00  0.00     0.023 C 
BRANCH   7   9
ATOM      9  C   UNL A   1      32.984  23.970  23.950  1.00  0.00    -0.035 A 
ATOM     10  C   UNL A   1      32.195  24.026  22.802  1.00  0.00     0.005 A 
ATOM     11  C   UNL A   1      33.024  25.101  24.782  1.00  0.00     0.013 A 
ATOM     12  C   UNL A   1      31.524  25.203  22.467  1.00  0.00     0.004 A 
ATOM     13  C   UNL A   1      32.389  26.315  24.449  1.00  0.00    -0.015 A 
ATOM     14  C   UNL A   1      31.648  26.371  23.247  1.00  0.00    -0.039 A 
BRANCH  13  15
ATOM     15  C   UNL A   1      32.570  27.450  25.374  1.00  0.00    -0.018 A 
ATOM     16  C   UNL A   1      31.878  27.523  26.595  1.00  0.00     0.012 A 
ATOM     17  C   UNL A   1      33.493  28.471  25.072  1.00  0.00     0.012 A 
ATOM     18  C   UNL A   1      32.073  28.599  27.466  1.00  0.00     0.040 A 
ATOM     19  C   UNL A   1      33.701  29.538  25.947  1.00  0.00     0.040 A 
ATOM     20  C   UNL A   1      32.981  29.596  27.133  1.00  0.00     0.123 A 
ATOM     21  F   UNL A   1      33.172  30.624  27.969  1.00  0.00    -0.207 F 
ENDBRANCH  13  15
BRANCH  14  22
ATOM     22  C   UNL A   1      30.998  27.639  22.724  1.00  0.00     0.047 C 
BRANCH  22  23
ATOM     23  C   UNL A   1      29.947  28.301  23.626  1.00  0.00     0.060 C 
ATOM     24  C   UNL A   1      29.621  29.771  23.348  1.00  0.00     0.012 C 
ATOM     25  C   UNL A   1      28.586  27.652  23.513  1.00  0.00     0.136 C 
ATOM     26  C   UNL A   1      28.356  29.772  22.498  1.00  0.00     0.009 C 
ATOM     27  C   UNL A   1      27.531  28.601  23.009  1.00  0.00     0.076 C 
ATOM     28  O   UNL A   1      28.357  26.486  23.817  1.00  0.00    -0.299 OA
ENDBRANCH  22  23
ENDBRANCH  14  22
ENDBRANCH   7   9
ENDBRANCH   4   7
ENDBRANCH   2   3
ENDBRANCH   1   2
BRANCH   1  29
ATOM     29  C   UNL A   1      37.740  19.271  24.758  1.00  0.00     0.023 C 
BRANCH  29  30
ATOM     30  C   UNL A   1      38.780  19.854  25.706  1.00  0.00     0.116 C 
BRANCH  30  31
ATOM     31  N   UNL A   1      40.000  19.061  25.768  1.00  0.00    -0.352 N 
ATOM     32  C   UNL A   1      41.265  19.457  26.122  1.00  0.00     0.251 C 
ATOM     33  H   UNL A   1      39.904  18.113  25.522  1.00  0.00     0.163 HD
ATOM     34  O   UNL A   1      42.214  18.689  26.005  1.00  0.00    -0.269 OA
BRANCH  32  35
ATOM     35  C   UNL A   1      41.482  20.835  26.611  1.00  0.00     0.039 A 
ATOM     36  C   UNL A   1      41.553  21.058  27.988  1.00  0.00     0.014 A 
ATOM     37  C   UNL A   1      41.657  21.889  25.711  1.00  0.00     0.014 A 
ATOM     38  C   UNL A   1      41.883  22.327  28.465  1.00  0.00     0.010 A 
ATOM     39  C   UNL A   1      42.045  23.139  26.186  1.00  0.00     0.010 A 
ATOM     40  C   UNL A   1      42.175  23.366  27.565  1.00  0.00    -0.014 A 
BRANCH  40  41
ATOM     41  C   UNL A   1      42.656  24.687  28.036  1.00  0.00     0.031 A 
ATOM     42  C   UNL A   1      41.677  25.783  28.340  1.00  0.00     0.074 A 
ATOM     43  C   UNL A   1      43.981  24.929  28.092  1.00  0.00     0.049 A 
ATOM     44  N   UNL A   1      41.909  27.034  28.650  1.00  0.00    -0.248 NA
ATOM     45  C   UNL A   1      40.248  25.438  28.262  1.00  0.00     0.031 C 
ATOM     46  C   UNL A   1      45.035  23.960  27.780  1.00  0.00     0.029 A 
ATOM     47  N   UNL A   1      44.667  26.074  28.409  1.00  0.00    -0.354 N 
ATOM     48  C   UNL A   1      40.661  27.629  28.777  1.00  0.00     0.074 A 
ATOM     49  C   UNL A   1      39.675  26.613  28.479  1.00  0.00     0.031 C 
ATOM     50  C   UNL A   1      46.232  24.550  27.929  1.00  0.00     0.029 A 
ATOM     51  C   UNL A   1      46.032  25.945  28.303  1.00  0.00     0.049 A 
ATOM     52  H   UNL A   1      44.224  26.908  28.686  1.00  0.00     0.167 HD
ATOM     53  C   UNL A   1      40.364  28.904  29.118  1.00  0.00     0.031 A 
ATOM     54  C   UNL A   1      47.011  26.855  28.468  1.00  0.00     0.031 A 
ATOM     55  C   UNL A   1      41.343  29.908  29.434  1.00  0.00     0.049 A 
ATOM     56  C   UNL A   1      46.652  28.267  28.835  1.00  0.00     0.074 A 
ATOM     57  C   UNL A   1      41.137  31.203  29.878  1.00  0.00     0.029 A 
ATOM     58  N   UNL A   1      42.714  29.733  29.333  1.00  0.00    -0.354 N 
ATOM     59  N   UNL A   1      45.468  28.791  29.035  1.00  0.00    -0.248 NA
ATOM     60  C   UNL A   1      47.765  29.213  28.998  1.00  0.00     0.031 C 
ATOM     61  C   UNL A   1      42.382  31.829  29.994  1.00  0.00     0.029 A 
ATOM     62  C   UNL A   1      43.364  30.907  29.670  1.00  0.00     0.049 A 
ATOM     63  H   UNL A   1      43.159  28.897  29.061  1.00  0.00     0.167 HD
ATOM     64  C   UNL A   1      45.693  30.119  29.369  1.00  0.00     0.074 A 
ATOM     65  C   UNL A   1      47.128  30.318  29.360  1.00  0.00     0.031 C 
ATOM     66  C   UNL A   1      44.792  31.089  29.656  1.00  0.00     0.031 A 
BRANCH  53  67
ATOM     67  C   UNL A   1      38.914  29.295  29.159  1.00  0.00    -0.014 A 
ATOM     68  C   UNL A   1      38.246  29.740  28.009  1.00  0.00     0.009 A 
ATOM     69  C   UNL A   1      38.193  29.163  30.357  1.00  0.00     0.009 A 
ATOM     70  C   UNL A   1      36.890  30.073  28.063  1.00  0.00     0.001 A 
ATOM     71  C   UNL A   1      36.833  29.473  30.403  1.00  0.00     0.001 A 
ATOM     72  C   UNL A   1      36.185  29.934  29.258  1.00  0.00     0.000 A 
ENDBRANCH  53  67
BRANCH  54  73
ATOM     73  C   UNL A   1      48.431  26.464  28.273  1.00  0.00    -0.014 A 
ATOM     74  C   UNL A   1      49.038  26.588  27.014  1.00  0.00     0.009 A 
ATOM     75  C   UNL A   1      49.184  25.951  29.341  1.00  0.00     0.009 A 
ATOM     76  C   UNL A   1      50.361  26.181  26.822  1.00  0.00     0.001 A 
ATOM     77  C   UNL A   1      50.514  25.570  29.153  1.00  0.00     0.001 A 
ATOM     78  C   UNL A   1      51.098  25.676  27.893  1.00  0.00     0.000 A 
ENDBRANCH  54  73
BRANCH  66  79
ATOM     79  C   UNL A   1      45.329  32.447  30.005  1.00  0.00    -0.014 A 
ATOM     80  C   UNL A   1      45.678  32.770  31.325  1.00  0.00     0.009 A 
ATOM     81  C   UNL A   1      45.536  33.395  28.992  1.00  0.00     0.009 A 
ATOM     82  C   UNL A   1      46.207  34.026  31.626  1.00  0.00     0.001 A 
ATOM     83  C   UNL A   1      46.089  34.641  29.293  1.00  0.00     0.001 A 
ATOM     84  C   UNL A   1      46.417  34.957  30.610  1.00  0.00     0.000 A 
ENDBRANCH  66  79
ENDBRANCH  40  41
ENDBRANCH  32  35
ENDBRANCH  30  31
ENDBRANCH  29  30
ENDBRANCH   1  29
TORSDOF 15
ENDMDL
MODEL 2
REMARK VINA RESULT:     -12.0      1.419      5.947
REMARK SMILES C[C@@H](C(=O)NCCCCNC(=O)c1ccc(-c2c3nc(c(-c4ccccc4)c4ccc([nH]4)c(-c4ccccc4)c4nc(c(-c5ccccc5)c5ccc2[nH]5)C=C4)C=C3)cc1)c1ccc(C[C@H]2CCCC2=O)c(-c2ccc(F)cc2)c1
REMARK SMILES IDX 7 1 6 2 5 3 3 4 4 5 2 7 1 8 61 9 62 10 80 11 63 12 72 13
REMARK SMILES IDX 64 14 73 15 74 16 79 17 75 18 78 19 76 20 77 21 65 22 66 23
REMARK SMILES IDX 67 24 70 25 68 26 69 27 71 28 8 29 9 30 10 31 11 32 12 34
REMARK SMILES IDX 13 35 14 36 60 37 15 38 59 39 16 40 17 41 18 42 53 43 19 44
REMARK SMILES IDX 58 45 52 46 54 47 20 48 57 49 51 50 50 51 21 53 43 54 28 55
REMARK SMILES IDX 42 56 29 57 32 58 41 59 55 60 30 61 31 62 40 64 56 65 33 66
REMARK SMILES IDX 22 67 23 68 27 69 24 70 26 71 25 72 44 73 45 74 49 75 46 76
REMARK SMILES IDX 48 77 47 78 34 79 35 80 39 81 36 82 38 83 37 84
REMARK H PARENT 5 6 10 33 54 52 32 63
REMARK Flexibility Score: inf
ROOT
ATOM      1  C   UNL A   1      39.267  22.924  26.480  1.00  0.00     0.023 C 
ENDROOT
BRANCH   1   2
ATOM      2  C   UNL A   1      37.932  23.573  26.108  1.00  0.00     0.116 C 
BRANCH   2   3
ATOM      3  N   UNL A   1      37.711  23.519  24.678  1.00  0.00    -0.356 N 
ATOM      4  C   UNL A   1      36.590  23.178  23.975  1.00  0.00     0.227 C 
ATOM      5  O   UNL A   1      36.712  23.082  22.753  1.00  0.00    -0.274 OA
ATOM      6  H   UNL A   1      38.489  23.765  24.127  1.00  0.00     0.163 HD
BRANCH   4   7
ATOM      7  C   UNL A   1      35.257  22.971  24.712  1.00  0.00     0.105 C 
ATOM      8  C   UNL A   1      34.706  21.551  24.533  1.00  0.00     0.023 C 
BRANCH   7   9
ATOM      9  C   UNL A   1      34.211  24.003  24.301  1.00  0.00    -0.035 A 
ATOM     10  C   UNL A   1      33.421  23.798  23.170  1.00  0.00     0.005 A 
ATOM     11  C   UNL A   1      34.016  25.179  25.042  1.00  0.00     0.013 A 
ATOM     12  C   UNL A   1      32.513  24.775  22.761  1.00  0.00     0.004 A 
ATOM     13  C   UNL A   1      33.134  26.200  24.631  1.00  0.00    -0.015 A 
ATOM     14  C   UNL A   1      32.389  26.001  23.447  1.00  0.00    -0.039 A 
BRANCH  13  15
ATOM     15  C   UNL A   1      33.074  27.418  25.462  1.00  0.00    -0.018 A 
ATOM     16  C   UNL A   1      33.726  28.603  25.081  1.00  0.00     0.012 A 
ATOM     17  C   UNL A   1      32.305  27.433  26.643  1.00  0.00     0.012 A 
ATOM     18  C   UNL A   1      33.647  29.751  25.874  1.00  0.00     0.040 A 
ATOM     19  C   UNL A   1      32.211  28.583  27.428  1.00  0.00     0.040 A 
ATOM     20  C   UNL A   1      32.891  29.730  27.039  1.00  0.00     0.123 A 
ATOM     21  F   UNL A   1      32.810  30.832  27.797  1.00  0.00    -0.207 F 
ENDBRANCH  13  15
BRANCH  14  22
ATOM     22  C   UNL A   1      31.481  27.056  22.842  1.00  0.00     0.047 C 
BRANCH  22  23
ATOM     23  C   UNL A   1      30.461  27.712  23.784  1.00  0.00     0.060 C 
ATOM     24  C   UNL A   1      30.306  29.232  23.690  1.00  0.00     0.012 C 
ATOM     25  C   UNL A   1      29.046  27.238  23.537  1.00  0.00     0.136 C 
ATOM     26  C   UNL A   1      29.094  29.482  22.801  1.00  0.00     0.009 C 
ATOM     27  C   UNL A   1      28.124  28.355  23.123  1.00  0.00     0.076 C 
ATOM     28  O   UNL A   1      28.680  26.076  23.677  1.00  0.00    -0.299 OA
ENDBRANCH  22  23
ENDBRANCH  14  22
ENDBRANCH   7   9
ENDBRANCH   4   7
ENDBRANCH   2   3
ENDBRANCH   1   2
BRANCH   1  29
ATOM     29  C   UNL A   1      39.424  21.475  26.012  1.00  0.00     0.023 C 
BRANCH  29  30
ATOM     30  C   UNL A   1      40.338  20.611  26.872  1.00  0.00     0.116 C 
BRANCH  30  31
ATOM     31  N   UNL A   1      41.427  20.009  26.116  1.00  0.00    -0.352 N 
ATOM     32  C   UNL A   1      42.624  20.567  25.741  1.00  0.00     0.251 C 
ATOM     33  H   UNL A   1      41.286  19.076  25.835  1.00  0.00     0.163 HD
ATOM     34  O   UNL A   1      43.388  19.961  24.998  1.00  0.00    -0.269 OA
BRANCH  32  35
ATOM     35  C   UNL A   1      42.968  21.924  26.213  1.00  0.00     0.039 A 
ATOM     36  C   UNL A   1      43.071  22.956  25.277  1.00  0.00     0.014 A 
ATOM     37  C   UNL A   1      43.143  22.181  27.575  1.00  0.00     0.014 A 
ATOM     38  C   UNL A   1      43.269  24.267  25.715  1.00  0.00     0.010 A 
ATOM     39  C   UNL A   1      43.280  23.495  28.013  1.00  0.00     0.010 A 
ATOM     40  C   UNL A   1      43.331  24.550  27.090  1.00  0.00    -0.014 A 
BRANCH  40  41
ATOM     41  C   UNL A   1      43.407  25.944  27.590  1.00  0.00     0.031 A 
ATOM     42  C   UNL A   1      44.733  26.541  27.964  1.00  0.00     0.074 A 
ATOM     43  C   UNL A   1      42.270  26.635  27.804  1.00  0.00     0.049 A 
ATOM     44  N   UNL A   1      44.989  27.695  28.526  1.00  0.00    -0.248 NA
ATOM     45  C   UNL A   1      45.928  25.724  27.696  1.00  0.00     0.031 C 
ATOM     46  C   UNL A   1      40.916  26.152  27.522  1.00  0.00     0.029 A 
ATOM     47  N   UNL A   1      42.071  27.887  28.330  1.00  0.00    -0.354 N 
ATOM     48  C   UNL A   1      46.365  27.732  28.702  1.00  0.00     0.074 A 
ATOM     49  C   UNL A   1      46.888  26.473  28.218  1.00  0.00     0.031 C 
ATOM     50  C   UNL A   1      40.030  27.098  27.871  1.00  0.00     0.029 A 
ATOM     51  C   UNL A   1      40.746  28.235  28.440  1.00  0.00     0.049 A 
ATOM     52  H   UNL A   1      42.808  28.480  28.603  1.00  0.00     0.167 HD
ATOM     53  C   UNL A   1      47.126  28.728  29.213  1.00  0.00     0.031 A 
ATOM     54  C   UNL A   1      40.171  29.335  28.959  1.00  0.00     0.031 A 
ATOM     55  C   UNL A   1      46.608  29.988  29.675  1.00  0.00     0.049 A 
ATOM     56  C   UNL A   1      41.038  30.420  29.532  1.00  0.00     0.074 A 
ATOM     57  C   UNL A   1      47.309  31.093  30.126  1.00  0.00     0.029 A 
ATOM     58  N   UNL A   1      45.262  30.307  29.752  1.00  0.00    -0.354 N 
ATOM     59  N   UNL A   1      42.345  30.476  29.610  1.00  0.00    -0.248 NA
ATOM     60  C   UNL A   1      40.350  31.596  30.086  1.00  0.00     0.031 C 
ATOM     61  C   UNL A   1      46.384  32.062  30.526  1.00  0.00     0.029 A 
ATOM     62  C   UNL A   1      45.110  31.578  30.278  1.00  0.00     0.049 A 
ATOM     63  H   UNL A   1      44.524  29.717  29.474  1.00  0.00     0.167 HD
ATOM     64  C   UNL A   1      42.637  31.697  30.202  1.00  0.00     0.074 A 
ATOM     65  C   UNL A   1      41.372  32.359  30.447  1.00  0.00     0.031 C 
ATOM     66  C   UNL A   1      43.845  32.223  30.516  1.00  0.00     0.031 A 
BRANCH  53  67
ATOM     67  C   UNL A   1      48.607  28.495  29.311  1.00  0.00    -0.014 A 
ATOM     68  C   UNL A   1      49.171  27.855  30.424  1.00  0.00     0.009 A 
ATOM     69  C   UNL A   1      49.441  28.873  28.247  1.00  0.00     0.009 A 
ATOM     70  C   UNL A   1      50.548  27.624  30.483  1.00  0.00     0.001 A 
ATOM     71  C   UNL A   1      50.812  28.620  28.297  1.00  0.00     0.001 A 
ATOM     72  C   UNL A   1      51.365  28.002  29.418  1.00  0.00     0.000 A 
ENDBRANCH  53  67
BRANCH  54  73
ATOM     73  C   UNL A   1      38.690  29.464  28.978  1.00  0.00    -0.014 A 
ATOM     74  C   UNL A   1      37.997  29.871  27.829  1.00  0.00     0.009 A 
ATOM     75  C   UNL A   1      37.965  29.195  30.149  1.00  0.00     0.009 A 
ATOM     76  C   UNL A   1      36.609  30.033  27.860  1.00  0.00     0.001 A 
ATOM     77  C   UNL A   1      36.575  29.330  30.170  1.00  0.00     0.001 A 
ATOM     78  C   UNL A   1      35.900  29.758  29.029  1.00  0.00     0.000 A 
ENDBRANCH  54  73
BRANCH  66  79
ATOM     79  C   UNL A   1      43.862  33.588  31.139  1.00  0.00    -0.014 A 
ATOM     80  C   UNL A   1      43.872  33.749  32.533  1.00  0.00     0.009 A 
ATOM     81  C   UNL A   1      43.923  34.726  30.320  1.00  0.00     0.009 A 
ATOM     82  C   UNL A   1      43.922  35.026  33.094  1.00  0.00     0.001 A 
ATOM     83  C   UNL A   1      43.998  36.000  30.885  1.00  0.00     0.001 A 
ATOM     84  C   UNL A   1      43.991  36.149  32.271  1.00  0.00     0.000 A 
ENDBRANCH  66  79
ENDBRANCH  40  41
ENDBRANCH  32  35
ENDBRANCH  30  31
ENDBRANCH  29  30
ENDBRANCH   1  29
TORSDOF 15
ENDMDL
MODEL 3
REMARK VINA RESULT:     -11.8      2.906      7.110
REMARK SMILES C[C@@H](C(=O)NCCCCNC(=O)c1ccc(-c2c3nc(c(-c4ccccc4)c4ccc([nH]4)c(-c4ccccc4)c4nc(c(-c5ccccc5)c5ccc2[nH]5)C=C4)C=C3)cc1)c1ccc(C[C@H]2CCCC2=O)c(-c2ccc(F)cc2)c1
REMARK SMILES IDX 7 1 6 2 5 3 3 4 4 5 2 7 1 8 61 9 62 10 80 11 63 12 72 13
REMARK SMILES IDX 64 14 73 15 74 16 79 17 75 18 78 19 76 20 77 21 65 22 66 23
REMARK SMILES IDX 67 24 70 25 68 26 69 27 71 28 8 29 9 30 10 31 11 32 12 34
REMARK SMILES IDX 13 35 14 36 60 37 15 38 59 39 16 40 17 41 18 42 53 43 19 44
REMARK SMILES IDX 58 45 52 46 54 47 20 48 57 49 51 50 50 51 21 53 43 54 28 55
REMARK SMILES IDX 42 56 29 57 32 58 41 59 55 60 30 61 31 62 40 64 56 65 33 66
REMARK SMILES IDX 22 67 23 68 27 69 24 70 26 71 25 72 44 73 45 74 49 75 46 76
REMARK SMILES IDX 48 77 47 78 34 79 35 80 39 81 36 82 38 83 37 84
REMARK H PARENT 5 6 10 33 54 52 32 63
REMARK Flexibility Score: inf
ROOT
ATOM      1  C   UNL A   1      35.480  21.506  25.732  1.00  0.00     0.023 C 
ENDROOT
BRANCH   1   2
ATOM      2  C   UNL A   1      34.384  21.395  24.670  1.00  0.00     0.116 C 
BRANCH   2   3
ATOM      3  N   UNL A   1      33.070  21.398  25.279  1.00  0.00    -0.356 N 
ATOM      4  C   UNL A   1      31.942  22.084  24.928  1.00  0.00     0.227 C 
ATOM      5  O   UNL A   1      30.987  22.011  25.704  1.00  0.00    -0.274 OA
ATOM      6  H   UNL A   1      32.976  20.817  26.067  1.00  0.00     0.163 HD
BRANCH   4   7
ATOM      7  C   UNL A   1      31.899  22.865  23.606  1.00  0.00     0.105 C 
ATOM      8  C   UNL A   1      32.804  22.245  22.532  1.00  0.00     0.023 C 
BRANCH   7   9
ATOM      9  C   UNL A   1      32.240  24.339  23.801  1.00  0.00    -0.035 A 
ATOM     10  C   UNL A   1      33.431  24.714  24.420  1.00  0.00     0.005 A 
ATOM     11  C   UNL A   1      31.370  25.353  23.367  1.00  0.00     0.013 A 
ATOM     12  C   UNL A   1      33.706  26.062  24.656  1.00  0.00     0.004 A 
ATOM     13  C   UNL A   1      31.603  26.719  23.627  1.00  0.00    -0.015 A 
ATOM     14  C   UNL A   1      32.786  27.075  24.313  1.00  0.00    -0.039 A 
BRANCH  13  15
ATOM     15  C   UNL A   1      30.575  27.679  23.180  1.00  0.00    -0.018 A 
ATOM     16  C   UNL A   1      29.222  27.522  23.525  1.00  0.00     0.012 A 
ATOM     17  C   UNL A   1      30.944  28.816  22.434  1.00  0.00     0.012 A 
ATOM     18  C   UNL A   1      28.264  28.449  23.105  1.00  0.00     0.040 A 
ATOM     19  C   UNL A   1      29.991  29.751  22.027  1.00  0.00     0.040 A 
ATOM     20  C   UNL A   1      28.657  29.554  22.360  1.00  0.00     0.123 A 
ATOM     21  F   UNL A   1      27.741  30.445  21.962  1.00  0.00    -0.207 F 
ENDBRANCH  13  15
BRANCH  14  22
ATOM     22  C   UNL A   1      33.111  28.494  24.740  1.00  0.00     0.047 C 
BRANCH  22  23
ATOM     23  C   UNL A   1      32.601  28.935  26.119  1.00  0.00     0.060 C 
ATOM     24  C   UNL A   1      33.625  28.982  27.257  1.00  0.00     0.012 C 
ATOM     25  C   UNL A   1      32.067  30.350  26.122  1.00  0.00     0.136 C 
ATOM     26  C   UNL A   1      34.073  30.434  27.366  1.00  0.00     0.009 C 
ATOM     27  C   UNL A   1      32.835  31.258  27.045  1.00  0.00     0.076 C 
ATOM     28  O   UNL A   1      31.102  30.717  25.460  1.00  0.00    -0.299 OA
ENDBRANCH  22  23
ENDBRANCH  14  22
ENDBRANCH   7   9
ENDBRANCH   4   7
ENDBRANCH   2   3
ENDBRANCH   1   2
BRANCH   1  29
ATOM     29  C   UNL A   1      35.955  22.935  26.012  1.00  0.00     0.023 C 
BRANCH  29  30
ATOM     30  C   UNL A   1      37.210  23.360  25.259  1.00  0.00     0.116 C 
BRANCH  30  31
ATOM     31  N   UNL A   1      38.368  22.536  25.573  1.00  0.00    -0.352 N 
ATOM     32  C   UNL A   1      39.520  22.888  26.232  1.00  0.00     0.251 C 
ATOM     33  H   UNL A   1      38.319  21.600  25.272  1.00  0.00     0.163 HD
ATOM     34  O   UNL A   1      40.458  22.102  26.310  1.00  0.00    -0.269 OA
BRANCH  32  35
ATOM     35  C   UNL A   1      39.635  24.240  26.815  1.00  0.00     0.039 A 
ATOM     36  C   UNL A   1      39.129  24.466  28.098  1.00  0.00     0.014 A 
ATOM     37  C   UNL A   1      40.277  25.265  26.115  1.00  0.00     0.014 A 
ATOM     38  C   UNL A   1      39.341  25.700  28.715  1.00  0.00     0.010 A 
ATOM     39  C   UNL A   1      40.540  26.473  26.755  1.00  0.00     0.010 A 
ATOM     40  C   UNL A   1      40.087  26.696  28.064  1.00  0.00    -0.014 A 
BRANCH  40  41
ATOM     41  C   UNL A   1      40.442  27.966  28.744  1.00  0.00     0.031 A 
ATOM     42  C   UNL A   1      41.761  28.103  29.448  1.00  0.00     0.074 A 
ATOM     43  C   UNL A   1      39.533  28.958  28.811  1.00  0.00     0.049 A 
ATOM     44  N   UNL A   1      42.200  29.087  30.192  1.00  0.00    -0.248 NA
ATOM     45  C   UNL A   1      42.701  26.977  29.322  1.00  0.00     0.031 C 
ATOM     46  C   UNL A   1      38.199  28.932  28.205  1.00  0.00     0.029 A 
ATOM     47  N   UNL A   1      39.585  30.176  29.442  1.00  0.00    -0.354 N 
ATOM     48  C   UNL A   1      43.451  28.688  30.643  1.00  0.00     0.074 A 
ATOM     49  C   UNL A   1      43.689  27.361  30.117  1.00  0.00     0.031 C 
ATOM     50  C   UNL A   1      37.565  30.082  28.488  1.00  0.00     0.029 A 
ATOM     51  C   UNL A   1      38.426  30.906  29.328  1.00  0.00     0.049 A 
ATOM     52  H   UNL A   1      40.378  30.496  29.931  1.00  0.00     0.167 HD
ATOM     53  C   UNL A   1      44.326  29.369  31.419  1.00  0.00     0.031 A 
ATOM     54  C   UNL A   1      38.086  32.096  29.858  1.00  0.00     0.031 A 
ATOM     55  C   UNL A   1      44.099  30.696  31.924  1.00  0.00     0.049 A 
ATOM     56  C   UNL A   1      39.073  32.825  30.726  1.00  0.00     0.074 A 
ATOM     57  C   UNL A   1      44.963  31.503  32.644  1.00  0.00     0.029 A 
ATOM     58  N   UNL A   1      42.920  31.408  31.771  1.00  0.00    -0.354 N 
ATOM     59  N   UNL A   1      40.286  32.472  31.071  1.00  0.00    -0.248 NA
ATOM     60  C   UNL A   1      38.642  34.119  31.277  1.00  0.00     0.031 C 
ATOM     61  C   UNL A   1      44.288  32.683  32.971  1.00  0.00     0.029 A 
ATOM     62  C   UNL A   1      43.021  32.629  32.414  1.00  0.00     0.049 A 
ATOM     63  H   UNL A   1      42.128  31.091  31.278  1.00  0.00     0.167 HD
ATOM     64  C   UNL A   1      40.772  33.506  31.860  1.00  0.00     0.074 A 
ATOM     65  C   UNL A   1      39.728  34.508  31.930  1.00  0.00     0.031 C 
ATOM     66  C   UNL A   1      41.974  33.615  32.474  1.00  0.00     0.031 A 
BRANCH  53  67
ATOM     67  C   UNL A   1      45.615  28.687  31.780  1.00  0.00    -0.014 A 
ATOM     68  C   UNL A   1      46.760  28.822  30.982  1.00  0.00     0.009 A 
ATOM     69  C   UNL A   1      45.696  27.942  32.968  1.00  0.00     0.009 A 
ATOM     70  C   UNL A   1      47.955  28.200  31.351  1.00  0.00     0.001 A 
ATOM     71  C   UNL A   1      46.898  27.343  33.347  1.00  0.00     0.001 A 
ATOM     72  C   UNL A   1      48.024  27.466  32.534  1.00  0.00     0.000 A 
ENDBRANCH  53  67
BRANCH  54  73
ATOM     73  C   UNL A   1      36.741  32.672  29.596  1.00  0.00    -0.014 A 
ATOM     74  C   UNL A   1      36.494  33.399  28.422  1.00  0.00     0.009 A 
ATOM     75  C   UNL A   1      35.702  32.509  30.526  1.00  0.00     0.009 A 
ATOM     76  C   UNL A   1      35.241  33.975  28.197  1.00  0.00     0.001 A 
ATOM     77  C   UNL A   1      34.442  33.063  30.286  1.00  0.00     0.001 A 
ATOM     78  C   UNL A   1      34.216  33.803  29.127  1.00  0.00     0.000 A 
ENDBRANCH  54  73
BRANCH  66  79
ATOM     79  C   UNL A   1      42.237  34.869  33.256  1.00  0.00    -0.014 A 
ATOM     80  C   UNL A   1      41.778  35.010  34.575  1.00  0.00     0.009 A 
ATOM     81  C   UNL A   1      43.000  35.899  32.685  1.00  0.00     0.009 A 
ATOM     82  C   UNL A   1      42.061  36.169  35.299  1.00  0.00     0.001 A 
ATOM     83  C   UNL A   1      43.302  37.046  33.421  1.00  0.00     0.001 A 
ATOM     84  C   UNL A   1      42.827  37.182  34.724  1.00  0.00     0.000 A 
ENDBRANCH  66  79
ENDBRANCH  40  41
ENDBRANCH  32  35
ENDBRANCH  30  31
ENDBRANCH  29  30
ENDBRANCH   1  29
TORSDOF 15
ENDMDL
