MODEL 1
REMARK VINA RESULT:     -10.9      0.000      0.000
REMARK SMILES C=CC[N@H+](CC(=O)NCCCCNC(=O)c1ccc(-c2c3nc(c(-c4ccccc4)c4ccc([nH]4)c(-c4ccccc4)c4nc(c(-c5ccccc5)c5ccc2[nH]5)C=C4)C=C3)cc1)[C@H]1CC(=O)N(c2ccccc2)C1=O
REMARK SMILES IDX 10 1 9 2 8 3 6 4 7 5 5 7 4 8 3 10 2 11 1 12 64 13 65 14
REMARK SMILES IDX 75 15 66 16 68 17 76 18 67 19 69 20 70 21 74 22 71 23 73 24
REMARK SMILES IDX 72 25 11 26 12 27 13 28 14 29 15 31 16 32 17 33 63 34 18 35
REMARK SMILES IDX 62 36 19 37 20 38 21 39 56 40 22 41 61 42 55 43 57 44 23 45
REMARK SMILES IDX 60 46 54 47 53 48 24 50 46 51 31 52 45 53 32 54 35 55 44 56
REMARK SMILES IDX 58 57 33 58 34 59 43 61 59 62 36 63 25 64 26 65 30 66 27 67
REMARK SMILES IDX 29 68 28 69 47 70 48 71 52 72 49 73 51 74 50 75 37 76 38 77
REMARK SMILES IDX 42 78 39 79 41 80 40 81
REMARK H PARENT 8 6 4 9 13 30 57 49 35 60
REMARK Flexibility Score: inf
ROOT
ATOM      1  C   UNL A   1      32.349  29.778  26.970  1.00  0.00     0.023 C 
ENDROOT
BRANCH   1   2
ATOM      2  C   UNL A   1      33.765  29.398  26.524  1.00  0.00     0.116 C 
BRANCH   2   3
ATOM      3  N   UNL A   1      33.865  29.324  25.077  1.00  0.00    -0.351 N 
ATOM      4  C   UNL A   1      33.865  28.250  24.230  1.00  0.00     0.275 C 
ATOM      5  O   UNL A   1      34.056  28.478  23.032  1.00  0.00    -0.269 OA
ATOM      6  H   UNL A   1      33.946  30.197  24.629  1.00  0.00     0.163 HD
BRANCH   4   7
ATOM      7  C   UNL A   1      33.605  26.810  24.733  1.00  0.00     0.364 C 
BRANCH   7   8
ATOM      8  N   UNL A   1      33.505  25.814  23.612  1.00  0.00    -0.313 N 
ATOM      9  H   UNL A   1      33.742  26.253  22.722  1.00  0.00     0.349 HD
BRANCH   8  10
ATOM     10  C   UNL A   1      34.471  24.749  23.930  1.00  0.00     0.291 C 
BRANCH  10  11
ATOM     11  C   UNL A   1      35.044  24.455  25.277  1.00  0.00     0.025 C 
ATOM     12  C   UNL A   1      36.183  23.776  25.473  1.00  0.00     0.010 C 
ENDBRANCH  10  11
ENDBRANCH   8  10
BRANCH   8  13
ATOM     13  C   UNL A   1      32.126  25.339  23.324  1.00  0.00     0.285 C 
ATOM     14  C   UNL A   1      31.254  24.964  24.521  1.00  0.00     0.176 C 
ATOM     15  C   UNL A   1      31.272  26.454  22.686  1.00  0.00     0.292 C 
ATOM     16  C   UNL A   1      30.214  26.033  24.633  1.00  0.00     0.240 C 
ATOM     17  N   UNL A   1      30.335  26.904  23.585  1.00  0.00    -0.245 N 
ATOM     18  O   UNL A   1      31.406  26.830  21.529  1.00  0.00    -0.267 OA
ATOM     19  O   UNL A   1      29.356  25.993  25.507  1.00  0.00    -0.274 OA
BRANCH  17  20
ATOM     20  C   UNL A   1      29.529  28.072  23.407  1.00  0.00     0.052 A 
ATOM     21  C   UNL A   1      30.044  29.368  23.579  1.00  0.00     0.027 A 
ATOM     22  C   UNL A   1      28.160  27.962  23.116  1.00  0.00     0.027 A 
ATOM     23  C   UNL A   1      29.226  30.501  23.491  1.00  0.00     0.002 A 
ATOM     24  C   UNL A   1      27.337  29.093  23.038  1.00  0.00     0.002 A 
ATOM     25  C   UNL A   1      27.870  30.362  23.232  1.00  0.00     0.000 A 
ENDBRANCH  17  20
ENDBRANCH   8  13
ENDBRANCH   7   8
ENDBRANCH   4   7
ENDBRANCH   2   3
ENDBRANCH   1   2
BRANCH   1  26
ATOM     26  C   UNL A   1      31.995  31.247  26.846  1.00  0.00     0.023 C 
BRANCH  26  27
ATOM     27  C   UNL A   1      33.103  32.182  27.280  1.00  0.00     0.116 C 
BRANCH  27  28
ATOM     28  N   UNL A   1      32.639  33.520  27.635  1.00  0.00    -0.352 N 
ATOM     29  C   UNL A   1      33.217  34.407  28.518  1.00  0.00     0.251 C 
ATOM     30  H   UNL A   1      31.815  33.825  27.191  1.00  0.00     0.163 HD
ATOM     31  O   UNL A   1      32.701  35.480  28.781  1.00  0.00    -0.269 OA
BRANCH  29  32
ATOM     32  C   UNL A   1      34.467  33.984  29.177  1.00  0.00     0.039 A 
ATOM     33  C   UNL A   1      34.395  33.185  30.319  1.00  0.00     0.014 A 
ATOM     34  C   UNL A   1      35.685  34.227  28.540  1.00  0.00     0.014 A 
ATOM     35  C   UNL A   1      35.549  32.542  30.772  1.00  0.00     0.010 A 
ATOM     36  C   UNL A   1      36.798  33.501  28.925  1.00  0.00     0.010 A 
ATOM     37  C   UNL A   1      36.744  32.652  30.045  1.00  0.00    -0.014 A 
BRANCH  37  38
ATOM     38  C   UNL A   1      37.983  31.936  30.433  1.00  0.00     0.031 A 
ATOM     39  C   UNL A   1      38.918  32.601  31.405  1.00  0.00     0.074 A 
ATOM     40  C   UNL A   1      38.327  30.776  29.843  1.00  0.00     0.049 A 
ATOM     41  N   UNL A   1      40.155  32.301  31.703  1.00  0.00    -0.248 NA
ATOM     42  C   UNL A   1      38.405  33.799  32.093  1.00  0.00     0.031 C 
ATOM     43  C   UNL A   1      37.526  30.037  28.864  1.00  0.00     0.029 A 
ATOM     44  N   UNL A   1      39.465  30.019  29.975  1.00  0.00    -0.354 N 
ATOM     45  C   UNL A   1      40.583  33.307  32.559  1.00  0.00     0.074 A 
ATOM     46  C   UNL A   1      39.492  34.246  32.699  1.00  0.00     0.031 C 
ATOM     47  C   UNL A   1      38.184  28.920  28.509  1.00  0.00     0.029 A 
ATOM     48  C   UNL A   1      39.473  28.891  29.192  1.00  0.00     0.049 A 
ATOM     49  H   UNL A   1      40.207  30.262  30.575  1.00  0.00     0.167 HD
ATOM     50  C   UNL A   1      41.773  33.431  33.190  1.00  0.00     0.031 A 
ATOM     51  C   UNL A   1      40.422  27.948  29.034  1.00  0.00     0.031 A 
ATOM     52  C   UNL A   1      42.830  32.465  33.102  1.00  0.00     0.049 A 
ATOM     53  C   UNL A   1      41.720  28.082  29.783  1.00  0.00     0.074 A 
ATOM     54  C   UNL A   1      44.057  32.467  33.741  1.00  0.00     0.029 A 
ATOM     55  N   UNL A   1      42.768  31.306  32.346  1.00  0.00    -0.354 N 
ATOM     56  N   UNL A   1      42.109  29.033  30.596  1.00  0.00    -0.248 NA
ATOM     57  C   UNL A   1      42.707  27.009  29.595  1.00  0.00     0.031 C 
ATOM     58  C   UNL A   1      44.745  31.310  33.360  1.00  0.00     0.029 A 
ATOM     59  C   UNL A   1      43.931  30.576  32.511  1.00  0.00     0.049 A 
ATOM     60  H   UNL A   1      42.010  31.041  31.776  1.00  0.00     0.167 HD
ATOM     61  C   UNL A   1      43.369  28.657  31.043  1.00  0.00     0.074 A 
ATOM     62  C   UNL A   1      43.677  27.389  30.414  1.00  0.00     0.031 C 
ATOM     63  C   UNL A   1      44.196  29.303  31.899  1.00  0.00     0.031 A 
BRANCH  50  64
ATOM     64  C   UNL A   1      41.975  34.655  34.036  1.00  0.00    -0.014 A 
ATOM     65  C   UNL A   1      42.517  35.830  33.492  1.00  0.00     0.009 A 
ATOM     66  C   UNL A   1      41.620  34.632  35.393  1.00  0.00     0.009 A 
ATOM     67  C   UNL A   1      42.743  36.944  34.302  1.00  0.00     0.001 A 
ATOM     68  C   UNL A   1      41.819  35.759  36.194  1.00  0.00     0.001 A 
ATOM     69  C   UNL A   1      42.390  36.909  35.650  1.00  0.00     0.000 A 
ENDBRANCH  50  64
BRANCH  51  70
ATOM     70  C   UNL A   1      40.180  26.776  28.154  1.00  0.00    -0.014 A 
ATOM     71  C   UNL A   1      39.439  25.681  28.627  1.00  0.00     0.009 A 
ATOM     72  C   UNL A   1      40.700  26.732  26.851  1.00  0.00     0.009 A 
ATOM     73  C   UNL A   1      39.249  24.553  27.825  1.00  0.00     0.001 A 
ATOM     74  C   UNL A   1      40.486  25.612  26.043  1.00  0.00     0.001 A 
ATOM     75  C   UNL A   1      39.771  24.520  26.534  1.00  0.00     0.000 A 
ENDBRANCH  51  70
BRANCH  63  76
ATOM     76  C   UNL A   1      45.481  28.620  32.262  1.00  0.00    -0.014 A 
ATOM     77  C   UNL A   1      45.548  27.718  33.334  1.00  0.00     0.009 A 
ATOM     78  C   UNL A   1      46.620  28.831  31.470  1.00  0.00     0.009 A 
ATOM     79  C   UNL A   1      46.742  27.053  33.618  1.00  0.00     0.001 A 
ATOM     80  C   UNL A   1      47.805  28.150  31.743  1.00  0.00     0.001 A 
ATOM     81  C   UNL A   1      47.867  27.264  32.819  1.00  0.00     0.000 A 
ENDBRANCH  63  76
ENDBRANCH  37  38
ENDBRANCH  29  32
ENDBRANCH  27  28
ENDBRANCH  26  27
ENDBRANCH   1  26
TORSDOF 16
ENDMDL
MODEL 2
REMARK VINA RESULT:     -10.8      2.200      7.303
REMARK SMILES C=CC[N@H+](CC(=O)NCCCCNC(=O)c1ccc(-c2c3nc(c(-c4ccccc4)c4ccc([nH]4)c(-c4ccccc4)c4nc(c(-c5ccccc5)c5ccc2[nH]5)C=C4)C=C3)cc1)[C@H]1CC(=O)N(c2ccccc2)C1=O
REMARK SMILES IDX 10 1 9 2 8 3 6 4 7 5 5 7 4 8 3 10 2 11 1 12 64 13 65 14
REMARK SMILES IDX 75 15 66 16 68 17 76 18 67 19 69 20 70 21 74 22 71 23 73 24
REMARK SMILES IDX 72 25 11 26 12 27 13 28 14 29 15 31 16 32 17 33 63 34 18 35
REMARK SMILES IDX 62 36 19 37 20 38 21 39 56 40 22 41 61 42 55 43 57 44 23 45
REMARK SMILES IDX 60 46 54 47 53 48 24 50 46 51 31 52 45 53 32 54 35 55 44 56
REMARK SMILES IDX 58 57 33 58 34 59 43 61 59 62 36 63 25 64 26 65 30 66 27 67
REMARK SMILES IDX 29 68 28 69 47 70 48 71 52 72 49 73 51 74 50 75 37 76 38 77
REMARK SMILES IDX 42 78 39 79 41 80 40 81
REMARK H PARENT 8 6 4 9 13 30 57 49 35 60
REMARK Flexibility Score: inf
ROOT
ATOM      1  C   UNL A   1      35.103  22.898  26.773  1.00  0.00     0.023 C 
ENDROOT
BRANCH   1   2
ATOM      2  C   UNL A   1      33.953  22.000  27.242  1.00  0.00     0.116 C 
BRANCH   2   3
ATOM      3  N   UNL A   1      32.764  22.774  27.549  1.00  0.00    -0.351 N 
ATOM      4  C   UNL A   1      31.651  23.045  26.802  1.00  0.00     0.275 C 
ATOM      5  O   UNL A   1      30.820  23.817  27.289  1.00  0.00    -0.269 OA
ATOM      6  H   UNL A   1      32.758  23.172  28.449  1.00  0.00     0.163 HD
BRANCH   4   7
ATOM      7  C   UNL A   1      31.413  22.393  25.419  1.00  0.00     0.364 C 
BRANCH   7   8
ATOM      8  N   UNL A   1      32.446  22.797  24.403  1.00  0.00    -0.313 N 
ATOM      9  H   UNL A   1      33.268  23.188  24.865  1.00  0.00     0.349 HD
BRANCH   8  10
ATOM     10  C   UNL A   1      32.804  21.566  23.679  1.00  0.00     0.291 C 
BRANCH  10  11
ATOM     11  C   UNL A   1      32.702  20.174  24.207  1.00  0.00     0.025 C 
ATOM     12  C   UNL A   1      32.517  19.093  23.436  1.00  0.00     0.010 C 
ENDBRANCH  10  11
ENDBRANCH   8  10
BRANCH   8  13
ATOM     13  C   UNL A   1      32.051  23.939  23.536  1.00  0.00     0.285 C 
ATOM     14  C   UNL A   1      30.559  24.249  23.430  1.00  0.00     0.176 C 
ATOM     15  C   UNL A   1      32.581  25.275  24.094  1.00  0.00     0.292 C 
ATOM     16  C   UNL A   1      30.342  25.525  24.178  1.00  0.00     0.240 C 
ATOM     17  N   UNL A   1      31.545  26.020  24.602  1.00  0.00    -0.245 N 
ATOM     18  O   UNL A   1      33.757  25.613  24.037  1.00  0.00    -0.267 OA
ATOM     19  O   UNL A   1      29.229  26.033  24.256  1.00  0.00    -0.274 OA
BRANCH  17  20
ATOM     20  C   UNL A   1      31.700  27.204  25.388  1.00  0.00     0.052 A 
ATOM     21  C   UNL A   1      31.768  27.166  26.791  1.00  0.00     0.027 A 
ATOM     22  C   UNL A   1      31.723  28.471  24.782  1.00  0.00     0.027 A 
ATOM     23  C   UNL A   1      31.830  28.336  27.556  1.00  0.00     0.002 A 
ATOM     24  C   UNL A   1      31.773  29.644  25.546  1.00  0.00     0.002 A 
ATOM     25  C   UNL A   1      31.821  29.576  26.934  1.00  0.00     0.000 A 
ENDBRANCH  17  20
ENDBRANCH   8  13
ENDBRANCH   7   8
ENDBRANCH   4   7
ENDBRANCH   2   3
ENDBRANCH   1   2
BRANCH   1  26
ATOM     26  C   UNL A   1      36.040  22.284  25.751  1.00  0.00     0.023 C 
BRANCH  26  27
ATOM     27  C   UNL A   1      37.268  23.121  25.468  1.00  0.00     0.116 C 
BRANCH  27  28
ATOM     28  N   UNL A   1      38.526  22.418  25.703  1.00  0.00    -0.352 N 
ATOM     29  C   UNL A   1      39.651  22.894  26.343  1.00  0.00     0.251 C 
ATOM     30  H   UNL A   1      38.577  21.495  25.364  1.00  0.00     0.163 HD
ATOM     31  O   UNL A   1      40.671  22.230  26.426  1.00  0.00    -0.269 OA
BRANCH  29  32
ATOM     32  C   UNL A   1      39.591  24.265  26.883  1.00  0.00     0.039 A 
ATOM     33  C   UNL A   1      39.108  24.465  28.177  1.00  0.00     0.014 A 
ATOM     34  C   UNL A   1      40.194  25.301  26.168  1.00  0.00     0.014 A 
ATOM     35  C   UNL A   1      39.321  25.696  28.799  1.00  0.00     0.010 A 
ATOM     36  C   UNL A   1      40.501  26.479  26.827  1.00  0.00     0.010 A 
ATOM     37  C   UNL A   1      40.067  26.690  28.148  1.00  0.00    -0.014 A 
BRANCH  37  38
ATOM     38  C   UNL A   1      40.388  27.992  28.783  1.00  0.00     0.031 A 
ATOM     39  C   UNL A   1      41.731  28.156  29.438  1.00  0.00     0.074 A 
ATOM     40  C   UNL A   1      39.461  28.964  28.877  1.00  0.00     0.049 A 
ATOM     41  N   UNL A   1      42.146  29.085  30.258  1.00  0.00    -0.248 NA
ATOM     42  C   UNL A   1      42.722  27.097  29.176  1.00  0.00     0.031 C 
ATOM     43  C   UNL A   1      38.111  28.924  28.309  1.00  0.00     0.029 A 
ATOM     44  N   UNL A   1      39.517  30.181  29.510  1.00  0.00    -0.354 N 
ATOM     45  C   UNL A   1      43.416  28.689  30.655  1.00  0.00     0.074 A 
ATOM     46  C   UNL A   1      43.686  27.416  30.023  1.00  0.00     0.031 C 
ATOM     47  C   UNL A   1      37.480  30.076  28.595  1.00  0.00     0.029 A 
ATOM     48  C   UNL A   1      38.358  30.911  29.408  1.00  0.00     0.049 A 
ATOM     49  H   UNL A   1      40.313  30.501  29.993  1.00  0.00     0.167 HD
ATOM     50  C   UNL A   1      44.290  29.334  31.460  1.00  0.00     0.031 A 
ATOM     51  C   UNL A   1      38.038  32.112  29.925  1.00  0.00     0.031 A 
ATOM     52  C   UNL A   1      44.046  30.626  32.034  1.00  0.00     0.049 A 
ATOM     53  C   UNL A   1      39.045  32.834  30.780  1.00  0.00     0.074 A 
ATOM     54  C   UNL A   1      44.884  31.393  32.823  1.00  0.00     0.029 A 
ATOM     55  N   UNL A   1      42.882  31.355  31.851  1.00  0.00    -0.354 N 
ATOM     56  N   UNL A   1      40.245  32.451  31.142  1.00  0.00    -0.248 NA
ATOM     57  C   UNL A   1      38.652  34.154  31.294  1.00  0.00     0.031 C 
ATOM     58  C   UNL A   1      44.220  32.586  33.129  1.00  0.00     0.029 A 
ATOM     59  C   UNL A   1      42.984  32.571  32.502  1.00  0.00     0.049 A 
ATOM     60  H   UNL A   1      42.101  31.053  31.335  1.00  0.00     0.167 HD
ATOM     61  C   UNL A   1      40.764  33.497  31.895  1.00  0.00     0.074 A 
ATOM     62  C   UNL A   1      39.750  34.530  31.935  1.00  0.00     0.031 C 
ATOM     63  C   UNL A   1      41.973  33.593  32.498  1.00  0.00     0.031 A 
BRANCH  50  64
ATOM     64  C   UNL A   1      45.591  28.643  31.751  1.00  0.00    -0.014 A 
ATOM     65  C   UNL A   1      45.729  27.796  32.862  1.00  0.00     0.009 A 
ATOM     66  C   UNL A   1      46.691  28.842  30.904  1.00  0.00     0.009 A 
ATOM     67  C   UNL A   1      46.958  27.199  33.146  1.00  0.00     0.001 A 
ATOM     68  C   UNL A   1      47.911  28.219  31.173  1.00  0.00     0.001 A 
ATOM     69  C   UNL A   1      48.046  27.407  32.299  1.00  0.00     0.000 A 
ENDBRANCH  50  64
BRANCH  51  70
ATOM     70  C   UNL A   1      36.719  32.731  29.634  1.00  0.00    -0.014 A 
ATOM     71  C   UNL A   1      36.498  33.369  28.402  1.00  0.00     0.009 A 
ATOM     72  C   UNL A   1      35.686  32.709  30.582  1.00  0.00     0.009 A 
ATOM     73  C   UNL A   1      35.279  33.997  28.138  1.00  0.00     0.001 A 
ATOM     74  C   UNL A   1      34.459  33.317  30.305  1.00  0.00     0.001 A 
ATOM     75  C   UNL A   1      34.260  33.970  29.088  1.00  0.00     0.000 A 
ENDBRANCH  51  70
BRANCH  63  76
ATOM     76  C   UNL A   1      42.296  34.882  33.192  1.00  0.00    -0.014 A 
ATOM     77  C   UNL A   1      43.086  35.863  32.575  1.00  0.00     0.009 A 
ATOM     78  C   UNL A   1      41.736  35.143  34.452  1.00  0.00     0.009 A 
ATOM     79  C   UNL A   1      43.326  37.077  33.219  1.00  0.00     0.001 A 
ATOM     80  C   UNL A   1      41.961  36.366  35.084  1.00  0.00     0.001 A 
ATOM     81  C   UNL A   1      42.759  37.330  34.469  1.00  0.00     0.000 A 
ENDBRANCH  63  76
ENDBRANCH  37  38
ENDBRANCH  29  32
ENDBRANCH  27  28
ENDBRANCH  26  27
ENDBRANCH   1  26
TORSDOF 16
ENDMDL
MODEL 3
REMARK VINA RESULT:     -10.8      3.425      8.450
REMARK SMILES C=CC[N@H+](CC(=O)NCCCCNC(=O)c1ccc(-c2c3nc(c(-c4ccccc4)c4ccc([nH]4)c(-c4ccccc4)c4nc(c(-c5ccccc5)c5ccc2[nH]5)C=C4)C=C3)cc1)[C@H]1CC(=O)N(c2ccccc2)C1=O
REMARK SMILES IDX 10 1 9 2 8 3 6 4 7 5 5 7 4 8 3 10 2 11 1 12 64 13 65 14
REMARK SMILES IDX 75 15 66 16 68 17 76 18 67 19 69 20 70 21 74 22 71 23 73 24
REMARK SMILES IDX 72 25 11 26 12 27 13 28 14 29 15 31 16 32 17 33 63 34 18 35
REMARK SMILES IDX 62 36 19 37 20 38 21 39 56 40 22 41 61 42 55 43 57 44 23 45
REMARK SMILES IDX 60 46 54 47 53 48 24 50 46 51 31 52 45 53 32 54 35 55 44 56
REMARK SMILES IDX 58 57 33 58 34 59 43 61 59 62 36 63 25 64 26 65 30 66 27 67
REMARK SMILES IDX 29 68 28 69 47 70 48 71 52 72 49 73 51 74 50 75 37 76 38 77
REMARK SMILES IDX 42 78 39 79 41 80 40 81
REMARK H PARENT 8 6 4 9 13 30 57 49 35 60
REMARK Flexibility Score: inf
ROOT
ATOM      1  C   UNL A   1      37.137  21.848  24.492  1.00  0.00     0.023 C 
ENDROOT
BRANCH   1   2
ATOM      2  C   UNL A   1      36.599  22.823  25.545  1.00  0.00     0.116 C 
BRANCH   2   3
ATOM      3  N   UNL A   1      35.804  22.138  26.548  1.00  0.00    -0.351 N 
ATOM      4  C   UNL A   1      34.449  22.018  26.692  1.00  0.00     0.275 C 
ATOM      5  O   UNL A   1      34.039  21.443  27.704  1.00  0.00    -0.269 OA
ATOM      6  H   UNL A   1      36.329  21.680  27.243  1.00  0.00     0.163 HD
BRANCH   4   7
ATOM      7  C   UNL A   1      33.461  22.548  25.624  1.00  0.00     0.364 C 
BRANCH   7   8
ATOM      8  N   UNL A   1      33.417  21.682  24.396  1.00  0.00    -0.313 N 
ATOM      9  H   UNL A   1      34.357  21.382  24.135  1.00  0.00     0.349 HD
BRANCH   8  10
ATOM     10  C   UNL A   1      32.589  20.517  24.751  1.00  0.00     0.291 C 
BRANCH  10  11
ATOM     11  C   UNL A   1      33.040  19.095  24.781  1.00  0.00     0.025 C 
ATOM     12  C   UNL A   1      34.316  18.711  24.634  1.00  0.00     0.010 C 
ENDBRANCH  10  11
ENDBRANCH   8  10
BRANCH   8  13
ATOM     13  C   UNL A   1      33.001  22.387  23.154  1.00  0.00     0.285 C 
ATOM     14  C   UNL A   1      31.539  22.817  23.053  1.00  0.00     0.176 C 
ATOM     15  C   UNL A   1      33.710  23.750  23.020  1.00  0.00     0.292 C 
ATOM     16  C   UNL A   1      31.530  24.307  23.182  1.00  0.00     0.240 C 
ATOM     17  N   UNL A   1      32.816  24.771  23.239  1.00  0.00    -0.245 N 
ATOM     18  O   UNL A   1      34.890  23.872  22.719  1.00  0.00    -0.267 OA
ATOM     19  O   UNL A   1      30.483  24.941  23.126  1.00  0.00    -0.274 OA
BRANCH  17  20
ATOM     20  C   UNL A   1      33.173  26.145  23.409  1.00  0.00     0.052 A 
ATOM     21  C   UNL A   1      33.309  26.730  24.680  1.00  0.00     0.027 A 
ATOM     22  C   UNL A   1      33.336  26.988  22.298  1.00  0.00     0.027 A 
ATOM     23  C   UNL A   1      33.570  28.096  24.836  1.00  0.00     0.002 A 
ATOM     24  C   UNL A   1      33.586  28.357  22.451  1.00  0.00     0.002 A 
ATOM     25  C   UNL A   1      33.698  28.912  23.721  1.00  0.00     0.000 A 
ENDBRANCH  17  20
ENDBRANCH   8  13
ENDBRANCH   7   8
ENDBRANCH   4   7
ENDBRANCH   2   3
ENDBRANCH   1   2
BRANCH   1  26
ATOM     26  C   UNL A   1      37.783  20.588  25.035  1.00  0.00     0.023 C 
BRANCH  26  27
ATOM     27  C   UNL A   1      39.092  20.834  25.752  1.00  0.00     0.116 C 
BRANCH  27  28
ATOM     28  N   UNL A   1      39.988  19.681  25.754  1.00  0.00    -0.352 N 
ATOM     29  C   UNL A   1      41.316  19.644  26.121  1.00  0.00     0.251 C 
ATOM     30  H   UNL A   1      39.596  18.827  25.458  1.00  0.00     0.163 HD
ATOM     31  O   UNL A   1      41.983  18.627  26.022  1.00  0.00    -0.269 OA
BRANCH  29  32
ATOM     32  C   UNL A   1      41.920  20.905  26.593  1.00  0.00     0.039 A 
ATOM     33  C   UNL A   1      42.351  21.844  25.655  1.00  0.00     0.014 A 
ATOM     34  C   UNL A   1      41.871  21.212  27.954  1.00  0.00     0.014 A 
ATOM     35  C   UNL A   1      42.644  23.142  26.078  1.00  0.00     0.010 A 
ATOM     36  C   UNL A   1      42.053  22.525  28.350  1.00  0.00     0.010 A 
ATOM     37  C   UNL A   1      42.443  23.504  27.418  1.00  0.00    -0.014 A 
BRANCH  37  38
ATOM     38  C   UNL A   1      42.667  24.883  27.915  1.00  0.00     0.031 A 
ATOM     39  C   UNL A   1      44.051  25.269  28.356  1.00  0.00     0.074 A 
ATOM     40  C   UNL A   1      41.638  25.736  28.081  1.00  0.00     0.049 A 
ATOM     41  N   UNL A   1      44.443  26.307  29.046  1.00  0.00    -0.248 NA
ATOM     42  C   UNL A   1      45.132  24.324  28.021  1.00  0.00     0.031 C 
ATOM     43  C   UNL A   1      40.241  25.480  27.719  1.00  0.00     0.029 A 
ATOM     44  N   UNL A   1      41.612  26.998  28.620  1.00  0.00    -0.354 N 
ATOM     45  C   UNL A   1      45.797  26.108  29.279  1.00  0.00     0.074 A 
ATOM     46  C   UNL A   1      46.150  24.832  28.696  1.00  0.00     0.031 C 
ATOM     47  C   UNL A   1      39.503  26.562  28.019  1.00  0.00     0.029 A 
ATOM     48  C   UNL A   1      40.361  27.566  28.641  1.00  0.00     0.049 A 
ATOM     49  H   UNL A   1      42.416  27.455  28.960  1.00  0.00     0.167 HD
ATOM     50  C   UNL A   1      46.677  26.922  29.905  1.00  0.00     0.031 A 
ATOM     51  C   UNL A   1      39.955  28.756  29.121  1.00  0.00     0.031 A 
ATOM     52  C   UNL A   1      46.339  28.216  30.424  1.00  0.00     0.049 A 
ATOM     53  C   UNL A   1      40.960  29.666  29.773  1.00  0.00     0.074 A 
ATOM     54  C   UNL A   1      47.164  29.145  31.033  1.00  0.00     0.029 A 
ATOM     55  N   UNL A   1      45.073  28.775  30.366  1.00  0.00    -0.354 N 
ATOM     56  N   UNL A   1      42.239  29.469  29.980  1.00  0.00    -0.248 NA
ATOM     57  C   UNL A   1      40.465  30.964  30.253  1.00  0.00     0.031 C 
ATOM     58  C   UNL A   1      46.392  30.265  31.355  1.00  0.00     0.029 A 
ATOM     59  C   UNL A   1      45.095  30.044  30.917  1.00  0.00     0.049 A 
ATOM     60  H   UNL A   1      44.277  28.336  29.990  1.00  0.00     0.167 HD
ATOM     61  C   UNL A   1      42.709  30.630  30.581  1.00  0.00     0.074 A 
ATOM     62  C   UNL A   1      41.578  31.527  30.702  1.00  0.00     0.031 C 
ATOM     63  C   UNL A   1      43.964  30.927  30.994  1.00  0.00     0.031 A 
BRANCH  50  64
ATOM     64  C   UNL A   1      48.087  26.427  30.047  1.00  0.00    -0.014 A 
ATOM     65  C   UNL A   1      48.505  25.752  31.205  1.00  0.00     0.009 A 
ATOM     66  C   UNL A   1      49.008  26.638  29.011  1.00  0.00     0.009 A 
ATOM     67  C   UNL A   1      49.831  25.340  31.342  1.00  0.00     0.001 A 
ATOM     68  C   UNL A   1      50.327  26.197  29.138  1.00  0.00     0.001 A 
ATOM     69  C   UNL A   1      50.739  25.559  30.307  1.00  0.00     0.000 A 
ENDBRANCH  50  64
BRANCH  51  70
ATOM     70  C   UNL A   1      38.537  29.178  28.986  1.00  0.00    -0.014 A 
ATOM     71  C   UNL A   1      38.094  29.787  27.801  1.00  0.00     0.009 A 
ATOM     72  C   UNL A   1      37.626  28.996  30.037  1.00  0.00     0.009 A 
ATOM     73  C   UNL A   1      36.775  30.232  27.682  1.00  0.00     0.001 A 
ATOM     74  C   UNL A   1      36.301  29.421  29.906  1.00  0.00     0.001 A 
ATOM     75  C   UNL A   1      35.880  30.048  28.733  1.00  0.00     0.000 A 
ENDBRANCH  51  70
BRANCH  63  76
ATOM     76  C   UNL A   1      44.199  32.299  31.550  1.00  0.00    -0.014 A 
ATOM     77  C   UNL A   1      44.046  32.566  32.919  1.00  0.00     0.009 A 
ATOM     78  C   UNL A   1      44.653  33.318  30.699  1.00  0.00     0.009 A 
ATOM     79  C   UNL A   1      44.325  33.838  33.421  1.00  0.00     0.001 A 
ATOM     80  C   UNL A   1      44.950  34.582  31.207  1.00  0.00     0.001 A 
ATOM     81  C   UNL A   1      44.782  34.842  32.567  1.00  0.00     0.000 A 
ENDBRANCH  63  76
ENDBRANCH  37  38
ENDBRANCH  29  32
ENDBRANCH  27  28
ENDBRANCH  26  27
ENDBRANCH   1  26
TORSDOF 16
ENDMDL
