MODEL 1
REMARK VINA RESULT:     -13.2      0.000      0.000
REMARK SMILES CN1C(=O)C[C@@H](C(=O)NCCCCNC(=O)c2ccc(-c3c4nc(c(-c5ccccc5)c5ccc([nH]5)c(-c5ccccc5)c5nc(c(-c6ccccc6)c6ccc3[nH]6)C=C5)C=C4)cc2)C12CCN(C(=O)c1ccccc1-n1cccn1)CC2
REMARK SMILES IDX 11 1 10 2 9 3 7 4 8 5 6 7 1 8 2 9 3 10 65 11 4 12 5 13 66 14
REMARK SMILES IDX 83 15 67 16 82 17 68 18 69 19 70 20 71 21 72 22 76 23 73 24
REMARK SMILES IDX 75 25 74 26 77 27 78 28 81 29 79 30 80 31 12 32 13 33 14 34
REMARK SMILES IDX 15 35 16 37 17 38 18 39 64 40 19 41 63 42 20 43 21 44 22 45
REMARK SMILES IDX 57 46 23 47 62 48 56 49 58 50 24 51 61 52 55 53 54 54 25 56
REMARK SMILES IDX 47 57 32 58 46 59 33 60 36 61 45 62 59 63 34 64 35 65 44 67
REMARK SMILES IDX 60 68 37 69 26 70 27 71 31 72 28 73 30 74 29 75 48 76 49 77
REMARK SMILES IDX 53 78 50 79 52 80 51 81 38 82 39 83 43 84 40 85 42 86 41 87
REMARK H PARENT 9 6 14 36 58 55 36 66
REMARK Flexibility Score: inf
ROOT
ATOM      1  C   UNL A   1      31.786  30.490  26.825  1.00  0.00     0.023 C 
ENDROOT
BRANCH   1   2
ATOM      2  C   UNL A   1      31.581  29.850  25.448  1.00  0.00     0.116 C 
BRANCH   2   3
ATOM      3  N   UNL A   1      32.797  29.703  24.662  1.00  0.00    -0.356 N 
ATOM      4  C   UNL A   1      33.083  29.139  23.460  1.00  0.00     0.226 C 
ATOM      5  O   UNL A   1      34.255  29.248  23.078  1.00  0.00    -0.275 OA
ATOM      6  H   UNL A   1      33.586  30.099  25.097  1.00  0.00     0.163 HD
BRANCH   4   7
ATOM      7  C   UNL A   1      32.100  28.353  22.580  1.00  0.00     0.113 C 
ATOM      8  C   UNL A   1      29.391  26.584  24.463  1.00  0.00     0.147 C 
ATOM      9  N   UNL A   1      30.275  27.420  23.677  1.00  0.00    -0.339 N 
ATOM     10  C   UNL A   1      29.774  28.564  23.057  1.00  0.00     0.223 C 
ATOM     11  C   UNL A   1      31.580  27.004  23.133  1.00  0.00     0.058 C 
ATOM     12  O   UNL A   1      28.651  29.023  23.180  1.00  0.00    -0.275 OA
ATOM     13  C   UNL A   1      30.864  29.173  22.223  1.00  0.00     0.116 C 
ATOM     14  C   UNL A   1      32.556  26.385  24.157  1.00  0.00     0.051 C 
ATOM     15  C   UNL A   1      31.308  25.957  22.006  1.00  0.00     0.051 C 
ATOM     16  C   UNL A   1      33.796  25.786  23.508  1.00  0.00     0.122 C 
ATOM     17  C   UNL A   1      32.552  25.227  21.491  1.00  0.00     0.122 C 
ATOM     18  N   UNL A   1      33.374  24.742  22.593  1.00  0.00    -0.338 N 
ATOM     19  C   UNL A   1      33.674  23.387  22.712  1.00  0.00     0.256 C 
ATOM     20  O   UNL A   1      33.277  22.530  21.927  1.00  0.00    -0.269 OA
BRANCH  19  21
ATOM     21  C   UNL A   1      34.569  22.935  23.808  1.00  0.00     0.065 A 
ATOM     22  C   UNL A   1      35.911  22.735  23.442  1.00  0.00     0.016 A 
ATOM     23  C   UNL A   1      34.190  22.802  25.153  1.00  0.00     0.077 A 
ATOM     24  C   UNL A   1      36.874  22.445  24.410  1.00  0.00     0.001 A 
ATOM     25  C   UNL A   1      35.182  22.569  26.126  1.00  0.00     0.029 A 
ATOM     26  C   UNL A   1      36.514  22.380  25.752  1.00  0.00     0.002 A 
BRANCH  23  27
ATOM     27  N   UNL A   1      32.846  22.874  25.594  1.00  0.00    -0.240 N 
ATOM     28  C   UNL A   1      31.789  22.045  25.284  1.00  0.00     0.115 A 
ATOM     29  N   UNL A   1      32.463  23.847  26.466  1.00  0.00    -0.177 NA
ATOM     30  C   UNL A   1      30.690  22.517  25.963  1.00  0.00     0.042 A 
ATOM     31  C   UNL A   1      31.160  23.641  26.656  1.00  0.00     0.135 A 
ENDBRANCH  23  27
ENDBRANCH  19  21
ENDBRANCH   4   7
ENDBRANCH   2   3
ENDBRANCH   1   2
BRANCH   1  32
ATOM     32  C   UNL A   1      31.532  31.994  26.870  1.00  0.00     0.023 C 
BRANCH  32  33
ATOM     33  C   UNL A   1      32.767  32.816  27.209  1.00  0.00     0.116 C 
BRANCH  33  34
ATOM     34  N   UNL A   1      32.447  34.174  27.628  1.00  0.00    -0.352 N 
ATOM     35  C   UNL A   1      33.004  34.915  28.638  1.00  0.00     0.251 C 
ATOM     36  H   UNL A   1      31.732  34.620  27.117  1.00  0.00     0.163 HD
ATOM     37  O   UNL A   1      32.528  35.998  28.961  1.00  0.00    -0.269 OA
BRANCH  35  38
ATOM     38  C   UNL A   1      34.171  34.369  29.351  1.00  0.00     0.039 A 
ATOM     39  C   UNL A   1      33.968  33.619  30.510  1.00  0.00     0.014 A 
ATOM     40  C   UNL A   1      35.453  34.548  28.826  1.00  0.00     0.014 A 
ATOM     41  C   UNL A   1      35.055  32.986  31.109  1.00  0.00     0.010 A 
ATOM     42  C   UNL A   1      36.515  33.844  29.370  1.00  0.00     0.010 A 
ATOM     43  C   UNL A   1      36.328  33.064  30.521  1.00  0.00    -0.014 A 
BRANCH  43  44
ATOM     44  C   UNL A   1      37.487  32.348  31.096  1.00  0.00     0.031 A 
ATOM     45  C   UNL A   1      38.121  32.850  32.362  1.00  0.00     0.074 A 
ATOM     46  C   UNL A   1      38.019  31.302  30.435  1.00  0.00     0.049 A 
ATOM     47  N   UNL A   1      39.189  32.416  32.980  1.00  0.00    -0.248 NA
ATOM     48  C   UNL A   1      37.492  34.022  32.995  1.00  0.00     0.031 C 
ATOM     49  C   UNL A   1      37.532  30.762  29.164  1.00  0.00     0.029 A 
ATOM     50  N   UNL A   1      39.100  30.515  30.738  1.00  0.00    -0.354 N 
ATOM     51  C   UNL A   1      39.370  33.272  34.057  1.00  0.00     0.074 A 
ATOM     52  C   UNL A   1      38.342  34.286  33.974  1.00  0.00     0.031 C 
ATOM     53  C   UNL A   1      38.297  29.718  28.810  1.00  0.00     0.029 A 
ATOM     54  C   UNL A   1      39.346  29.537  29.807  1.00  0.00     0.049 A 
ATOM     55  H   UNL A   1      39.648  30.640  31.547  1.00  0.00     0.167 HD
ATOM     56  C   UNL A   1      40.293  33.207  35.044  1.00  0.00     0.031 A 
ATOM     57  C   UNL A   1      40.313  28.602  29.761  1.00  0.00     0.031 A 
ATOM     58  C   UNL A   1      41.304  32.189  35.132  1.00  0.00     0.049 A 
ATOM     59  C   UNL A   1      41.316  28.533  30.877  1.00  0.00     0.074 A 
ATOM     60  C   UNL A   1      42.250  31.994  36.121  1.00  0.00     0.029 A 
ATOM     61  N   UNL A   1      41.497  31.191  34.189  1.00  0.00    -0.354 N 
ATOM     62  N   UNL A   1      41.432  29.305  31.930  1.00  0.00    -0.248 NA
ATOM     63  C   UNL A   1      42.310  27.455  30.805  1.00  0.00     0.031 C 
ATOM     64  C   UNL A   1      43.043  30.901  35.755  1.00  0.00     0.029 A 
ATOM     65  C   UNL A   1      42.559  30.387  34.563  1.00  0.00     0.049 A 
ATOM     66  H   UNL A   1      40.958  31.072  33.373  1.00  0.00     0.167 HD
ATOM     67  C   UNL A   1      42.498  28.796  32.657  1.00  0.00     0.074 A 
ATOM     68  C   UNL A   1      42.984  27.638  31.933  1.00  0.00     0.031 C 
ATOM     69  C   UNL A   1      43.030  29.245  33.821  1.00  0.00     0.031 A 
BRANCH  56  70
ATOM     70  C   UNL A   1      40.239  34.275  36.100  1.00  0.00    -0.014 A 
ATOM     71  C   UNL A   1      39.422  34.136  37.234  1.00  0.00     0.009 A 
ATOM     72  C   UNL A   1      41.007  35.440  35.958  1.00  0.00     0.009 A 
ATOM     73  C   UNL A   1      39.334  35.162  38.176  1.00  0.00     0.001 A 
ATOM     74  C   UNL A   1      40.942  36.453  36.917  1.00  0.00     0.001 A 
ATOM     75  C   UNL A   1      40.096  36.318  38.018  1.00  0.00     0.000 A 
ENDBRANCH  56  70
BRANCH  57  76
ATOM     76  C   UNL A   1      40.356  27.644  28.628  1.00  0.00    -0.014 A 
ATOM     77  C   UNL A   1      41.099  27.937  27.475  1.00  0.00     0.009 A 
ATOM     78  C   UNL A   1      39.675  26.419  28.704  1.00  0.00     0.009 A 
ATOM     79  C   UNL A   1      41.145  27.032  26.413  1.00  0.00     0.001 A 
ATOM     80  C   UNL A   1      39.742  25.504  27.651  1.00  0.00     0.001 A 
ATOM     81  C   UNL A   1      40.472  25.814  26.504  1.00  0.00     0.000 A 
ENDBRANCH  57  76
BRANCH  69  82
ATOM     82  C   UNL A   1      44.181  28.469  34.391  1.00  0.00    -0.014 A 
ATOM     83  C   UNL A   1      45.509  28.809  34.086  1.00  0.00     0.009 A 
ATOM     84  C   UNL A   1      43.935  27.411  35.279  1.00  0.00     0.009 A 
ATOM     85  C   UNL A   1      46.566  28.084  34.639  1.00  0.00     0.001 A 
ATOM     86  C   UNL A   1      44.995  26.705  35.851  1.00  0.00     0.001 A 
ATOM     87  C   UNL A   1      46.308  27.038  35.523  1.00  0.00     0.000 A 
ENDBRANCH  69  82
ENDBRANCH  43  44
ENDBRANCH  35  38
ENDBRANCH  33  34
ENDBRANCH  32  33
ENDBRANCH   1  32
TORSDOF 13
ENDMDL
MODEL 2
REMARK VINA RESULT:     -13.1      3.900      9.374
REMARK SMILES CN1C(=O)C[C@@H](C(=O)NCCCCNC(=O)c2ccc(-c3c4nc(c(-c5ccccc5)c5ccc([nH]5)c(-c5ccccc5)c5nc(c(-c6ccccc6)c6ccc3[nH]6)C=C5)C=C4)cc2)C12CCN(C(=O)c1ccccc1-n1cccn1)CC2
REMARK SMILES IDX 11 1 10 2 9 3 7 4 8 5 6 7 1 8 2 9 3 10 65 11 4 12 5 13 66 14
REMARK SMILES IDX 83 15 67 16 82 17 68 18 69 19 70 20 71 21 72 22 76 23 73 24
REMARK SMILES IDX 75 25 74 26 77 27 78 28 81 29 79 30 80 31 12 32 13 33 14 34
REMARK SMILES IDX 15 35 16 37 17 38 18 39 64 40 19 41 63 42 20 43 21 44 22 45
REMARK SMILES IDX 57 46 23 47 62 48 56 49 58 50 24 51 61 52 55 53 54 54 25 56
REMARK SMILES IDX 47 57 32 58 46 59 33 60 36 61 45 62 59 63 34 64 35 65 44 67
REMARK SMILES IDX 60 68 37 69 26 70 27 71 31 72 28 73 30 74 29 75 48 76 49 77
REMARK SMILES IDX 53 78 50 79 52 80 51 81 38 82 39 83 43 84 40 85 42 86 41 87
REMARK H PARENT 9 6 14 36 58 55 36 66
REMARK Flexibility Score: inf
ROOT
ATOM      1  C   UNL A   1      37.346  21.190  24.384  1.00  0.00     0.023 C 
ENDROOT
BRANCH   1   2
ATOM      2  C   UNL A   1      35.851  21.313  24.698  1.00  0.00     0.116 C 
BRANCH   2   3
ATOM      3  N   UNL A   1      35.547  21.583  26.096  1.00  0.00    -0.356 N 
ATOM      4  C   UNL A   1      34.407  21.569  26.835  1.00  0.00     0.226 C 
ATOM      5  O   UNL A   1      34.543  21.815  28.041  1.00  0.00    -0.275 OA
ATOM      6  H   UNL A   1      36.342  21.831  26.621  1.00  0.00     0.163 HD
BRANCH   4   7
ATOM      7  C   UNL A   1      32.990  21.326  26.296  1.00  0.00     0.113 C 
ATOM      8  C   UNL A   1      32.597  21.909  22.620  1.00  0.00     0.147 C 
ATOM      9  N   UNL A   1      32.743  21.459  23.988  1.00  0.00    -0.339 N 
ATOM     10  C   UNL A   1      32.773  20.093  24.267  1.00  0.00     0.223 C 
ATOM     11  C   UNL A   1      32.483  22.277  25.186  1.00  0.00     0.058 C 
ATOM     12  O   UNL A   1      32.791  19.187  23.451  1.00  0.00    -0.275 OA
ATOM     13  C   UNL A   1      32.815  19.909  25.757  1.00  0.00     0.116 C 
ATOM     14  C   UNL A   1      33.203  23.643  25.223  1.00  0.00     0.051 C 
ATOM     15  C   UNL A   1      30.942  22.524  25.263  1.00  0.00     0.051 C 
ATOM     16  C   UNL A   1      32.740  24.528  26.371  1.00  0.00     0.122 C 
ATOM     17  C   UNL A   1      30.507  23.559  26.304  1.00  0.00     0.122 C 
ATOM     18  N   UNL A   1      31.318  24.769  26.217  1.00  0.00    -0.338 N 
ATOM     19  C   UNL A   1      30.723  26.007  25.985  1.00  0.00     0.256 C 
ATOM     20  O   UNL A   1      29.514  26.165  25.836  1.00  0.00    -0.269 OA
BRANCH  19  21
ATOM     21  C   UNL A   1      31.569  27.227  25.969  1.00  0.00     0.065 A 
ATOM     22  C   UNL A   1      31.584  27.963  27.166  1.00  0.00     0.016 A 
ATOM     23  C   UNL A   1      32.401  27.615  24.907  1.00  0.00     0.077 A 
ATOM     24  C   UNL A   1      32.447  29.049  27.321  1.00  0.00     0.001 A 
ATOM     25  C   UNL A   1      33.310  28.675  25.098  1.00  0.00     0.029 A 
ATOM     26  C   UNL A   1      33.321  29.394  26.295  1.00  0.00     0.002 A 
BRANCH  23  27
ATOM     27  N   UNL A   1      32.369  27.004  23.630  1.00  0.00    -0.240 N 
ATOM     28  C   UNL A   1      31.324  26.926  22.734  1.00  0.00     0.115 A 
ATOM     29  N   UNL A   1      33.487  26.411  23.126  1.00  0.00    -0.177 NA
ATOM     30  C   UNL A   1      31.784  26.243  21.633  1.00  0.00     0.042 A 
ATOM     31  C   UNL A   1      33.115  25.932  21.940  1.00  0.00     0.135 A 
ENDBRANCH  23  27
ENDBRANCH  19  21
ENDBRANCH   4   7
ENDBRANCH   2   3
ENDBRANCH   1   2
BRANCH   1  32
ATOM     32  C   UNL A   1      38.032  19.990  25.030  1.00  0.00     0.023 C 
BRANCH  32  33
ATOM     33  C   UNL A   1      39.211  20.361  25.918  1.00  0.00     0.116 C 
BRANCH  33  34
ATOM     34  N   UNL A   1      40.284  19.376  25.876  1.00  0.00    -0.352 N 
ATOM     35  C   UNL A   1      41.623  19.555  26.113  1.00  0.00     0.251 C 
ATOM     36  H   UNL A   1      40.011  18.458  25.646  1.00  0.00     0.163 HD
ATOM     37  O   UNL A   1      42.426  18.652  25.900  1.00  0.00    -0.269 OA
BRANCH  35  38
ATOM     38  C   UNL A   1      42.083  20.866  26.599  1.00  0.00     0.039 A 
ATOM     39  C   UNL A   1      42.476  21.833  25.673  1.00  0.00     0.014 A 
ATOM     40  C   UNL A   1      42.058  21.148  27.966  1.00  0.00     0.014 A 
ATOM     41  C   UNL A   1      42.780  23.118  26.119  1.00  0.00     0.010 A 
ATOM     42  C   UNL A   1      42.273  22.448  28.397  1.00  0.00     0.010 A 
ATOM     43  C   UNL A   1      42.644  23.442  27.479  1.00  0.00    -0.014 A 
BRANCH  43  44
ATOM     44  C   UNL A   1      42.894  24.814  27.972  1.00  0.00     0.031 A 
ATOM     45  C   UNL A   1      44.282  25.217  28.381  1.00  0.00     0.074 A 
ATOM     46  C   UNL A   1      41.861  25.663  28.132  1.00  0.00     0.049 A 
ATOM     47  N   UNL A   1      44.693  26.339  28.913  1.00  0.00    -0.248 NA
ATOM     48  C   UNL A   1      45.341  24.209  28.204  1.00  0.00     0.031 C 
ATOM     49  C   UNL A   1      40.460  25.365  27.831  1.00  0.00     0.029 A 
ATOM     50  N   UNL A   1      41.834  26.951  28.603  1.00  0.00    -0.354 N 
ATOM     51  C   UNL A   1      46.048  26.162  29.154  1.00  0.00     0.074 A 
ATOM     52  C   UNL A   1      46.378  24.808  28.769  1.00  0.00     0.031 C 
ATOM     53  C   UNL A   1      39.714  26.446  28.102  1.00  0.00     0.029 A 
ATOM     54  C   UNL A   1      40.576  27.499  28.628  1.00  0.00     0.049 A 
ATOM     55  H   UNL A   1      42.640  27.435  28.896  1.00  0.00     0.167 HD
ATOM     56  C   UNL A   1      46.947  27.056  29.627  1.00  0.00     0.031 A 
ATOM     57  C   UNL A   1      40.164  28.715  29.033  1.00  0.00     0.031 A 
ATOM     58  C   UNL A   1      46.619  28.407  29.995  1.00  0.00     0.049 A 
ATOM     59  C   UNL A   1      41.180  29.700  29.537  1.00  0.00     0.074 A 
ATOM     60  C   UNL A   1      47.464  29.413  30.429  1.00  0.00     0.029 A 
ATOM     61  N   UNL A   1      45.339  28.939  29.969  1.00  0.00    -0.354 N 
ATOM     62  N   UNL A   1      42.473  29.545  29.690  1.00  0.00    -0.248 NA
ATOM     63  C   UNL A   1      40.682  31.031  29.907  1.00  0.00     0.031 C 
ATOM     64  C   UNL A   1      46.685  30.543  30.705  1.00  0.00     0.029 A 
ATOM     65  C   UNL A   1      45.366  30.254  30.396  1.00  0.00     0.049 A 
ATOM     66  H   UNL A   1      44.531  28.452  29.688  1.00  0.00     0.167 HD
ATOM     67  C   UNL A   1      42.947  30.762  30.157  1.00  0.00     0.074 A 
ATOM     68  C   UNL A   1      41.805  31.651  30.244  1.00  0.00     0.031 C 
ATOM     69  C   UNL A   1      44.215  31.116  30.483  1.00  0.00     0.031 A 
BRANCH  56  70
ATOM     70  C   UNL A   1      48.368  26.585  29.771  1.00  0.00    -0.014 A 
ATOM     71  C   UNL A   1      49.298  26.755  28.733  1.00  0.00     0.009 A 
ATOM     72  C   UNL A   1      48.780  25.954  30.954  1.00  0.00     0.009 A 
ATOM     73  C   UNL A   1      50.597  26.257  28.856  1.00  0.00     0.001 A 
ATOM     74  C   UNL A   1      50.088  25.485  31.088  1.00  0.00     0.001 A 
ATOM     75  C   UNL A   1      50.991  25.625  30.034  1.00  0.00     0.000 A 
ENDBRANCH  56  70
BRANCH  57  76
ATOM     76  C   UNL A   1      38.725  29.068  28.951  1.00  0.00    -0.014 A 
ATOM     77  C   UNL A   1      37.901  28.964  30.082  1.00  0.00     0.009 A 
ATOM     78  C   UNL A   1      38.172  29.538  27.749  1.00  0.00     0.009 A 
ATOM     79  C   UNL A   1      36.548  29.304  30.006  1.00  0.00     0.001 A 
ATOM     80  C   UNL A   1      36.826  29.901  27.682  1.00  0.00     0.001 A 
ATOM     81  C   UNL A   1      36.013  29.778  28.808  1.00  0.00     0.000 A 
ENDBRANCH  57  76
BRANCH  69  82
ATOM     82  C   UNL A   1      44.433  32.528  30.945  1.00  0.00    -0.014 A 
ATOM     83  C   UNL A   1      44.356  32.868  32.304  1.00  0.00     0.009 A 
ATOM     84  C   UNL A   1      44.764  33.521  30.010  1.00  0.00     0.009 A 
ATOM     85  C   UNL A   1      44.578  34.184  32.714  1.00  0.00     0.001 A 
ATOM     86  C   UNL A   1      45.011  34.830  30.426  1.00  0.00     0.001 A 
ATOM     87  C   UNL A   1      44.909  35.161  31.776  1.00  0.00     0.000 A 
ENDBRANCH  69  82
ENDBRANCH  43  44
ENDBRANCH  35  38
ENDBRANCH  33  34
ENDBRANCH  32  33
ENDBRANCH   1  32
TORSDOF 13
ENDMDL
MODEL 3
REMARK VINA RESULT:     -13.1      3.942      9.068
REMARK SMILES CN1C(=O)C[C@@H](C(=O)NCCCCNC(=O)c2ccc(-c3c4nc(c(-c5ccccc5)c5ccc([nH]5)c(-c5ccccc5)c5nc(c(-c6ccccc6)c6ccc3[nH]6)C=C5)C=C4)cc2)C12CCN(C(=O)c1ccccc1-n1cccn1)CC2
REMARK SMILES IDX 11 1 10 2 9 3 7 4 8 5 6 7 1 8 2 9 3 10 65 11 4 12 5 13 66 14
REMARK SMILES IDX 83 15 67 16 82 17 68 18 69 19 70 20 71 21 72 22 76 23 73 24
REMARK SMILES IDX 75 25 74 26 77 27 78 28 81 29 79 30 80 31 12 32 13 33 14 34
REMARK SMILES IDX 15 35 16 37 17 38 18 39 64 40 19 41 63 42 20 43 21 44 22 45
REMARK SMILES IDX 57 46 23 47 62 48 56 49 58 50 24 51 61 52 55 53 54 54 25 56
REMARK SMILES IDX 47 57 32 58 46 59 33 60 36 61 45 62 59 63 34 64 35 65 44 67
REMARK SMILES IDX 60 68 37 69 26 70 27 71 31 72 28 73 30 74 29 75 48 76 49 77
REMARK SMILES IDX 53 78 50 79 52 80 51 81 38 82 39 83 43 84 40 85 42 86 41 87
REMARK H PARENT 9 6 14 36 58 55 36 66
REMARK Flexibility Score: inf
ROOT
ATOM      1  C   UNL A   1      36.494  19.665  24.951  1.00  0.00     0.023 C 
ENDROOT
BRANCH   1   2
ATOM      2  C   UNL A   1      35.967  21.104  24.963  1.00  0.00     0.116 C 
BRANCH   2   3
ATOM      3  N   UNL A   1      35.617  21.609  26.283  1.00  0.00    -0.356 N 
ATOM      4  C   UNL A   1      34.447  21.755  26.958  1.00  0.00     0.226 C 
ATOM      5  O   UNL A   1      34.543  22.190  28.114  1.00  0.00    -0.275 OA
ATOM      6  H   UNL A   1      36.399  21.911  26.799  1.00  0.00     0.163 HD
BRANCH   4   7
ATOM      7  C   UNL A   1      33.045  21.477  26.399  1.00  0.00     0.113 C 
ATOM      8  C   UNL A   1      32.725  21.927  22.697  1.00  0.00     0.147 C 
ATOM      9  N   UNL A   1      32.846  21.526  24.083  1.00  0.00    -0.339 N 
ATOM     10  C   UNL A   1      32.885  20.172  24.410  1.00  0.00     0.223 C 
ATOM     11  C   UNL A   1      32.551  22.383  25.246  1.00  0.00     0.058 C 
ATOM     12  O   UNL A   1      32.931  19.238  23.627  1.00  0.00    -0.275 OA
ATOM     13  C   UNL A   1      32.897  20.040  25.905  1.00  0.00     0.116 C 
ATOM     14  C   UNL A   1      33.255  23.757  25.250  1.00  0.00     0.051 C 
ATOM     15  C   UNL A   1      31.006  22.614  25.281  1.00  0.00     0.051 C 
ATOM     16  C   UNL A   1      32.758  24.676  26.357  1.00  0.00     0.122 C 
ATOM     17  C   UNL A   1      30.538  23.680  26.276  1.00  0.00     0.122 C 
ATOM     18  N   UNL A   1      31.336  24.895  26.164  1.00  0.00    -0.338 N 
ATOM     19  C   UNL A   1      30.733  26.117  25.877  1.00  0.00     0.256 C 
ATOM     20  O   UNL A   1      29.526  26.255  25.697  1.00  0.00    -0.269 OA
BRANCH  19  21
ATOM     21  C   UNL A   1      31.566  27.346  25.836  1.00  0.00     0.065 A 
ATOM     22  C   UNL A   1      31.570  28.107  27.017  1.00  0.00     0.016 A 
ATOM     23  C   UNL A   1      32.397  27.720  24.768  1.00  0.00     0.077 A 
ATOM     24  C   UNL A   1      32.420  29.206  27.150  1.00  0.00     0.001 A 
ATOM     25  C   UNL A   1      33.293  28.794  24.938  1.00  0.00     0.029 A 
ATOM     26  C   UNL A   1      33.294  29.538  26.119  1.00  0.00     0.002 A 
BRANCH  23  27
ATOM     27  N   UNL A   1      32.375  27.080  23.504  1.00  0.00    -0.240 N 
ATOM     28  C   UNL A   1      31.332  26.968  22.610  1.00  0.00     0.115 A 
ATOM     29  N   UNL A   1      33.502  26.493  23.015  1.00  0.00    -0.177 NA
ATOM     30  C   UNL A   1      31.802  26.268  21.524  1.00  0.00     0.042 A 
ATOM     31  C   UNL A   1      33.138  25.983  21.839  1.00  0.00     0.135 A 
ENDBRANCH  23  27
ENDBRANCH  19  21
ENDBRANCH   4   7
ENDBRANCH   2   3
ENDBRANCH   1   2
BRANCH   1  32
ATOM     32  C   UNL A   1      37.974  19.536  24.600  1.00  0.00     0.023 C 
BRANCH  32  33
ATOM     33  C   UNL A   1      38.911  19.932  25.731  1.00  0.00     0.116 C 
BRANCH  33  34
ATOM     34  N   UNL A   1      40.145  19.157  25.743  1.00  0.00    -0.352 N 
ATOM     35  C   UNL A   1      41.412  19.565  26.069  1.00  0.00     0.251 C 
ATOM     36  H   UNL A   1      40.057  18.212  25.480  1.00  0.00     0.163 HD
ATOM     37  O   UNL A   1      42.377  18.827  25.894  1.00  0.00    -0.269 OA
BRANCH  35  38
ATOM     38  C   UNL A   1      41.598  20.923  26.607  1.00  0.00     0.039 A 
ATOM     39  C   UNL A   1      41.520  21.124  27.986  1.00  0.00     0.014 A 
ATOM     40  C   UNL A   1      41.916  21.975  25.744  1.00  0.00     0.014 A 
ATOM     41  C   UNL A   1      41.831  22.377  28.509  1.00  0.00     0.010 A 
ATOM     42  C   UNL A   1      42.313  23.193  26.274  1.00  0.00     0.010 A 
ATOM     43  C   UNL A   1      42.266  23.408  27.659  1.00  0.00    -0.014 A 
BRANCH  43  44
ATOM     44  C   UNL A   1      42.667  24.728  28.193  1.00  0.00     0.031 A 
ATOM     45  C   UNL A   1      41.632  25.797  28.391  1.00  0.00     0.074 A 
ATOM     46  C   UNL A   1      43.970  24.988  28.414  1.00  0.00     0.049 A 
ATOM     47  N   UNL A   1      41.791  27.040  28.768  1.00  0.00    -0.248 NA
ATOM     48  C   UNL A   1      40.238  25.431  28.089  1.00  0.00     0.031 C 
ATOM     49  C   UNL A   1      45.074  24.051  28.196  1.00  0.00     0.029 A 
ATOM     50  N   UNL A   1      44.585  26.130  28.860  1.00  0.00    -0.354 N 
ATOM     51  C   UNL A   1      40.524  27.606  28.726  1.00  0.00     0.074 A 
ATOM     52  C   UNL A   1      39.620  26.593  28.228  1.00  0.00     0.031 C 
ATOM     53  C   UNL A   1      46.228  24.649  28.531  1.00  0.00     0.029 A 
ATOM     54  C   UNL A   1      45.950  26.017  28.953  1.00  0.00     0.049 A 
ATOM     55  H   UNL A   1      44.094  26.952  29.090  1.00  0.00     0.167 HD
ATOM     56  C   UNL A   1      40.141  28.851  29.094  1.00  0.00     0.031 A 
ATOM     57  C   UNL A   1      46.873  26.919  29.333  1.00  0.00     0.031 A 
ATOM     58  C   UNL A   1      41.040  29.850  29.602  1.00  0.00     0.049 A 
ATOM     59  C   UNL A   1      46.426  28.289  29.757  1.00  0.00     0.074 A 
ATOM     60  C   UNL A   1      40.748  31.122  30.060  1.00  0.00     0.029 A 
ATOM     61  N   UNL A   1      42.412  29.686  29.719  1.00  0.00    -0.354 N 
ATOM     62  N   UNL A   1      45.214  28.789  29.782  1.00  0.00    -0.248 NA
ATOM     63  C   UNL A   1      47.471  29.212  30.219  1.00  0.00     0.031 C 
ATOM     64  C   UNL A   1      41.951  31.742  30.416  1.00  0.00     0.029 A 
ATOM     65  C   UNL A   1      42.984  30.839  30.226  1.00  0.00     0.049 A 
ATOM     66  H   UNL A   1      42.906  28.869  29.477  1.00  0.00     0.167 HD
ATOM     67  C   UNL A   1      45.347  30.077  30.280  1.00  0.00     0.074 A 
ATOM     68  C   UNL A   1      46.755  30.275  30.561  1.00  0.00     0.031 C 
ATOM     69  C   UNL A   1      44.390  31.015  30.488  1.00  0.00     0.031 A 
BRANCH  56  70
ATOM     70  C   UNL A   1      38.682  29.186  28.951  1.00  0.00    -0.014 A 
ATOM     71  C   UNL A   1      38.158  29.641  27.730  1.00  0.00     0.009 A 
ATOM     72  C   UNL A   1      37.822  29.054  30.051  1.00  0.00     0.009 A 
ATOM     73  C   UNL A   1      36.815  30.008  27.627  1.00  0.00     0.001 A 
ATOM     74  C   UNL A   1      36.472  29.391  29.938  1.00  0.00     0.001 A 
ATOM     75  C   UNL A   1      35.972  29.880  28.731  1.00  0.00     0.000 A 
ENDBRANCH  56  70
BRANCH  57  76
ATOM     76  C   UNL A   1      48.308  26.539  29.351  1.00  0.00    -0.014 A 
ATOM     77  C   UNL A   1      49.126  26.793  28.240  1.00  0.00     0.009 A 
ATOM     78  C   UNL A   1      48.874  25.944  30.489  1.00  0.00     0.009 A 
ATOM     79  C   UNL A   1      50.478  26.442  28.261  1.00  0.00     0.001 A 
ATOM     80  C   UNL A   1      50.232  25.617  30.517  1.00  0.00     0.001 A 
ATOM     81  C   UNL A   1      51.031  25.860  29.401  1.00  0.00     0.000 A 
ENDBRANCH  57  76
BRANCH  69  82
ATOM     82  C   UNL A   1      44.833  32.328  31.065  1.00  0.00    -0.014 A 
ATOM     83  C   UNL A   1      45.160  33.412  30.236  1.00  0.00     0.009 A 
ATOM     84  C   UNL A   1      44.881  32.495  32.457  1.00  0.00     0.009 A 
ATOM     85  C   UNL A   1      45.555  34.630  30.792  1.00  0.00     0.001 A 
ATOM     86  C   UNL A   1      45.251  33.721  33.011  1.00  0.00     0.001 A 
ATOM     87  C   UNL A   1      45.596  34.785  32.177  1.00  0.00     0.000 A 
ENDBRANCH  69  82
ENDBRANCH  43  44
ENDBRANCH  35  38
ENDBRANCH  33  34
ENDBRANCH  32  33
ENDBRANCH   1  32
TORSDOF 13
ENDMDL
