MODEL 1
REMARK VINA RESULT:     -13.6      0.000      0.000
REMARK SMILES Cc1ccc(C(=O)NCCCCNC(=O)c2ccc(-c3c4nc(c(-c5ccccc5)c5ccc([nH]5)c(-c5ccccc5)c5nc(c(-c6ccccc6)c6ccc3[nH]6)C=C5)C=C4)cc2)cc1N1C(=O)/C(=C/c2ccc([N+](=O)[O-])cc2)SC1=S
REMARK SMILES IDX 10 1 9 2 8 3 6 4 7 5 5 7 1 8 2 9 3 10 65 11 4 12 64 13 66 14
REMARK SMILES IDX 67 15 81 16 68 17 69 18 80 19 82 20 70 21 71 22 72 23 79 24
REMARK SMILES IDX 73 25 78 26 74 27 75 28 76 29 77 30 11 31 12 32 13 33 14 34
REMARK SMILES IDX 15 36 16 37 17 38 63 39 18 40 62 41 19 42 20 43 21 44 56 45
REMARK SMILES IDX 22 46 61 47 55 48 57 49 23 50 60 51 54 52 53 53 24 55 46 56
REMARK SMILES IDX 31 57 45 58 32 59 35 60 44 61 58 62 33 63 34 64 43 66 59 67
REMARK SMILES IDX 36 68 25 69 26 70 30 71 27 72 29 73 28 74 47 75 48 76 52 77
REMARK SMILES IDX 49 78 51 79 50 80 37 81 38 82 42 83 39 84 41 85 40 86
REMARK H PARENT 8 6 13 35 57 54 35 65
REMARK Flexibility Score: inf
ROOT
ATOM      1  C   UNL A   1      31.579  30.998  26.188  1.00  0.00     0.023 C 
ENDROOT
BRANCH   1   2
ATOM      2  C   UNL A   1      31.870  29.794  27.096  1.00  0.00     0.116 C 
BRANCH   2   3
ATOM      3  N   UNL A   1      33.289  29.517  27.227  1.00  0.00    -0.352 N 
ATOM      4  C   UNL A   1      34.185  28.684  26.604  1.00  0.00     0.251 C 
ATOM      5  O   UNL A   1      35.362  28.806  26.958  1.00  0.00    -0.269 OA
ATOM      6  H   UNL A   1      33.710  30.056  27.935  1.00  0.00     0.163 HD
BRANCH   4   7
ATOM      7  C   UNL A   1      33.860  27.659  25.565  1.00  0.00     0.041 A 
ATOM      8  C   UNL A   1      33.047  24.936  22.260  1.00  0.00     0.046 C 
ATOM      9  C   UNL A   1      33.327  25.840  23.429  1.00  0.00    -0.027 A 
ATOM     10  C   UNL A   1      33.568  27.197  23.179  1.00  0.00     0.006 A 
ATOM     11  C   UNL A   1      33.365  25.400  24.760  1.00  0.00     0.054 A 
ATOM     12  C   UNL A   1      33.839  28.085  24.228  1.00  0.00     0.014 A 
ATOM     13  C   UNL A   1      33.616  26.310  25.806  1.00  0.00     0.041 A 
BRANCH  11  14
ATOM     14  N   UNL A   1      33.234  24.030  25.112  1.00  0.00    -0.261 N 
ATOM     15  C   UNL A   1      34.291  23.153  24.883  1.00  0.00     0.270 C 
ATOM     16  C   UNL A   1      32.039  23.478  25.549  1.00  0.00     0.152 C 
ATOM     17  O   UNL A   1      35.413  23.419  24.506  1.00  0.00    -0.268 OA
ATOM     18  C   UNL A   1      33.817  21.755  25.115  1.00  0.00     0.081 C 
ATOM     19  S   UNL A   1      32.253  21.755  25.821  1.00  0.00    -0.054 SA
ATOM     20  S   UNL A   1      30.566  24.221  25.824  1.00  0.00    -0.051 S 
ATOM     21  C   UNL A   1      34.528  20.685  24.737  1.00  0.00     0.029 C 
BRANCH  21  22
ATOM     22  C   UNL A   1      34.137  19.292  24.963  1.00  0.00    -0.024 A 
ATOM     23  C   UNL A   1      32.975  18.954  25.670  1.00  0.00     0.015 A 
ATOM     24  C   UNL A   1      34.950  18.279  24.441  1.00  0.00     0.015 A 
ATOM     25  C   UNL A   1      32.605  17.612  25.817  1.00  0.00     0.086 A 
ATOM     26  C   UNL A   1      34.591  16.939  24.582  1.00  0.00     0.086 A 
ATOM     27  C   UNL A   1      33.408  16.609  25.254  1.00  0.00     0.269 A 
BRANCH  27  28
ATOM     28  N   UNL A   1      32.994  15.202  25.341  1.00  0.00     0.062 N 
ATOM     29  O   UNL A   1      33.882  14.346  25.453  1.00  0.00    -0.258 OA
ATOM     30  O   UNL A   1      31.779  14.958  25.310  1.00  0.00    -0.258 OA
ENDBRANCH  27  28
ENDBRANCH  21  22
ENDBRANCH  11  14
ENDBRANCH   4   7
ENDBRANCH   2   3
ENDBRANCH   1   2
BRANCH   1  31
ATOM     31  C   UNL A   1      31.215  32.294  26.927  1.00  0.00     0.023 C 
BRANCH  31  32
ATOM     32  C   UNL A   1      32.187  33.443  26.696  1.00  0.00     0.116 C 
BRANCH  32  33
ATOM     33  N   UNL A   1      32.547  34.224  27.871  1.00  0.00    -0.352 N 
ATOM     34  C   UNL A   1      33.557  34.026  28.800  1.00  0.00     0.251 C 
ATOM     35  H   UNL A   1      31.985  35.017  28.030  1.00  0.00     0.163 HD
ATOM     36  O   UNL A   1      33.583  34.732  29.807  1.00  0.00    -0.269 OA
BRANCH  34  37
ATOM     37  C   UNL A   1      34.699  33.107  28.527  1.00  0.00     0.039 A 
ATOM     38  C   UNL A   1      34.648  31.815  29.075  1.00  0.00     0.014 A 
ATOM     39  C   UNL A   1      35.893  33.567  27.993  1.00  0.00     0.014 A 
ATOM     40  C   UNL A   1      35.832  31.144  29.367  1.00  0.00     0.010 A 
ATOM     41  C   UNL A   1      37.066  32.996  28.426  1.00  0.00     0.010 A 
ATOM     42  C   UNL A   1      37.029  31.816  29.172  1.00  0.00    -0.014 A 
BRANCH  42  43
ATOM     43  C   UNL A   1      38.311  31.413  29.716  1.00  0.00     0.031 A 
ATOM     44  C   UNL A   1      38.990  30.242  29.135  1.00  0.00     0.074 A 
ATOM     45  C   UNL A   1      38.939  32.250  30.570  1.00  0.00     0.049 A 
ATOM     46  N   UNL A   1      40.031  29.682  29.641  1.00  0.00    -0.248 NA
ATOM     47  C   UNL A   1      38.494  29.559  27.939  1.00  0.00     0.031 C 
ATOM     48  C   UNL A   1      40.356  32.296  30.918  1.00  0.00     0.029 A 
ATOM     49  N   UNL A   1      38.335  33.120  31.480  1.00  0.00    -0.354 N 
ATOM     50  C   UNL A   1      40.525  28.824  28.689  1.00  0.00     0.074 A 
ATOM     51  C   UNL A   1      39.469  28.672  27.724  1.00  0.00     0.031 C 
ATOM     52  C   UNL A   1      40.494  32.916  32.102  1.00  0.00     0.029 A 
ATOM     53  C   UNL A   1      39.153  33.121  32.629  1.00  0.00     0.049 A 
ATOM     54  H   UNL A   1      37.503  33.631  31.348  1.00  0.00     0.167 HD
ATOM     55  C   UNL A   1      41.841  28.483  28.746  1.00  0.00     0.031 A 
ATOM     56  C   UNL A   1      38.698  32.578  33.799  1.00  0.00     0.031 A 
ATOM     57  C   UNL A   1      42.426  28.871  30.028  1.00  0.00     0.049 A 
ATOM     58  C   UNL A   1      39.512  31.385  34.255  1.00  0.00     0.074 A 
ATOM     59  C   UNL A   1      43.267  29.900  30.414  1.00  0.00     0.029 A 
ATOM     60  N   UNL A   1      41.883  28.343  31.197  1.00  0.00    -0.354 N 
ATOM     61  N   UNL A   1      40.241  30.650  33.459  1.00  0.00    -0.248 NA
ATOM     62  C   UNL A   1      39.568  30.927  35.641  1.00  0.00     0.031 C 
ATOM     63  C   UNL A   1      43.116  30.074  31.818  1.00  0.00     0.029 A 
ATOM     64  C   UNL A   1      42.232  29.115  32.286  1.00  0.00     0.049 A 
ATOM     65  H   UNL A   1      41.327  27.532  31.240  1.00  0.00     0.167 HD
ATOM     66  C   UNL A   1      40.874  29.677  34.183  1.00  0.00     0.074 A 
ATOM     67  C   UNL A   1      40.413  29.884  35.546  1.00  0.00     0.031 C 
ATOM     68  C   UNL A   1      41.733  28.781  33.614  1.00  0.00     0.031 A 
BRANCH  55  69
ATOM     69  C   UNL A   1      42.651  28.032  27.551  1.00  0.00    -0.014 A 
ATOM     70  C   UNL A   1      42.180  28.320  26.256  1.00  0.00     0.009 A 
ATOM     71  C   UNL A   1      43.799  27.221  27.615  1.00  0.00     0.009 A 
ATOM     72  C   UNL A   1      42.807  27.814  25.107  1.00  0.00     0.001 A 
ATOM     73  C   UNL A   1      44.446  26.732  26.473  1.00  0.00     0.001 A 
ATOM     74  C   UNL A   1      43.943  27.021  25.215  1.00  0.00     0.000 A 
ENDBRANCH  55  69
BRANCH  56  75
ATOM     75  C   UNL A   1      37.221  32.726  33.969  1.00  0.00    -0.014 A 
ATOM     76  C   UNL A   1      36.751  33.854  34.678  1.00  0.00     0.009 A 
ATOM     77  C   UNL A   1      36.332  32.055  33.119  1.00  0.00     0.009 A 
ATOM     78  C   UNL A   1      35.484  34.387  34.419  1.00  0.00     0.001 A 
ATOM     79  C   UNL A   1      35.051  32.577  32.887  1.00  0.00     0.001 A 
ATOM     80  C   UNL A   1      34.649  33.766  33.496  1.00  0.00     0.000 A 
ENDBRANCH  56  75
BRANCH  68  81
ATOM     81  C   UNL A   1      42.250  27.527  34.275  1.00  0.00    -0.014 A 
ATOM     82  C   UNL A   1      43.608  27.248  34.474  1.00  0.00     0.009 A 
ATOM     83  C   UNL A   1      41.326  26.638  34.870  1.00  0.00     0.009 A 
ATOM     84  C   UNL A   1      44.022  26.111  35.182  1.00  0.00     0.001 A 
ATOM     85  C   UNL A   1      41.734  25.532  35.618  1.00  0.00     0.001 A 
ATOM     86  C   UNL A   1      43.086  25.260  35.762  1.00  0.00     0.000 A 
ENDBRANCH  68  81
ENDBRANCH  42  43
ENDBRANCH  34  37
ENDBRANCH  32  33
ENDBRANCH  31  32
ENDBRANCH   1  31
TORSDOF 14
ENDMDL
MODEL 2
REMARK VINA RESULT:     -13.5      3.195      4.488
REMARK SMILES Cc1ccc(C(=O)NCCCCNC(=O)c2ccc(-c3c4nc(c(-c5ccccc5)c5ccc([nH]5)c(-c5ccccc5)c5nc(c(-c6ccccc6)c6ccc3[nH]6)C=C5)C=C4)cc2)cc1N1C(=O)/C(=C/c2ccc([N+](=O)[O-])cc2)SC1=S
REMARK SMILES IDX 10 1 9 2 8 3 6 4 7 5 5 7 1 8 2 9 3 10 65 11 4 12 64 13 66 14
REMARK SMILES IDX 67 15 81 16 68 17 69 18 80 19 82 20 70 21 71 22 72 23 79 24
REMARK SMILES IDX 73 25 78 26 74 27 75 28 76 29 77 30 11 31 12 32 13 33 14 34
REMARK SMILES IDX 15 36 16 37 17 38 63 39 18 40 62 41 19 42 20 43 21 44 56 45
REMARK SMILES IDX 22 46 61 47 55 48 57 49 23 50 60 51 54 52 53 53 24 55 46 56
REMARK SMILES IDX 31 57 45 58 32 59 35 60 44 61 58 62 33 63 34 64 43 66 59 67
REMARK SMILES IDX 36 68 25 69 26 70 30 71 27 72 29 73 28 74 47 75 48 76 52 77
REMARK SMILES IDX 49 78 51 79 50 80 37 81 38 82 42 83 39 84 41 85 40 86
REMARK H PARENT 8 6 13 35 57 54 35 65
REMARK Flexibility Score: inf
ROOT
ATOM      1  C   UNL A   1      32.058  29.566  27.200  1.00  0.00     0.023 C 
ENDROOT
BRANCH   1   2
ATOM      2  C   UNL A   1      31.682  28.248  26.507  1.00  0.00     0.116 C 
BRANCH   2   3
ATOM      3  N   UNL A   1      31.234  28.438  25.139  1.00  0.00    -0.352 N 
ATOM      4  C   UNL A   1      30.993  27.618  24.066  1.00  0.00     0.251 C 
ATOM      5  O   UNL A   1      30.526  28.171  23.065  1.00  0.00    -0.269 OA
ATOM      6  H   UNL A   1      31.062  29.385  24.931  1.00  0.00     0.163 HD
BRANCH   4   7
ATOM      7  C   UNL A   1      31.254  26.147  24.005  1.00  0.00     0.041 A 
ATOM      8  C   UNL A   1      31.745  21.843  23.524  1.00  0.00     0.046 C 
ATOM      9  C   UNL A   1      31.616  23.328  23.712  1.00  0.00    -0.027 A 
ATOM     10  C   UNL A   1      30.523  23.981  23.127  1.00  0.00     0.006 A 
ATOM     11  C   UNL A   1      32.532  24.103  24.439  1.00  0.00     0.054 A 
ATOM     12  C   UNL A   1      30.353  25.365  23.263  1.00  0.00     0.014 A 
ATOM     13  C   UNL A   1      32.335  25.491  24.587  1.00  0.00     0.041 A 
BRANCH  11  14
ATOM     14  N   UNL A   1      33.724  23.557  24.985  1.00  0.00    -0.261 N 
ATOM     15  C   UNL A   1      34.877  23.496  24.207  1.00  0.00     0.270 C 
ATOM     16  C   UNL A   1      33.766  22.941  26.226  1.00  0.00     0.152 C 
ATOM     17  O   UNL A   1      35.058  23.966  23.102  1.00  0.00    -0.268 OA
ATOM     18  C   UNL A   1      35.900  22.675  24.923  1.00  0.00     0.081 C 
ATOM     19  S   UNL A   1      35.390  22.336  26.526  1.00  0.00    -0.054 SA
ATOM     20  S   UNL A   1      32.548  22.745  27.356  1.00  0.00    -0.051 S 
ATOM     21  C   UNL A   1      37.012  22.233  24.323  1.00  0.00     0.029 C 
BRANCH  21  22
ATOM     22  C   UNL A   1      38.067  21.454  24.975  1.00  0.00    -0.024 A 
ATOM     23  C   UNL A   1      38.158  20.063  24.829  1.00  0.00     0.015 A 
ATOM     24  C   UNL A   1      39.012  22.133  25.753  1.00  0.00     0.015 A 
ATOM     25  C   UNL A   1      39.214  19.360  25.422  1.00  0.00     0.086 A 
ATOM     26  C   UNL A   1      40.068  21.443  26.349  1.00  0.00     0.086 A 
ATOM     27  C   UNL A   1      40.176  20.059  26.166  1.00  0.00     0.269 A 
BRANCH  27  28
ATOM     28  N   UNL A   1      41.327  19.343  26.734  1.00  0.00     0.062 N 
ATOM     29  O   UNL A   1      41.907  18.520  26.013  1.00  0.00    -0.258 OA
ATOM     30  O   UNL A   1      41.656  19.616  27.898  1.00  0.00    -0.258 OA
ENDBRANCH  27  28
ENDBRANCH  21  22
ENDBRANCH  11  14
ENDBRANCH   4   7
ENDBRANCH   2   3
ENDBRANCH   1   2
BRANCH   1  31
ATOM     31  C   UNL A   1      33.534  29.687  27.607  1.00  0.00     0.023 C 
BRANCH  31  32
ATOM     32  C   UNL A   1      34.281  30.826  26.926  1.00  0.00     0.116 C 
BRANCH  32  33
ATOM     33  N   UNL A   1      35.019  31.724  27.805  1.00  0.00    -0.352 N 
ATOM     34  C   UNL A   1      36.068  31.461  28.672  1.00  0.00     0.251 C 
ATOM     35  H   UNL A   1      34.726  32.663  27.778  1.00  0.00     0.163 HD
ATOM     36  O   UNL A   1      36.442  32.349  29.437  1.00  0.00    -0.269 OA
BRANCH  34  37
ATOM     37  C   UNL A   1      36.859  30.200  28.580  1.00  0.00     0.039 A 
ATOM     38  C   UNL A   1      36.837  29.329  29.682  1.00  0.00     0.014 A 
ATOM     39  C   UNL A   1      37.800  30.001  27.582  1.00  0.00     0.014 A 
ATOM     40  C   UNL A   1      37.926  28.497  29.923  1.00  0.00     0.010 A 
ATOM     41  C   UNL A   1      38.949  29.315  27.893  1.00  0.00     0.010 A 
ATOM     42  C   UNL A   1      39.034  28.615  29.098  1.00  0.00    -0.014 A 
BRANCH  42  43
ATOM     43  C   UNL A   1      40.351  28.083  29.388  1.00  0.00     0.031 A 
ATOM     44  C   UNL A   1      40.699  26.742  28.888  1.00  0.00     0.074 A 
ATOM     45  C   UNL A   1      41.282  28.916  29.901  1.00  0.00     0.049 A 
ATOM     46  N   UNL A   1      41.755  26.093  29.228  1.00  0.00    -0.248 NA
ATOM     47  C   UNL A   1      39.824  25.987  27.989  1.00  0.00     0.031 C 
ATOM     48  C   UNL A   1      42.735  28.770  29.890  1.00  0.00     0.029 A 
ATOM     49  N   UNL A   1      41.054  29.999  30.753  1.00  0.00    -0.354 N 
ATOM     50  C   UNL A   1      41.870  25.034  28.361  1.00  0.00     0.074 A 
ATOM     51  C   UNL A   1      40.587  24.926  27.717  1.00  0.00     0.031 C 
ATOM     52  C   UNL A   1      43.255  29.524  30.874  1.00  0.00     0.029 A 
ATOM     53  C   UNL A   1      42.137  30.027  31.656  1.00  0.00     0.049 A 
ATOM     54  H   UNL A   1      40.289  30.619  30.729  1.00  0.00     0.167 HD
ATOM     55  C   UNL A   1      43.099  24.486  28.166  1.00  0.00     0.031 A 
ATOM     56  C   UNL A   1      41.938  29.745  32.979  1.00  0.00     0.031 A 
ATOM     57  C   UNL A   1      44.044  24.951  29.180  1.00  0.00     0.049 A 
ATOM     58  C   UNL A   1      42.684  28.511  33.441  1.00  0.00     0.074 A 
ATOM     59  C   UNL A   1      45.081  25.867  29.161  1.00  0.00     0.029 A 
ATOM     60  N   UNL A   1      43.763  24.699  30.521  1.00  0.00    -0.354 N 
ATOM     61  N   UNL A   1      43.078  27.555  32.644  1.00  0.00    -0.248 NA
ATOM     62  C   UNL A   1      43.041  28.256  34.835  1.00  0.00     0.031 C 
ATOM     63  C   UNL A   1      45.327  26.266  30.504  1.00  0.00     0.029 A 
ATOM     64  C   UNL A   1      44.480  25.550  31.336  1.00  0.00     0.049 A 
ATOM     65  H   UNL A   1      43.139  24.009  30.842  1.00  0.00     0.167 HD
ATOM     66  C   UNL A   1      43.749  26.604  33.364  1.00  0.00     0.074 A 
ATOM     67  C   UNL A   1      43.691  27.082  34.735  1.00  0.00     0.031 C 
ATOM     68  C   UNL A   1      44.307  25.502  32.782  1.00  0.00     0.031 A 
BRANCH  55  69
ATOM     69  C   UNL A   1      43.504  23.736  26.917  1.00  0.00    -0.014 A 
ATOM     70  C   UNL A   1      43.675  24.448  25.715  1.00  0.00     0.009 A 
ATOM     71  C   UNL A   1      43.607  22.335  26.816  1.00  0.00     0.009 A 
ATOM     72  C   UNL A   1      43.913  23.799  24.494  1.00  0.00     0.001 A 
ATOM     73  C   UNL A   1      43.871  21.681  25.605  1.00  0.00     0.001 A 
ATOM     74  C   UNL A   1      44.014  22.414  24.439  1.00  0.00     0.000 A 
ENDBRANCH  55  69
BRANCH  56  75
ATOM     75  C   UNL A   1      40.589  30.166  33.463  1.00  0.00    -0.014 A 
ATOM     76  C   UNL A   1      40.353  31.548  33.636  1.00  0.00     0.009 A 
ATOM     77  C   UNL A   1      39.484  29.313  33.335  1.00  0.00     0.009 A 
ATOM     78  C   UNL A   1      39.064  32.076  33.519  1.00  0.00     0.001 A 
ATOM     79  C   UNL A   1      38.190  29.846  33.249  1.00  0.00     0.001 A 
ATOM     80  C   UNL A   1      37.987  31.226  33.291  1.00  0.00     0.000 A 
ENDBRANCH  56  75
BRANCH  68  81
ATOM     81  C   UNL A   1      44.815  24.287  33.520  1.00  0.00    -0.014 A 
ATOM     82  C   UNL A   1      46.122  24.152  34.003  1.00  0.00     0.009 A 
ATOM     83  C   UNL A   1      43.895  23.280  33.890  1.00  0.00     0.009 A 
ATOM     84  C   UNL A   1      46.505  23.041  34.767  1.00  0.00     0.001 A 
ATOM     85  C   UNL A   1      44.260  22.197  34.692  1.00  0.00     0.001 A 
ATOM     86  C   UNL A   1      45.573  22.070  35.119  1.00  0.00     0.000 A 
ENDBRANCH  68  81
ENDBRANCH  42  43
ENDBRANCH  34  37
ENDBRANCH  32  33
ENDBRANCH  31  32
ENDBRANCH   1  31
TORSDOF 14
ENDMDL
MODEL 3
REMARK VINA RESULT:     -13.2      2.921      9.770
REMARK SMILES Cc1ccc(C(=O)NCCCCNC(=O)c2ccc(-c3c4nc(c(-c5ccccc5)c5ccc([nH]5)c(-c5ccccc5)c5nc(c(-c6ccccc6)c6ccc3[nH]6)C=C5)C=C4)cc2)cc1N1C(=O)/C(=C/c2ccc([N+](=O)[O-])cc2)SC1=S
REMARK SMILES IDX 10 1 9 2 8 3 6 4 7 5 5 7 1 8 2 9 3 10 65 11 4 12 64 13 66 14
REMARK SMILES IDX 67 15 81 16 68 17 69 18 80 19 82 20 70 21 71 22 72 23 79 24
REMARK SMILES IDX 73 25 78 26 74 27 75 28 76 29 77 30 11 31 12 32 13 33 14 34
REMARK SMILES IDX 15 36 16 37 17 38 63 39 18 40 62 41 19 42 20 43 21 44 56 45
REMARK SMILES IDX 22 46 61 47 55 48 57 49 23 50 60 51 54 52 53 53 24 55 46 56
REMARK SMILES IDX 31 57 45 58 32 59 35 60 44 61 58 62 33 63 34 64 43 66 59 67
REMARK SMILES IDX 36 68 25 69 26 70 30 71 27 72 29 73 28 74 47 75 48 76 52 77
REMARK SMILES IDX 49 78 51 79 50 80 37 81 38 82 42 83 39 84 41 85 40 86
REMARK H PARENT 8 6 13 35 57 54 35 65
REMARK Flexibility Score: inf
ROOT
ATOM      1  C   UNL A   1      35.936  23.156  25.737  1.00  0.00     0.023 C 
ENDROOT
BRANCH   1   2
ATOM      2  C   UNL A   1      35.660  22.246  24.531  1.00  0.00     0.116 C 
BRANCH   2   3
ATOM      3  N   UNL A   1      34.522  21.368  24.736  1.00  0.00    -0.352 N 
ATOM      4  C   UNL A   1      33.161  21.483  24.596  1.00  0.00     0.251 C 
ATOM      5  O   UNL A   1      32.515  20.450  24.796  1.00  0.00    -0.269 OA
ATOM      6  H   UNL A   1      34.791  20.476  25.053  1.00  0.00     0.163 HD
BRANCH   4   7
ATOM      7  C   UNL A   1      32.413  22.728  24.240  1.00  0.00     0.041 A 
ATOM      8  C   UNL A   1      29.910  26.121  23.135  1.00  0.00     0.046 C 
ATOM      9  C   UNL A   1      30.802  24.980  23.537  1.00  0.00    -0.027 A 
ATOM     10  C   UNL A   1      30.393  23.675  23.232  1.00  0.00     0.006 A 
ATOM     11  C   UNL A   1      32.024  25.146  24.207  1.00  0.00     0.054 A 
ATOM     12  C   UNL A   1      31.180  22.571  23.588  1.00  0.00     0.014 A 
ATOM     13  C   UNL A   1      32.815  24.027  24.537  1.00  0.00     0.041 A 
BRANCH  11  14
ATOM     14  N   UNL A   1      32.481  26.414  24.651  1.00  0.00    -0.261 N 
ATOM     15  C   UNL A   1      32.118  26.878  25.914  1.00  0.00     0.270 C 
ATOM     16  C   UNL A   1      33.164  27.296  23.827  1.00  0.00     0.152 C 
ATOM     17  O   UNL A   1      31.524  26.279  26.786  1.00  0.00    -0.268 OA
ATOM     18  C   UNL A   1      32.522  28.312  26.035  1.00  0.00     0.081 C 
ATOM     19  S   UNL A   1      33.502  28.780  24.707  1.00  0.00    -0.054 SA
ATOM     20  S   UNL A   1      33.656  27.100  22.241  1.00  0.00    -0.051 S 
ATOM     21  C   UNL A   1      32.089  29.096  27.031  1.00  0.00     0.029 C 
BRANCH  21  22
ATOM     22  C   UNL A   1      32.472  30.496  27.226  1.00  0.00    -0.024 A 
ATOM     23  C   UNL A   1      31.662  31.553  26.789  1.00  0.00     0.015 A 
ATOM     24  C   UNL A   1      33.678  30.771  27.881  1.00  0.00     0.015 A 
ATOM     25  C   UNL A   1      32.036  32.878  27.045  1.00  0.00     0.086 A 
ATOM     26  C   UNL A   1      34.060  32.088  28.141  1.00  0.00     0.086 A 
ATOM     27  C   UNL A   1      33.227  33.139  27.737  1.00  0.00     0.269 A 
BRANCH  27  28
ATOM     28  N   UNL A   1      33.594  34.521  28.073  1.00  0.00     0.062 N 
ATOM     29  O   UNL A   1      32.823  35.162  28.800  1.00  0.00    -0.258 OA
ATOM     30  O   UNL A   1      34.661  34.958  27.619  1.00  0.00    -0.258 OA
ENDBRANCH  27  28
ENDBRANCH  21  22
ENDBRANCH  11  14
ENDBRANCH   4   7
ENDBRANCH   2   3
ENDBRANCH   1   2
BRANCH   1  31
ATOM     31  C   UNL A   1      37.411  23.530  25.943  1.00  0.00     0.023 C 
BRANCH  31  32
ATOM     32  C   UNL A   1      38.392  22.403  25.648  1.00  0.00     0.116 C 
BRANCH  32  33
ATOM     33  N   UNL A   1      39.463  22.215  26.617  1.00  0.00    -0.352 N 
ATOM     34  C   UNL A   1      40.205  23.151  27.321  1.00  0.00     0.251 C 
ATOM     35  H   UNL A   1      39.696  21.276  26.800  1.00  0.00     0.163 HD
ATOM     36  O   UNL A   1      41.171  22.769  27.979  1.00  0.00    -0.269 OA
BRANCH  34  37
ATOM     37  C   UNL A   1      39.760  24.570  27.438  1.00  0.00     0.039 A 
ATOM     38  C   UNL A   1      40.338  25.513  26.573  1.00  0.00     0.014 A 
ATOM     39  C   UNL A   1      39.019  25.014  28.522  1.00  0.00     0.014 A 
ATOM     40  C   UNL A   1      40.438  26.842  26.972  1.00  0.00     0.010 A 
ATOM     41  C   UNL A   1      39.257  26.280  29.003  1.00  0.00     0.010 A 
ATOM     42  C   UNL A   1      40.024  27.173  28.254  1.00  0.00    -0.014 A 
BRANCH  42  43
ATOM     43  C   UNL A   1      40.349  28.406  28.944  1.00  0.00     0.031 A 
ATOM     44  C   UNL A   1      39.321  29.456  29.039  1.00  0.00     0.074 A 
ATOM     45  C   UNL A   1      41.490  28.457  29.665  1.00  0.00     0.049 A 
ATOM     46  N   UNL A   1      39.541  30.650  29.462  1.00  0.00    -0.248 NA
ATOM     47  C   UNL A   1      37.941  29.248  28.595  1.00  0.00     0.031 C 
ATOM     48  C   UNL A   1      41.837  29.372  30.749  1.00  0.00     0.029 A 
ATOM     49  N   UNL A   1      42.684  27.788  29.387  1.00  0.00    -0.354 N 
ATOM     50  C   UNL A   1      38.314  31.233  29.667  1.00  0.00     0.074 A 
ATOM     51  C   UNL A   1      37.370  30.391  28.983  1.00  0.00     0.031 C 
ATOM     52  C   UNL A   1      43.175  29.412  30.872  1.00  0.00     0.029 A 
ATOM     53  C   UNL A   1      43.725  28.667  29.751  1.00  0.00     0.049 A 
ATOM     54  H   UNL A   1      42.780  26.883  29.011  1.00  0.00     0.167 HD
ATOM     55  C   UNL A   1      38.229  32.269  30.545  1.00  0.00     0.031 A 
ATOM     56  C   UNL A   1      44.534  29.211  28.792  1.00  0.00     0.031 A 
ATOM     57  C   UNL A   1      39.557  32.775  30.886  1.00  0.00     0.049 A 
ATOM     58  C   UNL A   1      44.429  30.720  28.713  1.00  0.00     0.074 A 
ATOM     59  C   UNL A   1      40.363  32.646  32.003  1.00  0.00     0.029 A 
ATOM     60  N   UNL A   1      40.371  33.256  29.863  1.00  0.00    -0.354 N 
ATOM     61  N   UNL A   1      43.399  31.403  29.133  1.00  0.00    -0.248 NA
ATOM     62  C   UNL A   1      45.475  31.575  28.157  1.00  0.00     0.031 C 
ATOM     63  C   UNL A   1      41.700  32.924  31.602  1.00  0.00     0.029 A 
ATOM     64  C   UNL A   1      41.692  33.276  30.262  1.00  0.00     0.049 A 
ATOM     65  H   UNL A   1      40.049  33.543  28.978  1.00  0.00     0.167 HD
ATOM     66  C   UNL A   1      43.629  32.740  28.951  1.00  0.00     0.074 A 
ATOM     67  C   UNL A   1      44.940  32.798  28.327  1.00  0.00     0.031 C 
ATOM     68  C   UNL A   1      42.733  33.697  29.334  1.00  0.00     0.031 A 
BRANCH  55  69
ATOM     69  C   UNL A   1      36.966  32.651  31.283  1.00  0.00    -0.014 A 
ATOM     70  C   UNL A   1      36.084  33.579  30.697  1.00  0.00     0.009 A 
ATOM     71  C   UNL A   1      36.644  32.249  32.594  1.00  0.00     0.009 A 
ATOM     72  C   UNL A   1      34.968  34.081  31.384  1.00  0.00     0.001 A 
ATOM     73  C   UNL A   1      35.518  32.727  33.278  1.00  0.00     0.001 A 
ATOM     74  C   UNL A   1      34.684  33.653  32.675  1.00  0.00     0.000 A 
ENDBRANCH  55  69
BRANCH  56  75
ATOM     75  C   UNL A   1      44.737  28.302  27.623  1.00  0.00    -0.014 A 
ATOM     76  C   UNL A   1      45.363  27.058  27.859  1.00  0.00     0.009 A 
ATOM     77  C   UNL A   1      43.975  28.454  26.457  1.00  0.00     0.009 A 
ATOM     78  C   UNL A   1      45.099  25.956  27.039  1.00  0.00     0.001 A 
ATOM     79  C   UNL A   1      43.740  27.353  25.621  1.00  0.00     0.001 A 
ATOM     80  C   UNL A   1      44.259  26.097  25.941  1.00  0.00     0.000 A 
ENDBRANCH  56  75
BRANCH  68  81
ATOM     81  C   UNL A   1      42.783  35.150  28.929  1.00  0.00    -0.014 A 
ATOM     82  C   UNL A   1      42.057  35.692  27.861  1.00  0.00     0.009 A 
ATOM     83  C   UNL A   1      43.476  36.064  29.754  1.00  0.00     0.009 A 
ATOM     84  C   UNL A   1      42.070  37.069  27.597  1.00  0.00     0.001 A 
ATOM     85  C   UNL A   1      43.451  37.441  29.524  1.00  0.00     0.001 A 
ATOM     86  C   UNL A   1      42.757  37.943  28.433  1.00  0.00     0.000 A 
ENDBRANCH  68  81
ENDBRANCH  42  43
ENDBRANCH  34  37
ENDBRANCH  32  33
ENDBRANCH  31  32
ENDBRANCH   1  31
TORSDOF 14
ENDMDL
