MODEL 1
REMARK VINA RESULT:      -8.6      0.000      0.000
REMARK SMILES Cc1cc(F)cc(/C=C/C(=O)NCCCCNC(=O)c2ccc(-c3c4nc(c(-c5ccccc5)c5ccc([nH]5)c(-c5ccccc5)c5nc(c(-c6ccccc6)c6ccc3[nH]6)C=C5)C=C4)cc2)c1
REMARK SMILES IDX 15 1 14 2 13 3 12 4 10 5 11 6 9 8 8 9 7 10 1 11 2 12 3 13
REMARK SMILES IDX 68 14 4 15 5 16 6 17 16 18 17 19 18 20 19 22 20 23 21 24
REMARK SMILES IDX 67 25 22 26 66 27 23 28 24 29 25 30 60 31 26 32 65 33 59 34
REMARK SMILES IDX 61 35 27 36 64 37 58 38 57 39 28 41 50 42 35 43 49 44 36 45
REMARK SMILES IDX 39 46 48 47 62 48 37 49 38 50 47 52 63 53 40 54 29 55 30 56
REMARK SMILES IDX 34 57 31 58 33 59 32 60 51 61 52 62 56 63 53 64 55 65 54 66
REMARK SMILES IDX 41 67 42 68 46 69 43 70 45 71 44 72
REMARK H PARENT 12 7 17 21 61 40 39 51
REMARK Flexibility Score: inf
ROOT
ATOM      1  C   UNL A   1      44.846  20.558  24.716  1.00  0.00     0.023 C 
ENDROOT
BRANCH   1   2
ATOM      2  C   UNL A   1      45.481  21.821  25.305  1.00  0.00     0.023 C 
BRANCH   2   3
ATOM      3  C   UNL A   1      45.559  23.001  24.337  1.00  0.00     0.116 C 
BRANCH   3   4
ATOM      4  N   UNL A   1      46.833  23.686  24.445  1.00  0.00    -0.353 N 
ATOM      5  C   UNL A   1      47.117  24.955  24.845  1.00  0.00     0.243 C 
ATOM      6  O   UNL A   1      48.286  25.311  24.967  1.00  0.00    -0.270 OA
ATOM      7  H   UNL A   1      47.616  23.147  24.188  1.00  0.00     0.163 HD
BRANCH   5   8
ATOM      8  C   UNL A   1      46.030  25.884  25.225  1.00  0.00     0.072 C 
ATOM      9  C   UNL A   1      46.236  27.081  25.794  1.00  0.00     0.014 C 
BRANCH   9  10
ATOM     10  C   UNL A   1      45.154  27.999  26.170  1.00  0.00    -0.022 A 
ATOM     11  C   UNL A   1      41.381  28.269  25.606  1.00  0.00     0.044 C 
ATOM     12  C   UNL A   1      42.778  28.570  26.063  1.00  0.00    -0.048 A 
ATOM     13  C   UNL A   1      43.040  29.739  26.784  1.00  0.00     0.042 A 
ATOM     14  C   UNL A   1      43.844  27.712  25.750  1.00  0.00     0.011 A 
ATOM     15  C   UNL A   1      44.339  30.026  27.188  1.00  0.00     0.124 A 
ATOM     16  F   UNL A   1      44.579  31.153  27.872  1.00  0.00    -0.207 F 
ATOM     17  C   UNL A   1      45.395  29.174  26.888  1.00  0.00     0.047 A 
ENDBRANCH   9  10
ENDBRANCH   5   8
ENDBRANCH   3   4
ENDBRANCH   2   3
ENDBRANCH   1   2
BRANCH   1  18
ATOM     18  C   UNL A   1      44.383  19.528  25.742  1.00  0.00     0.116 C 
BRANCH  18  19
ATOM     19  N   UNL A   1      43.012  19.085  25.542  1.00  0.00    -0.352 N 
ATOM     20  C   UNL A   1      41.847  19.734  25.879  1.00  0.00     0.251 C 
ATOM     21  H   UNL A   1      42.903  18.208  25.107  1.00  0.00     0.163 HD
ATOM     22  O   UNL A   1      40.762  19.191  25.727  1.00  0.00    -0.269 OA
BRANCH  20  23
ATOM     23  C   UNL A   1      41.927  21.085  26.473  1.00  0.00     0.039 A 
ATOM     24  C   UNL A   1      42.040  21.203  27.860  1.00  0.00     0.014 A 
ATOM     25  C   UNL A   1      41.940  22.221  25.660  1.00  0.00     0.014 A 
ATOM     26  C   UNL A   1      42.246  22.459  28.430  1.00  0.00     0.010 A 
ATOM     27  C   UNL A   1      42.207  23.465  26.223  1.00  0.00     0.010 A 
ATOM     28  C   UNL A   1      42.371  23.594  27.611  1.00  0.00    -0.014 A 
BRANCH  28  29
ATOM     29  C   UNL A   1      42.696  24.923  28.184  1.00  0.00     0.031 A 
ATOM     30  C   UNL A   1      44.104  25.246  28.595  1.00  0.00     0.074 A 
ATOM     31  C   UNL A   1      41.707  25.810  28.408  1.00  0.00     0.049 A 
ATOM     32  N   UNL A   1      44.567  26.320  29.180  1.00  0.00    -0.248 NA
ATOM     33  C   UNL A   1      45.122  24.213  28.338  1.00  0.00     0.031 C 
ATOM     34  C   UNL A   1      40.292  25.600  28.097  1.00  0.00     0.029 A 
ATOM     35  N   UNL A   1      41.743  27.065  28.962  1.00  0.00    -0.354 N 
ATOM     36  C   UNL A   1      45.921  26.086  29.381  1.00  0.00     0.074 A 
ATOM     37  C   UNL A   1      46.197  24.753  28.893  1.00  0.00     0.031 C 
ATOM     38  C   UNL A   1      39.598  26.698  28.443  1.00  0.00     0.029 A 
ATOM     39  C   UNL A   1      40.513  27.671  29.031  1.00  0.00     0.049 A 
ATOM     40  H   UNL A   1      42.572  27.491  29.279  1.00  0.00     0.167 HD
ATOM     41  C   UNL A   1      46.855  26.913  29.908  1.00  0.00     0.031 A 
ATOM     42  C   UNL A   1      40.159  28.873  29.520  1.00  0.00     0.031 A 
ATOM     43  C   UNL A   1      46.585  28.246  30.377  1.00  0.00     0.049 A 
ATOM     44  C   UNL A   1      41.213  29.772  30.101  1.00  0.00     0.074 A 
ATOM     45  C   UNL A   1      47.478  29.185  30.862  1.00  0.00     0.029 A 
ATOM     46  N   UNL A   1      45.328  28.827  30.418  1.00  0.00    -0.354 N 
ATOM     47  N   UNL A   1      42.502  29.563  30.218  1.00  0.00    -0.248 NA
ATOM     48  C   UNL A   1      40.764  31.076  30.611  1.00  0.00     0.031 C 
ATOM     49  C   UNL A   1      46.754  30.322  31.237  1.00  0.00     0.029 A 
ATOM     50  C   UNL A   1      45.417  30.105  30.943  1.00  0.00     0.049 A 
ATOM     51  H   UNL A   1      44.496  28.396  30.118  1.00  0.00     0.167 HD
ATOM     52  C   UNL A   1      43.020  30.716  30.794  1.00  0.00     0.074 A 
ATOM     53  C   UNL A   1      41.909  31.625  30.988  1.00  0.00     0.031 C 
ATOM     54  C   UNL A   1      44.302  30.995  31.133  1.00  0.00     0.031 A 
BRANCH  41  55
ATOM     55  C   UNL A   1      48.259  26.391  30.007  1.00  0.00    -0.014 A 
ATOM     56  C   UNL A   1      48.709  25.737  31.165  1.00  0.00     0.009 A 
ATOM     57  C   UNL A   1      49.135  26.529  28.920  1.00  0.00     0.009 A 
ATOM     58  C   UNL A   1      50.021  25.266  31.245  1.00  0.00     0.001 A 
ATOM     59  C   UNL A   1      50.438  26.034  28.993  1.00  0.00     0.001 A 
ATOM     60  C   UNL A   1      50.883  25.411  30.159  1.00  0.00     0.000 A 
ENDBRANCH  41  55
BRANCH  42  61
ATOM     61  C   UNL A   1      38.740  29.310  29.469  1.00  0.00    -0.014 A 
ATOM     62  C   UNL A   1      37.887  29.078  30.559  1.00  0.00     0.009 A 
ATOM     63  C   UNL A   1      38.229  29.953  28.331  1.00  0.00     0.009 A 
ATOM     64  C   UNL A   1      36.546  29.460  30.503  1.00  0.00     0.001 A 
ATOM     65  C   UNL A   1      36.893  30.357  28.286  1.00  0.00     0.001 A 
ATOM     66  C   UNL A   1      36.050  30.102  29.368  1.00  0.00     0.000 A 
ENDBRANCH  42  61
BRANCH  54  67
ATOM     67  C   UNL A   1      44.574  32.346  31.727  1.00  0.00    -0.014 A 
ATOM     68  C   UNL A   1      44.536  32.547  33.114  1.00  0.00     0.009 A 
ATOM     69  C   UNL A   1      44.915  33.420  30.889  1.00  0.00     0.009 A 
ATOM     70  C   UNL A   1      44.807  33.808  33.651  1.00  0.00     0.001 A 
ATOM     71  C   UNL A   1      45.210  34.671  31.430  1.00  0.00     0.001 A 
ATOM     72  C   UNL A   1      45.148  34.866  32.809  1.00  0.00     0.000 A 
ENDBRANCH  54  67
ENDBRANCH  28  29
ENDBRANCH  20  23
ENDBRANCH  18  19
ENDBRANCH   1  18
TORSDOF 12
ENDMDL
MODEL 2
REMARK VINA RESULT:      -8.6      0.256      6.251
REMARK SMILES Cc1cc(F)cc(/C=C/C(=O)NCCCCNC(=O)c2ccc(-c3c4nc(c(-c5ccccc5)c5ccc([nH]5)c(-c5ccccc5)c5nc(c(-c6ccccc6)c6ccc3[nH]6)C=C5)C=C4)cc2)c1
REMARK SMILES IDX 15 1 14 2 13 3 12 4 10 5 11 6 9 8 8 9 7 10 1 11 2 12 3 13
REMARK SMILES IDX 68 14 4 15 5 16 6 17 16 18 17 19 18 20 19 22 20 23 21 24
REMARK SMILES IDX 67 25 22 26 66 27 23 28 24 29 25 30 60 31 26 32 65 33 59 34
REMARK SMILES IDX 61 35 27 36 64 37 58 38 57 39 28 41 50 42 35 43 49 44 36 45
REMARK SMILES IDX 39 46 48 47 62 48 37 49 38 50 47 52 63 53 40 54 29 55 30 56
REMARK SMILES IDX 34 57 31 58 33 59 32 60 51 61 52 62 56 63 53 64 55 65 54 66
REMARK SMILES IDX 41 67 42 68 46 69 43 70 45 71 44 72
REMARK H PARENT 12 7 17 21 61 40 39 51
REMARK Flexibility Score: inf
ROOT
ATOM      1  C   UNL A   1      44.797  20.638  24.500  1.00  0.00     0.023 C 
ENDROOT
BRANCH   1   2
ATOM      2  C   UNL A   1      45.731  21.720  25.049  1.00  0.00     0.023 C 
BRANCH   2   3
ATOM      3  C   UNL A   1      45.672  23.049  24.297  1.00  0.00     0.116 C 
BRANCH   3   4
ATOM      4  N   UNL A   1      46.933  23.761  24.390  1.00  0.00    -0.353 N 
ATOM      5  C   UNL A   1      47.189  25.050  24.744  1.00  0.00     0.243 C 
ATOM      6  O   UNL A   1      48.350  25.433  24.862  1.00  0.00    -0.270 OA
ATOM      7  H   UNL A   1      47.728  23.229  24.160  1.00  0.00     0.163 HD
BRANCH   5   8
ATOM      8  C   UNL A   1      46.082  25.972  25.079  1.00  0.00     0.072 C 
ATOM      9  C   UNL A   1      46.221  27.053  25.861  1.00  0.00     0.014 C 
BRANCH   9  10
ATOM     10  C   UNL A   1      45.119  27.964  26.191  1.00  0.00    -0.022 A 
ATOM     11  C   UNL A   1      41.346  28.138  25.587  1.00  0.00     0.044 C 
ATOM     12  C   UNL A   1      42.733  28.485  26.043  1.00  0.00    -0.048 A 
ATOM     13  C   UNL A   1      42.967  29.686  26.718  1.00  0.00     0.042 A 
ATOM     14  C   UNL A   1      43.817  27.635  25.774  1.00  0.00     0.011 A 
ATOM     15  C   UNL A   1      44.257  30.015  27.121  1.00  0.00     0.124 A 
ATOM     16  F   UNL A   1      44.470  31.173  27.760  1.00  0.00    -0.207 F 
ATOM     17  C   UNL A   1      45.331  29.171  26.863  1.00  0.00     0.047 A 
ENDBRANCH   9  10
ENDBRANCH   5   8
ENDBRANCH   3   4
ENDBRANCH   2   3
ENDBRANCH   1   2
BRANCH   1  18
ATOM     18  C   UNL A   1      44.368  19.579  25.511  1.00  0.00     0.116 C 
BRANCH  18  19
ATOM     19  N   UNL A   1      42.984  19.158  25.358  1.00  0.00    -0.352 N 
ATOM     20  C   UNL A   1      41.844  19.800  25.781  1.00  0.00     0.251 C 
ATOM     21  H   UNL A   1      42.845  18.302  24.890  1.00  0.00     0.163 HD
ATOM     22  O   UNL A   1      40.747  19.274  25.659  1.00  0.00    -0.269 OA
BRANCH  20  23
ATOM     23  C   UNL A   1      41.968  21.122  26.432  1.00  0.00     0.039 A 
ATOM     24  C   UNL A   1      41.983  21.184  27.828  1.00  0.00     0.014 A 
ATOM     25  C   UNL A   1      42.116  22.281  25.668  1.00  0.00     0.014 A 
ATOM     26  C   UNL A   1      42.228  22.403  28.459  1.00  0.00     0.010 A 
ATOM     27  C   UNL A   1      42.422  23.484  26.296  1.00  0.00     0.010 A 
ATOM     28  C   UNL A   1      42.489  23.554  27.696  1.00  0.00    -0.014 A 
BRANCH  28  29
ATOM     29  C   UNL A   1      42.856  24.837  28.343  1.00  0.00     0.031 A 
ATOM     30  C   UNL A   1      41.808  25.884  28.597  1.00  0.00     0.074 A 
ATOM     31  C   UNL A   1      44.148  25.091  28.630  1.00  0.00     0.049 A 
ATOM     32  N   UNL A   1      41.948  27.090  29.081  1.00  0.00    -0.248 NA
ATOM     33  C   UNL A   1      40.424  25.536  28.233  1.00  0.00     0.031 C 
ATOM     34  C   UNL A   1      45.267  24.178  28.391  1.00  0.00     0.029 A 
ATOM     35  N   UNL A   1      44.738  26.203  29.177  1.00  0.00    -0.354 N 
ATOM     36  C   UNL A   1      40.679  27.654  29.061  1.00  0.00     0.074 A 
ATOM     37  C   UNL A   1      39.790  26.672  28.478  1.00  0.00     0.031 C 
ATOM     38  C   UNL A   1      46.404  24.758  28.809  1.00  0.00     0.029 A 
ATOM     39  C   UNL A   1      46.099  26.093  29.312  1.00  0.00     0.049 A 
ATOM     40  H   UNL A   1      44.232  27.005  29.446  1.00  0.00     0.167 HD
ATOM     41  C   UNL A   1      40.285  28.872  29.503  1.00  0.00     0.031 A 
ATOM     42  C   UNL A   1      47.004  26.971  29.783  1.00  0.00     0.031 A 
ATOM     43  C   UNL A   1      41.165  29.841  30.098  1.00  0.00     0.049 A 
ATOM     44  C   UNL A   1      46.542  28.317  30.266  1.00  0.00     0.074 A 
ATOM     45  C   UNL A   1      40.847  31.074  30.640  1.00  0.00     0.029 A 
ATOM     46  N   UNL A   1      42.535  29.685  30.229  1.00  0.00    -0.354 N 
ATOM     47  N   UNL A   1      45.327  28.806  30.306  1.00  0.00    -0.248 NA
ATOM     48  C   UNL A   1      47.577  29.228  30.777  1.00  0.00     0.031 C 
ATOM     49  C   UNL A   1      42.034  31.684  31.062  1.00  0.00     0.029 A 
ATOM     50  C   UNL A   1      43.082  30.810  30.822  1.00  0.00     0.049 A 
ATOM     51  H   UNL A   1      43.044  28.892  29.944  1.00  0.00     0.167 HD
ATOM     52  C   UNL A   1      45.448  30.072  30.864  1.00  0.00     0.074 A 
ATOM     53  C   UNL A   1      46.852  30.268  31.161  1.00  0.00     0.031 C 
ATOM     54  C   UNL A   1      44.482  30.990  31.108  1.00  0.00     0.031 A 
BRANCH  41  55
ATOM     55  C   UNL A   1      38.832  29.221  29.352  1.00  0.00    -0.014 A 
ATOM     56  C   UNL A   1      38.330  29.726  28.142  1.00  0.00     0.009 A 
ATOM     57  C   UNL A   1      37.949  29.018  30.423  1.00  0.00     0.009 A 
ATOM     58  C   UNL A   1      36.979  30.057  28.021  1.00  0.00     0.001 A 
ATOM     59  C   UNL A   1      36.594  29.325  30.290  1.00  0.00     0.001 A 
ATOM     60  C   UNL A   1      36.112  29.852  29.093  1.00  0.00     0.000 A 
ENDBRANCH  41  55
BRANCH  42  61
ATOM     61  C   UNL A   1      48.441  26.603  29.837  1.00  0.00    -0.014 A 
ATOM     62  C   UNL A   1      49.287  26.887  28.754  1.00  0.00     0.009 A 
ATOM     63  C   UNL A   1      48.975  25.961  30.966  1.00  0.00     0.009 A 
ATOM     64  C   UNL A   1      50.633  26.515  28.790  1.00  0.00     0.001 A 
ATOM     65  C   UNL A   1      50.326  25.612  31.010  1.00  0.00     0.001 A 
ATOM     66  C   UNL A   1      51.151  25.881  29.919  1.00  0.00     0.000 A 
ENDBRANCH  42  61
BRANCH  54  67
ATOM     67  C   UNL A   1      44.908  32.280  31.746  1.00  0.00    -0.014 A 
ATOM     68  C   UNL A   1      45.259  33.392  30.966  1.00  0.00     0.009 A 
ATOM     69  C   UNL A   1      44.918  32.395  33.145  1.00  0.00     0.009 A 
ATOM     70  C   UNL A   1      45.638  34.589  31.577  1.00  0.00     0.001 A 
ATOM     71  C   UNL A   1      45.273  33.600  33.752  1.00  0.00     0.001 A 
ATOM     72  C   UNL A   1      45.640  34.693  32.968  1.00  0.00     0.000 A 
ENDBRANCH  54  67
ENDBRANCH  28  29
ENDBRANCH  20  23
ENDBRANCH  18  19
ENDBRANCH   1  18
TORSDOF 12
ENDMDL
MODEL 3
REMARK VINA RESULT:      -8.0      3.601      9.413
REMARK SMILES Cc1cc(F)cc(/C=C/C(=O)NCCCCNC(=O)c2ccc(-c3c4nc(c(-c5ccccc5)c5ccc([nH]5)c(-c5ccccc5)c5nc(c(-c6ccccc6)c6ccc3[nH]6)C=C5)C=C4)cc2)c1
REMARK SMILES IDX 15 1 14 2 13 3 12 4 10 5 11 6 9 8 8 9 7 10 1 11 2 12 3 13
REMARK SMILES IDX 68 14 4 15 5 16 6 17 16 18 17 19 18 20 19 22 20 23 21 24
REMARK SMILES IDX 67 25 22 26 66 27 23 28 24 29 25 30 60 31 26 32 65 33 59 34
REMARK SMILES IDX 61 35 27 36 64 37 58 38 57 39 28 41 50 42 35 43 49 44 36 45
REMARK SMILES IDX 39 46 48 47 62 48 37 49 38 50 47 52 63 53 40 54 29 55 30 56
REMARK SMILES IDX 34 57 31 58 33 59 32 60 51 61 52 62 56 63 53 64 55 65 54 66
REMARK SMILES IDX 41 67 42 68 46 69 43 70 45 71 44 72
REMARK H PARENT 12 7 17 21 61 40 39 51
REMARK Flexibility Score: inf
ROOT
ATOM      1  C   UNL A   1      35.784  33.637  29.519  1.00  0.00     0.023 C 
ENDROOT
BRANCH   1   2
ATOM      2  C   UNL A   1      37.195  33.336  30.032  1.00  0.00     0.023 C 
BRANCH   2   3
ATOM      3  C   UNL A   1      37.981  34.566  30.482  1.00  0.00     0.116 C 
BRANCH   3   4
ATOM      4  N   UNL A   1      37.705  34.887  31.870  1.00  0.00    -0.353 N 
ATOM      5  C   UNL A   1      38.040  34.221  33.008  1.00  0.00     0.243 C 
ATOM      6  O   UNL A   1      37.798  34.722  34.104  1.00  0.00    -0.270 OA
ATOM      7  H   UNL A   1      37.196  35.717  32.010  1.00  0.00     0.163 HD
BRANCH   5   8
ATOM      8  C   UNL A   1      38.775  32.938  32.942  1.00  0.00     0.072 C 
ATOM      9  C   UNL A   1      38.300  31.780  33.423  1.00  0.00     0.014 C 
BRANCH   9  10
ATOM     10  C   UNL A   1      39.035  30.511  33.355  1.00  0.00    -0.022 A 
ATOM     11  C   UNL A   1      42.549  29.255  34.193  1.00  0.00     0.044 C 
ATOM     12  C   UNL A   1      41.122  29.291  33.731  1.00  0.00    -0.048 A 
ATOM     13  C   UNL A   1      40.532  28.143  33.193  1.00  0.00     0.042 A 
ATOM     14  C   UNL A   1      40.369  30.474  33.797  1.00  0.00     0.011 A 
ATOM     15  C   UNL A   1      39.216  28.185  32.746  1.00  0.00     0.124 A 
ATOM     16  F   UNL A   1      38.664  27.081  32.225  1.00  0.00    -0.207 F 
ATOM     17  C   UNL A   1      38.465  29.353  32.819  1.00  0.00     0.047 A 
ENDBRANCH   9  10
ENDBRANCH   5   8
ENDBRANCH   3   4
ENDBRANCH   2   3
ENDBRANCH   1   2
BRANCH   1  18
ATOM     18  C   UNL A   1      35.532  33.265  28.061  1.00  0.00     0.116 C 
BRANCH  18  19
ATOM     19  N   UNL A   1      34.428  32.335  27.882  1.00  0.00    -0.352 N 
ATOM     20  C   UNL A   1      34.461  30.960  27.881  1.00  0.00     0.251 C 
ATOM     21  H   UNL A   1      33.542  32.743  27.744  1.00  0.00     0.163 HD
ATOM     22  O   UNL A   1      33.458  30.310  27.625  1.00  0.00    -0.269 OA
BRANCH  20  23
ATOM     23  C   UNL A   1      35.744  30.276  28.148  1.00  0.00     0.039 A 
ATOM     24  C   UNL A   1      36.702  30.224  27.132  1.00  0.00     0.014 A 
ATOM     25  C   UNL A   1      36.014  29.734  29.406  1.00  0.00     0.014 A 
ATOM     26  C   UNL A   1      37.965  29.698  27.403  1.00  0.00     0.010 A 
ATOM     27  C   UNL A   1      37.292  29.266  29.694  1.00  0.00     0.010 A 
ATOM     28  C   UNL A   1      38.281  29.253  28.698  1.00  0.00    -0.014 A 
BRANCH  28  29
ATOM     29  C   UNL A   1      39.648  28.788  29.037  1.00  0.00     0.031 A 
ATOM     30  C   UNL A   1      40.620  29.719  29.704  1.00  0.00     0.074 A 
ATOM     31  C   UNL A   1      40.039  27.551  28.672  1.00  0.00     0.049 A 
ATOM     32  N   UNL A   1      41.876  29.520  30.010  1.00  0.00    -0.248 NA
ATOM     33  C   UNL A   1      40.120  31.061  30.049  1.00  0.00     0.031 C 
ATOM     34  C   UNL A   1      39.207  26.567  27.978  1.00  0.00     0.029 A 
ATOM     35  N   UNL A   1      41.246  26.916  28.827  1.00  0.00    -0.354 N 
ATOM     36  C   UNL A   1      42.323  30.713  30.562  1.00  0.00     0.074 A 
ATOM     37  C   UNL A   1      41.216  31.644  30.511  1.00  0.00     0.031 C 
ATOM     38  C   UNL A   1      39.921  25.445  27.787  1.00  0.00     0.029 A 
ATOM     39  C   UNL A   1      41.267  25.644  28.312  1.00  0.00     0.049 A 
ATOM     40  H   UNL A   1      42.023  27.334  29.265  1.00  0.00     0.167 HD
ATOM     41  C   UNL A   1      43.539  31.004  31.081  1.00  0.00     0.031 A 
ATOM     42  C   UNL A   1      42.262  24.739  28.263  1.00  0.00     0.031 A 
ATOM     43  C   UNL A   1      44.634  30.074  31.149  1.00  0.00     0.049 A 
ATOM     44  C   UNL A   1      43.603  25.085  28.844  1.00  0.00     0.074 A 
ATOM     45  C   UNL A   1      45.882  30.254  31.720  1.00  0.00     0.029 A 
ATOM     46  N   UNL A   1      44.610  28.791  30.629  1.00  0.00    -0.354 N 
ATOM     47  N   UNL A   1      43.987  26.195  29.427  1.00  0.00    -0.248 NA
ATOM     48  C   UNL A   1      44.645  24.051  28.767  1.00  0.00     0.031 C 
ATOM     49  C   UNL A   1      46.630  29.091  31.507  1.00  0.00     0.029 A 
ATOM     50  C   UNL A   1      45.831  28.173  30.843  1.00  0.00     0.049 A 
ATOM     51  H   UNL A   1      43.841  28.378  30.175  1.00  0.00     0.167 HD
ATOM     52  C   UNL A   1      45.307  25.985  29.804  1.00  0.00     0.074 A 
ATOM     53  C   UNL A   1      45.652  24.638  29.398  1.00  0.00     0.031 C 
ATOM     54  C   UNL A   1      46.158  26.833  30.430  1.00  0.00     0.031 A 
BRANCH  41  55
ATOM     55  C   UNL A   1      43.746  32.393  31.614  1.00  0.00    -0.014 A 
ATOM     56  C   UNL A   1      44.250  33.416  30.794  1.00  0.00     0.009 A 
ATOM     57  C   UNL A   1      43.408  32.690  32.942  1.00  0.00     0.009 A 
ATOM     58  C   UNL A   1      44.446  34.699  31.307  1.00  0.00     0.001 A 
ATOM     59  C   UNL A   1      43.580  33.980  33.445  1.00  0.00     0.001 A 
ATOM     60  C   UNL A   1      44.109  34.982  32.630  1.00  0.00     0.000 A 
ENDBRANCH  41  55
BRANCH  42  61
ATOM     61  C   UNL A   1      42.026  23.405  27.653  1.00  0.00    -0.014 A 
ATOM     62  C   UNL A   1      42.403  23.157  26.324  1.00  0.00     0.009 A 
ATOM     63  C   UNL A   1      41.419  22.377  28.391  1.00  0.00     0.009 A 
ATOM     64  C   UNL A   1      42.155  21.914  25.739  1.00  0.00     0.001 A 
ATOM     65  C   UNL A   1      41.195  21.127  27.811  1.00  0.00     0.001 A 
ATOM     66  C   UNL A   1      41.554  20.899  26.483  1.00  0.00     0.000 A 
ENDBRANCH  42  61
BRANCH  54  67
ATOM     67  C   UNL A   1      47.536  26.322  30.734  1.00  0.00    -0.014 A 
ATOM     68  C   UNL A   1      47.866  25.846  32.012  1.00  0.00     0.009 A 
ATOM     69  C   UNL A   1      48.502  26.276  29.717  1.00  0.00     0.009 A 
ATOM     70  C   UNL A   1      49.149  25.360  32.272  1.00  0.00     0.001 A 
ATOM     71  C   UNL A   1      49.775  25.767  29.974  1.00  0.00     0.001 A 
ATOM     72  C   UNL A   1      50.100  25.316  31.253  1.00  0.00     0.000 A 
ENDBRANCH  54  67
ENDBRANCH  28  29
ENDBRANCH  20  23
ENDBRANCH  18  19
ENDBRANCH   1  18
TORSDOF 12
ENDMDL
