MODEL 1
REMARK VINA RESULT:      -9.0      0.000      0.000
REMARK SMILES O=C(CC1(CC(=O)NNC(=O)C2CC2)CCCCC1)NCCCCNC(=O)c1ccc(-c2c3nc(c(-c4ccccc4)c4ccc([nH]4)c(-c4ccccc4)c4nc(c(-c5ccccc5)c5ccc2[nH]5)C=C4)C=C3)cc1
REMARK SMILES IDX 21 1 20 2 1 3 2 4 3 6 4 7 15 8 19 9 16 10 18 11 17 12 5 13
REMARK SMILES IDX 6 14 7 15 8 16 9 18 10 19 11 21 12 22 13 23 14 24 22 25
REMARK SMILES IDX 23 26 24 27 25 28 26 29 27 31 28 32 29 33 75 34 30 35 74 36
REMARK SMILES IDX 31 37 32 38 33 39 68 40 34 41 73 42 67 43 69 44 35 45 72 46
REMARK SMILES IDX 66 47 65 48 36 50 58 51 43 52 57 53 44 54 47 55 56 56 70 57
REMARK SMILES IDX 45 58 46 59 55 61 71 62 48 63 37 64 38 65 42 66 39 67 41 68
REMARK SMILES IDX 40 69 59 70 60 71 64 72 61 73 63 74 62 75 49 76 50 77 54 78
REMARK SMILES IDX 51 79 53 80 52 81
REMARK H PARENT 20 5 8 17 9 20 25 30 69 49 47 60
REMARK Flexibility Score: inf
ROOT
ATOM      1  C   UNL A   1      34.683  34.534  33.646  1.00  0.00     0.116 C 
ENDROOT
BRANCH   1   2
ATOM      2  N   UNL A   1      35.894  34.358  34.438  1.00  0.00    -0.356 N 
ATOM      3  O   UNL A   1      36.191  32.152  33.854  1.00  0.00    -0.275 OA
ATOM      4  C   UNL A   1      36.606  33.173  34.400  1.00  0.00     0.220 C 
ATOM      5  H   UNL A   1      36.210  35.094  35.011  1.00  0.00     0.163 HD
BRANCH   4   6
ATOM      6  C   UNL A   1      37.999  33.213  35.019  1.00  0.00     0.107 C 
BRANCH   6   7
ATOM      7  C   UNL A   1      38.115  32.700  36.503  1.00  0.00    -0.012 C 
ATOM      8  C   UNL A   1      39.323  33.444  37.169  1.00  0.00     0.008 C 
ATOM      9  C   UNL A   1      36.852  33.029  37.347  1.00  0.00     0.008 C 
ATOM     10  C   UNL A   1      39.474  33.202  38.675  1.00  0.00     0.001 C 
ATOM     11  C   UNL A   1      37.006  32.842  38.858  1.00  0.00     0.001 C 
ATOM     12  C   UNL A   1      38.206  33.581  39.425  1.00  0.00     0.000 C 
BRANCH   7  13
ATOM     13  C   UNL A   1      38.444  31.177  36.500  1.00  0.00     0.109 C 
BRANCH  13  14
ATOM     14  C   UNL A   1      39.039  30.600  35.218  1.00  0.00     0.238 C 
ATOM     15  O   UNL A   1      38.351  29.985  34.400  1.00  0.00    -0.273 OA
ATOM     16  N   UNL A   1      40.372  30.785  34.954  1.00  0.00    -0.268 N 
ATOM     17  H   UNL A   1      40.689  30.653  34.030  1.00  0.00     0.191 HD
BRANCH  16  18
ATOM     18  N   UNL A   1      41.295  31.149  35.919  1.00  0.00    -0.267 N 
ATOM     19  C   UNL A   1      42.165  30.276  36.535  1.00  0.00     0.241 C 
ATOM     20  H   UNL A   1      41.332  32.097  36.183  1.00  0.00     0.191 HD
ATOM     21  O   UNL A   1      42.674  30.541  37.610  1.00  0.00    -0.273 OA
BRANCH  19  22
ATOM     22  C   UNL A   1      42.602  29.062  35.819  1.00  0.00     0.080 C 
ATOM     23  C   UNL A   1      42.021  27.732  36.225  1.00  0.00     0.014 C 
ATOM     24  C   UNL A   1      41.809  28.266  34.833  1.00  0.00     0.014 C 
ENDBRANCH  19  22
ENDBRANCH  16  18
ENDBRANCH  13  14
ENDBRANCH   7  13
ENDBRANCH   6   7
ENDBRANCH   4   6
ENDBRANCH   1   2
BRANCH   1  25
ATOM     25  C   UNL A   1      34.701  35.725  32.680  1.00  0.00     0.023 C 
BRANCH  25  26
ATOM     26  C   UNL A   1      33.388  36.038  31.946  1.00  0.00     0.023 C 
BRANCH  26  27
ATOM     27  C   UNL A   1      33.510  36.646  30.540  1.00  0.00     0.116 C 
BRANCH  27  28
ATOM     28  N   UNL A   1      32.762  35.976  29.490  1.00  0.00    -0.352 N 
ATOM     29  C   UNL A   1      33.042  34.795  28.826  1.00  0.00     0.251 C 
ATOM     30  H   UNL A   1      31.934  36.429  29.208  1.00  0.00     0.163 HD
ATOM     31  O   UNL A   1      32.255  34.363  27.988  1.00  0.00    -0.269 OA
BRANCH  29  32
ATOM     32  C   UNL A   1      34.292  34.032  29.087  1.00  0.00     0.039 A 
ATOM     33  C   UNL A   1      35.397  34.181  28.249  1.00  0.00     0.014 A 
ATOM     34  C   UNL A   1      34.366  33.103  30.117  1.00  0.00     0.014 A 
ATOM     35  C   UNL A   1      36.589  33.481  28.516  1.00  0.00     0.010 A 
ATOM     36  C   UNL A   1      35.577  32.467  30.437  1.00  0.00     0.010 A 
ATOM     37  C   UNL A   1      36.723  32.661  29.655  1.00  0.00    -0.014 A 
BRANCH  37  38
ATOM     38  C   UNL A   1      38.054  32.091  30.061  1.00  0.00     0.031 A 
ATOM     39  C   UNL A   1      39.011  32.822  30.982  1.00  0.00     0.074 A 
ATOM     40  C   UNL A   1      38.464  30.920  29.522  1.00  0.00     0.049 A 
ATOM     41  N   UNL A   1      40.193  32.443  31.418  1.00  0.00    -0.248 NA
ATOM     42  C   UNL A   1      38.618  34.162  31.441  1.00  0.00     0.031 C 
ATOM     43  C   UNL A   1      37.721  30.142  28.527  1.00  0.00     0.029 A 
ATOM     44  N   UNL A   1      39.606  30.178  29.726  1.00  0.00    -0.354 N 
ATOM     45  C   UNL A   1      40.682  33.498  32.183  1.00  0.00     0.074 A 
ATOM     46  C   UNL A   1      39.701  34.559  32.094  1.00  0.00     0.031 C 
ATOM     47  C   UNL A   1      38.393  29.015  28.252  1.00  0.00     0.029 A 
ATOM     48  C   UNL A   1      39.638  29.002  29.013  1.00  0.00     0.049 A 
ATOM     49  H   UNL A   1      40.332  30.463  30.327  1.00  0.00     0.167 HD
ATOM     50  C   UNL A   1      41.823  33.578  32.917  1.00  0.00     0.031 A 
ATOM     51  C   UNL A   1      40.551  28.011  28.970  1.00  0.00     0.031 A 
ATOM     52  C   UNL A   1      42.801  32.523  33.028  1.00  0.00     0.049 A 
ATOM     53  C   UNL A   1      41.782  28.093  29.824  1.00  0.00     0.074 A 
ATOM     54  C   UNL A   1      43.934  32.477  33.826  1.00  0.00     0.029 A 
ATOM     55  N   UNL A   1      42.765  31.331  32.323  1.00  0.00    -0.354 N 
ATOM     56  N   UNL A   1      42.162  29.051  30.634  1.00  0.00    -0.248 NA
ATOM     57  C   UNL A   1      42.702  26.947  29.776  1.00  0.00     0.031 C 
ATOM     58  C   UNL A   1      44.614  31.284  33.558  1.00  0.00     0.029 A 
ATOM     59  C   UNL A   1      43.870  30.557  32.646  1.00  0.00     0.049 A 
ATOM     60  H   UNL A   1      42.062  31.073  31.685  1.00  0.00     0.167 HD
ATOM     61  C   UNL A   1      43.346  28.612  31.211  1.00  0.00     0.074 A 
ATOM     62  C   UNL A   1      43.613  27.295  30.675  1.00  0.00     0.031 C 
ATOM     63  C   UNL A   1      44.140  29.248  32.107  1.00  0.00     0.031 A 
BRANCH  50  64
ATOM     64  C   UNL A   1      42.079  34.854  33.685  1.00  0.00    -0.014 A 
ATOM     65  C   UNL A   1      41.645  35.003  35.013  1.00  0.00     0.009 A 
ATOM     66  C   UNL A   1      42.820  35.895  33.100  1.00  0.00     0.009 A 
ATOM     67  C   UNL A   1      41.902  36.181  35.719  1.00  0.00     0.001 A 
ATOM     68  C   UNL A   1      43.107  37.059  33.821  1.00  0.00     0.001 A 
ATOM     69  C   UNL A   1      42.637  37.206  35.124  1.00  0.00     0.000 A 
ENDBRANCH  50  64
BRANCH  51  70
ATOM     70  C   UNL A   1      40.307  26.819  28.109  1.00  0.00    -0.014 A 
ATOM     71  C   UNL A   1      39.550  25.738  28.587  1.00  0.00     0.009 A 
ATOM     72  C   UNL A   1      40.817  26.763  26.802  1.00  0.00     0.009 A 
ATOM     73  C   UNL A   1      39.327  24.618  27.783  1.00  0.00     0.001 A 
ATOM     74  C   UNL A   1      40.565  25.655  25.989  1.00  0.00     0.001 A 
ATOM     75  C   UNL A   1      39.827  24.581  26.483  1.00  0.00     0.000 A 
ENDBRANCH  51  70
BRANCH  63  76
ATOM     76  C   UNL A   1      45.360  28.515  32.593  1.00  0.00    -0.014 A 
ATOM     77  C   UNL A   1      46.602  28.651  31.952  1.00  0.00     0.009 A 
ATOM     78  C   UNL A   1      45.270  27.696  33.730  1.00  0.00     0.009 A 
ATOM     79  C   UNL A   1      47.719  27.954  32.419  1.00  0.00     0.001 A 
ATOM     80  C   UNL A   1      46.396  27.025  34.213  1.00  0.00     0.001 A 
ATOM     81  C   UNL A   1      47.616  27.146  33.551  1.00  0.00     0.000 A 
ENDBRANCH  63  76
ENDBRANCH  37  38
ENDBRANCH  29  32
ENDBRANCH  27  28
ENDBRANCH  26  27
ENDBRANCH  25  26
ENDBRANCH   1  25
TORSDOF 16
ENDMDL
MODEL 2
REMARK VINA RESULT:      -8.7      4.822     11.373
REMARK SMILES O=C(CC1(CC(=O)NNC(=O)C2CC2)CCCCC1)NCCCCNC(=O)c1ccc(-c2c3nc(c(-c4ccccc4)c4ccc([nH]4)c(-c4ccccc4)c4nc(c(-c5ccccc5)c5ccc2[nH]5)C=C4)C=C3)cc1
REMARK SMILES IDX 21 1 20 2 1 3 2 4 3 6 4 7 15 8 19 9 16 10 18 11 17 12 5 13
REMARK SMILES IDX 6 14 7 15 8 16 9 18 10 19 11 21 12 22 13 23 14 24 22 25
REMARK SMILES IDX 23 26 24 27 25 28 26 29 27 31 28 32 29 33 75 34 30 35 74 36
REMARK SMILES IDX 31 37 32 38 33 39 68 40 34 41 73 42 67 43 69 44 35 45 72 46
REMARK SMILES IDX 66 47 65 48 36 50 58 51 43 52 57 53 44 54 47 55 56 56 70 57
REMARK SMILES IDX 45 58 46 59 55 61 71 62 48 63 37 64 38 65 42 66 39 67 41 68
REMARK SMILES IDX 40 69 59 70 60 71 64 72 61 73 63 74 62 75 49 76 50 77 54 78
REMARK SMILES IDX 51 79 53 80 52 81
REMARK H PARENT 20 5 8 17 9 20 25 30 69 49 47 60
REMARK Flexibility Score: inf
ROOT
ATOM      1  C   UNL A   1      34.001  22.225  25.955  1.00  0.00     0.116 C 
ENDROOT
BRANCH   1   2
ATOM      2  N   UNL A   1      33.524  23.571  25.663  1.00  0.00    -0.356 N 
ATOM      3  O   UNL A   1      31.372  23.174  26.374  1.00  0.00    -0.275 OA
ATOM      4  C   UNL A   1      32.237  23.958  25.990  1.00  0.00     0.220 C 
ATOM      5  H   UNL A   1      34.127  24.215  25.226  1.00  0.00     0.163 HD
BRANCH   4   6
ATOM      6  C   UNL A   1      31.954  25.455  25.920  1.00  0.00     0.107 C 
BRANCH   6   7
ATOM      7  C   UNL A   1      31.898  26.086  24.478  1.00  0.00    -0.012 C 
ATOM      8  C   UNL A   1      33.315  26.679  24.164  1.00  0.00     0.008 C 
ATOM      9  C   UNL A   1      31.589  25.030  23.380  1.00  0.00     0.008 C 
ATOM     10  C   UNL A   1      33.497  27.175  22.726  1.00  0.00     0.001 C 
ATOM     11  C   UNL A   1      31.818  25.497  21.940  1.00  0.00     0.001 C 
ATOM     12  C   UNL A   1      33.206  26.072  21.719  1.00  0.00     0.000 C 
BRANCH   7  13
ATOM     13  C   UNL A   1      30.881  27.266  24.468  1.00  0.00     0.109 C 
BRANCH  13  14
ATOM     14  C   UNL A   1      31.385  28.619  24.963  1.00  0.00     0.238 C 
ATOM     15  O   UNL A   1      31.694  28.807  26.142  1.00  0.00    -0.273 OA
ATOM     16  N   UNL A   1      31.520  29.652  24.072  1.00  0.00    -0.268 N 
ATOM     17  H   UNL A   1      32.083  30.419  24.326  1.00  0.00     0.191 HD
BRANCH  16  18
ATOM     18  N   UNL A   1      30.906  29.671  22.832  1.00  0.00    -0.267 N 
ATOM     19  C   UNL A   1      29.598  30.045  22.613  1.00  0.00     0.241 C 
ATOM     20  H   UNL A   1      31.441  29.398  22.051  1.00  0.00     0.191 HD
ATOM     21  O   UNL A   1      28.996  29.695  21.613  1.00  0.00    -0.273 OA
BRANCH  19  22
ATOM     22  C   UNL A   1      28.955  31.002  23.535  1.00  0.00     0.080 C 
ATOM     23  C   UNL A   1      28.652  32.393  23.040  1.00  0.00     0.014 C 
ATOM     24  C   UNL A   1      27.540  31.482  23.488  1.00  0.00     0.014 C 
ENDBRANCH  19  22
ENDBRANCH  16  18
ENDBRANCH  13  14
ENDBRANCH   7  13
ENDBRANCH   6   7
ENDBRANCH   4   6
ENDBRANCH   1   2
BRANCH   1  25
ATOM     25  C   UNL A   1      35.071  21.688  24.998  1.00  0.00     0.023 C 
BRANCH  25  26
ATOM     26  C   UNL A   1      35.885  22.732  24.217  1.00  0.00     0.023 C 
BRANCH  26  27
ATOM     27  C   UNL A   1      37.050  23.401  24.964  1.00  0.00     0.116 C 
BRANCH  27  28
ATOM     28  N   UNL A   1      38.192  22.552  25.255  1.00  0.00    -0.352 N 
ATOM     29  C   UNL A   1      39.294  22.801  26.052  1.00  0.00     0.251 C 
ATOM     30  H   UNL A   1      38.180  21.668  24.820  1.00  0.00     0.163 HD
ATOM     31  O   UNL A   1      40.144  21.929  26.211  1.00  0.00    -0.269 OA
BRANCH  29  32
ATOM     32  C   UNL A   1      39.493  24.117  26.718  1.00  0.00     0.039 A 
ATOM     33  C   UNL A   1      38.944  24.360  27.976  1.00  0.00     0.014 A 
ATOM     34  C   UNL A   1      40.159  25.154  26.076  1.00  0.00     0.014 A 
ATOM     35  C   UNL A   1      39.160  25.596  28.617  1.00  0.00     0.010 A 
ATOM     36  C   UNL A   1      40.448  26.355  26.744  1.00  0.00     0.010 A 
ATOM     37  C   UNL A   1      39.972  26.593  28.041  1.00  0.00    -0.014 A 
BRANCH  37  38
ATOM     38  C   UNL A   1      40.383  27.816  28.813  1.00  0.00     0.031 A 
ATOM     39  C   UNL A   1      41.732  27.941  29.494  1.00  0.00     0.074 A 
ATOM     40  C   UNL A   1      39.490  28.817  28.989  1.00  0.00     0.049 A 
ATOM     41  N   UNL A   1      42.218  28.944  30.191  1.00  0.00    -0.248 NA
ATOM     42  C   UNL A   1      42.635  26.784  29.422  1.00  0.00     0.031 C 
ATOM     43  C   UNL A   1      38.107  28.811  28.504  1.00  0.00     0.029 A 
ATOM     44  N   UNL A   1      39.604  30.032  29.626  1.00  0.00    -0.354 N 
ATOM     45  C   UNL A   1      43.467  28.532  30.648  1.00  0.00     0.074 A 
ATOM     46  C   UNL A   1      43.633  27.163  30.207  1.00  0.00     0.031 C 
ATOM     47  C   UNL A   1      37.523  29.979  28.809  1.00  0.00     0.029 A 
ATOM     48  C   UNL A   1      38.469  30.807  29.550  1.00  0.00     0.049 A 
ATOM     49  H   UNL A   1      40.422  30.321  30.092  1.00  0.00     0.167 HD
ATOM     50  C   UNL A   1      44.406  29.225  31.343  1.00  0.00     0.031 A 
ATOM     51  C   UNL A   1      38.204  32.046  30.010  1.00  0.00     0.031 A 
ATOM     52  C   UNL A   1      44.261  30.595  31.774  1.00  0.00     0.049 A 
ATOM     53  C   UNL A   1      39.270  32.817  30.734  1.00  0.00     0.074 A 
ATOM     54  C   UNL A   1      45.196  31.409  32.394  1.00  0.00     0.029 A 
ATOM     55  N   UNL A   1      43.109  31.353  31.632  1.00  0.00    -0.354 N 
ATOM     56  N   UNL A   1      40.487  32.447  31.046  1.00  0.00    -0.248 NA
ATOM     57  C   UNL A   1      38.932  34.186  31.150  1.00  0.00     0.031 C 
ATOM     58  C   UNL A   1      44.591  32.638  32.680  1.00  0.00     0.029 A 
ATOM     59  C   UNL A   1      43.302  32.613  32.178  1.00  0.00     0.049 A 
ATOM     60  H   UNL A   1      42.277  31.042  31.209  1.00  0.00     0.167 HD
ATOM     61  C   UNL A   1      41.068  33.544  31.669  1.00  0.00     0.074 A 
ATOM     62  C   UNL A   1      40.079  34.600  31.672  1.00  0.00     0.031 C 
ATOM     63  C   UNL A   1      42.315  33.662  32.189  1.00  0.00     0.031 A 
BRANCH  50  64
ATOM     64  C   UNL A   1      45.701  28.522  31.674  1.00  0.00    -0.014 A 
ATOM     65  C   UNL A   1      45.848  27.787  32.862  1.00  0.00     0.009 A 
ATOM     66  C   UNL A   1      46.768  28.537  30.759  1.00  0.00     0.009 A 
ATOM     67  C   UNL A   1      47.045  27.126  33.149  1.00  0.00     0.001 A 
ATOM     68  C   UNL A   1      47.952  27.845  31.032  1.00  0.00     0.001 A 
ATOM     69  C   UNL A   1      48.094  27.152  32.233  1.00  0.00     0.000 A 
ENDBRANCH  50  64
BRANCH  51  70
ATOM     70  C   UNL A   1      36.870  32.658  29.756  1.00  0.00    -0.014 A 
ATOM     71  C   UNL A   1      35.833  32.522  30.693  1.00  0.00     0.009 A 
ATOM     72  C   UNL A   1      36.631  33.394  28.584  1.00  0.00     0.009 A 
ATOM     73  C   UNL A   1      34.580  33.091  30.452  1.00  0.00     0.001 A 
ATOM     74  C   UNL A   1      35.386  33.989  28.361  1.00  0.00     0.001 A 
ATOM     75  C   UNL A   1      34.360  33.830  29.291  1.00  0.00     0.000 A 
ENDBRANCH  51  70
BRANCH  63  76
ATOM     76  C   UNL A   1      42.694  34.992  32.780  1.00  0.00    -0.014 A 
ATOM     77  C   UNL A   1      42.370  35.326  34.105  1.00  0.00     0.009 A 
ATOM     78  C   UNL A   1      43.414  35.916  32.005  1.00  0.00     0.009 A 
ATOM     79  C   UNL A   1      42.728  36.571  34.629  1.00  0.00     0.001 A 
ATOM     80  C   UNL A   1      43.797  37.147  32.542  1.00  0.00     0.001 A 
ATOM     81  C   UNL A   1      43.444  37.477  33.849  1.00  0.00     0.000 A 
ENDBRANCH  63  76
ENDBRANCH  37  38
ENDBRANCH  29  32
ENDBRANCH  27  28
ENDBRANCH  26  27
ENDBRANCH  25  26
ENDBRANCH   1  25
TORSDOF 16
ENDMDL
MODEL 3
REMARK VINA RESULT:      -8.6      4.911     10.598
REMARK SMILES O=C(CC1(CC(=O)NNC(=O)C2CC2)CCCCC1)NCCCCNC(=O)c1ccc(-c2c3nc(c(-c4ccccc4)c4ccc([nH]4)c(-c4ccccc4)c4nc(c(-c5ccccc5)c5ccc2[nH]5)C=C4)C=C3)cc1
REMARK SMILES IDX 21 1 20 2 1 3 2 4 3 6 4 7 15 8 19 9 16 10 18 11 17 12 5 13
REMARK SMILES IDX 6 14 7 15 8 16 9 18 10 19 11 21 12 22 13 23 14 24 22 25
REMARK SMILES IDX 23 26 24 27 25 28 26 29 27 31 28 32 29 33 75 34 30 35 74 36
REMARK SMILES IDX 31 37 32 38 33 39 68 40 34 41 73 42 67 43 69 44 35 45 72 46
REMARK SMILES IDX 66 47 65 48 36 50 58 51 43 52 57 53 44 54 47 55 56 56 70 57
REMARK SMILES IDX 45 58 46 59 55 61 71 62 48 63 37 64 38 65 42 66 39 67 41 68
REMARK SMILES IDX 40 69 59 70 60 71 64 72 61 73 63 74 62 75 49 76 50 77 54 78
REMARK SMILES IDX 51 79 53 80 52 81
REMARK H PARENT 20 5 8 17 9 20 25 30 69 49 47 60
REMARK Flexibility Score: inf
ROOT
ATOM      1  C   UNL A   1      31.551  29.086  24.881  1.00  0.00     0.116 C 
ENDROOT
BRANCH   1   2
ATOM      2  N   UNL A   1      30.887  27.795  25.017  1.00  0.00    -0.356 N 
ATOM      3  O   UNL A   1      30.905  27.328  22.764  1.00  0.00    -0.275 OA
ATOM      4  C   UNL A   1      30.697  26.971  23.922  1.00  0.00     0.220 C 
ATOM      5  H   UNL A   1      30.567  27.505  25.902  1.00  0.00     0.163 HD
BRANCH   4   6
ATOM      6  C   UNL A   1      30.276  25.539  24.232  1.00  0.00     0.107 C 
BRANCH   6   7
ATOM      7  C   UNL A   1      31.442  24.497  24.423  1.00  0.00    -0.012 C 
ATOM      8  C   UNL A   1      30.882  23.310  25.279  1.00  0.00     0.008 C 
ATOM      9  C   UNL A   1      31.932  23.900  23.074  1.00  0.00     0.008 C 
ATOM     10  C   UNL A   1      31.830  22.113  25.412  1.00  0.00     0.001 C 
ATOM     11  C   UNL A   1      32.837  22.671  23.192  1.00  0.00     0.001 C 
ATOM     12  C   UNL A   1      32.232  21.572  24.048  1.00  0.00     0.000 C 
BRANCH   7  13
ATOM     13  C   UNL A   1      32.599  25.157  25.232  1.00  0.00     0.109 C 
BRANCH  13  14
ATOM     14  C   UNL A   1      33.944  25.302  24.526  1.00  0.00     0.238 C 
ATOM     15  O   UNL A   1      34.073  25.981  23.505  1.00  0.00    -0.273 OA
ATOM     16  N   UNL A   1      35.048  24.677  25.049  1.00  0.00    -0.268 N 
ATOM     17  H   UNL A   1      35.939  24.980  24.758  1.00  0.00     0.191 HD
BRANCH  16  18
ATOM     18  N   UNL A   1      34.972  23.643  25.965  1.00  0.00    -0.267 N 
ATOM     19  C   UNL A   1      35.659  22.453  25.858  1.00  0.00     0.241 C 
ATOM     20  H   UNL A   1      34.388  23.766  26.748  1.00  0.00     0.191 HD
ATOM     21  O   UNL A   1      35.290  21.453  26.449  1.00  0.00    -0.273 OA
BRANCH  19  22
ATOM     22  C   UNL A   1      36.942  22.420  25.130  1.00  0.00     0.080 C 
ATOM     23  C   UNL A   1      38.211  22.728  25.883  1.00  0.00     0.014 C 
ATOM     24  C   UNL A   1      38.011  21.381  25.240  1.00  0.00     0.014 C 
ENDBRANCH  19  22
ENDBRANCH  16  18
ENDBRANCH  13  14
ENDBRANCH   7  13
ENDBRANCH   6   7
ENDBRANCH   4   6
ENDBRANCH   1   2
BRANCH   1  25
ATOM     25  C   UNL A   1      33.068  29.021  24.666  1.00  0.00     0.023 C 
BRANCH  25  26
ATOM     26  C   UNL A   1      33.922  28.628  25.882  1.00  0.00     0.023 C 
BRANCH  26  27
ATOM     27  C   UNL A   1      33.317  28.898  27.269  1.00  0.00     0.116 C 
BRANCH  27  28
ATOM     28  N   UNL A   1      33.413  30.265  27.750  1.00  0.00    -0.352 N 
ATOM     29  C   UNL A   1      34.508  30.950  28.245  1.00  0.00     0.251 C 
ATOM     30  H   UNL A   1      32.574  30.781  27.722  1.00  0.00     0.163 HD
ATOM     31  O   UNL A   1      34.398  32.130  28.565  1.00  0.00    -0.269 OA
BRANCH  29  32
ATOM     32  C   UNL A   1      35.828  30.286  28.419  1.00  0.00     0.039 A 
ATOM     33  C   UNL A   1      36.752  30.270  27.375  1.00  0.00     0.014 A 
ATOM     34  C   UNL A   1      36.142  29.606  29.589  1.00  0.00     0.014 A 
ATOM     35  C   UNL A   1      38.013  29.668  27.553  1.00  0.00     0.010 A 
ATOM     36  C   UNL A   1      37.426  29.078  29.801  1.00  0.00     0.010 A 
ATOM     37  C   UNL A   1      38.399  29.118  28.792  1.00  0.00    -0.014 A 
BRANCH  37  38
ATOM     38  C   UNL A   1      39.812  28.676  29.050  1.00  0.00     0.031 A 
ATOM     39  C   UNL A   1      40.330  27.309  28.648  1.00  0.00     0.074 A 
ATOM     40  C   UNL A   1      40.641  29.487  29.747  1.00  0.00     0.049 A 
ATOM     41  N   UNL A   1      41.532  26.799  28.807  1.00  0.00    -0.248 NA
ATOM     42  C   UNL A   1      39.376  26.381  28.026  1.00  0.00     0.031 C 
ATOM     43  C   UNL A   1      40.273  30.787  30.314  1.00  0.00     0.029 A 
ATOM     44  N   UNL A   1      41.963  29.342  30.104  1.00  0.00    -0.354 N 
ATOM     45  C   UNL A   1      41.468  25.495  28.322  1.00  0.00     0.074 A 
ATOM     46  C   UNL A   1      40.093  25.271  27.927  1.00  0.00     0.031 C 
ATOM     47  C   UNL A   1      41.347  31.340  30.895  1.00  0.00     0.029 A 
ATOM     48  C   UNL A   1      42.476  30.423  30.784  1.00  0.00     0.049 A 
ATOM     49  H   UNL A   1      42.493  28.539  29.892  1.00  0.00     0.167 HD
ATOM     50  C   UNL A   1      42.457  24.573  28.186  1.00  0.00     0.031 A 
ATOM     51  C   UNL A   1      43.712  30.669  31.264  1.00  0.00     0.031 A 
ATOM     52  C   UNL A   1      43.835  24.789  28.559  1.00  0.00     0.049 A 
ATOM     53  C   UNL A   1      44.806  29.660  31.061  1.00  0.00     0.074 A 
ATOM     54  C   UNL A   1      44.922  23.952  28.366  1.00  0.00     0.029 A 
ATOM     55  N   UNL A   1      44.314  25.919  29.202  1.00  0.00    -0.354 N 
ATOM     56  N   UNL A   1      44.746  28.483  30.489  1.00  0.00    -0.248 NA
ATOM     57  C   UNL A   1      46.143  30.023  31.552  1.00  0.00     0.031 C 
ATOM     58  C   UNL A   1      46.048  24.550  28.945  1.00  0.00     0.029 A 
ATOM     59  C   UNL A   1      45.675  25.788  29.436  1.00  0.00     0.049 A 
ATOM     60  H   UNL A   1      43.770  26.699  29.455  1.00  0.00     0.167 HD
ATOM     61  C   UNL A   1      46.039  27.978  30.526  1.00  0.00     0.074 A 
ATOM     62  C   UNL A   1      46.866  28.984  31.158  1.00  0.00     0.031 C 
ATOM     63  C   UNL A   1      46.497  26.785  30.073  1.00  0.00     0.031 A 
BRANCH  50  64
ATOM     64  C   UNL A   1      42.096  23.235  27.586  1.00  0.00    -0.014 A 
ATOM     65  C   UNL A   1      41.528  22.216  28.368  1.00  0.00     0.009 A 
ATOM     66  C   UNL A   1      42.265  23.009  26.209  1.00  0.00     0.009 A 
ATOM     67  C   UNL A   1      41.183  20.988  27.798  1.00  0.00     0.001 A 
ATOM     68  C   UNL A   1      41.886  21.791  25.634  1.00  0.00     0.001 A 
ATOM     69  C   UNL A   1      41.358  20.778  26.432  1.00  0.00     0.000 A 
ENDBRANCH  50  64
BRANCH  51  70
ATOM     70  C   UNL A   1      43.994  31.961  31.949  1.00  0.00    -0.014 A 
ATOM     71  C   UNL A   1      44.413  33.081  31.214  1.00  0.00     0.009 A 
ATOM     72  C   UNL A   1      43.833  32.085  33.339  1.00  0.00     0.009 A 
ATOM     73  C   UNL A   1      44.684  34.292  31.858  1.00  0.00     0.001 A 
ATOM     74  C   UNL A   1      44.073  33.305  33.975  1.00  0.00     0.001 A 
ATOM     75  C   UNL A   1      44.506  34.405  33.235  1.00  0.00     0.000 A 
ENDBRANCH  51  70
BRANCH  63  76
ATOM     76  C   UNL A   1      47.969  26.511  30.215  1.00  0.00    -0.014 A 
ATOM     77  C   UNL A   1      48.887  26.902  29.227  1.00  0.00     0.009 A 
ATOM     78  C   UNL A   1      48.449  25.876  31.372  1.00  0.00     0.009 A 
ATOM     79  C   UNL A   1      50.250  26.629  29.380  1.00  0.00     0.001 A 
ATOM     80  C   UNL A   1      49.814  25.634  31.536  1.00  0.00     0.001 A 
ATOM     81  C   UNL A   1      50.712  26.001  30.535  1.00  0.00     0.000 A 
ENDBRANCH  63  76
ENDBRANCH  37  38
ENDBRANCH  29  32
ENDBRANCH  27  28
ENDBRANCH  26  27
ENDBRANCH  25  26
ENDBRANCH   1  25
TORSDOF 16
ENDMDL
