MODEL 1
REMARK VINA RESULT:     -12.9      0.000      0.000
REMARK SMILES O=C(NCCCCNC(=O)[C@H](c1c[nH]c2ccc(Cl)cc12)[NH+]1CCN(c2cccc(Cl)c2)CC1)c1ccc(-c2c3nc(c(-c4ccccc4)c4ccc([nH]4)c(-c4ccccc4)c4nc(c(-c5ccccc5)c5ccc2[nH]5)C=C4)C=C3)cc1
REMARK SMILES IDX 5 1 4 2 3 3 1 4 2 5 35 7 36 8 82 9 37 10 81 11 38 12 39 13
REMARK SMILES IDX 40 14 75 15 41 16 80 17 74 18 76 19 42 20 79 21 73 22 72 23
REMARK SMILES IDX 43 25 65 26 50 27 64 28 51 29 54 30 63 31 77 32 52 33 53 34
REMARK SMILES IDX 62 36 78 37 55 38 44 39 45 40 49 41 46 42 48 43 47 44 66 45
REMARK SMILES IDX 67 46 71 47 68 48 70 49 69 50 56 51 57 52 61 53 58 54 60 55
REMARK SMILES IDX 59 56 6 57 7 58 8 59 9 60 10 62 11 63 22 64 23 65 34 66
REMARK SMILES IDX 24 68 33 69 25 70 26 71 27 72 32 73 28 74 30 75 29 76 31 77
REMARK SMILES IDX 12 78 13 79 21 80 14 81 15 82 20 83 16 85 18 86 17 87 19 88
REMARK H PARENT 3 6 76 24 54 35 8 61 22 67 14 84
REMARK Flexibility Score: inf
ROOT
ATOM      1  C   UNL A   1      38.107  19.922  24.784  1.00  0.00     0.023 C 
ENDROOT
BRANCH   1   2
ATOM      2  C   UNL A   1      39.179  20.184  25.835  1.00  0.00     0.116 C 
BRANCH   2   3
ATOM      3  N   UNL A   1      40.203  19.154  25.867  1.00  0.00    -0.352 N 
ATOM      4  O   UNL A   1      42.302  18.329  25.945  1.00  0.00    -0.269 OA
ATOM      5  C   UNL A   1      41.554  19.284  26.096  1.00  0.00     0.251 C 
ATOM      6  H   UNL A   1      39.887  18.236  25.703  1.00  0.00     0.163 HD
BRANCH   5   7
ATOM      7  C   UNL A   1      42.101  20.600  26.494  1.00  0.00     0.039 A 
ATOM      8  C   UNL A   1      42.199  20.954  27.841  1.00  0.00     0.014 A 
ATOM      9  C   UNL A   1      42.510  21.492  25.499  1.00  0.00     0.014 A 
ATOM     10  C   UNL A   1      42.573  22.249  28.187  1.00  0.00     0.010 A 
ATOM     11  C   UNL A   1      42.956  22.768  25.853  1.00  0.00     0.010 A 
ATOM     12  C   UNL A   1      42.954  23.170  27.198  1.00  0.00    -0.014 A 
BRANCH  12  13
ATOM     13  C   UNL A   1      43.372  24.537  27.595  1.00  0.00     0.031 A 
ATOM     14  C   UNL A   1      44.809  24.969  27.496  1.00  0.00     0.074 A 
ATOM     15  C   UNL A   1      42.437  25.409  28.020  1.00  0.00     0.049 A 
ATOM     16  N   UNL A   1      45.336  26.141  27.756  1.00  0.00    -0.248 NA
ATOM     17  C   UNL A   1      45.782  23.959  27.055  1.00  0.00     0.031 C 
ATOM     18  C   UNL A   1      41.009  25.111  28.162  1.00  0.00     0.029 A 
ATOM     19  N   UNL A   1      42.541  26.726  28.385  1.00  0.00    -0.354 N 
ATOM     20  C   UNL A   1      46.701  26.001  27.535  1.00  0.00     0.074 A 
ATOM     21  C   UNL A   1      46.924  24.626  27.141  1.00  0.00     0.031 C 
ATOM     22  C   UNL A   1      40.363  26.228  28.529  1.00  0.00     0.029 A 
ATOM     23  C   UNL A   1      41.335  27.302  28.701  1.00  0.00     0.049 A 
ATOM     24  H   UNL A   1      43.397  27.211  28.418  1.00  0.00     0.167 HD
ATOM     25  C   UNL A   1      47.679  26.933  27.648  1.00  0.00     0.031 A 
ATOM     26  C   UNL A   1      41.040  28.556  29.089  1.00  0.00     0.031 A 
ATOM     27  C   UNL A   1      47.458  28.302  28.032  1.00  0.00     0.049 A 
ATOM     28  C   UNL A   1      42.144  29.562  29.224  1.00  0.00     0.074 A 
ATOM     29  C   UNL A   1      48.381  29.329  28.134  1.00  0.00     0.029 A 
ATOM     30  N   UNL A   1      46.228  28.835  28.383  1.00  0.00    -0.354 N 
ATOM     31  N   UNL A   1      43.423  29.422  28.976  1.00  0.00    -0.248 NA
ATOM     32  C   UNL A   1      41.760  30.901  29.690  1.00  0.00     0.031 C 
ATOM     33  C   UNL A   1      47.715  30.472  28.593  1.00  0.00     0.029 A 
ATOM     34  C   UNL A   1      46.371  30.169  28.725  1.00  0.00     0.049 A 
ATOM     35  H   UNL A   1      45.377  28.339  28.388  1.00  0.00     0.167 HD
ATOM     36  C   UNL A   1      43.995  30.661  29.234  1.00  0.00     0.074 A 
ATOM     37  C   UNL A   1      42.920  31.542  29.644  1.00  0.00     0.031 C 
ATOM     38  C   UNL A   1      45.294  31.033  29.137  1.00  0.00     0.031 A 
BRANCH  25  39
ATOM     39  C   UNL A   1      49.090  26.488  27.381  1.00  0.00    -0.014 A 
ATOM     40  C   UNL A   1      49.930  26.048  28.417  1.00  0.00     0.009 A 
ATOM     41  C   UNL A   1      49.579  26.481  26.065  1.00  0.00     0.009 A 
ATOM     42  C   UNL A   1      51.239  25.648  28.145  1.00  0.00     0.001 A 
ATOM     43  C   UNL A   1      50.880  26.055  25.792  1.00  0.00     0.001 A 
ATOM     44  C   UNL A   1      51.713  25.648  26.833  1.00  0.00     0.000 A 
ENDBRANCH  25  39
BRANCH  26  45
ATOM     45  C   UNL A   1      39.630  28.928  29.361  1.00  0.00    -0.014 A 
ATOM     46  C   UNL A   1      38.850  29.535  28.366  1.00  0.00     0.009 A 
ATOM     47  C   UNL A   1      39.047  28.655  30.609  1.00  0.00     0.009 A 
ATOM     48  C   UNL A   1      37.520  29.875  28.618  1.00  0.00     0.001 A 
ATOM     49  C   UNL A   1      37.710  28.972  30.851  1.00  0.00     0.001 A 
ATOM     50  C   UNL A   1      36.950  29.587  29.858  1.00  0.00     0.000 A 
ENDBRANCH  26  45
BRANCH  38  51
ATOM     51  C   UNL A   1      45.614  32.467  29.446  1.00  0.00    -0.014 A 
ATOM     52  C   UNL A   1      45.974  32.872  30.741  1.00  0.00     0.009 A 
ATOM     53  C   UNL A   1      45.574  33.424  28.420  1.00  0.00     0.009 A 
ATOM     54  C   UNL A   1      46.253  34.213  31.009  1.00  0.00     0.001 A 
ATOM     55  C   UNL A   1      45.879  34.760  28.686  1.00  0.00     0.001 A 
ATOM     56  C   UNL A   1      46.208  35.155  29.982  1.00  0.00     0.000 A 
ENDBRANCH  38  51
ENDBRANCH  12  13
ENDBRANCH   5   7
ENDBRANCH   2   3
ENDBRANCH   1   2
BRANCH   1  57
ATOM     57  C   UNL A   1      36.776  20.642  25.018  1.00  0.00     0.023 C 
BRANCH  57  58
ATOM     58  C   UNL A   1      36.841  22.158  24.833  1.00  0.00     0.116 C 
BRANCH  58  59
ATOM     59  N   UNL A   1      36.159  22.571  23.615  1.00  0.00    -0.351 N 
ATOM     60  C   UNL A   1      34.864  22.981  23.418  1.00  0.00     0.283 C 
ATOM     61  H   UNL A   1      36.716  22.552  22.804  1.00  0.00     0.163 HD
ATOM     62  O   UNL A   1      34.517  23.171  22.249  1.00  0.00    -0.268 OA
BRANCH  60  63
ATOM     63  C   UNL A   1      33.945  23.245  24.635  1.00  0.00     0.307 C 
BRANCH  63  64
ATOM     64  N   UNL A   1      32.756  24.099  24.339  1.00  0.00    -0.318 N 
ATOM     65  C   UNL A   1      31.910  24.456  25.508  1.00  0.00     0.284 C 
ATOM     66  C   UNL A   1      32.938  25.307  23.521  1.00  0.00     0.284 C 
ATOM     67  H   UNL A   1      32.272  23.424  23.748  1.00  0.00     0.349 HD
ATOM     68  C   UNL A   1      32.306  25.738  26.311  1.00  0.00     0.178 C 
ATOM     69  C   UNL A   1      33.474  26.533  24.277  1.00  0.00     0.178 C 
ATOM     70  N   UNL A   1      32.588  26.865  25.407  1.00  0.00    -0.360 N 
BRANCH  70  71
ATOM     71  C   UNL A   1      32.801  28.147  25.912  1.00  0.00     0.038 A 
ATOM     72  C   UNL A   1      33.914  28.370  26.742  1.00  0.00     0.026 A 
ATOM     73  C   UNL A   1      31.920  29.214  25.702  1.00  0.00     0.046 A 
ATOM     74  C   UNL A   1      34.137  29.603  27.358  1.00  0.00     0.004 A 
ATOM     75  C   UNL A   1      32.139  30.447  26.324  1.00  0.00     0.043 A 
ATOM     76  C   UNL A   1      33.240  30.646  27.154  1.00  0.00     0.020 A 
ATOM     77  Cl  UNL A   1      31.018  31.734  26.088  1.00  0.00    -0.084 Cl
ENDBRANCH  70  71
ENDBRANCH  63  64
BRANCH  63  78
ATOM     78  C   UNL A   1      33.675  21.951  25.393  1.00  0.00     0.044 A 
ATOM     79  C   UNL A   1      33.646  21.748  26.764  1.00  0.00     0.094 A 
ATOM     80  C   UNL A   1      33.250  20.699  24.812  1.00  0.00     0.011 A 
ATOM     81  N   UNL A   1      33.352  20.441  27.023  1.00  0.00    -0.361 N 
ATOM     82  C   UNL A   1      33.063  19.785  25.853  1.00  0.00     0.046 A 
ATOM     83  C   UNL A   1      32.975  20.265  23.497  1.00  0.00     0.031 A 
ATOM     84  H   UNL A   1      33.348  20.029  27.917  1.00  0.00     0.166 HD
ATOM     85  C   UNL A   1      32.636  18.467  25.654  1.00  0.00     0.028 A 
ATOM     86  C   UNL A   1      32.520  18.957  23.287  1.00  0.00     0.041 A 
ATOM     87  C   UNL A   1      32.358  18.069  24.345  1.00  0.00     0.022 A 
ATOM     88  Cl  UNL A   1      32.136  18.445  21.687  1.00  0.00    -0.084 Cl
ENDBRANCH  63  78
ENDBRANCH  60  63
ENDBRANCH  58  59
ENDBRANCH  57  58
ENDBRANCH   1  57
TORSDOF 14
ENDMDL
MODEL 2
REMARK VINA RESULT:     -12.9      1.603      2.270
REMARK SMILES O=C(NCCCCNC(=O)[C@H](c1c[nH]c2ccc(Cl)cc12)[NH+]1CCN(c2cccc(Cl)c2)CC1)c1ccc(-c2c3nc(c(-c4ccccc4)c4ccc([nH]4)c(-c4ccccc4)c4nc(c(-c5ccccc5)c5ccc2[nH]5)C=C4)C=C3)cc1
REMARK SMILES IDX 5 1 4 2 3 3 1 4 2 5 35 7 36 8 82 9 37 10 81 11 38 12 39 13
REMARK SMILES IDX 40 14 75 15 41 16 80 17 74 18 76 19 42 20 79 21 73 22 72 23
REMARK SMILES IDX 43 25 65 26 50 27 64 28 51 29 54 30 63 31 77 32 52 33 53 34
REMARK SMILES IDX 62 36 78 37 55 38 44 39 45 40 49 41 46 42 48 43 47 44 66 45
REMARK SMILES IDX 67 46 71 47 68 48 70 49 69 50 56 51 57 52 61 53 58 54 60 55
REMARK SMILES IDX 59 56 6 57 7 58 8 59 9 60 10 62 11 63 22 64 23 65 34 66
REMARK SMILES IDX 24 68 33 69 25 70 26 71 27 72 32 73 28 74 30 75 29 76 31 77
REMARK SMILES IDX 12 78 13 79 21 80 14 81 15 82 20 83 16 85 18 86 17 87 19 88
REMARK H PARENT 3 6 76 24 54 35 8 61 22 67 14 84
REMARK Flexibility Score: inf
ROOT
ATOM      1  C   UNL A   1      37.696  19.966  24.996  1.00  0.00     0.023 C 
ENDROOT
BRANCH   1   2
ATOM      2  C   UNL A   1      38.914  20.421  25.792  1.00  0.00     0.116 C 
BRANCH   2   3
ATOM      3  N   UNL A   1      39.999  19.455  25.765  1.00  0.00    -0.352 N 
ATOM      4  O   UNL A   1      42.141  18.752  25.861  1.00  0.00    -0.269 OA
ATOM      5  C   UNL A   1      41.328  19.638  26.075  1.00  0.00     0.251 C 
ATOM      6  H   UNL A   1      39.750  18.544  25.486  1.00  0.00     0.163 HD
BRANCH   5   7
ATOM      7  C   UNL A   1      41.771  20.932  26.641  1.00  0.00     0.039 A 
ATOM      8  C   UNL A   1      41.760  21.149  28.021  1.00  0.00     0.014 A 
ATOM      9  C   UNL A   1      42.193  21.941  25.772  1.00  0.00     0.014 A 
ATOM     10  C   UNL A   1      42.035  22.418  28.520  1.00  0.00     0.010 A 
ATOM     11  C   UNL A   1      42.541  23.194  26.282  1.00  0.00     0.010 A 
ATOM     12  C   UNL A   1      42.427  23.455  27.657  1.00  0.00    -0.014 A 
BRANCH  12  13
ATOM     13  C   UNL A   1      42.739  24.793  28.218  1.00  0.00     0.031 A 
ATOM     14  C   UNL A   1      44.154  25.185  28.548  1.00  0.00     0.074 A 
ATOM     15  C   UNL A   1      41.738  25.674  28.400  1.00  0.00     0.049 A 
ATOM     16  N   UNL A   1      44.606  26.330  28.999  1.00  0.00    -0.248 NA
ATOM     17  C   UNL A   1      45.193  24.164  28.354  1.00  0.00     0.031 C 
ATOM     18  C   UNL A   1      40.324  25.414  28.121  1.00  0.00     0.029 A 
ATOM     19  N   UNL A   1      41.757  26.973  28.840  1.00  0.00    -0.354 N 
ATOM     20  C   UNL A   1      45.975  26.158  29.166  1.00  0.00     0.074 A 
ATOM     21  C   UNL A   1      46.276  24.793  28.789  1.00  0.00     0.031 C 
ATOM     22  C   UNL A   1      39.620  26.534  28.340  1.00  0.00     0.029 A 
ATOM     23  C   UNL A   1      40.522  27.572  28.828  1.00  0.00     0.049 A 
ATOM     24  H   UNL A   1      42.577  27.431  29.135  1.00  0.00     0.167 HD
ATOM     25  C   UNL A   1      46.897  27.056  29.592  1.00  0.00     0.031 A 
ATOM     26  C   UNL A   1      40.151  28.818  29.174  1.00  0.00     0.031 A 
ATOM     27  C   UNL A   1      46.600  28.415  29.961  1.00  0.00     0.049 A 
ATOM     28  C   UNL A   1      41.189  29.785  29.660  1.00  0.00     0.074 A 
ATOM     29  C   UNL A   1      47.474  29.410  30.365  1.00  0.00     0.029 A 
ATOM     30  N   UNL A   1      45.330  28.970  29.974  1.00  0.00    -0.354 N 
ATOM     31  N   UNL A   1      42.483  29.617  29.777  1.00  0.00    -0.248 NA
ATOM     32  C   UNL A   1      40.712  31.116  30.059  1.00  0.00     0.031 C 
ATOM     33  C   UNL A   1      46.726  30.554  30.668  1.00  0.00     0.029 A 
ATOM     34  C   UNL A   1      45.393  30.286  30.402  1.00  0.00     0.049 A 
ATOM     35  H   UNL A   1      44.504  28.500  29.716  1.00  0.00     0.167 HD
ATOM     36  C   UNL A   1      42.980  30.827  30.241  1.00  0.00     0.074 A 
ATOM     37  C   UNL A   1      41.849  31.723  30.371  1.00  0.00     0.031 C 
ATOM     38  C   UNL A   1      44.260  31.165  30.532  1.00  0.00     0.031 A 
BRANCH  25  39
ATOM     39  C   UNL A   1      48.318  26.580  29.715  1.00  0.00    -0.014 A 
ATOM     40  C   UNL A   1      49.238  26.738  28.665  1.00  0.00     0.009 A 
ATOM     41  C   UNL A   1      48.751  25.989  30.912  1.00  0.00     0.009 A 
ATOM     42  C   UNL A   1      50.550  26.280  28.801  1.00  0.00     0.001 A 
ATOM     43  C   UNL A   1      50.070  25.555  31.054  1.00  0.00     0.001 A 
ATOM     44  C   UNL A   1      50.967  25.692  29.995  1.00  0.00     0.000 A 
ENDBRANCH  25  39
BRANCH  26  45
ATOM     45  C   UNL A   1      38.728  29.220  29.053  1.00  0.00    -0.014 A 
ATOM     46  C   UNL A   1      38.226  29.698  27.834  1.00  0.00     0.009 A 
ATOM     47  C   UNL A   1      37.858  29.106  30.149  1.00  0.00     0.009 A 
ATOM     48  C   UNL A   1      36.884  30.066  27.718  1.00  0.00     0.001 A 
ATOM     49  C   UNL A   1      36.512  29.450  30.024  1.00  0.00     0.001 A 
ATOM     50  C   UNL A   1      36.028  29.936  28.811  1.00  0.00     0.000 A 
ENDBRANCH  26  45
BRANCH  38  51
ATOM     51  C   UNL A   1      44.504  32.576  30.984  1.00  0.00    -0.014 A 
ATOM     52  C   UNL A   1      44.767  33.601  30.063  1.00  0.00     0.009 A 
ATOM     53  C   UNL A   1      44.450  32.885  32.352  1.00  0.00     0.009 A 
ATOM     54  C   UNL A   1      45.006  34.903  30.507  1.00  0.00     0.001 A 
ATOM     55  C   UNL A   1      44.664  34.193  32.790  1.00  0.00     0.001 A 
ATOM     56  C   UNL A   1      44.952  35.198  31.868  1.00  0.00     0.000 A 
ENDBRANCH  38  51
ENDBRANCH  12  13
ENDBRANCH   5   7
ENDBRANCH   2   3
ENDBRANCH   1   2
BRANCH   1  57
ATOM     57  C   UNL A   1      36.933  21.084  24.279  1.00  0.00     0.023 C 
BRANCH  57  58
ATOM     58  C   UNL A   1      36.480  22.222  25.194  1.00  0.00     0.116 C 
BRANCH  58  59
ATOM     59  N   UNL A   1      35.687  23.201  24.466  1.00  0.00    -0.351 N 
ATOM     60  C   UNL A   1      34.340  23.234  24.203  1.00  0.00     0.283 C 
ATOM     61  H   UNL A   1      36.198  23.960  24.105  1.00  0.00     0.163 HD
ATOM     62  O   UNL A   1      33.944  24.137  23.461  1.00  0.00    -0.268 OA
BRANCH  60  63
ATOM     63  C   UNL A   1      33.397  22.210  24.879  1.00  0.00     0.307 C 
BRANCH  63  64
ATOM     64  N   UNL A   1      32.421  22.808  25.840  1.00  0.00    -0.318 N 
ATOM     65  C   UNL A   1      32.940  23.919  26.680  1.00  0.00     0.284 C 
ATOM     66  C   UNL A   1      31.088  23.189  25.350  1.00  0.00     0.284 C 
ATOM     67  H   UNL A   1      32.288  21.970  26.407  1.00  0.00     0.349 HD
ATOM     68  C   UNL A   1      32.847  25.363  26.091  1.00  0.00     0.178 C 
ATOM     69  C   UNL A   1      31.021  24.546  24.631  1.00  0.00     0.178 C 
ATOM     70  N   UNL A   1      31.517  25.617  25.513  1.00  0.00    -0.360 N 
BRANCH  70  71
ATOM     71  C   UNL A   1      31.161  26.894  25.078  1.00  0.00     0.038 A 
ATOM     72  C   UNL A   1      30.421  27.021  23.890  1.00  0.00     0.026 A 
ATOM     73  C   UNL A   1      31.571  28.068  25.720  1.00  0.00     0.046 A 
ATOM     74  C   UNL A   1      30.111  28.269  23.346  1.00  0.00     0.004 A 
ATOM     75  C   UNL A   1      31.267  29.318  25.173  1.00  0.00     0.043 A 
ATOM     76  C   UNL A   1      30.543  29.424  23.988  1.00  0.00     0.020 A 
ATOM     77  Cl  UNL A   1      31.818  30.750  25.956  1.00  0.00    -0.084 Cl
ENDBRANCH  70  71
ENDBRANCH  63  64
BRANCH  63  78
ATOM     78  C   UNL A   1      32.824  21.245  23.848  1.00  0.00     0.044 A 
ATOM     79  C   UNL A   1      32.078  21.540  22.717  1.00  0.00     0.094 A 
ATOM     80  C   UNL A   1      33.078  19.825  23.781  1.00  0.00     0.011 A 
ATOM     81  N   UNL A   1      31.778  20.382  22.059  1.00  0.00    -0.361 N 
ATOM     82  C   UNL A   1      32.410  19.324  22.660  1.00  0.00     0.046 A 
ATOM     83  C   UNL A   1      33.842  18.922  24.551  1.00  0.00     0.031 A 
ATOM     84  H   UNL A   1      31.194  20.317  21.270  1.00  0.00     0.166 HD
ATOM     85  C   UNL A   1      32.448  17.977  22.278  1.00  0.00     0.028 A 
ATOM     86  C   UNL A   1      33.911  17.578  24.164  1.00  0.00     0.041 A 
ATOM     87  C   UNL A   1      33.222  17.110  23.050  1.00  0.00     0.022 A 
ATOM     88  Cl  UNL A   1      34.885  16.488  25.077  1.00  0.00    -0.084 Cl
ENDBRANCH  63  78
ENDBRANCH  60  63
ENDBRANCH  58  59
ENDBRANCH  57  58
ENDBRANCH   1  57
TORSDOF 14
ENDMDL
MODEL 3
REMARK VINA RESULT:     -12.8      1.467      5.892
REMARK SMILES O=C(NCCCCNC(=O)[C@H](c1c[nH]c2ccc(Cl)cc12)[NH+]1CCN(c2cccc(Cl)c2)CC1)c1ccc(-c2c3nc(c(-c4ccccc4)c4ccc([nH]4)c(-c4ccccc4)c4nc(c(-c5ccccc5)c5ccc2[nH]5)C=C4)C=C3)cc1
REMARK SMILES IDX 5 1 4 2 3 3 1 4 2 5 35 7 36 8 82 9 37 10 81 11 38 12 39 13
REMARK SMILES IDX 40 14 75 15 41 16 80 17 74 18 76 19 42 20 79 21 73 22 72 23
REMARK SMILES IDX 43 25 65 26 50 27 64 28 51 29 54 30 63 31 77 32 52 33 53 34
REMARK SMILES IDX 62 36 78 37 55 38 44 39 45 40 49 41 46 42 48 43 47 44 66 45
REMARK SMILES IDX 67 46 71 47 68 48 70 49 69 50 56 51 57 52 61 53 58 54 60 55
REMARK SMILES IDX 59 56 6 57 7 58 8 59 9 60 10 62 11 63 22 64 23 65 34 66
REMARK SMILES IDX 24 68 33 69 25 70 26 71 27 72 32 73 28 74 30 75 29 76 31 77
REMARK SMILES IDX 12 78 13 79 21 80 14 81 15 82 20 83 16 85 18 86 17 87 19 88
REMARK H PARENT 3 6 76 24 54 35 8 61 22 67 14 84
REMARK Flexibility Score: inf
ROOT
ATOM      1  C   UNL A   1      37.683  20.018  25.001  1.00  0.00     0.023 C 
ENDROOT
BRANCH   1   2
ATOM      2  C   UNL A   1      38.881  20.426  25.851  1.00  0.00     0.116 C 
BRANCH   2   3
ATOM      3  N   UNL A   1      39.934  19.425  25.860  1.00  0.00    -0.352 N 
ATOM      4  O   UNL A   1      42.055  18.658  25.950  1.00  0.00    -0.269 OA
ATOM      5  C   UNL A   1      41.275  19.583  26.126  1.00  0.00     0.251 C 
ATOM      6  H   UNL A   1      39.649  18.507  25.646  1.00  0.00     0.163 HD
BRANCH   5   7
ATOM      7  C   UNL A   1      41.774  20.894  26.598  1.00  0.00     0.039 A 
ATOM      8  C   UNL A   1      41.779  21.209  27.959  1.00  0.00     0.014 A 
ATOM      9  C   UNL A   1      42.230  21.822  25.658  1.00  0.00     0.014 A 
ATOM     10  C   UNL A   1      42.108  22.498  28.366  1.00  0.00     0.010 A 
ATOM     11  C   UNL A   1      42.631  23.093  26.078  1.00  0.00     0.010 A 
ATOM     12  C   UNL A   1      42.536  23.454  27.431  1.00  0.00    -0.014 A 
BRANCH  12  13
ATOM     13  C   UNL A   1      42.905  24.815  27.894  1.00  0.00     0.031 A 
ATOM     14  C   UNL A   1      41.851  25.851  28.175  1.00  0.00     0.074 A 
ATOM     15  C   UNL A   1      44.204  25.107  28.095  1.00  0.00     0.049 A 
ATOM     16  N   UNL A   1      41.998  27.071  28.632  1.00  0.00    -0.248 NA
ATOM     17  C   UNL A   1      40.455  25.476  27.905  1.00  0.00     0.031 C 
ATOM     18  C   UNL A   1      45.320  24.189  27.858  1.00  0.00     0.029 A 
ATOM     19  N   UNL A   1      44.803  26.246  28.567  1.00  0.00    -0.354 N 
ATOM     20  C   UNL A   1      40.720  27.616  28.679  1.00  0.00     0.074 A 
ATOM     21  C   UNL A   1      39.813  26.601  28.184  1.00  0.00     0.031 C 
ATOM     22  C   UNL A   1      46.462  24.780  28.239  1.00  0.00     0.029 A 
ATOM     23  C   UNL A   1      46.165  26.135  28.694  1.00  0.00     0.049 A 
ATOM     24  H   UNL A   1      44.304  27.064  28.794  1.00  0.00     0.167 HD
ATOM     25  C   UNL A   1      40.336  28.846  29.098  1.00  0.00     0.031 A 
ATOM     26  C   UNL A   1      47.079  27.023  29.124  1.00  0.00     0.031 A 
ATOM     27  C   UNL A   1      41.236  29.853  29.597  1.00  0.00     0.049 A 
ATOM     28  C   UNL A   1      46.630  28.384  29.564  1.00  0.00     0.074 A 
ATOM     29  C   UNL A   1      40.936  31.114  30.082  1.00  0.00     0.029 A 
ATOM     30  N   UNL A   1      42.613  29.715  29.670  1.00  0.00    -0.354 N 
ATOM     31  N   UNL A   1      45.414  28.869  29.636  1.00  0.00    -0.248 NA
ATOM     32  C   UNL A   1      47.681  29.319  29.985  1.00  0.00     0.031 C 
ATOM     33  C   UNL A   1      42.137  31.757  30.405  1.00  0.00     0.029 A 
ATOM     34  C   UNL A   1      43.179  30.876  30.169  1.00  0.00     0.049 A 
ATOM     35  H   UNL A   1      43.116  28.910  29.406  1.00  0.00     0.167 HD
ATOM     36  C   UNL A   1      45.551  30.158  30.132  1.00  0.00     0.074 A 
ATOM     37  C   UNL A   1      46.967  30.374  30.355  1.00  0.00     0.031 C 
ATOM     38  C   UNL A   1      44.589  31.079  30.381  1.00  0.00     0.031 A 
BRANCH  25  39
ATOM     39  C   UNL A   1      38.874  29.183  29.002  1.00  0.00    -0.014 A 
ATOM     40  C   UNL A   1      38.009  29.015  30.095  1.00  0.00     0.009 A 
ATOM     41  C   UNL A   1      38.360  29.706  27.804  1.00  0.00     0.009 A 
ATOM     42  C   UNL A   1      36.653  29.328  29.977  1.00  0.00     0.001 A 
ATOM     43  C   UNL A   1      37.010  30.042  27.698  1.00  0.00     0.001 A 
ATOM     44  C   UNL A   1      36.155  29.845  28.782  1.00  0.00     0.000 A 
ENDBRANCH  25  39
BRANCH  26  45
ATOM     45  C   UNL A   1      48.511  26.638  29.173  1.00  0.00    -0.014 A 
ATOM     46  C   UNL A   1      49.365  26.939  28.102  1.00  0.00     0.009 A 
ATOM     47  C   UNL A   1      49.038  25.990  30.302  1.00  0.00     0.009 A 
ATOM     48  C   UNL A   1      50.715  26.585  28.152  1.00  0.00     0.001 A 
ATOM     49  C   UNL A   1      50.393  25.661  30.361  1.00  0.00     0.001 A 
ATOM     50  C   UNL A   1      51.228  25.954  29.284  1.00  0.00     0.000 A 
ENDBRANCH  26  45
BRANCH  38  51
ATOM     51  C   UNL A   1      45.038  32.391  30.959  1.00  0.00    -0.014 A 
ATOM     52  C   UNL A   1      45.146  32.578  32.346  1.00  0.00     0.009 A 
ATOM     53  C   UNL A   1      45.376  33.448  30.101  1.00  0.00     0.009 A 
ATOM     54  C   UNL A   1      45.551  33.810  32.862  1.00  0.00     0.001 A 
ATOM     55  C   UNL A   1      45.805  34.671  30.618  1.00  0.00     0.001 A 
ATOM     56  C   UNL A   1      45.883  34.854  31.998  1.00  0.00     0.000 A 
ENDBRANCH  38  51
ENDBRANCH  12  13
ENDBRANCH   5   7
ENDBRANCH   2   3
ENDBRANCH   1   2
BRANCH   1  57
ATOM     57  C   UNL A   1      37.038  21.151  24.198  1.00  0.00     0.023 C 
BRANCH  57  58
ATOM     58  C   UNL A   1      36.591  22.343  25.043  1.00  0.00     0.116 C 
BRANCH  58  59
ATOM     59  N   UNL A   1      35.712  23.225  24.289  1.00  0.00    -0.351 N 
ATOM     60  C   UNL A   1      34.358  23.157  24.073  1.00  0.00     0.283 C 
ATOM     61  H   UNL A   1      36.161  23.993  23.867  1.00  0.00     0.163 HD
ATOM     62  O   UNL A   1      33.881  23.988  23.295  1.00  0.00    -0.268 OA
BRANCH  60  63
ATOM     63  C   UNL A   1      33.506  22.118  24.841  1.00  0.00     0.307 C 
BRANCH  63  64
ATOM     64  N   UNL A   1      32.577  22.706  25.852  1.00  0.00    -0.318 N 
ATOM     65  C   UNL A   1      33.138  23.801  26.685  1.00  0.00     0.284 C 
ATOM     66  C   UNL A   1      31.226  23.101  25.428  1.00  0.00     0.284 C 
ATOM     67  H   UNL A   1      32.465  21.860  26.412  1.00  0.00     0.349 HD
ATOM     68  C   UNL A   1      33.027  25.255  26.122  1.00  0.00     0.178 C 
ATOM     69  C   UNL A   1      31.134  24.469  24.733  1.00  0.00     0.178 C 
ATOM     70  N   UNL A   1      31.675  25.524  25.608  1.00  0.00    -0.360 N 
BRANCH  70  71
ATOM     71  C   UNL A   1      31.307  26.809  25.209  1.00  0.00     0.038 A 
ATOM     72  C   UNL A   1      30.549  26.960  24.034  1.00  0.00     0.026 A 
ATOM     73  C   UNL A   1      31.719  27.970  25.873  1.00  0.00     0.046 A 
ATOM     74  C   UNL A   1      30.226  28.219  23.525  1.00  0.00     0.004 A 
ATOM     75  C   UNL A   1      31.402  29.231  25.360  1.00  0.00     0.043 A 
ATOM     76  C   UNL A   1      30.662  29.362  24.187  1.00  0.00     0.020 A 
ATOM     77  Cl  UNL A   1      31.958  30.647  26.169  1.00  0.00    -0.084 Cl
ENDBRANCH  70  71
ENDBRANCH  63  64
BRANCH  63  78
ATOM     78  C   UNL A   1      32.902  21.104  23.878  1.00  0.00     0.044 A 
ATOM     79  C   UNL A   1      32.085  21.340  22.782  1.00  0.00     0.094 A 
ATOM     80  C   UNL A   1      33.188  19.689  23.844  1.00  0.00     0.011 A 
ATOM     81  N   UNL A   1      31.778  20.153  22.182  1.00  0.00    -0.361 N 
ATOM     82  C   UNL A   1      32.471  19.132  22.782  1.00  0.00     0.046 A 
ATOM     83  C   UNL A   1      34.018  18.832  24.600  1.00  0.00     0.031 A 
ATOM     84  H   UNL A   1      31.153  20.046  21.430  1.00  0.00     0.166 HD
ATOM     85  C   UNL A   1      32.522  17.774  22.444  1.00  0.00     0.028 A 
ATOM     86  C   UNL A   1      34.100  17.477  24.256  1.00  0.00     0.041 A 
ATOM     87  C   UNL A   1      33.362  16.954  23.200  1.00  0.00     0.022 A 
ATOM     88  Cl  UNL A   1      35.152  16.444  25.148  1.00  0.00    -0.084 Cl
ENDBRANCH  63  78
ENDBRANCH  60  63
ENDBRANCH  58  59
ENDBRANCH  57  58
ENDBRANCH   1  57
TORSDOF 14
ENDMDL
