MODEL 1
REMARK VINA RESULT:      -9.9      0.000      0.000
REMARK SMILES COC(=O)/C=C(/CC(C)C)C(=O)NCCCCNC(=O)c1ccc(-c2c3nc(c(-c4ccccc4)c4ccc([nH]4)c(-c4ccccc4)c4nc(c(-c5ccccc5)c5ccc2[nH]5)C=C4)C=C3)cc1
REMARK SMILES IDX 15 1 14 2 13 3 11 4 12 5 6 7 5 8 3 9 4 10 2 11 1 12 7 13
REMARK SMILES IDX 8 14 9 15 10 16 16 17 17 18 18 19 19 20 20 22 21 23 22 24
REMARK SMILES IDX 68 25 23 26 67 27 24 28 25 29 26 30 61 31 27 32 66 33 60 34
REMARK SMILES IDX 62 35 28 36 65 37 59 38 58 39 29 41 51 42 36 43 50 44 37 45
REMARK SMILES IDX 40 46 49 47 63 48 38 49 39 50 48 52 64 53 41 54 30 55 31 56
REMARK SMILES IDX 35 57 32 58 34 59 33 60 52 61 53 62 57 63 54 64 56 65 55 66
REMARK SMILES IDX 42 67 43 68 47 69 44 70 46 71 45 72
REMARK H PARENT 13 6 18 21 62 40 40 51
REMARK Flexibility Score: inf
ROOT
ATOM      1  C   UNL A   1      36.888  21.670  24.538  1.00  0.00     0.023 C 
ENDROOT
BRANCH   1   2
ATOM      2  C   UNL A   1      36.388  22.531  25.698  1.00  0.00     0.116 C 
BRANCH   2   3
ATOM      3  N   UNL A   1      35.486  21.768  26.538  1.00  0.00    -0.352 N 
ATOM      4  C   UNL A   1      34.142  21.845  26.726  1.00  0.00     0.247 C 
ATOM      5  O   UNL A   1      33.761  21.760  27.895  1.00  0.00    -0.270 OA
ATOM      6  H   UNL A   1      35.928  21.066  27.070  1.00  0.00     0.163 HD
BRANCH   4   7
ATOM      7  C   UNL A   1      33.155  22.004  25.609  1.00  0.00     0.024 C 
ATOM      8  C   UNL A   1      32.811  20.918  24.880  1.00  0.00     0.102 C 
BRANCH   8   9
ATOM      9  C   UNL A   1      33.243  19.507  24.947  1.00  0.00     0.330 C 
ATOM     10  O   UNL A   1      34.382  19.188  24.636  1.00  0.00    -0.247 OA
BRANCH   9  11
ATOM     11  O   UNL A   1      32.312  18.696  25.491  1.00  0.00    -0.466 OA
ATOM     12  C   UNL A   1      32.525  17.306  25.232  1.00  0.00     0.282 C 
ENDBRANCH   9  11
ENDBRANCH   8   9
BRANCH   7  13
ATOM     13  C   UNL A   1      32.490  23.309  25.244  1.00  0.00     0.044 C 
BRANCH  13  14
ATOM     14  C   UNL A   1      31.653  24.000  26.350  1.00  0.00    -0.013 C 
ATOM     15  C   UNL A   1      31.145  25.409  26.057  1.00  0.00     0.008 C 
ATOM     16  C   UNL A   1      30.456  23.113  26.714  1.00  0.00     0.008 C 
ENDBRANCH  13  14
ENDBRANCH   7  13
ENDBRANCH   4   7
ENDBRANCH   2   3
ENDBRANCH   1   2
BRANCH   1  17
ATOM     17  C   UNL A   1      37.660  20.429  24.946  1.00  0.00     0.023 C 
BRANCH  17  18
ATOM     18  C   UNL A   1      38.926  20.707  25.734  1.00  0.00     0.116 C 
BRANCH  18  19
ATOM     19  N   UNL A   1      39.905  19.626  25.694  1.00  0.00    -0.352 N 
ATOM     20  C   UNL A   1      41.236  19.665  26.039  1.00  0.00     0.251 C 
ATOM     21  H   UNL A   1      39.571  18.755  25.378  1.00  0.00     0.163 HD
ATOM     22  O   UNL A   1      41.963  18.691  25.876  1.00  0.00    -0.269 OA
BRANCH  20  23
ATOM     23  C   UNL A   1      41.780  20.928  26.570  1.00  0.00     0.039 A 
ATOM     24  C   UNL A   1      42.243  21.900  25.683  1.00  0.00     0.014 A 
ATOM     25  C   UNL A   1      41.706  21.186  27.939  1.00  0.00     0.014 A 
ATOM     26  C   UNL A   1      42.550  23.172  26.167  1.00  0.00     0.010 A 
ATOM     27  C   UNL A   1      41.885  22.482  28.394  1.00  0.00     0.010 A 
ATOM     28  C   UNL A   1      42.327  23.485  27.519  1.00  0.00    -0.014 A 
BRANCH  28  29
ATOM     29  C   UNL A   1      42.590  24.839  28.064  1.00  0.00     0.031 A 
ATOM     30  C   UNL A   1      43.986  25.194  28.503  1.00  0.00     0.074 A 
ATOM     31  C   UNL A   1      41.578  25.709  28.245  1.00  0.00     0.049 A 
ATOM     32  N   UNL A   1      44.415  26.271  29.107  1.00  0.00    -0.248 NA
ATOM     33  C   UNL A   1      45.031  24.178  28.278  1.00  0.00     0.031 C 
ATOM     34  C   UNL A   1      40.171  25.465  27.917  1.00  0.00     0.029 A 
ATOM     35  N   UNL A   1      41.582  26.983  28.754  1.00  0.00    -0.354 N 
ATOM     36  C   UNL A   1      45.760  26.041  29.368  1.00  0.00     0.074 A 
ATOM     37  C   UNL A   1      46.059  24.700  28.925  1.00  0.00     0.031 C 
ATOM     38  C   UNL A   1      39.457  26.569  28.193  1.00  0.00     0.029 A 
ATOM     39  C   UNL A   1      40.346  27.582  28.752  1.00  0.00     0.049 A 
ATOM     40  H   UNL A   1      42.395  27.426  29.090  1.00  0.00     0.167 HD
ATOM     41  C   UNL A   1      46.678  26.883  29.896  1.00  0.00     0.031 A 
ATOM     42  C   UNL A   1      39.976  28.813  29.153  1.00  0.00     0.031 A 
ATOM     43  C   UNL A   1      46.392  28.234  30.287  1.00  0.00     0.049 A 
ATOM     44  C   UNL A   1      41.020  29.746  29.701  1.00  0.00     0.074 A 
ATOM     45  C   UNL A   1      47.261  29.198  30.763  1.00  0.00     0.029 A 
ATOM     46  N   UNL A   1      45.135  28.816  30.229  1.00  0.00    -0.354 N 
ATOM     47  N   UNL A   1      42.303  29.538  29.880  1.00  0.00    -0.248 NA
ATOM     48  C   UNL A   1      40.567  31.090  30.088  1.00  0.00     0.031 C 
ATOM     49  C   UNL A   1      46.522  30.356  31.026  1.00  0.00     0.029 A 
ATOM     50  C   UNL A   1      45.202  30.125  30.669  1.00  0.00     0.049 A 
ATOM     51  H   UNL A   1      44.316  28.365  29.920  1.00  0.00     0.167 HD
ATOM     52  C   UNL A   1      42.814  30.733  30.370  1.00  0.00     0.074 A 
ATOM     53  C   UNL A   1      41.707  31.664  30.445  1.00  0.00     0.031 C 
ATOM     54  C   UNL A   1      44.087  31.034  30.725  1.00  0.00     0.031 A 
BRANCH  41  55
ATOM     55  C   UNL A   1      48.077  26.356  30.064  1.00  0.00    -0.014 A 
ATOM     56  C   UNL A   1      49.002  26.401  29.009  1.00  0.00     0.009 A 
ATOM     57  C   UNL A   1      48.473  25.805  31.292  1.00  0.00     0.009 A 
ATOM     58  C   UNL A   1      50.279  25.859  29.164  1.00  0.00     0.001 A 
ATOM     59  C   UNL A   1      49.762  25.294  31.455  1.00  0.00     0.001 A 
ATOM     60  C   UNL A   1      50.660  25.309  30.387  1.00  0.00     0.000 A 
ENDBRANCH  41  55
BRANCH  42  61
ATOM     61  C   UNL A   1      38.563  29.253  29.010  1.00  0.00    -0.014 A 
ATOM     62  C   UNL A   1      37.678  29.153  30.096  1.00  0.00     0.009 A 
ATOM     63  C   UNL A   1      38.087  29.765  27.794  1.00  0.00     0.009 A 
ATOM     64  C   UNL A   1      36.340  29.528  29.957  1.00  0.00     0.001 A 
ATOM     65  C   UNL A   1      36.754  30.165  27.667  1.00  0.00     0.001 A 
ATOM     66  C   UNL A   1      35.880  30.038  28.744  1.00  0.00     0.000 A 
ENDBRANCH  42  61
BRANCH  54  67
ATOM     67  C   UNL A   1      44.358  32.437  31.183  1.00  0.00    -0.014 A 
ATOM     68  C   UNL A   1      44.280  32.789  32.538  1.00  0.00     0.009 A 
ATOM     69  C   UNL A   1      44.747  33.407  30.246  1.00  0.00     0.009 A 
ATOM     70  C   UNL A   1      44.558  34.097  32.943  1.00  0.00     0.001 A 
ATOM     71  C   UNL A   1      45.051  34.705  30.656  1.00  0.00     0.001 A 
ATOM     72  C   UNL A   1      44.947  35.051  32.003  1.00  0.00     0.000 A 
ENDBRANCH  54  67
ENDBRANCH  28  29
ENDBRANCH  20  23
ENDBRANCH  18  19
ENDBRANCH  17  18
ENDBRANCH   1  17
TORSDOF 15
ENDMDL
MODEL 2
REMARK VINA RESULT:      -9.8      4.542      9.447
REMARK SMILES COC(=O)/C=C(/CC(C)C)C(=O)NCCCCNC(=O)c1ccc(-c2c3nc(c(-c4ccccc4)c4ccc([nH]4)c(-c4ccccc4)c4nc(c(-c5ccccc5)c5ccc2[nH]5)C=C4)C=C3)cc1
REMARK SMILES IDX 15 1 14 2 13 3 11 4 12 5 6 7 5 8 3 9 4 10 2 11 1 12 7 13
REMARK SMILES IDX 8 14 9 15 10 16 16 17 17 18 18 19 19 20 20 22 21 23 22 24
REMARK SMILES IDX 68 25 23 26 67 27 24 28 25 29 26 30 61 31 27 32 66 33 60 34
REMARK SMILES IDX 62 35 28 36 65 37 59 38 58 39 29 41 51 42 36 43 50 44 37 45
REMARK SMILES IDX 40 46 49 47 63 48 38 49 39 50 48 52 64 53 41 54 30 55 31 56
REMARK SMILES IDX 35 57 32 58 34 59 33 60 52 61 53 62 57 63 54 64 56 65 55 66
REMARK SMILES IDX 42 67 43 68 47 69 44 70 46 71 45 72
REMARK H PARENT 13 6 18 21 62 40 40 51
REMARK Flexibility Score: inf
ROOT
ATOM      1  C   UNL A   1      31.943  30.054  26.711  1.00  0.00     0.023 C 
ENDROOT
BRANCH   1   2
ATOM      2  C   UNL A   1      33.231  29.625  26.007  1.00  0.00     0.116 C 
BRANCH   2   3
ATOM      3  N   UNL A   1      33.087  29.761  24.571  1.00  0.00    -0.352 N 
ATOM      4  C   UNL A   1      32.815  28.850  23.600  1.00  0.00     0.247 C 
ATOM      5  O   UNL A   1      33.490  28.947  22.573  1.00  0.00    -0.270 OA
ATOM      6  H   UNL A   1      33.210  30.680  24.239  1.00  0.00     0.163 HD
BRANCH   4   7
ATOM      7  C   UNL A   1      31.758  27.795  23.724  1.00  0.00     0.024 C 
ATOM      8  C   UNL A   1      30.470  28.126  23.480  1.00  0.00     0.102 C 
BRANCH   8   9
ATOM      9  C   UNL A   1      29.834  29.404  23.101  1.00  0.00     0.330 C 
ATOM     10  O   UNL A   1      29.806  30.343  23.886  1.00  0.00    -0.247 OA
BRANCH   9  11
ATOM     11  O   UNL A   1      29.438  29.436  21.812  1.00  0.00    -0.466 OA
ATOM     12  C   UNL A   1      28.291  30.255  21.572  1.00  0.00     0.282 C 
ENDBRANCH   9  11
ENDBRANCH   8   9
BRANCH   7  13
ATOM     13  C   UNL A   1      32.034  26.356  24.089  1.00  0.00     0.044 C 
BRANCH  13  14
ATOM     14  C   UNL A   1      32.528  26.083  25.532  1.00  0.00    -0.013 C 
ATOM     15  C   UNL A   1      31.828  24.970  26.306  1.00  0.00     0.008 C 
ATOM     16  C   UNL A   1      34.034  25.793  25.510  1.00  0.00     0.008 C 
ENDBRANCH  13  14
ENDBRANCH   7  13
ENDBRANCH   4   7
ENDBRANCH   2   3
ENDBRANCH   1   2
BRANCH   1  17
ATOM     17  C   UNL A   1      31.685  31.549  26.724  1.00  0.00     0.023 C 
BRANCH  17  18
ATOM     18  C   UNL A   1      32.849  32.383  27.224  1.00  0.00     0.116 C 
BRANCH  18  19
ATOM     19  N   UNL A   1      32.492  33.752  27.587  1.00  0.00    -0.352 N 
ATOM     20  C   UNL A   1      33.136  34.601  28.456  1.00  0.00     0.251 C 
ATOM     21  H   UNL A   1      31.686  34.114  27.153  1.00  0.00     0.163 HD
ATOM     22  O   UNL A   1      32.673  35.703  28.727  1.00  0.00    -0.269 OA
BRANCH  20  23
ATOM     23  C   UNL A   1      34.380  34.132  29.094  1.00  0.00     0.039 A 
ATOM     24  C   UNL A   1      34.305  33.356  30.251  1.00  0.00     0.014 A 
ATOM     25  C   UNL A   1      35.603  34.359  28.463  1.00  0.00     0.014 A 
ATOM     26  C   UNL A   1      35.458  32.732  30.728  1.00  0.00     0.010 A 
ATOM     27  C   UNL A   1      36.714  33.635  28.861  1.00  0.00     0.010 A 
ATOM     28  C   UNL A   1      36.661  32.828  30.007  1.00  0.00    -0.014 A 
BRANCH  28  29
ATOM     29  C   UNL A   1      37.897  32.139  30.450  1.00  0.00     0.031 A 
ATOM     30  C   UNL A   1      38.735  32.759  31.535  1.00  0.00     0.074 A 
ATOM     31  C   UNL A   1      38.310  31.016  29.829  1.00  0.00     0.049 A 
ATOM     32  N   UNL A   1      39.903  32.389  31.994  1.00  0.00    -0.248 NA
ATOM     33  C   UNL A   1      38.214  33.992  32.153  1.00  0.00     0.031 C 
ATOM     34  C   UNL A   1      37.620  30.347  28.722  1.00  0.00     0.029 A 
ATOM     35  N   UNL A   1      39.420  30.239  30.044  1.00  0.00    -0.354 N 
ATOM     36  C   UNL A   1      40.266  33.363  32.915  1.00  0.00     0.074 A 
ATOM     37  C   UNL A   1      39.236  34.374  32.899  1.00  0.00     0.031 C 
ATOM     38  C   UNL A   1      38.300  29.238  28.387  1.00  0.00     0.029 A 
ATOM     39  C   UNL A   1      39.490  29.138  29.225  1.00  0.00     0.049 A 
ATOM     40  H   UNL A   1      40.102  30.450  30.722  1.00  0.00     0.167 HD
ATOM     41  C   UNL A   1      41.344  33.398  33.733  1.00  0.00     0.031 A 
ATOM     42  C   UNL A   1      40.411  28.159  29.164  1.00  0.00     0.031 A 
ATOM     43  C   UNL A   1      42.340  32.365  33.786  1.00  0.00     0.049 A 
ATOM     44  C   UNL A   1      41.581  28.196  30.107  1.00  0.00     0.074 A 
ATOM     45  C   UNL A   1      43.432  32.261  34.627  1.00  0.00     0.029 A 
ATOM     46  N   UNL A   1      42.351  31.245  32.969  1.00  0.00    -0.354 N 
ATOM     47  N   UNL A   1      41.877  29.090  31.021  1.00  0.00    -0.248 NA
ATOM     48  C   UNL A   1      42.535  27.082  30.022  1.00  0.00     0.031 C 
ATOM     49  C   UNL A   1      44.125  31.093  34.295  1.00  0.00     0.029 A 
ATOM     50  C   UNL A   1      43.437  30.448  33.279  1.00  0.00     0.049 A 
ATOM     51  H   UNL A   1      41.685  31.047  32.271  1.00  0.00     0.167 HD
ATOM     52  C   UNL A   1      43.032  28.629  31.639  1.00  0.00     0.074 A 
ATOM     53  C   UNL A   1      43.374  27.371  31.007  1.00  0.00     0.031 C 
ATOM     54  C   UNL A   1      43.748  29.195  32.642  1.00  0.00     0.031 A 
BRANCH  41  55
ATOM     55  C   UNL A   1      41.481  34.591  34.638  1.00  0.00    -0.014 A 
ATOM     56  C   UNL A   1      42.217  35.720  34.245  1.00  0.00     0.009 A 
ATOM     57  C   UNL A   1      40.869  34.585  35.900  1.00  0.00     0.009 A 
ATOM     58  C   UNL A   1      42.380  36.798  35.118  1.00  0.00     0.001 A 
ATOM     59  C   UNL A   1      41.006  35.677  36.758  1.00  0.00     0.001 A 
ATOM     60  C   UNL A   1      41.772  36.777  36.372  1.00  0.00     0.000 A 
ENDBRANCH  41  55
BRANCH  42  61
ATOM     61  C   UNL A   1      40.244  27.033  28.205  1.00  0.00    -0.014 A 
ATOM     62  C   UNL A   1      39.513  25.894  28.574  1.00  0.00     0.009 A 
ATOM     63  C   UNL A   1      40.819  27.085  26.926  1.00  0.00     0.009 A 
ATOM     64  C   UNL A   1      39.385  24.817  27.694  1.00  0.00     0.001 A 
ATOM     65  C   UNL A   1      40.666  26.018  26.038  1.00  0.00     0.001 A 
ATOM     66  C   UNL A   1      39.958  24.881  26.425  1.00  0.00     0.000 A 
ENDBRANCH  42  61
BRANCH  54  67
ATOM     67  C   UNL A   1      44.942  28.438  33.145  1.00  0.00    -0.014 A 
ATOM     68  C   UNL A   1      44.816  27.451  34.133  1.00  0.00     0.009 A 
ATOM     69  C   UNL A   1      46.204  28.685  32.582  1.00  0.00     0.009 A 
ATOM     70  C   UNL A   1      45.939  26.745  34.570  1.00  0.00     0.001 A 
ATOM     71  C   UNL A   1      47.320  27.960  33.000  1.00  0.00     0.001 A 
ATOM     72  C   UNL A   1      47.187  26.996  34.000  1.00  0.00     0.000 A 
ENDBRANCH  54  67
ENDBRANCH  28  29
ENDBRANCH  20  23
ENDBRANCH  18  19
ENDBRANCH  17  18
ENDBRANCH   1  17
TORSDOF 15
ENDMDL
MODEL 3
REMARK VINA RESULT:      -9.8      0.990      2.280
REMARK SMILES COC(=O)/C=C(/CC(C)C)C(=O)NCCCCNC(=O)c1ccc(-c2c3nc(c(-c4ccccc4)c4ccc([nH]4)c(-c4ccccc4)c4nc(c(-c5ccccc5)c5ccc2[nH]5)C=C4)C=C3)cc1
REMARK SMILES IDX 15 1 14 2 13 3 11 4 12 5 6 7 5 8 3 9 4 10 2 11 1 12 7 13
REMARK SMILES IDX 8 14 9 15 10 16 16 17 17 18 18 19 19 20 20 22 21 23 22 24
REMARK SMILES IDX 68 25 23 26 67 27 24 28 25 29 26 30 61 31 27 32 66 33 60 34
REMARK SMILES IDX 62 35 28 36 65 37 59 38 58 39 29 41 51 42 36 43 50 44 37 45
REMARK SMILES IDX 40 46 49 47 63 48 38 49 39 50 48 52 64 53 41 54 30 55 31 56
REMARK SMILES IDX 35 57 32 58 34 59 33 60 52 61 53 62 57 63 54 64 56 65 55 66
REMARK SMILES IDX 42 67 43 68 47 69 44 70 46 71 45 72
REMARK H PARENT 13 6 18 21 62 40 40 51
REMARK Flexibility Score: inf
ROOT
ATOM      1  C   UNL A   1      37.084  21.564  24.515  1.00  0.00     0.023 C 
ENDROOT
BRANCH   1   2
ATOM      2  C   UNL A   1      36.484  22.410  25.638  1.00  0.00     0.116 C 
BRANCH   2   3
ATOM      3  N   UNL A   1      35.635  21.593  26.483  1.00  0.00    -0.352 N 
ATOM      4  C   UNL A   1      34.393  21.077  26.287  1.00  0.00     0.247 C 
ATOM      5  O   UNL A   1      33.621  21.166  27.244  1.00  0.00    -0.270 OA
ATOM      6  H   UNL A   1      36.029  21.373  27.358  1.00  0.00     0.163 HD
BRANCH   4   7
ATOM      7  C   UNL A   1      33.960  20.416  25.013  1.00  0.00     0.024 C 
ATOM      8  C   UNL A   1      33.181  21.107  24.149  1.00  0.00     0.102 C 
BRANCH   8   9
ATOM      9  C   UNL A   1      32.615  22.470  24.204  1.00  0.00     0.330 C 
ATOM     10  O   UNL A   1      31.527  22.673  24.727  1.00  0.00    -0.247 OA
BRANCH   9  11
ATOM     11  O   UNL A   1      33.466  23.414  23.751  1.00  0.00    -0.466 OA
ATOM     12  C   UNL A   1      33.031  24.070  22.558  1.00  0.00     0.282 C 
ENDBRANCH   9  11
ENDBRANCH   8   9
BRANCH   7  13
ATOM     13  C   UNL A   1      34.353  19.017  24.606  1.00  0.00     0.044 C 
BRANCH  13  14
ATOM     14  C   UNL A   1      33.230  18.111  24.042  1.00  0.00    -0.013 C 
ATOM     15  C   UNL A   1      33.652  16.990  23.096  1.00  0.00     0.008 C 
ATOM     16  C   UNL A   1      32.436  17.500  25.203  1.00  0.00     0.008 C 
ENDBRANCH  13  14
ENDBRANCH   7  13
ENDBRANCH   4   7
ENDBRANCH   2   3
ENDBRANCH   1   2
BRANCH   1  17
ATOM     17  C   UNL A   1      37.816  20.316  24.971  1.00  0.00     0.023 C 
BRANCH  17  18
ATOM     18  C   UNL A   1      39.051  20.583  25.810  1.00  0.00     0.116 C 
BRANCH  18  19
ATOM     19  N   UNL A   1      40.038  19.508  25.780  1.00  0.00    -0.352 N 
ATOM     20  C   UNL A   1      41.373  19.564  26.109  1.00  0.00     0.251 C 
ATOM     21  H   UNL A   1      39.707  18.629  25.486  1.00  0.00     0.163 HD
ATOM     22  O   UNL A   1      42.105  18.592  25.958  1.00  0.00    -0.269 OA
BRANCH  20  23
ATOM     23  C   UNL A   1      41.913  20.841  26.608  1.00  0.00     0.039 A 
ATOM     24  C   UNL A   1      42.354  21.801  25.696  1.00  0.00     0.014 A 
ATOM     25  C   UNL A   1      41.858  21.123  27.974  1.00  0.00     0.014 A 
ATOM     26  C   UNL A   1      42.657  23.084  26.152  1.00  0.00     0.010 A 
ATOM     27  C   UNL A   1      42.032  22.429  28.401  1.00  0.00     0.010 A 
ATOM     28  C   UNL A   1      42.451  23.420  27.501  1.00  0.00    -0.014 A 
BRANCH  28  29
ATOM     29  C   UNL A   1      42.712  24.786  28.018  1.00  0.00     0.031 A 
ATOM     30  C   UNL A   1      44.115  25.169  28.405  1.00  0.00     0.074 A 
ATOM     31  C   UNL A   1      41.692  25.643  28.219  1.00  0.00     0.049 A 
ATOM     32  N   UNL A   1      44.547  26.262  28.978  1.00  0.00    -0.248 NA
ATOM     33  C   UNL A   1      45.168  24.166  28.160  1.00  0.00     0.031 C 
ATOM     34  C   UNL A   1      40.279  25.372  27.942  1.00  0.00     0.029 A 
ATOM     35  N   UNL A   1      41.692  26.924  28.709  1.00  0.00    -0.354 N 
ATOM     36  C   UNL A   1      45.903  26.057  29.198  1.00  0.00     0.074 A 
ATOM     37  C   UNL A   1      46.208  24.713  28.765  1.00  0.00     0.031 C 
ATOM     38  C   UNL A   1      39.557  26.470  28.225  1.00  0.00     0.029 A 
ATOM     39  C   UNL A   1      40.447  27.504  28.739  1.00  0.00     0.049 A 
ATOM     40  H   UNL A   1      42.509  27.385  29.011  1.00  0.00     0.167 HD
ATOM     41  C   UNL A   1      46.825  26.920  29.682  1.00  0.00     0.031 A 
ATOM     42  C   UNL A   1      40.072  28.735  29.134  1.00  0.00     0.031 A 
ATOM     43  C   UNL A   1      46.530  28.273  30.063  1.00  0.00     0.049 A 
ATOM     44  C   UNL A   1      41.118  29.692  29.633  1.00  0.00     0.074 A 
ATOM     45  C   UNL A   1      47.399  29.257  30.495  1.00  0.00     0.029 A 
ATOM     46  N   UNL A   1      45.262  28.835  30.038  1.00  0.00    -0.354 N 
ATOM     47  N   UNL A   1      42.409  29.507  29.773  1.00  0.00    -0.248 NA
ATOM     48  C   UNL A   1      40.657  31.035  30.015  1.00  0.00     0.031 C 
ATOM     49  C   UNL A   1      46.650  30.407  30.766  1.00  0.00     0.029 A 
ATOM     50  C   UNL A   1      45.323  30.150  30.456  1.00  0.00     0.049 A 
ATOM     51  H   UNL A   1      44.441  28.366  29.763  1.00  0.00     0.167 HD
ATOM     52  C   UNL A   1      42.917  30.717  30.227  1.00  0.00     0.074 A 
ATOM     53  C   UNL A   1      41.799  31.632  30.326  1.00  0.00     0.031 C 
ATOM     54  C   UNL A   1      44.197  31.043  30.535  1.00  0.00     0.031 A 
BRANCH  41  55
ATOM     55  C   UNL A   1      48.236  26.418  29.812  1.00  0.00    -0.014 A 
ATOM     56  C   UNL A   1      48.679  25.788  30.986  1.00  0.00     0.009 A 
ATOM     57  C   UNL A   1      49.135  26.578  28.747  1.00  0.00     0.009 A 
ATOM     58  C   UNL A   1      50.007  25.375  31.111  1.00  0.00     0.001 A 
ATOM     59  C   UNL A   1      50.454  26.134  28.861  1.00  0.00     0.001 A 
ATOM     60  C   UNL A   1      50.892  25.545  30.048  1.00  0.00     0.000 A 
ENDBRANCH  41  55
BRANCH  42  61
ATOM     61  C   UNL A   1      38.647  29.152  29.032  1.00  0.00    -0.014 A 
ATOM     62  C   UNL A   1      38.157  29.706  27.839  1.00  0.00     0.009 A 
ATOM     63  C   UNL A   1      37.775  29.009  30.121  1.00  0.00     0.009 A 
ATOM     64  C   UNL A   1      36.831  30.135  27.749  1.00  0.00     0.001 A 
ATOM     65  C   UNL A   1      36.442  29.414  30.019  1.00  0.00     0.001 A 
ATOM     66  C   UNL A   1      35.973  29.985  28.837  1.00  0.00     0.000 A 
ENDBRANCH  42  61
BRANCH  54  67
ATOM     67  C   UNL A   1      44.460  32.457  30.964  1.00  0.00    -0.014 A 
ATOM     68  C   UNL A   1      44.442  32.824  32.317  1.00  0.00     0.009 A 
ATOM     69  C   UNL A   1      44.782  33.423  29.997  1.00  0.00     0.009 A 
ATOM     70  C   UNL A   1      44.711  34.142  32.692  1.00  0.00     0.001 A 
ATOM     71  C   UNL A   1      45.078  34.732  30.377  1.00  0.00     0.001 A 
ATOM     72  C   UNL A   1      45.034  35.092  31.723  1.00  0.00     0.000 A 
ENDBRANCH  54  67
ENDBRANCH  28  29
ENDBRANCH  20  23
ENDBRANCH  18  19
ENDBRANCH  17  18
ENDBRANCH   1  17
TORSDOF 15
ENDMDL
