MODEL 1
REMARK VINA RESULT:     -10.3      0.000      0.000
REMARK SMILES O=C(NCCCCNC(=O)[C@H](C[NH+]1CCCC1)c1ccc(Br)cc1)c1ccc(-c2c3nc(c(-c4ccccc4)c4ccc([nH]4)c(-c4ccccc4)c4nc(c(-c5ccccc5)c5ccc2[nH]5)C=C4)C=C3)cc1
REMARK SMILES IDX 5 1 4 2 3 3 1 4 2 5 25 7 26 8 72 9 27 10 71 11 28 12 29 13
REMARK SMILES IDX 30 14 65 15 31 16 70 17 64 18 66 19 32 20 69 21 63 22 62 23
REMARK SMILES IDX 33 25 55 26 40 27 54 28 41 29 44 30 53 31 67 32 42 33 43 34
REMARK SMILES IDX 52 36 68 37 45 38 34 39 35 40 39 41 36 42 38 43 37 44 56 45
REMARK SMILES IDX 57 46 61 47 58 48 60 49 59 50 46 51 47 52 51 53 48 54 50 55
REMARK SMILES IDX 49 56 6 57 7 58 8 59 9 60 10 62 11 63 18 64 19 65 24 66
REMARK SMILES IDX 20 67 23 68 21 69 22 70 12 71 13 72 14 73 17 74 15 76 16 77
REMARK H PARENT 3 6 66 24 44 35 8 61 13 75
REMARK Flexibility Score: inf
ROOT
ATOM      1  C   UNL A   1      39.012  21.078  25.516  1.00  0.00     0.023 C 
ENDROOT
BRANCH   1   2
ATOM      2  C   UNL A   1      39.515  19.992  26.457  1.00  0.00     0.116 C 
BRANCH   2   3
ATOM      3  N   UNL A   1      40.708  19.333  25.948  1.00  0.00    -0.352 N 
ATOM      4  O   UNL A   1      42.825  19.204  25.176  1.00  0.00    -0.269 OA
ATOM      5  C   UNL A   1      41.979  19.828  25.811  1.00  0.00     0.251 C 
ATOM      6  H   UNL A   1      40.585  18.399  25.662  1.00  0.00     0.163 HD
BRANCH   5   7
ATOM      7  C   UNL A   1      42.322  21.131  26.415  1.00  0.00     0.039 A 
ATOM      8  C   UNL A   1      42.347  21.283  27.805  1.00  0.00     0.014 A 
ATOM      9  C   UNL A   1      42.622  22.207  25.579  1.00  0.00     0.014 A 
ATOM     10  C   UNL A   1      42.544  22.543  28.358  1.00  0.00     0.010 A 
ATOM     11  C   UNL A   1      42.902  23.453  26.139  1.00  0.00     0.010 A 
ATOM     12  C   UNL A   1      42.841  23.636  27.530  1.00  0.00    -0.014 A 
BRANCH  12  13
ATOM     13  C   UNL A   1      43.154  24.956  28.125  1.00  0.00     0.031 A 
ATOM     14  C   UNL A   1      42.069  25.957  28.387  1.00  0.00     0.074 A 
ATOM     15  C   UNL A   1      44.439  25.263  28.383  1.00  0.00     0.049 A 
ATOM     16  N   UNL A   1      42.173  27.193  28.805  1.00  0.00    -0.248 NA
ATOM     17  C   UNL A   1      40.688  25.518  28.138  1.00  0.00     0.031 C 
ATOM     18  C   UNL A   1      45.578  24.368  28.172  1.00  0.00     0.029 A 
ATOM     19  N   UNL A   1      45.003  26.417  28.861  1.00  0.00    -0.354 N 
ATOM     20  C   UNL A   1      40.877  27.691  28.839  1.00  0.00     0.074 A 
ATOM     21  C   UNL A   1      40.006  26.629  28.380  1.00  0.00     0.031 C 
ATOM     22  C   UNL A   1      46.704  25.003  28.524  1.00  0.00     0.029 A 
ATOM     23  C   UNL A   1      46.373  26.368  28.916  1.00  0.00     0.049 A 
ATOM     24  H   UNL A   1      44.477  27.202  29.138  1.00  0.00     0.167 HD
ATOM     25  C   UNL A   1      40.454  28.923  29.217  1.00  0.00     0.031 A 
ATOM     26  C   UNL A   1      47.273  27.325  29.204  1.00  0.00     0.031 A 
ATOM     27  C   UNL A   1      41.333  29.976  29.655  1.00  0.00     0.049 A 
ATOM     28  C   UNL A   1      46.790  28.699  29.564  1.00  0.00     0.074 A 
ATOM     29  C   UNL A   1      41.003  31.245  30.097  1.00  0.00     0.029 A 
ATOM     30  N   UNL A   1      42.717  29.888  29.689  1.00  0.00    -0.354 N 
ATOM     31  N   UNL A   1      45.560  29.144  29.636  1.00  0.00    -0.248 NA
ATOM     32  C   UNL A   1      47.816  29.699  29.887  1.00  0.00     0.031 C 
ATOM     33  C   UNL A   1      42.190  31.948  30.329  1.00  0.00     0.029 A 
ATOM     34  C   UNL A   1      43.257  31.093  30.108  1.00  0.00     0.049 A 
ATOM     35  H   UNL A   1      43.239  29.088  29.450  1.00  0.00     0.167 HD
ATOM     36  C   UNL A   1      45.658  30.468  30.039  1.00  0.00     0.074 A 
ATOM     37  C   UNL A   1      47.071  30.751  30.201  1.00  0.00     0.031 C 
ATOM     38  C   UNL A   1      44.666  31.362  30.264  1.00  0.00     0.031 A 
BRANCH  25  39
ATOM     39  C   UNL A   1      38.979  29.209  29.116  1.00  0.00    -0.014 A 
ATOM     40  C   UNL A   1      38.123  29.079  30.221  1.00  0.00     0.009 A 
ATOM     41  C   UNL A   1      38.439  29.626  27.889  1.00  0.00     0.009 A 
ATOM     42  C   UNL A   1      36.751  29.306  30.085  1.00  0.00     0.001 A 
ATOM     43  C   UNL A   1      37.073  29.887  27.763  1.00  0.00     0.001 A 
ATOM     44  C   UNL A   1      36.228  29.711  28.857  1.00  0.00     0.000 A 
ENDBRANCH  25  39
BRANCH  26  45
ATOM     45  C   UNL A   1      48.720  27.001  29.128  1.00  0.00    -0.014 A 
ATOM     46  C   UNL A   1      49.391  26.459  30.233  1.00  0.00     0.009 A 
ATOM     47  C   UNL A   1      49.421  27.171  27.923  1.00  0.00     0.009 A 
ATOM     48  C   UNL A   1      50.739  26.101  30.133  1.00  0.00     0.001 A 
ATOM     49  C   UNL A   1      50.758  26.784  27.817  1.00  0.00     0.001 A 
ATOM     50  C   UNL A   1      51.417  26.255  28.925  1.00  0.00     0.000 A 
ENDBRANCH  26  45
BRANCH  38  51
ATOM     51  C   UNL A   1      45.059  32.728  30.757  1.00  0.00    -0.014 A 
ATOM     52  C   UNL A   1      45.261  33.797  29.873  1.00  0.00     0.009 A 
ATOM     53  C   UNL A   1      45.146  32.959  32.139  1.00  0.00     0.009 A 
ATOM     54  C   UNL A   1      45.558  35.071  30.364  1.00  0.00     0.001 A 
ATOM     55  C   UNL A   1      45.414  34.238  32.628  1.00  0.00     0.001 A 
ATOM     56  C   UNL A   1      45.624  35.291  31.740  1.00  0.00     0.000 A 
ENDBRANCH  38  51
ENDBRANCH  12  13
ENDBRANCH   5   7
ENDBRANCH   2   3
ENDBRANCH   1   2
BRANCH   1  57
ATOM     57  C   UNL A   1      38.904  22.465  26.146  1.00  0.00     0.023 C 
BRANCH  57  58
ATOM     58  C   UNL A   1      37.642  23.237  25.775  1.00  0.00     0.116 C 
BRANCH  58  59
ATOM     59  N   UNL A   1      37.426  23.240  24.345  1.00  0.00    -0.355 N 
ATOM     60  C   UNL A   1      36.254  23.201  23.644  1.00  0.00     0.233 C 
ATOM     61  H   UNL A   1      38.243  23.275  23.796  1.00  0.00     0.163 HD
ATOM     62  O   UNL A   1      36.360  22.999  22.433  1.00  0.00    -0.274 OA
BRANCH  60  63
ATOM     63  C   UNL A   1      34.913  23.314  24.391  1.00  0.00     0.163 C 
BRANCH  63  64
ATOM     64  C   UNL A   1      34.336  24.729  24.430  1.00  0.00    -0.030 A 
ATOM     65  C   UNL A   1      34.265  25.419  25.655  1.00  0.00     0.006 A 
ATOM     66  C   UNL A   1      33.897  25.378  23.268  1.00  0.00     0.006 A 
ATOM     67  C   UNL A   1      33.804  26.735  25.707  1.00  0.00     0.016 A 
ATOM     68  C   UNL A   1      33.414  26.688  23.323  1.00  0.00     0.016 A 
ATOM     69  C   UNL A   1      33.378  27.363  24.540  1.00  0.00     0.017 A 
ATOM     70  Br  UNL A   1      32.756  29.147  24.610  1.00  0.00    -0.051 Br
ENDBRANCH  63  64
BRANCH  63  71
ATOM     71  C   UNL A   1      33.879  22.261  23.911  1.00  0.00     0.280 C 
BRANCH  71  72
ATOM     72  N   UNL A   1      33.424  21.343  24.970  1.00  0.00    -0.334 N 
ATOM     73  C   UNL A   1      32.010  21.500  25.321  1.00  0.00     0.262 C 
ATOM     74  C   UNL A   1      34.177  21.509  26.225  1.00  0.00     0.262 C 
ATOM     75  H   UNL A   1      33.582  20.420  24.564  1.00  0.00     0.348 HD
ATOM     76  C   UNL A   1      32.002  22.542  26.419  1.00  0.00     0.067 C 
ATOM     77  C   UNL A   1      33.263  22.235  27.205  1.00  0.00     0.067 C 
ENDBRANCH  71  72
ENDBRANCH  63  71
ENDBRANCH  60  63
ENDBRANCH  58  59
ENDBRANCH  57  58
ENDBRANCH   1  57
TORSDOF 14
ENDMDL
MODEL 2
REMARK VINA RESULT:     -10.2      0.515      6.092
REMARK SMILES O=C(NCCCCNC(=O)[C@H](C[NH+]1CCCC1)c1ccc(Br)cc1)c1ccc(-c2c3nc(c(-c4ccccc4)c4ccc([nH]4)c(-c4ccccc4)c4nc(c(-c5ccccc5)c5ccc2[nH]5)C=C4)C=C3)cc1
REMARK SMILES IDX 5 1 4 2 3 3 1 4 2 5 25 7 26 8 72 9 27 10 71 11 28 12 29 13
REMARK SMILES IDX 30 14 65 15 31 16 70 17 64 18 66 19 32 20 69 21 63 22 62 23
REMARK SMILES IDX 33 25 55 26 40 27 54 28 41 29 44 30 53 31 67 32 42 33 43 34
REMARK SMILES IDX 52 36 68 37 45 38 34 39 35 40 39 41 36 42 38 43 37 44 56 45
REMARK SMILES IDX 57 46 61 47 58 48 60 49 59 50 46 51 47 52 51 53 48 54 50 55
REMARK SMILES IDX 49 56 6 57 7 58 8 59 9 60 10 62 11 63 18 64 19 65 24 66
REMARK SMILES IDX 20 67 23 68 21 69 22 70 12 71 13 72 14 73 17 74 15 76 16 77
REMARK H PARENT 3 6 66 24 44 35 8 61 13 75
REMARK Flexibility Score: inf
ROOT
ATOM      1  C   UNL A   1      39.087  21.126  25.506  1.00  0.00     0.023 C 
ENDROOT
BRANCH   1   2
ATOM      2  C   UNL A   1      39.498  19.979  26.418  1.00  0.00     0.116 C 
BRANCH   2   3
ATOM      3  N   UNL A   1      40.702  19.309  25.950  1.00  0.00    -0.352 N 
ATOM      4  O   UNL A   1      42.828  19.167  25.206  1.00  0.00    -0.269 OA
ATOM      5  C   UNL A   1      41.970  19.810  25.804  1.00  0.00     0.251 C 
ATOM      6  H   UNL A   1      40.590  18.363  25.704  1.00  0.00     0.163 HD
BRANCH   5   7
ATOM      7  C   UNL A   1      42.294  21.141  26.354  1.00  0.00     0.039 A 
ATOM      8  C   UNL A   1      42.263  21.365  27.734  1.00  0.00     0.014 A 
ATOM      9  C   UNL A   1      42.634  22.172  25.477  1.00  0.00     0.014 A 
ATOM     10  C   UNL A   1      42.443  22.651  28.229  1.00  0.00     0.010 A 
ATOM     11  C   UNL A   1      42.898  23.444  25.983  1.00  0.00     0.010 A 
ATOM     12  C   UNL A   1      42.780  23.699  27.359  1.00  0.00    -0.014 A 
BRANCH  12  13
ATOM     13  C   UNL A   1      43.074  25.048  27.897  1.00  0.00     0.031 A 
ATOM     14  C   UNL A   1      44.456  25.408  28.355  1.00  0.00     0.074 A 
ATOM     15  C   UNL A   1      42.067  25.933  28.015  1.00  0.00     0.049 A 
ATOM     16  N   UNL A   1      44.869  26.501  28.944  1.00  0.00    -0.248 NA
ATOM     17  C   UNL A   1      45.509  24.407  28.132  1.00  0.00     0.031 C 
ATOM     18  C   UNL A   1      40.683  25.695  27.600  1.00  0.00     0.029 A 
ATOM     19  N   UNL A   1      42.049  27.202  28.533  1.00  0.00    -0.354 N 
ATOM     20  C   UNL A   1      46.222  26.309  29.191  1.00  0.00     0.074 A 
ATOM     21  C   UNL A   1      46.555  24.985  28.706  1.00  0.00     0.031 C 
ATOM     22  C   UNL A   1      39.951  26.784  27.874  1.00  0.00     0.029 A 
ATOM     23  C   UNL A   1      40.797  27.764  28.546  1.00  0.00     0.049 A 
ATOM     24  H   UNL A   1      42.854  27.664  28.862  1.00  0.00     0.167 HD
ATOM     25  C   UNL A   1      47.104  27.159  29.773  1.00  0.00     0.031 A 
ATOM     26  C   UNL A   1      40.362  28.920  29.078  1.00  0.00     0.031 A 
ATOM     27  C   UNL A   1      46.757  28.466  30.267  1.00  0.00     0.049 A 
ATOM     28  C   UNL A   1      41.340  29.821  29.769  1.00  0.00     0.074 A 
ATOM     29  C   UNL A   1      47.582  29.420  30.836  1.00  0.00     0.029 A 
ATOM     30  N   UNL A   1      45.474  28.995  30.268  1.00  0.00    -0.354 N 
ATOM     31  N   UNL A   1      42.626  29.649  29.957  1.00  0.00    -0.248 NA
ATOM     32  C   UNL A   1      40.813  31.078  30.315  1.00  0.00     0.031 C 
ATOM     33  C   UNL A   1      46.788  30.495  31.246  1.00  0.00     0.029 A 
ATOM     34  C   UNL A   1      45.480  30.246  30.862  1.00  0.00     0.049 A 
ATOM     35  H   UNL A   1      44.677  28.548  29.901  1.00  0.00     0.167 HD
ATOM     36  C   UNL A   1      43.069  30.785  30.618  1.00  0.00     0.074 A 
ATOM     37  C   UNL A   1      41.914  31.643  30.795  1.00  0.00     0.031 C 
ATOM     38  C   UNL A   1      44.322  31.091  31.032  1.00  0.00     0.031 A 
BRANCH  25  39
ATOM     39  C   UNL A   1      48.518  26.671  29.954  1.00  0.00    -0.014 A 
ATOM     40  C   UNL A   1      48.905  25.931  31.082  1.00  0.00     0.009 A 
ATOM     41  C   UNL A   1      49.477  26.953  28.969  1.00  0.00     0.009 A 
ATOM     42  C   UNL A   1      50.235  25.533  31.246  1.00  0.00     0.001 A 
ATOM     43  C   UNL A   1      50.797  26.525  29.117  1.00  0.00     0.001 A 
ATOM     44  C   UNL A   1      51.179  25.828  30.262  1.00  0.00     0.000 A 
ENDBRANCH  25  39
BRANCH  26  45
ATOM     45  C   UNL A   1      38.917  29.254  28.993  1.00  0.00    -0.014 A 
ATOM     46  C   UNL A   1      38.359  29.715  27.793  1.00  0.00     0.009 A 
ATOM     47  C   UNL A   1      38.076  29.046  30.099  1.00  0.00     0.009 A 
ATOM     48  C   UNL A   1      36.987  29.970  27.705  1.00  0.00     0.001 A 
ATOM     49  C   UNL A   1      36.703  29.272  30.000  1.00  0.00     0.001 A 
ATOM     50  C   UNL A   1      36.160  29.739  28.804  1.00  0.00     0.000 A 
ENDBRANCH  26  45
BRANCH  38  51
ATOM     51  C   UNL A   1      44.533  32.432  31.678  1.00  0.00    -0.014 A 
ATOM     52  C   UNL A   1      44.431  32.602  33.067  1.00  0.00     0.009 A 
ATOM     53  C   UNL A   1      44.921  33.523  30.885  1.00  0.00     0.009 A 
ATOM     54  C   UNL A   1      44.700  33.844  33.646  1.00  0.00     0.001 A 
ATOM     55  C   UNL A   1      45.217  34.755  31.469  1.00  0.00     0.001 A 
ATOM     56  C   UNL A   1      45.102  34.916  32.847  1.00  0.00     0.000 A 
ENDBRANCH  38  51
ENDBRANCH  12  13
ENDBRANCH   5   7
ENDBRANCH   2   3
ENDBRANCH   1   2
BRANCH   1  57
ATOM     57  C   UNL A   1      38.923  22.471  26.211  1.00  0.00     0.023 C 
BRANCH  57  58
ATOM     58  C   UNL A   1      37.651  23.230  25.848  1.00  0.00     0.116 C 
BRANCH  58  59
ATOM     59  N   UNL A   1      37.439  23.251  24.417  1.00  0.00    -0.355 N 
ATOM     60  C   UNL A   1      36.268  23.237  23.713  1.00  0.00     0.233 C 
ATOM     61  H   UNL A   1      38.258  23.279  23.870  1.00  0.00     0.163 HD
ATOM     62  O   UNL A   1      36.375  23.047  22.500  1.00  0.00    -0.274 OA
BRANCH  60  63
ATOM     63  C   UNL A   1      34.927  23.364  24.458  1.00  0.00     0.163 C 
BRANCH  63  64
ATOM     64  C   UNL A   1      34.369  24.786  24.505  1.00  0.00    -0.030 A 
ATOM     65  C   UNL A   1      33.861  25.375  23.332  1.00  0.00     0.006 A 
ATOM     66  C   UNL A   1      34.321  25.519  25.699  1.00  0.00     0.006 A 
ATOM     67  C   UNL A   1      33.286  26.647  23.362  1.00  0.00     0.016 A 
ATOM     68  C   UNL A   1      33.766  26.801  25.725  1.00  0.00     0.016 A 
ATOM     69  C   UNL A   1      33.244  27.355  24.560  1.00  0.00     0.017 A 
ATOM     70  Br  UNL A   1      32.463  29.076  24.602  1.00  0.00    -0.051 Br
ENDBRANCH  63  64
BRANCH  63  71
ATOM     71  C   UNL A   1      33.881  22.329  23.969  1.00  0.00     0.280 C 
BRANCH  71  72
ATOM     72  N   UNL A   1      33.394  21.423  25.025  1.00  0.00    -0.334 N 
ATOM     73  C   UNL A   1      31.972  21.588  25.335  1.00  0.00     0.262 C 
ATOM     74  C   UNL A   1      34.113  21.603  26.299  1.00  0.00     0.262 C 
ATOM     75  H   UNL A   1      33.561  20.496  24.635  1.00  0.00     0.348 HD
ATOM     76  C   UNL A   1      31.936  22.643  26.420  1.00  0.00     0.067 C 
ATOM     77  C   UNL A   1      33.174  22.342  27.245  1.00  0.00     0.067 C 
ENDBRANCH  71  72
ENDBRANCH  63  71
ENDBRANCH  60  63
ENDBRANCH  58  59
ENDBRANCH  57  58
ENDBRANCH   1  57
TORSDOF 14
ENDMDL
MODEL 3
REMARK VINA RESULT:     -10.2      2.178      3.241
REMARK SMILES O=C(NCCCCNC(=O)[C@H](C[NH+]1CCCC1)c1ccc(Br)cc1)c1ccc(-c2c3nc(c(-c4ccccc4)c4ccc([nH]4)c(-c4ccccc4)c4nc(c(-c5ccccc5)c5ccc2[nH]5)C=C4)C=C3)cc1
REMARK SMILES IDX 5 1 4 2 3 3 1 4 2 5 25 7 26 8 72 9 27 10 71 11 28 12 29 13
REMARK SMILES IDX 30 14 65 15 31 16 70 17 64 18 66 19 32 20 69 21 63 22 62 23
REMARK SMILES IDX 33 25 55 26 40 27 54 28 41 29 44 30 53 31 67 32 42 33 43 34
REMARK SMILES IDX 52 36 68 37 45 38 34 39 35 40 39 41 36 42 38 43 37 44 56 45
REMARK SMILES IDX 57 46 61 47 58 48 60 49 59 50 46 51 47 52 51 53 48 54 50 55
REMARK SMILES IDX 49 56 6 57 7 58 8 59 9 60 10 62 11 63 18 64 19 65 24 66
REMARK SMILES IDX 20 67 23 68 21 69 22 70 12 71 13 72 14 73 17 74 15 76 16 77
REMARK H PARENT 3 6 66 24 44 35 8 61 13 75
REMARK Flexibility Score: inf
ROOT
ATOM      1  C   UNL A   1      38.732  20.792  25.301  1.00  0.00     0.023 C 
ENDROOT
BRANCH   1   2
ATOM      2  C   UNL A   1      39.332  19.891  26.372  1.00  0.00     0.116 C 
BRANCH   2   3
ATOM      3  N   UNL A   1      40.567  19.261  25.932  1.00  0.00    -0.352 N 
ATOM      4  O   UNL A   1      42.720  19.187  25.257  1.00  0.00    -0.269 OA
ATOM      5  C   UNL A   1      41.827  19.796  25.839  1.00  0.00     0.251 C 
ATOM      6  H   UNL A   1      40.488  18.318  25.662  1.00  0.00     0.163 HD
BRANCH   5   7
ATOM      7  C   UNL A   1      42.099  21.122  26.427  1.00  0.00     0.039 A 
ATOM      8  C   UNL A   1      42.321  22.231  25.604  1.00  0.00     0.014 A 
ATOM      9  C   UNL A   1      42.128  21.253  27.816  1.00  0.00     0.014 A 
ATOM     10  C   UNL A   1      42.703  23.443  26.168  1.00  0.00     0.010 A 
ATOM     11  C   UNL A   1      42.429  22.492  28.382  1.00  0.00     0.010 A 
ATOM     12  C   UNL A   1      42.743  23.589  27.562  1.00  0.00    -0.014 A 
BRANCH  12  13
ATOM     13  C   UNL A   1      43.048  24.908  28.164  1.00  0.00     0.031 A 
ATOM     14  C   UNL A   1      41.962  25.916  28.397  1.00  0.00     0.074 A 
ATOM     15  C   UNL A   1      44.327  25.208  28.455  1.00  0.00     0.049 A 
ATOM     16  N   UNL A   1      42.063  27.152  28.816  1.00  0.00    -0.248 NA
ATOM     17  C   UNL A   1      40.586  25.486  28.112  1.00  0.00     0.031 C 
ATOM     18  C   UNL A   1      45.466  24.306  28.274  1.00  0.00     0.029 A 
ATOM     19  N   UNL A   1      44.886  26.359  28.946  1.00  0.00    -0.354 N 
ATOM     20  C   UNL A   1      40.770  27.658  28.816  1.00  0.00     0.074 A 
ATOM     21  C   UNL A   1      39.904  26.601  28.335  1.00  0.00     0.031 C 
ATOM     22  C   UNL A   1      46.587  24.934  28.655  1.00  0.00     0.029 A 
ATOM     23  C   UNL A   1      46.254  26.302  29.037  1.00  0.00     0.049 A 
ATOM     24  H   UNL A   1      44.358  27.147  29.209  1.00  0.00     0.167 HD
ATOM     25  C   UNL A   1      40.345  28.892  29.181  1.00  0.00     0.031 A 
ATOM     26  C   UNL A   1      47.152  27.254  29.348  1.00  0.00     0.031 A 
ATOM     27  C   UNL A   1      41.218  29.941  29.642  1.00  0.00     0.049 A 
ATOM     28  C   UNL A   1      46.668  28.630  29.694  1.00  0.00     0.074 A 
ATOM     29  C   UNL A   1      40.885  31.213  30.074  1.00  0.00     0.029 A 
ATOM     30  N   UNL A   1      42.600  29.845  29.712  1.00  0.00    -0.354 N 
ATOM     31  N   UNL A   1      45.439  29.083  29.733  1.00  0.00    -0.248 NA
ATOM     32  C   UNL A   1      47.691  29.624  30.043  1.00  0.00     0.031 C 
ATOM     33  C   UNL A   1      42.069  31.908  30.336  1.00  0.00     0.029 A 
ATOM     34  C   UNL A   1      43.137  31.046  30.144  1.00  0.00     0.049 A 
ATOM     35  H   UNL A   1      43.124  29.041  29.488  1.00  0.00     0.167 HD
ATOM     36  C   UNL A   1      45.535  30.407  30.138  1.00  0.00     0.074 A 
ATOM     37  C   UNL A   1      46.945  30.682  30.336  1.00  0.00     0.031 C 
ATOM     38  C   UNL A   1      44.542  31.307  30.336  1.00  0.00     0.031 A 
BRANCH  25  39
ATOM     39  C   UNL A   1      38.875  29.188  29.042  1.00  0.00    -0.014 A 
ATOM     40  C   UNL A   1      38.322  29.630  27.829  1.00  0.00     0.009 A 
ATOM     41  C   UNL A   1      38.027  29.009  30.145  1.00  0.00     0.009 A 
ATOM     42  C   UNL A   1      36.962  29.942  27.743  1.00  0.00     0.001 A 
ATOM     43  C   UNL A   1      36.662  29.287  30.048  1.00  0.00     0.001 A 
ATOM     44  C   UNL A   1      36.133  29.768  28.851  1.00  0.00     0.000 A 
ENDBRANCH  25  39
BRANCH  26  45
ATOM     45  C   UNL A   1      48.599  26.921  29.310  1.00  0.00    -0.014 A 
ATOM     46  C   UNL A   1      49.242  26.394  30.439  1.00  0.00     0.009 A 
ATOM     47  C   UNL A   1      49.327  27.066  28.118  1.00  0.00     0.009 A 
ATOM     48  C   UNL A   1      50.589  26.028  30.375  1.00  0.00     0.001 A 
ATOM     49  C   UNL A   1      50.663  26.671  28.049  1.00  0.00     0.001 A 
ATOM     50  C   UNL A   1      51.295  26.157  29.180  1.00  0.00     0.000 A 
ENDBRANCH  26  45
BRANCH  38  51
ATOM     51  C   UNL A   1      44.930  32.671  30.838  1.00  0.00    -0.014 A 
ATOM     52  C   UNL A   1      45.172  33.736  29.958  1.00  0.00     0.009 A 
ATOM     53  C   UNL A   1      44.973  32.906  32.221  1.00  0.00     0.009 A 
ATOM     54  C   UNL A   1      45.463  35.008  30.455  1.00  0.00     0.001 A 
ATOM     55  C   UNL A   1      45.236  34.184  32.715  1.00  0.00     0.001 A 
ATOM     56  C   UNL A   1      45.485  35.233  31.832  1.00  0.00     0.000 A 
ENDBRANCH  38  51
ENDBRANCH  12  13
ENDBRANCH   5   7
ENDBRANCH   2   3
ENDBRANCH   1   2
BRANCH   1  57
ATOM     57  C   UNL A   1      38.483  22.231  25.749  1.00  0.00     0.023 C 
BRANCH  57  58
ATOM     58  C   UNL A   1      37.083  22.758  25.449  1.00  0.00     0.116 C 
BRANCH  58  59
ATOM     59  N   UNL A   1      36.129  22.320  26.444  1.00  0.00    -0.355 N 
ATOM     60  C   UNL A   1      34.980  21.600  26.286  1.00  0.00     0.233 C 
ATOM     61  H   UNL A   1      36.338  22.580  27.371  1.00  0.00     0.163 HD
ATOM     62  O   UNL A   1      34.242  21.545  27.272  1.00  0.00    -0.274 OA
BRANCH  60  63
ATOM     63  C   UNL A   1      34.639  20.996  24.911  1.00  0.00     0.163 C 
BRANCH  63  64
ATOM     64  C   UNL A   1      34.154  19.547  24.967  1.00  0.00    -0.030 A 
ATOM     65  C   UNL A   1      35.021  18.507  24.582  1.00  0.00     0.006 A 
ATOM     66  C   UNL A   1      32.870  19.217  25.420  1.00  0.00     0.006 A 
ATOM     67  C   UNL A   1      34.626  17.173  24.685  1.00  0.00     0.016 A 
ATOM     68  C   UNL A   1      32.465  17.882  25.503  1.00  0.00     0.016 A 
ATOM     69  C   UNL A   1      33.347  16.867  25.144  1.00  0.00     0.017 A 
ATOM     70  Br  UNL A   1      32.812  15.059  25.287  1.00  0.00    -0.051 Br
ENDBRANCH  63  64
BRANCH  63  71
ATOM     71  C   UNL A   1      33.697  21.909  24.083  1.00  0.00     0.280 C 
BRANCH  71  72
ATOM     72  N   UNL A   1      33.019  22.948  24.878  1.00  0.00    -0.334 N 
ATOM     73  C   UNL A   1      31.569  22.762  24.978  1.00  0.00     0.262 C 
ATOM     74  C   UNL A   1      33.219  24.300  24.328  1.00  0.00     0.262 C 
ATOM     75  H   UNL A   1      33.448  22.857  25.799  1.00  0.00     0.348 HD
ATOM     76  C   UNL A   1      31.004  23.505  23.787  1.00  0.00     0.067 C 
ATOM     77  C   UNL A   1      31.912  24.713  23.662  1.00  0.00     0.067 C 
ENDBRANCH  71  72
ENDBRANCH  63  71
ENDBRANCH  60  63
ENDBRANCH  58  59
ENDBRANCH  57  58
ENDBRANCH   1  57
TORSDOF 14
ENDMDL
