MODEL 1
REMARK VINA RESULT:     -11.7      0.000      0.000
REMARK SMILES O=C(CSc1ccc(Cl)cc1)Nc1ccc(C(=O)NCCCCNC(=O)c2ccc(-c3c4nc(c(-c5ccccc5)c5ccc([nH]5)c(-c5ccccc5)c5nc(c(-c6ccccc6)c6ccc3[nH]6)C=C5)C=C4)cc2)cc1
REMARK SMILES IDX 20 1 19 2 17 3 18 4 16 6 13 7 14 8 76 9 15 10 75 11 12 12
REMARK SMILES IDX 1 13 2 14 3 16 4 17 5 18 6 19 11 20 7 21 10 22 8 23 9 24
REMARK SMILES IDX 21 25 22 26 23 27 24 28 25 29 26 31 27 32 28 33 74 34 29 35
REMARK SMILES IDX 73 36 30 37 31 38 32 39 67 40 33 41 72 42 66 43 68 44 34 45
REMARK SMILES IDX 71 46 65 47 64 48 35 50 57 51 42 52 56 53 43 54 46 55 55 56
REMARK SMILES IDX 69 57 44 58 45 59 54 61 70 62 47 63 36 64 37 65 41 66 38 67
REMARK SMILES IDX 40 68 39 69 58 70 59 71 63 72 60 73 62 74 61 75 48 76 49 77
REMARK SMILES IDX 53 78 50 79 52 80 51 81
REMARK H PARENT 19 5 12 15 24 30 68 49 46 60
REMARK Flexibility Score: inf
ROOT
ATOM      1  C   UNL A   1      35.785  21.385  25.281  1.00  0.00     0.116 C 
ENDROOT
BRANCH   1   2
ATOM      2  N   UNL A   1      34.961  20.202  25.119  1.00  0.00    -0.352 N 
ATOM      3  C   UNL A   1      33.621  20.047  24.865  1.00  0.00     0.251 C 
ATOM      4  O   UNL A   1      33.190  18.900  24.743  1.00  0.00    -0.269 OA
ATOM      5  H   UNL A   1      35.454  19.355  25.207  1.00  0.00     0.163 HD
BRANCH   3   6
ATOM      6  C   UNL A   1      32.691  21.194  24.665  1.00  0.00     0.039 A 
ATOM      7  C   UNL A   1      31.150  23.508  24.200  1.00  0.00     0.041 A 
ATOM      8  C   UNL A   1      31.961  22.988  23.189  1.00  0.00     0.027 A 
ATOM      9  C   UNL A   1      31.033  22.810  25.399  1.00  0.00     0.027 A 
ATOM     10  C   UNL A   1      32.742  21.852  23.429  1.00  0.00     0.016 A 
ATOM     11  C   UNL A   1      31.772  21.643  25.614  1.00  0.00     0.016 A 
BRANCH   7  12
ATOM     12  N   UNL A   1      30.519  24.739  23.963  1.00  0.00    -0.325 N 
ATOM     13  O   UNL A   1      31.243  25.967  25.796  1.00  0.00    -0.274 OA
ATOM     14  C   UNL A   1      30.630  25.884  24.732  1.00  0.00     0.234 C 
ATOM     15  H   UNL A   1      29.938  24.793  23.170  1.00  0.00     0.169 HD
BRANCH  14  16
ATOM     16  C   UNL A   1      29.942  27.117  24.166  1.00  0.00     0.175 C 
BRANCH  16  17
ATOM     17  S   UNL A   1      30.913  28.659  24.290  1.00  0.00    -0.116 SA
BRANCH  17  18
ATOM     18  C   UNL A   1      29.899  29.830  23.399  1.00  0.00     0.008 A 
ATOM     19  C   UNL A   1      29.366  30.987  23.978  1.00  0.00     0.016 A 
ATOM     20  C   UNL A   1      29.717  29.617  22.026  1.00  0.00     0.016 A 
ATOM     21  C   UNL A   1      28.667  31.915  23.198  1.00  0.00     0.021 A 
ATOM     22  C   UNL A   1      29.013  30.540  21.247  1.00  0.00     0.021 A 
ATOM     23  C   UNL A   1      28.496  31.690  21.836  1.00  0.00     0.041 A 
ATOM     24  Cl  UNL A   1      27.658  32.844  20.875  1.00  0.00    -0.084 Cl
ENDBRANCH  17  18
ENDBRANCH  16  17
ENDBRANCH  14  16
ENDBRANCH   7  12
ENDBRANCH   3   6
ENDBRANCH   1   2
BRANCH   1  25
ATOM     25  C   UNL A   1      37.130  21.205  24.572  1.00  0.00     0.023 C 
BRANCH  25  26
ATOM     26  C   UNL A   1      37.897  19.950  24.996  1.00  0.00     0.023 C 
BRANCH  26  27
ATOM     27  C   UNL A   1      39.142  20.215  25.834  1.00  0.00     0.116 C 
BRANCH  27  28
ATOM     28  N   UNL A   1      40.110  19.131  25.786  1.00  0.00    -0.352 N 
ATOM     29  C   UNL A   1      41.475  19.191  25.957  1.00  0.00     0.251 C 
ATOM     30  H   UNL A   1      39.740  18.236  25.606  1.00  0.00     0.163 HD
ATOM     31  O   UNL A   1      42.171  18.205  25.792  1.00  0.00    -0.269 OA
BRANCH  29  32
ATOM     32  C   UNL A   1      42.091  20.490  26.302  1.00  0.00     0.039 A 
ATOM     33  C   UNL A   1      42.602  21.282  25.271  1.00  0.00     0.014 A 
ATOM     34  C   UNL A   1      42.111  20.941  27.623  1.00  0.00     0.014 A 
ATOM     35  C   UNL A   1      43.059  22.569  25.556  1.00  0.00     0.010 A 
ATOM     36  C   UNL A   1      42.512  22.244  27.897  1.00  0.00     0.010 A 
ATOM     37  C   UNL A   1      42.975  23.074  26.864  1.00  0.00    -0.014 A 
BRANCH  37  38
ATOM     38  C   UNL A   1      43.327  24.481  27.171  1.00  0.00     0.031 A 
ATOM     39  C   UNL A   1      44.760  24.922  27.159  1.00  0.00     0.074 A 
ATOM     40  C   UNL A   1      42.357  25.336  27.550  1.00  0.00     0.049 A 
ATOM     41  N   UNL A   1      45.269  26.079  27.497  1.00  0.00    -0.248 NA
ATOM     42  C   UNL A   1      45.756  23.926  26.734  1.00  0.00     0.031 C 
ATOM     43  C   UNL A   1      40.930  25.018  27.640  1.00  0.00     0.029 A 
ATOM     44  N   UNL A   1      42.430  26.648  27.948  1.00  0.00    -0.354 N 
ATOM     45  C   UNL A   1      46.643  25.945  27.343  1.00  0.00     0.074 A 
ATOM     46  C   UNL A   1      46.891  24.584  26.920  1.00  0.00     0.031 C 
ATOM     47  C   UNL A   1      40.261  26.109  28.048  1.00  0.00     0.029 A 
ATOM     48  C   UNL A   1      41.214  27.187  28.290  1.00  0.00     0.049 A 
ATOM     49  H   UNL A   1      43.274  27.153  27.985  1.00  0.00     0.167 HD
ATOM     50  C   UNL A   1      47.609  26.876  27.527  1.00  0.00     0.031 A 
ATOM     51  C   UNL A   1      40.902  28.409  28.760  1.00  0.00     0.031 A 
ATOM     52  C   UNL A   1      47.361  28.232  27.937  1.00  0.00     0.049 A 
ATOM     53  C   UNL A   1      41.995  29.415  28.978  1.00  0.00     0.074 A 
ATOM     54  C   UNL A   1      48.268  29.267  28.085  1.00  0.00     0.029 A 
ATOM     55  N   UNL A   1      46.115  28.739  28.270  1.00  0.00    -0.354 N 
ATOM     56  N   UNL A   1      43.282  29.294  28.764  1.00  0.00    -0.248 NA
ATOM     57  C   UNL A   1      41.591  30.729  29.499  1.00  0.00     0.031 C 
ATOM     58  C   UNL A   1      47.576  30.389  28.553  1.00  0.00     0.029 A 
ATOM     59  C   UNL A   1      46.233  30.065  28.651  1.00  0.00     0.049 A 
ATOM     60  H   UNL A   1      45.272  28.233  28.241  1.00  0.00     0.167 HD
ATOM     61  C   UNL A   1      43.839  30.518  29.105  1.00  0.00     0.074 A 
ATOM     62  C   UNL A   1      42.749  31.375  29.526  1.00  0.00     0.031 C 
ATOM     63  C   UNL A   1      45.139  30.900  29.073  1.00  0.00     0.031 A 
BRANCH  50  64
ATOM     64  C   UNL A   1      49.029  26.451  27.289  1.00  0.00    -0.014 A 
ATOM     65  C   UNL A   1      49.830  25.976  28.340  1.00  0.00     0.009 A 
ATOM     66  C   UNL A   1      49.563  26.495  25.993  1.00  0.00     0.009 A 
ATOM     67  C   UNL A   1      51.149  25.586  28.101  1.00  0.00     0.001 A 
ATOM     68  C   UNL A   1      50.874  26.080  25.752  1.00  0.00     0.001 A 
ATOM     69  C   UNL A   1      51.668  25.634  26.808  1.00  0.00     0.000 A 
ENDBRANCH  50  64
BRANCH  51  70
ATOM     70  C   UNL A   1      39.488  28.751  29.057  1.00  0.00    -0.014 A 
ATOM     71  C   UNL A   1      38.644  29.223  28.041  1.00  0.00     0.009 A 
ATOM     72  C   UNL A   1      38.974  28.607  30.356  1.00  0.00     0.009 A 
ATOM     73  C   UNL A   1      37.321  29.567  28.323  1.00  0.00     0.001 A 
ATOM     74  C   UNL A   1      37.642  28.928  30.630  1.00  0.00     0.001 A 
ATOM     75  C   UNL A   1      36.820  29.414  29.615  1.00  0.00     0.000 A 
ENDBRANCH  51  70
BRANCH  63  76
ATOM     76  C   UNL A   1      45.450  32.309  29.484  1.00  0.00    -0.014 A 
ATOM     77  C   UNL A   1      45.788  32.618  30.810  1.00  0.00     0.009 A 
ATOM     78  C   UNL A   1      45.454  33.331  28.522  1.00  0.00     0.009 A 
ATOM     79  C   UNL A   1      46.101  33.931  31.170  1.00  0.00     0.001 A 
ATOM     80  C   UNL A   1      45.790  34.637  28.879  1.00  0.00     0.001 A 
ATOM     81  C   UNL A   1      46.107  34.936  30.204  1.00  0.00     0.000 A 
ENDBRANCH  63  76
ENDBRANCH  37  38
ENDBRANCH  29  32
ENDBRANCH  27  28
ENDBRANCH  26  27
ENDBRANCH  25  26
ENDBRANCH   1  25
TORSDOF 15
ENDMDL
MODEL 2
REMARK VINA RESULT:     -11.7      5.354      9.077
REMARK SMILES O=C(CSc1ccc(Cl)cc1)Nc1ccc(C(=O)NCCCCNC(=O)c2ccc(-c3c4nc(c(-c5ccccc5)c5ccc([nH]5)c(-c5ccccc5)c5nc(c(-c6ccccc6)c6ccc3[nH]6)C=C5)C=C4)cc2)cc1
REMARK SMILES IDX 20 1 19 2 17 3 18 4 16 6 13 7 14 8 76 9 15 10 75 11 12 12
REMARK SMILES IDX 1 13 2 14 3 16 4 17 5 18 6 19 11 20 7 21 10 22 8 23 9 24
REMARK SMILES IDX 21 25 22 26 23 27 24 28 25 29 26 31 27 32 28 33 74 34 29 35
REMARK SMILES IDX 73 36 30 37 31 38 32 39 67 40 33 41 72 42 66 43 68 44 34 45
REMARK SMILES IDX 71 46 65 47 64 48 35 50 57 51 42 52 56 53 43 54 46 55 55 56
REMARK SMILES IDX 69 57 44 58 45 59 54 61 70 62 47 63 36 64 37 65 41 66 38 67
REMARK SMILES IDX 40 68 39 69 58 70 59 71 63 72 60 73 62 74 61 75 48 76 49 77
REMARK SMILES IDX 53 78 50 79 52 80 51 81
REMARK H PARENT 19 5 12 15 24 30 68 49 46 60
REMARK Flexibility Score: inf
ROOT
ATOM      1  C   UNL A   1      44.733  23.371  28.086  1.00  0.00     0.116 C 
ENDROOT
BRANCH   1   2
ATOM      2  N   UNL A   1      45.107  23.459  26.688  1.00  0.00    -0.352 N 
ATOM      3  C   UNL A   1      45.311  24.535  25.861  1.00  0.00     0.251 C 
ATOM      4  O   UNL A   1      45.661  24.308  24.702  1.00  0.00    -0.269 OA
ATOM      5  H   UNL A   1      45.239  22.586  26.252  1.00  0.00     0.163 HD
BRANCH   3   6
ATOM      6  C   UNL A   1      45.196  25.948  26.318  1.00  0.00     0.039 A 
ATOM      7  C   UNL A   1      44.941  28.690  26.920  1.00  0.00     0.041 A 
ATOM      8  C   UNL A   1      43.957  28.039  26.173  1.00  0.00     0.027 A 
ATOM      9  C   UNL A   1      45.991  27.944  27.450  1.00  0.00     0.027 A 
ATOM     10  C   UNL A   1      44.096  26.684  25.857  1.00  0.00     0.016 A 
ATOM     11  C   UNL A   1      46.096  26.577  27.179  1.00  0.00     0.016 A 
BRANCH   7  12
ATOM     12  N   UNL A   1      44.837  30.082  27.066  1.00  0.00    -0.325 N 
ATOM     13  O   UNL A   1      46.471  30.805  25.584  1.00  0.00    -0.274 OA
ATOM     14  C   UNL A   1      45.561  31.040  26.378  1.00  0.00     0.234 C 
ATOM     15  H   UNL A   1      44.183  30.410  27.725  1.00  0.00     0.169 HD
BRANCH  14  16
ATOM     16  C   UNL A   1      45.146  32.481  26.639  1.00  0.00     0.175 C 
BRANCH  16  17
ATOM     17  S   UNL A   1      44.058  32.712  28.088  1.00  0.00    -0.116 SA
BRANCH  17  18
ATOM     18  C   UNL A   1      43.491  34.394  27.883  1.00  0.00     0.008 A 
ATOM     19  C   UNL A   1      43.440  35.045  26.645  1.00  0.00     0.016 A 
ATOM     20  C   UNL A   1      42.981  35.048  29.012  1.00  0.00     0.016 A 
ATOM     21  C   UNL A   1      42.888  36.327  26.539  1.00  0.00     0.021 A 
ATOM     22  C   UNL A   1      42.435  36.331  28.908  1.00  0.00     0.021 A 
ATOM     23  C   UNL A   1      42.385  36.963  27.670  1.00  0.00     0.041 A 
ATOM     24  Cl  UNL A   1      41.684  38.527  27.533  1.00  0.00    -0.084 Cl
ENDBRANCH  17  18
ENDBRANCH  16  17
ENDBRANCH  14  16
ENDBRANCH   7  12
ENDBRANCH   3   6
ENDBRANCH   1   2
BRANCH   1  25
ATOM     25  C   UNL A   1      43.210  23.391  28.239  1.00  0.00     0.023 C 
BRANCH  25  26
ATOM     26  C   UNL A   1      42.498  22.219  27.560  1.00  0.00     0.023 C 
BRANCH  26  27
ATOM     27  C   UNL A   1      42.021  22.498  26.139  1.00  0.00     0.116 C 
BRANCH  27  28
ATOM     28  N   UNL A   1      40.640  22.103  25.907  1.00  0.00    -0.352 N 
ATOM     29  C   UNL A   1      39.488  22.788  26.220  1.00  0.00     0.251 C 
ATOM     30  H   UNL A   1      40.514  21.230  25.469  1.00  0.00     0.163 HD
ATOM     31  O   UNL A   1      38.392  22.282  26.049  1.00  0.00    -0.269 OA
BRANCH  29  32
ATOM     32  C   UNL A   1      39.603  24.138  26.812  1.00  0.00     0.039 A 
ATOM     33  C   UNL A   1      39.186  24.326  28.132  1.00  0.00     0.014 A 
ATOM     34  C   UNL A   1      40.168  25.188  26.087  1.00  0.00     0.014 A 
ATOM     35  C   UNL A   1      39.414  25.553  28.756  1.00  0.00     0.010 A 
ATOM     36  C   UNL A   1      40.447  26.391  26.728  1.00  0.00     0.010 A 
ATOM     37  C   UNL A   1      40.087  26.578  28.071  1.00  0.00    -0.014 A 
BRANCH  37  38
ATOM     38  C   UNL A   1      40.462  27.841  28.750  1.00  0.00     0.031 A 
ATOM     39  C   UNL A   1      41.791  27.965  29.435  1.00  0.00     0.074 A 
ATOM     40  C   UNL A   1      39.565  28.843  28.825  1.00  0.00     0.049 A 
ATOM     41  N   UNL A   1      42.253  28.949  30.164  1.00  0.00    -0.248 NA
ATOM     42  C   UNL A   1      42.712  26.825  29.307  1.00  0.00     0.031 C 
ATOM     43  C   UNL A   1      38.225  28.830  28.232  1.00  0.00     0.029 A 
ATOM     44  N   UNL A   1      39.640  30.064  29.447  1.00  0.00    -0.354 N 
ATOM     45  C   UNL A   1      43.509  28.540  30.595  1.00  0.00     0.074 A 
ATOM     46  C   UNL A   1      43.719  27.205  30.078  1.00  0.00     0.031 C 
ATOM     47  C   UNL A   1      37.612  29.993  28.505  1.00  0.00     0.029 A 
ATOM     48  C   UNL A   1      38.496  30.814  29.325  1.00  0.00     0.049 A 
ATOM     49  H   UNL A   1      40.438  30.371  29.934  1.00  0.00     0.167 HD
ATOM     50  C   UNL A   1      44.410  29.221  31.341  1.00  0.00     0.031 A 
ATOM     51  C   UNL A   1      38.188  32.024  29.829  1.00  0.00     0.031 A 
ATOM     52  C   UNL A   1      44.205  30.553  31.845  1.00  0.00     0.049 A 
ATOM     53  C   UNL A   1      39.196  32.748  30.675  1.00  0.00     0.074 A 
ATOM     54  C   UNL A   1      45.086  31.351  32.554  1.00  0.00     0.029 A 
ATOM     55  N   UNL A   1      43.034  31.280  31.696  1.00  0.00    -0.354 N 
ATOM     56  N   UNL A   1      40.405  32.376  31.016  1.00  0.00    -0.248 NA
ATOM     57  C   UNL A   1      38.797  34.061  31.201  1.00  0.00     0.031 C 
ATOM     58  C   UNL A   1      44.430  32.544  32.874  1.00  0.00     0.029 A 
ATOM     59  C   UNL A   1      43.159  32.506  32.326  1.00  0.00     0.049 A 
ATOM     60  H   UNL A   1      42.233  30.970  31.216  1.00  0.00     0.167 HD
ATOM     61  C   UNL A   1      40.918  33.415  31.781  1.00  0.00     0.074 A 
ATOM     62  C   UNL A   1      39.895  34.439  31.840  1.00  0.00     0.031 C 
ATOM     63  C   UNL A   1      42.130  33.511  32.380  1.00  0.00     0.031 A 
BRANCH  50  64
ATOM     64  C   UNL A   1      45.702  28.528  31.664  1.00  0.00    -0.014 A 
ATOM     65  C   UNL A   1      46.829  28.671  30.838  1.00  0.00     0.009 A 
ATOM     66  C   UNL A   1      45.804  27.750  32.827  1.00  0.00     0.009 A 
ATOM     67  C   UNL A   1      48.022  28.018  31.154  1.00  0.00     0.001 A 
ATOM     68  C   UNL A   1      47.007  27.119  33.153  1.00  0.00     0.001 A 
ATOM     69  C   UNL A   1      48.111  27.248  32.311  1.00  0.00     0.000 A 
ENDBRANCH  50  64
BRANCH  51  70
ATOM     70  C   UNL A   1      36.862  32.629  29.546  1.00  0.00    -0.014 A 
ATOM     71  C   UNL A   1      36.653  33.359  28.367  1.00  0.00     0.009 A 
ATOM     72  C   UNL A   1      35.799  32.482  30.452  1.00  0.00     0.009 A 
ATOM     73  C   UNL A   1      35.414  33.948  28.110  1.00  0.00     0.001 A 
ATOM     74  C   UNL A   1      34.553  33.051  30.180  1.00  0.00     0.001 A 
ATOM     75  C   UNL A   1      34.364  33.790  29.013  1.00  0.00     0.000 A 
ENDBRANCH  51  70
BRANCH  63  76
ATOM     76  C   UNL A   1      42.422  34.775  33.134  1.00  0.00    -0.014 A 
ATOM     77  C   UNL A   1      43.119  35.833  32.531  1.00  0.00     0.009 A 
ATOM     78  C   UNL A   1      41.951  34.928  34.447  1.00  0.00     0.009 A 
ATOM     79  C   UNL A   1      43.360  37.012  33.238  1.00  0.00     0.001 A 
ATOM     80  C   UNL A   1      42.172  36.117  35.143  1.00  0.00     0.001 A 
ATOM     81  C   UNL A   1      42.882  37.155  34.540  1.00  0.00     0.000 A 
ENDBRANCH  63  76
ENDBRANCH  37  38
ENDBRANCH  29  32
ENDBRANCH  27  28
ENDBRANCH  26  27
ENDBRANCH  25  26
ENDBRANCH   1  25
TORSDOF 15
ENDMDL
MODEL 3
REMARK VINA RESULT:     -11.6      1.530      2.014
REMARK SMILES O=C(CSc1ccc(Cl)cc1)Nc1ccc(C(=O)NCCCCNC(=O)c2ccc(-c3c4nc(c(-c5ccccc5)c5ccc([nH]5)c(-c5ccccc5)c5nc(c(-c6ccccc6)c6ccc3[nH]6)C=C5)C=C4)cc2)cc1
REMARK SMILES IDX 20 1 19 2 17 3 18 4 16 6 13 7 14 8 76 9 15 10 75 11 12 12
REMARK SMILES IDX 1 13 2 14 3 16 4 17 5 18 6 19 11 20 7 21 10 22 8 23 9 24
REMARK SMILES IDX 21 25 22 26 23 27 24 28 25 29 26 31 27 32 28 33 74 34 29 35
REMARK SMILES IDX 73 36 30 37 31 38 32 39 67 40 33 41 72 42 66 43 68 44 34 45
REMARK SMILES IDX 71 46 65 47 64 48 35 50 57 51 42 52 56 53 43 54 46 55 55 56
REMARK SMILES IDX 69 57 44 58 45 59 54 61 70 62 47 63 36 64 37 65 41 66 38 67
REMARK SMILES IDX 40 68 39 69 58 70 59 71 63 72 60 73 62 74 61 75 48 76 49 77
REMARK SMILES IDX 53 78 50 79 52 80 51 81
REMARK H PARENT 19 5 12 15 24 30 68 49 46 60
REMARK Flexibility Score: inf
ROOT
ATOM      1  C   UNL A   1      35.770  21.115  25.605  1.00  0.00     0.116 C 
ENDROOT
BRANCH   1   2
ATOM      2  N   UNL A   1      34.850  20.070  25.197  1.00  0.00    -0.352 N 
ATOM      3  C   UNL A   1      33.581  20.120  24.678  1.00  0.00     0.251 C 
ATOM      4  O   UNL A   1      33.039  19.053  24.387  1.00  0.00    -0.269 OA
ATOM      5  H   UNL A   1      35.202  19.158  25.313  1.00  0.00     0.163 HD
BRANCH   3   6
ATOM      6  C   UNL A   1      32.867  21.396  24.391  1.00  0.00     0.039 A 
ATOM      7  C   UNL A   1      31.281  23.667  23.870  1.00  0.00     0.041 A 
ATOM      8  C   UNL A   1      31.052  22.896  25.012  1.00  0.00     0.027 A 
ATOM      9  C   UNL A   1      32.366  23.360  23.054  1.00  0.00     0.027 A 
ATOM     10  C   UNL A   1      31.826  21.757  25.257  1.00  0.00     0.016 A 
ATOM     11  C   UNL A   1      33.172  22.253  23.334  1.00  0.00     0.016 A 
BRANCH   7  12
ATOM     12  N   UNL A   1      30.373  24.699  23.586  1.00  0.00    -0.325 N 
ATOM     13  O   UNL A   1      30.209  25.726  25.662  1.00  0.00    -0.274 OA
ATOM     14  C   UNL A   1      29.929  25.671  24.465  1.00  0.00     0.234 C 
ATOM     15  H   UNL A   1      30.015  24.734  22.669  1.00  0.00     0.169 HD
BRANCH  14  16
ATOM     16  C   UNL A   1      29.048  26.749  23.851  1.00  0.00     0.175 C 
BRANCH  16  17
ATOM     17  S   UNL A   1      29.935  27.965  22.816  1.00  0.00    -0.116 SA
BRANCH  17  18
ATOM     18  C   UNL A   1      31.285  28.465  23.875  1.00  0.00     0.008 A 
ATOM     19  C   UNL A   1      31.152  29.410  24.899  1.00  0.00     0.016 A 
ATOM     20  C   UNL A   1      32.507  27.797  23.727  1.00  0.00     0.016 A 
ATOM     21  C   UNL A   1      32.223  29.681  25.759  1.00  0.00     0.021 A 
ATOM     22  C   UNL A   1      33.579  28.070  24.582  1.00  0.00     0.021 A 
ATOM     23  C   UNL A   1      33.430  29.008  25.600  1.00  0.00     0.041 A 
ATOM     24  Cl  UNL A   1      34.735  29.323  26.673  1.00  0.00    -0.084 Cl
ENDBRANCH  17  18
ENDBRANCH  16  17
ENDBRANCH  14  16
ENDBRANCH   7  12
ENDBRANCH   3   6
ENDBRANCH   1   2
BRANCH   1  25
ATOM     25  C   UNL A   1      37.027  21.097  24.730  1.00  0.00     0.023 C 
BRANCH  25  26
ATOM     26  C   UNL A   1      37.954  19.908  24.992  1.00  0.00     0.023 C 
BRANCH  26  27
ATOM     27  C   UNL A   1      39.225  20.246  25.763  1.00  0.00     0.116 C 
BRANCH  27  28
ATOM     28  N   UNL A   1      40.160  19.135  25.846  1.00  0.00    -0.352 N 
ATOM     29  C   UNL A   1      41.509  19.167  26.123  1.00  0.00     0.251 C 
ATOM     30  H   UNL A   1      39.778  18.242  25.683  1.00  0.00     0.163 HD
ATOM     31  O   UNL A   1      42.185  18.155  26.063  1.00  0.00    -0.269 OA
BRANCH  29  32
ATOM     32  C   UNL A   1      42.135  20.465  26.451  1.00  0.00     0.039 A 
ATOM     33  C   UNL A   1      42.645  21.243  25.408  1.00  0.00     0.014 A 
ATOM     34  C   UNL A   1      42.166  20.929  27.767  1.00  0.00     0.014 A 
ATOM     35  C   UNL A   1      43.112  22.530  25.677  1.00  0.00     0.010 A 
ATOM     36  C   UNL A   1      42.578  22.232  28.025  1.00  0.00     0.010 A 
ATOM     37  C   UNL A   1      43.040  23.048  26.981  1.00  0.00    -0.014 A 
BRANCH  37  38
ATOM     38  C   UNL A   1      43.403  24.456  27.271  1.00  0.00     0.031 A 
ATOM     39  C   UNL A   1      44.833  24.900  27.195  1.00  0.00     0.074 A 
ATOM     40  C   UNL A   1      42.450  25.311  27.692  1.00  0.00     0.049 A 
ATOM     41  N   UNL A   1      45.355  26.058  27.509  1.00  0.00    -0.248 NA
ATOM     42  C   UNL A   1      45.811  23.905  26.727  1.00  0.00     0.031 C 
ATOM     43  C   UNL A   1      41.028  24.991  27.845  1.00  0.00     0.029 A 
ATOM     44  N   UNL A   1      42.538  26.622  28.086  1.00  0.00    -0.354 N 
ATOM     45  C   UNL A   1      46.721  25.925  27.295  1.00  0.00     0.074 A 
ATOM     46  C   UNL A   1      46.952  24.565  26.862  1.00  0.00     0.031 C 
ATOM     47  C   UNL A   1      40.377  26.080  28.282  1.00  0.00     0.029 A 
ATOM     48  C   UNL A   1      41.338  27.160  28.482  1.00  0.00     0.049 A 
ATOM     49  H   UNL A   1      43.383  27.129  28.085  1.00  0.00     0.167 HD
ATOM     50  C   UNL A   1      47.693  26.858  27.435  1.00  0.00     0.031 A 
ATOM     51  C   UNL A   1      41.045  28.382  28.964  1.00  0.00     0.031 A 
ATOM     52  C   UNL A   1      47.462  28.214  27.855  1.00  0.00     0.049 A 
ATOM     53  C   UNL A   1      42.145  29.390  29.132  1.00  0.00     0.074 A 
ATOM     54  C   UNL A   1      48.373  29.250  27.962  1.00  0.00     0.029 A 
ATOM     55  N   UNL A   1      46.231  28.719  28.243  1.00  0.00    -0.354 N 
ATOM     56  N   UNL A   1      43.422  29.270  28.862  1.00  0.00    -0.248 NA
ATOM     57  C   UNL A   1      41.763  30.703  29.670  1.00  0.00     0.031 C 
ATOM     58  C   UNL A   1      47.701  30.371  28.459  1.00  0.00     0.029 A 
ATOM     59  C   UNL A   1      46.364  30.045  28.618  1.00  0.00     0.049 A 
ATOM     60  H   UNL A   1      45.388  28.212  28.252  1.00  0.00     0.167 HD
ATOM     61  C   UNL A   1      43.992  30.496  29.177  1.00  0.00     0.074 A 
ATOM     62  C   UNL A   1      42.920  31.351  29.646  1.00  0.00     0.031 C 
ATOM     63  C   UNL A   1      45.288  30.879  29.087  1.00  0.00     0.031 A 
BRANCH  50  64
ATOM     64  C   UNL A   1      49.102  26.435  27.135  1.00  0.00    -0.014 A 
ATOM     65  C   UNL A   1      49.944  25.945  28.146  1.00  0.00     0.009 A 
ATOM     66  C   UNL A   1      49.583  26.496  25.818  1.00  0.00     0.009 A 
ATOM     67  C   UNL A   1      51.252  25.557  27.849  1.00  0.00     0.001 A 
ATOM     68  C   UNL A   1      50.883  26.082  25.520  1.00  0.00     0.001 A 
ATOM     69  C   UNL A   1      51.718  25.622  26.537  1.00  0.00     0.000 A 
ENDBRANCH  50  64
BRANCH  51  70
ATOM     70  C   UNL A   1      39.645  28.722  29.323  1.00  0.00    -0.014 A 
ATOM     71  C   UNL A   1      39.146  28.416  30.598  1.00  0.00     0.009 A 
ATOM     72  C   UNL A   1      38.801  29.353  28.396  1.00  0.00     0.009 A 
ATOM     73  C   UNL A   1      37.823  28.714  30.930  1.00  0.00     0.001 A 
ATOM     74  C   UNL A   1      37.485  29.673  28.739  1.00  0.00     0.001 A 
ATOM     75  C   UNL A   1      36.996  29.346  30.003  1.00  0.00     0.000 A 
ENDBRANCH  51  70
BRANCH  63  76
ATOM     76  C   UNL A   1      45.615  32.289  29.483  1.00  0.00    -0.014 A 
ATOM     77  C   UNL A   1      45.601  33.328  28.540  1.00  0.00     0.009 A 
ATOM     78  C   UNL A   1      45.892  32.589  30.826  1.00  0.00     0.009 A 
ATOM     79  C   UNL A   1      45.882  34.638  28.931  1.00  0.00     0.001 A 
ATOM     80  C   UNL A   1      46.148  33.903  31.218  1.00  0.00     0.001 A 
ATOM     81  C   UNL A   1      46.149  34.925  30.269  1.00  0.00     0.000 A 
ENDBRANCH  63  76
ENDBRANCH  37  38
ENDBRANCH  29  32
ENDBRANCH  27  28
ENDBRANCH  26  27
ENDBRANCH  25  26
ENDBRANCH   1  25
TORSDOF 15
ENDMDL
