MODEL 1
REMARK VINA RESULT:     -11.0      0.000      0.000
REMARK SMILES CCCC1(CCC)SC[C@@H]2C(=O)N(Cc3ccc(C(=O)NCCCCNC(=O)c4ccc(-c5c6nc(c(-c7ccccc7)c7ccc([nH]7)c(-c7ccccc7)c7nc(c(-c8ccccc8)c8ccc5[nH]8)C=C7)C=C6)cc4)cc3)CC(=O)N21
REMARK SMILES IDX 22 1 21 2 19 3 20 4 18 6 15 7 16 8 78 9 17 10 77 11 14 12
REMARK SMILES IDX 13 13 4 14 8 15 82 16 9 17 10 18 80 19 11 20 79 21 81 22
REMARK SMILES IDX 12 23 3 24 2 25 1 26 5 27 6 28 7 29 23 30 24 31 25 32 26 33
REMARK SMILES IDX 27 34 28 36 29 37 30 38 76 39 31 40 75 41 32 42 33 43 34 44
REMARK SMILES IDX 69 45 35 46 74 47 68 48 70 49 36 50 73 51 67 52 66 53 37 55
REMARK SMILES IDX 59 56 44 57 58 58 45 59 48 60 57 61 71 62 46 63 47 64 56 66
REMARK SMILES IDX 72 67 49 68 38 69 39 70 43 71 40 72 42 73 41 74 60 75 61 76
REMARK SMILES IDX 65 77 62 78 64 79 63 80 50 81 51 82 55 83 52 84 54 85 53 86
REMARK H PARENT 21 5 26 35 70 54 48 65
REMARK Flexibility Score: inf
ROOT
ATOM      1  C   UNL A   1      37.238  21.569  24.608  1.00  0.00     0.116 C 
ENDROOT
BRANCH   1   2
ATOM      2  N   UNL A   1      36.990  20.137  24.627  1.00  0.00    -0.352 N 
ATOM      3  C   UNL A   1      35.814  19.444  24.801  1.00  0.00     0.251 C 
ATOM      4  O   UNL A   1      35.808  18.226  24.654  1.00  0.00    -0.269 OA
ATOM      5  H   UNL A   1      37.786  19.575  24.495  1.00  0.00     0.163 HD
BRANCH   3   6
ATOM      6  C   UNL A   1      34.543  20.148  25.107  1.00  0.00     0.039 A 
ATOM      7  C   UNL A   1      32.130  21.532  25.530  1.00  0.00    -0.029 A 
ATOM      8  C   UNL A   1      32.185  20.468  24.620  1.00  0.00     0.006 A 
ATOM      9  C   UNL A   1      33.276  21.843  26.272  1.00  0.00     0.006 A 
ATOM     10  C   UNL A   1      33.386  19.777  24.413  1.00  0.00     0.014 A 
ATOM     11  C   UNL A   1      34.463  21.144  26.079  1.00  0.00     0.014 A 
BRANCH   7  12
ATOM     12  C   UNL A   1      30.873  22.330  25.750  1.00  0.00     0.155 C 
BRANCH  12  13
ATOM     13  N   UNL A   1      30.945  23.718  25.307  1.00  0.00    -0.327 N 
ATOM     14  C   UNL A   1      32.151  27.744  24.280  1.00  0.00     0.090 C 
ATOM     15  S   UNL A   1      32.459  27.468  22.408  1.00  0.00    -0.131 SA
ATOM     16  N   UNL A   1      31.537  26.457  24.689  1.00  0.00    -0.314 N 
ATOM     17  C   UNL A   1      31.609  25.882  22.356  1.00  0.00     0.107 C 
ATOM     18  C   UNL A   1      31.825  25.364  23.762  1.00  0.00     0.186 C 
ATOM     19  C   UNL A   1      31.061  26.183  25.956  1.00  0.00     0.244 C 
ATOM     20  C   UNL A   1      31.115  24.026  23.965  1.00  0.00     0.247 C 
ATOM     21  C   UNL A   1      30.527  24.768  26.218  1.00  0.00     0.220 C 
ATOM     22  O   UNL A   1      30.937  27.026  26.841  1.00  0.00    -0.273 OA
ATOM     23  O   UNL A   1      31.024  23.204  23.056  1.00  0.00    -0.272 OA
BRANCH  14  24
ATOM     24  C   UNL A   1      33.591  27.963  24.834  1.00  0.00     0.040 C 
BRANCH  24  25
ATOM     25  C   UNL A   1      33.836  29.135  25.793  1.00  0.00    -0.000 C 
ATOM     26  C   UNL A   1      33.741  28.750  27.265  1.00  0.00     0.004 C 
ENDBRANCH  24  25
ENDBRANCH  14  24
BRANCH  14  27
ATOM     27  C   UNL A   1      31.204  28.981  24.231  1.00  0.00     0.040 C 
BRANCH  27  28
ATOM     28  C   UNL A   1      30.235  29.211  23.069  1.00  0.00    -0.000 C 
ATOM     29  C   UNL A   1      28.955  28.390  23.121  1.00  0.00     0.004 C 
ENDBRANCH  27  28
ENDBRANCH  14  27
ENDBRANCH  12  13
ENDBRANCH   7  12
ENDBRANCH   3   6
ENDBRANCH   1   2
BRANCH   1  30
ATOM     30  C   UNL A   1      38.138  22.000  25.768  1.00  0.00     0.023 C 
BRANCH  30  31
ATOM     31  C   UNL A   1      39.551  21.418  25.730  1.00  0.00     0.023 C 
BRANCH  31  32
ATOM     32  C   UNL A   1      39.733  20.125  26.509  1.00  0.00     0.116 C 
BRANCH  32  33
ATOM     33  N   UNL A   1      40.826  19.303  26.015  1.00  0.00    -0.352 N 
ATOM     34  C   UNL A   1      42.159  19.633  25.889  1.00  0.00     0.251 C 
ATOM     35  H   UNL A   1      40.583  18.392  25.732  1.00  0.00     0.163 HD
ATOM     36  O   UNL A   1      42.944  18.867  25.361  1.00  0.00    -0.269 OA
BRANCH  34  37
ATOM     37  C   UNL A   1      42.613  20.956  26.371  1.00  0.00     0.039 A 
ATOM     38  C   UNL A   1      43.027  21.903  25.431  1.00  0.00     0.014 A 
ATOM     39  C   UNL A   1      42.584  21.272  27.730  1.00  0.00     0.014 A 
ATOM     40  C   UNL A   1      43.347  23.194  25.852  1.00  0.00     0.010 A 
ATOM     41  C   UNL A   1      42.833  22.577  28.140  1.00  0.00     0.010 A 
ATOM     42  C   UNL A   1      43.214  23.551  27.205  1.00  0.00    -0.014 A 
BRANCH  42  43
ATOM     43  C   UNL A   1      43.468  24.938  27.662  1.00  0.00     0.031 A 
ATOM     44  C   UNL A   1      44.878  25.417  27.869  1.00  0.00     0.074 A 
ATOM     45  C   UNL A   1      42.430  25.747  27.952  1.00  0.00     0.049 A 
ATOM     46  N   UNL A   1      45.299  26.571  28.320  1.00  0.00    -0.248 NA
ATOM     47  C   UNL A   1      45.955  24.466  27.550  1.00  0.00     0.031 C 
ATOM     48  C   UNL A   1      41.014  25.389  27.829  1.00  0.00     0.029 A 
ATOM     49  N   UNL A   1      42.406  27.038  28.415  1.00  0.00    -0.354 N 
ATOM     50  C   UNL A   1      46.685  26.479  28.351  1.00  0.00     0.074 A 
ATOM     51  C   UNL A   1      47.031  25.140  27.924  1.00  0.00     0.031 C 
ATOM     52  C   UNL A   1      40.263  26.445  28.178  1.00  0.00     0.029 A 
ATOM     53  C   UNL A   1      41.139  27.539  28.586  1.00  0.00     0.049 A 
ATOM     54  H   UNL A   1      43.221  27.556  28.605  1.00  0.00     0.167 HD
ATOM     55  C   UNL A   1      47.590  27.429  28.683  1.00  0.00     0.031 A 
ATOM     56  C   UNL A   1      40.729  28.744  29.024  1.00  0.00     0.031 A 
ATOM     57  C   UNL A   1      47.249  28.762  29.099  1.00  0.00     0.049 A 
ATOM     58  C   UNL A   1      41.755  29.774  29.407  1.00  0.00     0.074 A 
ATOM     59  C   UNL A   1      48.095  29.812  29.413  1.00  0.00     0.029 A 
ATOM     60  N   UNL A   1      45.954  29.230  29.256  1.00  0.00    -0.354 N 
ATOM     61  N   UNL A   1      43.063  29.690  29.373  1.00  0.00    -0.248 NA
ATOM     62  C   UNL A   1      41.245  31.069  29.878  1.00  0.00     0.031 C 
ATOM     63  C   UNL A   1      47.311  30.903  29.802  1.00  0.00     0.029 A 
ATOM     64  C   UNL A   1      45.978  30.548  29.681  1.00  0.00     0.049 A 
ATOM     65  H   UNL A   1      45.138  28.704  29.091  1.00  0.00     0.167 HD
ATOM     66  C   UNL A   1      43.531  30.929  29.790  1.00  0.00     0.074 A 
ATOM     67  C   UNL A   1      42.369  31.750  30.057  1.00  0.00     0.031 C 
ATOM     68  C   UNL A   1      44.810  31.350  29.938  1.00  0.00     0.031 A 
BRANCH  55  69
ATOM     69  C   UNL A   1      49.043  27.052  28.608  1.00  0.00    -0.014 A 
ATOM     70  C   UNL A   1      49.706  26.505  29.717  1.00  0.00     0.009 A 
ATOM     71  C   UNL A   1      49.748  27.215  27.406  1.00  0.00     0.009 A 
ATOM     72  C   UNL A   1      51.058  26.162  29.635  1.00  0.00     0.001 A 
ATOM     73  C   UNL A   1      51.092  26.845  27.319  1.00  0.00     0.001 A 
ATOM     74  C   UNL A   1      51.748  26.329  28.435  1.00  0.00     0.000 A 
ENDBRANCH  55  69
BRANCH  56  75
ATOM     75  C   UNL A   1      39.278  29.056  29.110  1.00  0.00    -0.014 A 
ATOM     76  C   UNL A   1      38.603  29.597  28.006  1.00  0.00     0.009 A 
ATOM     77  C   UNL A   1      38.567  28.832  30.299  1.00  0.00     0.009 A 
ATOM     78  C   UNL A   1      37.252  29.936  28.098  1.00  0.00     0.001 A 
ATOM     79  C   UNL A   1      37.208  29.146  30.379  1.00  0.00     0.001 A 
ATOM     80  C   UNL A   1      36.555  29.708  29.284  1.00  0.00     0.000 A 
ENDBRANCH  56  75
BRANCH  68  81
ATOM     81  C   UNL A   1      45.018  32.773  30.374  1.00  0.00    -0.014 A 
ATOM     82  C   UNL A   1      45.150  33.107  31.730  1.00  0.00     0.009 A 
ATOM     83  C   UNL A   1      45.119  33.786  29.408  1.00  0.00     0.009 A 
ATOM     84  C   UNL A   1      45.348  34.435  32.112  1.00  0.00     0.001 A 
ATOM     85  C   UNL A   1      45.345  35.108  29.791  1.00  0.00     0.001 A 
ATOM     86  C   UNL A   1      45.450  35.433  31.142  1.00  0.00     0.000 A 
ENDBRANCH  68  81
ENDBRANCH  42  43
ENDBRANCH  34  37
ENDBRANCH  32  33
ENDBRANCH  31  32
ENDBRANCH  30  31
ENDBRANCH   1  30
TORSDOF 17
ENDMDL
MODEL 2
REMARK VINA RESULT:     -11.0      2.070      3.327
REMARK SMILES CCCC1(CCC)SC[C@@H]2C(=O)N(Cc3ccc(C(=O)NCCCCNC(=O)c4ccc(-c5c6nc(c(-c7ccccc7)c7ccc([nH]7)c(-c7ccccc7)c7nc(c(-c8ccccc8)c8ccc5[nH]8)C=C7)C=C6)cc4)cc3)CC(=O)N21
REMARK SMILES IDX 22 1 21 2 19 3 20 4 18 6 15 7 16 8 78 9 17 10 77 11 14 12
REMARK SMILES IDX 13 13 4 14 8 15 82 16 9 17 10 18 80 19 11 20 79 21 81 22
REMARK SMILES IDX 12 23 3 24 2 25 1 26 5 27 6 28 7 29 23 30 24 31 25 32 26 33
REMARK SMILES IDX 27 34 28 36 29 37 30 38 76 39 31 40 75 41 32 42 33 43 34 44
REMARK SMILES IDX 69 45 35 46 74 47 68 48 70 49 36 50 73 51 67 52 66 53 37 55
REMARK SMILES IDX 59 56 44 57 58 58 45 59 48 60 57 61 71 62 46 63 47 64 56 66
REMARK SMILES IDX 72 67 49 68 38 69 39 70 43 71 40 72 42 73 41 74 60 75 61 76
REMARK SMILES IDX 65 77 62 78 64 79 63 80 50 81 51 82 55 83 52 84 54 85 53 86
REMARK H PARENT 21 5 26 35 70 54 48 65
REMARK Flexibility Score: inf
ROOT
ATOM      1  C   UNL A   1      35.774  20.810  25.477  1.00  0.00     0.116 C 
ENDROOT
BRANCH   1   2
ATOM      2  N   UNL A   1      35.006  19.642  25.080  1.00  0.00    -0.352 N 
ATOM      3  C   UNL A   1      33.764  19.555  24.493  1.00  0.00     0.251 C 
ATOM      4  O   UNL A   1      33.352  18.461  24.121  1.00  0.00    -0.269 OA
ATOM      5  H   UNL A   1      35.441  18.778  25.259  1.00  0.00     0.163 HD
BRANCH   3   6
ATOM      6  C   UNL A   1      32.942  20.767  24.249  1.00  0.00     0.039 A 
ATOM      7  C   UNL A   1      31.249  22.974  23.824  1.00  0.00    -0.029 A 
ATOM      8  C   UNL A   1      31.306  22.359  25.081  1.00  0.00     0.006 A 
ATOM      9  C   UNL A   1      32.099  22.514  22.811  1.00  0.00     0.006 A 
ATOM     10  C   UNL A   1      32.153  21.263  25.294  1.00  0.00     0.014 A 
ATOM     11  C   UNL A   1      32.953  21.438  23.028  1.00  0.00     0.014 A 
BRANCH   7  12
ATOM     12  C   UNL A   1      30.321  24.124  23.538  1.00  0.00     0.155 C 
BRANCH  12  13
ATOM     13  N   UNL A   1      30.771  25.413  24.050  1.00  0.00    -0.327 N 
ATOM     14  C   UNL A   1      32.933  28.690  25.869  1.00  0.00     0.090 C 
ATOM     15  S   UNL A   1      33.731  29.406  24.279  1.00  0.00    -0.131 SA
ATOM     16  N   UNL A   1      32.003  27.672  25.320  1.00  0.00    -0.314 N 
ATOM     17  C   UNL A   1      32.665  28.487  23.157  1.00  0.00     0.107 C 
ATOM     18  C   UNL A   1      32.353  27.246  23.966  1.00  0.00     0.186 C 
ATOM     19  C   UNL A   1      31.129  26.919  26.078  1.00  0.00     0.244 C 
ATOM     20  C   UNL A   1      31.387  26.333  23.213  1.00  0.00     0.247 C 
ATOM     21  C   UNL A   1      30.296  25.857  25.348  1.00  0.00     0.220 C 
ATOM     22  O   UNL A   1      30.900  27.123  27.268  1.00  0.00    -0.273 OA
ATOM     23  O   UNL A   1      31.425  26.228  21.989  1.00  0.00    -0.272 OA
BRANCH  14  24
ATOM     24  C   UNL A   1      34.156  28.089  26.624  1.00  0.00     0.040 C 
BRANCH  24  25
ATOM     25  C   UNL A   1      35.294  29.031  27.039  1.00  0.00    -0.000 C 
ATOM     26  C   UNL A   1      35.051  29.733  28.370  1.00  0.00     0.004 C 
ENDBRANCH  24  25
ENDBRANCH  14  24
BRANCH  14  27
ATOM     27  C   UNL A   1      32.282  29.977  26.461  1.00  0.00     0.040 C 
BRANCH  27  28
ATOM     28  C   UNL A   1      31.258  30.800  25.677  1.00  0.00    -0.000 C 
ATOM     29  C   UNL A   1      30.989  32.192  26.227  1.00  0.00     0.004 C 
ENDBRANCH  27  28
ENDBRANCH  14  27
ENDBRANCH  12  13
ENDBRANCH   7  12
ENDBRANCH   3   6
ENDBRANCH   1   2
BRANCH   1  30
ATOM     30  C   UNL A   1      36.524  21.420  24.292  1.00  0.00     0.023 C 
BRANCH  30  31
ATOM     31  C   UNL A   1      37.071  22.827  24.537  1.00  0.00     0.023 C 
BRANCH  31  32
ATOM     32  C   UNL A   1      37.858  22.992  25.828  1.00  0.00     0.116 C 
BRANCH  32  33
ATOM     33  N   UNL A   1      39.106  22.246  25.842  1.00  0.00    -0.352 N 
ATOM     34  C   UNL A   1      40.362  22.682  26.208  1.00  0.00     0.251 C 
ATOM     35  H   UNL A   1      39.047  21.307  25.552  1.00  0.00     0.163 HD
ATOM     36  O   UNL A   1      41.335  21.964  26.070  1.00  0.00    -0.269 OA
BRANCH  34  37
ATOM     37  C   UNL A   1      40.513  24.057  26.732  1.00  0.00     0.039 A 
ATOM     38  C   UNL A   1      40.723  24.230  28.103  1.00  0.00     0.014 A 
ATOM     39  C   UNL A   1      40.493  25.157  25.874  1.00  0.00     0.014 A 
ATOM     40  C   UNL A   1      40.984  25.506  28.602  1.00  0.00     0.010 A 
ATOM     41  C   UNL A   1      40.824  26.417  26.360  1.00  0.00     0.010 A 
ATOM     42  C   UNL A   1      41.075  26.603  27.728  1.00  0.00    -0.014 A 
BRANCH  42  43
ATOM     43  C   UNL A   1      41.433  27.953  28.224  1.00  0.00     0.031 A 
ATOM     44  C   UNL A   1      42.874  28.379  28.281  1.00  0.00     0.074 A 
ATOM     45  C   UNL A   1      40.467  28.773  28.685  1.00  0.00     0.049 A 
ATOM     46  N   UNL A   1      43.387  29.491  28.738  1.00  0.00    -0.248 NA
ATOM     47  C   UNL A   1      43.868  27.417  27.779  1.00  0.00     0.031 C 
ATOM     48  C   UNL A   1      39.036  28.463  28.720  1.00  0.00     0.029 A 
ATOM     49  N   UNL A   1      40.547  30.035  29.217  1.00  0.00    -0.354 N 
ATOM     50  C   UNL A   1      44.763  29.358  28.591  1.00  0.00     0.074 A 
ATOM     51  C   UNL A   1      45.006  28.037  28.052  1.00  0.00     0.031 C 
ATOM     52  C   UNL A   1      38.371  29.519  29.217  1.00  0.00     0.029 A 
ATOM     53  C   UNL A   1      39.329  30.561  29.571  1.00  0.00     0.049 A 
ATOM     54  H   UNL A   1      41.397  30.517  29.333  1.00  0.00     0.167 HD
ATOM     55  C   UNL A   1      45.736  30.261  28.859  1.00  0.00     0.031 A 
ATOM     56  C   UNL A   1      39.019  31.750  30.123  1.00  0.00     0.031 A 
ATOM     57  C   UNL A   1      45.496  31.576  29.386  1.00  0.00     0.049 A 
ATOM     58  C   UNL A   1      40.120  32.726  30.430  1.00  0.00     0.074 A 
ATOM     59  C   UNL A   1      46.411  32.581  29.649  1.00  0.00     0.029 A 
ATOM     60  N   UNL A   1      44.247  32.071  29.729  1.00  0.00    -0.354 N 
ATOM     61  N   UNL A   1      41.410  32.607  30.229  1.00  0.00    -0.248 NA
ATOM     62  C   UNL A   1      39.719  34.005  31.031  1.00  0.00     0.031 C 
ATOM     63  C   UNL A   1      45.720  33.669  30.191  1.00  0.00     0.029 A 
ATOM     64  C   UNL A   1      44.370  33.361  30.218  1.00  0.00     0.049 A 
ATOM     65  H   UNL A   1      43.399  31.579  29.638  1.00  0.00     0.167 HD
ATOM     66  C   UNL A   1      41.971  33.805  30.652  1.00  0.00     0.074 A 
ATOM     67  C   UNL A   1      40.880  34.642  31.106  1.00  0.00     0.031 C 
ATOM     68  C   UNL A   1      43.272  34.180  30.662  1.00  0.00     0.031 A 
BRANCH  55  69
ATOM     69  C   UNL A   1      47.153  29.847  28.583  1.00  0.00    -0.014 A 
ATOM     70  C   UNL A   1      47.926  29.211  29.567  1.00  0.00     0.009 A 
ATOM     71  C   UNL A   1      47.713  30.065  27.315  1.00  0.00     0.009 A 
ATOM     72  C   UNL A   1      49.244  28.835  29.299  1.00  0.00     0.001 A 
ATOM     73  C   UNL A   1      49.022  29.664  27.041  1.00  0.00     0.001 A 
ATOM     74  C   UNL A   1      49.789  29.058  28.035  1.00  0.00     0.000 A 
ENDBRANCH  55  69
BRANCH  56  75
ATOM     75  C   UNL A   1      37.602  32.098  30.406  1.00  0.00    -0.014 A 
ATOM     76  C   UNL A   1      36.994  31.678  31.599  1.00  0.00     0.009 A 
ATOM     77  C   UNL A   1      36.846  32.833  29.480  1.00  0.00     0.009 A 
ATOM     78  C   UNL A   1      35.650  31.961  31.846  1.00  0.00     0.001 A 
ATOM     79  C   UNL A   1      35.509  33.139  29.743  1.00  0.00     0.001 A 
ATOM     80  C   UNL A   1      34.909  32.695  30.919  1.00  0.00     0.000 A 
ENDBRANCH  56  75
BRANCH  68  81
ATOM     81  C   UNL A   1      43.582  35.568  31.145  1.00  0.00    -0.014 A 
ATOM     82  C   UNL A   1      43.721  36.637  30.248  1.00  0.00     0.009 A 
ATOM     83  C   UNL A   1      43.700  35.812  32.522  1.00  0.00     0.009 A 
ATOM     84  C   UNL A   1      44.003  37.921  30.720  1.00  0.00     0.001 A 
ATOM     85  C   UNL A   1      43.954  37.101  32.993  1.00  0.00     0.001 A 
ATOM     86  C   UNL A   1      44.115  38.152  32.091  1.00  0.00     0.000 A 
ENDBRANCH  68  81
ENDBRANCH  42  43
ENDBRANCH  34  37
ENDBRANCH  32  33
ENDBRANCH  31  32
ENDBRANCH  30  31
ENDBRANCH   1  30
TORSDOF 17
ENDMDL
MODEL 3
REMARK VINA RESULT:     -10.8      1.309      5.888
REMARK SMILES CCCC1(CCC)SC[C@@H]2C(=O)N(Cc3ccc(C(=O)NCCCCNC(=O)c4ccc(-c5c6nc(c(-c7ccccc7)c7ccc([nH]7)c(-c7ccccc7)c7nc(c(-c8ccccc8)c8ccc5[nH]8)C=C7)C=C6)cc4)cc3)CC(=O)N21
REMARK SMILES IDX 22 1 21 2 19 3 20 4 18 6 15 7 16 8 78 9 17 10 77 11 14 12
REMARK SMILES IDX 13 13 4 14 8 15 82 16 9 17 10 18 80 19 11 20 79 21 81 22
REMARK SMILES IDX 12 23 3 24 2 25 1 26 5 27 6 28 7 29 23 30 24 31 25 32 26 33
REMARK SMILES IDX 27 34 28 36 29 37 30 38 76 39 31 40 75 41 32 42 33 43 34 44
REMARK SMILES IDX 69 45 35 46 74 47 68 48 70 49 36 50 73 51 67 52 66 53 37 55
REMARK SMILES IDX 59 56 44 57 58 58 45 59 48 60 57 61 71 62 46 63 47 64 56 66
REMARK SMILES IDX 72 67 49 68 38 69 39 70 43 71 40 72 42 73 41 74 60 75 61 76
REMARK SMILES IDX 65 77 62 78 64 79 63 80 50 81 51 82 55 83 52 84 54 85 53 86
REMARK H PARENT 21 5 26 35 70 54 48 65
REMARK Flexibility Score: inf
ROOT
ATOM      1  C   UNL A   1      35.880  21.308  25.167  1.00  0.00     0.116 C 
ENDROOT
BRANCH   1   2
ATOM      2  N   UNL A   1      35.223  20.012  25.126  1.00  0.00    -0.352 N 
ATOM      3  C   UNL A   1      33.943  19.679  24.743  1.00  0.00     0.251 C 
ATOM      4  O   UNL A   1      33.630  18.494  24.663  1.00  0.00    -0.269 OA
ATOM      5  H   UNL A   1      35.778  19.254  25.417  1.00  0.00     0.163 HD
BRANCH   3   6
ATOM      6  C   UNL A   1      32.955  20.722  24.372  1.00  0.00     0.039 A 
ATOM      7  C   UNL A   1      31.204  22.786  23.601  1.00  0.00    -0.029 A 
ATOM      8  C   UNL A   1      31.928  22.075  22.635  1.00  0.00     0.006 A 
ATOM      9  C   UNL A   1      31.317  22.402  24.943  1.00  0.00     0.006 A 
ATOM     10  C   UNL A   1      32.795  21.044  23.019  1.00  0.00     0.014 A 
ATOM     11  C   UNL A   1      32.165  21.367  25.321  1.00  0.00     0.014 A 
BRANCH   7  12
ATOM     12  C   UNL A   1      30.295  23.929  23.238  1.00  0.00     0.155 C 
BRANCH  12  13
ATOM     13  N   UNL A   1      30.678  25.218  23.804  1.00  0.00    -0.327 N 
ATOM     14  C   UNL A   1      32.660  28.518  25.779  1.00  0.00     0.090 C 
ATOM     15  S   UNL A   1      33.448  29.329  24.231  1.00  0.00    -0.131 SA
ATOM     16  N   UNL A   1      31.786  27.481  25.178  1.00  0.00    -0.314 N 
ATOM     17  C   UNL A   1      32.442  28.405  23.058  1.00  0.00     0.107 C 
ATOM     18  C   UNL A   1      32.175  27.122  23.815  1.00  0.00     0.186 C 
ATOM     19  C   UNL A   1      30.936  26.660  25.893  1.00  0.00     0.244 C 
ATOM     20  C   UNL A   1      31.263  26.195  23.013  1.00  0.00     0.247 C 
ATOM     21  C   UNL A   1      30.164  25.590  25.110  1.00  0.00     0.220 C 
ATOM     22  O   UNL A   1      30.681  26.809  27.085  1.00  0.00    -0.273 OA
ATOM     23  O   UNL A   1      31.325  26.139  21.786  1.00  0.00    -0.272 OA
BRANCH  14  24
ATOM     24  C   UNL A   1      33.898  27.945  26.531  1.00  0.00     0.040 C 
BRANCH  24  25
ATOM     25  C   UNL A   1      34.778  26.914  25.813  1.00  0.00    -0.000 C 
ATOM     26  C   UNL A   1      34.286  25.480  25.964  1.00  0.00     0.004 C 
ENDBRANCH  24  25
ENDBRANCH  14  24
BRANCH  14  27
ATOM     27  C   UNL A   1      31.942  29.750  26.408  1.00  0.00     0.040 C 
BRANCH  27  28
ATOM     28  C   UNL A   1      31.167  30.758  25.555  1.00  0.00    -0.000 C 
ATOM     29  C   UNL A   1      31.011  32.141  26.169  1.00  0.00     0.004 C 
ENDBRANCH  27  28
ENDBRANCH  14  27
ENDBRANCH  12  13
ENDBRANCH   7  12
ENDBRANCH   3   6
ENDBRANCH   1   2
BRANCH   1  30
ATOM     30  C   UNL A   1      37.285  21.245  24.566  1.00  0.00     0.023 C 
BRANCH  30  31
ATOM     31  C   UNL A   1      38.006  19.912  24.763  1.00  0.00     0.023 C 
BRANCH  31  32
ATOM     32  C   UNL A   1      38.871  19.829  26.011  1.00  0.00     0.116 C 
BRANCH  32  33
ATOM     33  N   UNL A   1      40.122  19.120  25.799  1.00  0.00    -0.352 N 
ATOM     34  C   UNL A   1      41.411  19.581  25.974  1.00  0.00     0.251 C 
ATOM     35  H   UNL A   1      40.040  18.189  25.489  1.00  0.00     0.163 HD
ATOM     36  O   UNL A   1      42.366  18.897  25.657  1.00  0.00    -0.269 OA
BRANCH  34  37
ATOM     37  C   UNL A   1      41.611  20.943  26.515  1.00  0.00     0.039 A 
ATOM     38  C   UNL A   1      41.559  21.126  27.899  1.00  0.00     0.014 A 
ATOM     39  C   UNL A   1      41.890  22.017  25.668  1.00  0.00     0.014 A 
ATOM     40  C   UNL A   1      41.860  22.378  28.438  1.00  0.00     0.010 A 
ATOM     41  C   UNL A   1      42.260  23.243  26.208  1.00  0.00     0.010 A 
ATOM     42  C   UNL A   1      42.251  23.435  27.599  1.00  0.00    -0.014 A 
BRANCH  42  43
ATOM     43  C   UNL A   1      42.655  24.748  28.155  1.00  0.00     0.031 A 
ATOM     44  C   UNL A   1      41.628  25.825  28.368  1.00  0.00     0.074 A 
ATOM     45  C   UNL A   1      43.955  24.994  28.408  1.00  0.00     0.049 A 
ATOM     46  N   UNL A   1      41.795  27.053  28.786  1.00  0.00    -0.248 NA
ATOM     47  C   UNL A   1      40.233  25.482  28.046  1.00  0.00     0.031 C 
ATOM     48  C   UNL A   1      45.055  24.046  28.208  1.00  0.00     0.029 A 
ATOM     49  N   UNL A   1      44.574  26.122  28.886  1.00  0.00    -0.354 N 
ATOM     50  C   UNL A   1      40.533  27.632  28.765  1.00  0.00     0.074 A 
ATOM     51  C   UNL A   1      39.618  26.639  28.244  1.00  0.00     0.031 C 
ATOM     52  C   UNL A   1      46.206  24.623  28.589  1.00  0.00     0.029 A 
ATOM     53  C   UNL A   1      45.934  25.989  29.021  1.00  0.00     0.049 A 
ATOM     54  H   UNL A   1      44.087  26.948  29.110  1.00  0.00     0.167 HD
ATOM     55  C   UNL A   1      40.162  28.872  29.164  1.00  0.00     0.031 A 
ATOM     56  C   UNL A   1      46.859  26.872  29.445  1.00  0.00     0.031 A 
ATOM     57  C   UNL A   1      41.066  29.857  29.690  1.00  0.00     0.049 A 
ATOM     58  C   UNL A   1      46.423  28.249  29.863  1.00  0.00     0.074 A 
ATOM     59  C   UNL A   1      40.781  31.126  30.164  1.00  0.00     0.029 A 
ATOM     60  N   UNL A   1      42.436  29.682  29.814  1.00  0.00    -0.354 N 
ATOM     61  N   UNL A   1      45.216  28.760  29.893  1.00  0.00    -0.248 NA
ATOM     62  C   UNL A   1      47.478  29.166  30.314  1.00  0.00     0.031 C 
ATOM     63  C   UNL A   1      41.984  31.734  30.535  1.00  0.00     0.029 A 
ATOM     64  C   UNL A   1      43.011  30.826  30.340  1.00  0.00     0.049 A 
ATOM     65  H   UNL A   1      42.927  28.865  29.565  1.00  0.00     0.167 HD
ATOM     66  C   UNL A   1      45.363  30.047  30.393  1.00  0.00     0.074 A 
ATOM     67  C   UNL A   1      46.773  30.232  30.666  1.00  0.00     0.031 C 
ATOM     68  C   UNL A   1      44.416  30.991  30.608  1.00  0.00     0.031 A 
BRANCH  55  69
ATOM     69  C   UNL A   1      38.707  29.227  29.043  1.00  0.00    -0.014 A 
ATOM     70  C   UNL A   1      37.839  29.104  30.140  1.00  0.00     0.009 A 
ATOM     71  C   UNL A   1      38.204  29.719  27.829  1.00  0.00     0.009 A 
ATOM     72  C   UNL A   1      36.487  29.433  30.012  1.00  0.00     0.001 A 
ATOM     73  C   UNL A   1      36.859  30.074  27.713  1.00  0.00     0.001 A 
ATOM     74  C   UNL A   1      36.000  29.921  28.801  1.00  0.00     0.000 A 
ENDBRANCH  55  69
BRANCH  56  75
ATOM     75  C   UNL A   1      48.290  26.480  29.516  1.00  0.00    -0.014 A 
ATOM     76  C   UNL A   1      48.809  25.898  30.682  1.00  0.00     0.009 A 
ATOM     77  C   UNL A   1      49.148  26.701  28.427  1.00  0.00     0.009 A 
ATOM     78  C   UNL A   1      50.164  25.574  30.770  1.00  0.00     0.001 A 
ATOM     79  C   UNL A   1      50.497  26.349  28.507  1.00  0.00     0.001 A 
ATOM     80  C   UNL A   1      51.007  25.796  29.681  1.00  0.00     0.000 A 
ENDBRANCH  56  75
BRANCH  68  81
ATOM     81  C   UNL A   1      44.869  32.294  31.202  1.00  0.00    -0.014 A 
ATOM     82  C   UNL A   1      44.936  32.478  32.591  1.00  0.00     0.009 A 
ATOM     83  C   UNL A   1      45.270  33.339  30.355  1.00  0.00     0.009 A 
ATOM     84  C   UNL A   1      45.366  33.696  33.121  1.00  0.00     0.001 A 
ATOM     85  C   UNL A   1      45.726  34.545  30.887  1.00  0.00     0.001 A 
ATOM     86  C   UNL A   1      45.765  34.727  32.269  1.00  0.00     0.000 A 
ENDBRANCH  68  81
ENDBRANCH  42  43
ENDBRANCH  34  37
ENDBRANCH  32  33
ENDBRANCH  31  32
ENDBRANCH  30  31
ENDBRANCH   1  30
TORSDOF 17
ENDMDL
