MODEL 1
REMARK VINA RESULT:      -9.8      0.000      0.000
REMARK SMILES C[C@@H](C(=O)NCCCCNC(=O)c1ccc(-c2c3nc(c(-c4ccccc4)c4ccc([nH]4)c(-c4ccccc4)c4nc(c(-c5ccccc5)c5ccc2[nH]5)C=C4)C=C3)cc1)c1ccc(-c2cccc(OC(=O)Nc3ccccc3)c2)c(F)c1
REMARK SMILES IDX 6 1 5 2 3 3 4 4 2 6 1 7 61 8 62 9 83 10 63 11 81 12 64 13
REMARK SMILES IDX 82 14 65 15 66 16 80 17 67 18 69 19 68 20 70 21 71 22 72 23
REMARK SMILES IDX 73 24 74 26 75 27 79 28 76 29 78 30 77 31 7 32 8 33 9 34
REMARK SMILES IDX 10 35 11 36 12 38 13 39 14 40 60 41 15 42 59 43 16 44 17 45
REMARK SMILES IDX 18 46 53 47 19 48 58 49 52 50 54 51 20 52 57 53 51 54 50 55
REMARK SMILES IDX 21 57 43 58 28 59 42 60 29 61 32 62 41 63 55 64 30 65 31 66
REMARK SMILES IDX 40 68 56 69 33 70 22 71 23 72 27 73 24 74 26 75 25 76 44 77
REMARK SMILES IDX 45 78 49 79 46 80 48 81 47 82 34 83 35 84 39 85 36 86 38 87
REMARK SMILES IDX 37 88
REMARK H PARENT 5 5 73 25 10 37 54 56 32 67
REMARK Flexibility Score: inf
ROOT
ATOM      1  C   UNL A   1      43.852  23.124  24.404  1.00  0.00     0.116 C 
ENDROOT
BRANCH   1   2
ATOM      2  N   UNL A   1      42.654  22.648  25.061  1.00  0.00    -0.356 N 
ATOM      3  C   UNL A   1      42.172  22.928  26.307  1.00  0.00     0.227 C 
ATOM      4  O   UNL A   1      41.232  22.235  26.701  1.00  0.00    -0.274 OA
ATOM      5  H   UNL A   1      42.104  22.028  24.529  1.00  0.00     0.163 HD
BRANCH   3   6
ATOM      6  C   UNL A   1      42.769  24.092  27.127  1.00  0.00     0.105 C 
ATOM      7  C   UNL A   1      43.566  23.566  28.326  1.00  0.00     0.023 C 
BRANCH   6   8
ATOM      8  C   UNL A   1      41.695  25.109  27.527  1.00  0.00    -0.033 A 
ATOM      9  C   UNL A   1      40.594  25.412  26.713  1.00  0.00     0.005 A 
ATOM     10  C   UNL A   1      41.817  25.797  28.746  1.00  0.00     0.044 A 
ATOM     11  C   UNL A   1      39.660  26.380  27.090  1.00  0.00     0.012 A 
ATOM     12  C   UNL A   1      40.890  26.776  29.108  1.00  0.00     0.131 A 
ATOM     13  C   UNL A   1      39.802  27.094  28.286  1.00  0.00     0.018 A 
ATOM     14  F   UNL A   1      41.077  27.429  30.265  1.00  0.00    -0.206 F 
BRANCH  13  15
ATOM     15  C   UNL A   1      38.885  28.199  28.587  1.00  0.00    -0.012 A 
ATOM     16  C   UNL A   1      38.802  29.331  27.760  1.00  0.00     0.009 A 
ATOM     17  C   UNL A   1      38.140  28.180  29.779  1.00  0.00     0.056 A 
ATOM     18  C   UNL A   1      38.006  30.422  28.117  1.00  0.00     0.004 A 
ATOM     19  C   UNL A   1      37.370  29.278  30.145  1.00  0.00     0.133 A 
ATOM     20  C   UNL A   1      37.294  30.399  29.315  1.00  0.00     0.047 A 
BRANCH  19  21
ATOM     21  O   UNL A   1      36.650  29.378  31.359  1.00  0.00    -0.410 OA
BRANCH  21  22
ATOM     22  C   UNL A   1      37.179  29.257  32.643  1.00  0.00     0.417 C 
ATOM     23  O   UNL A   1      37.459  28.203  33.208  1.00  0.00    -0.224 OA
ATOM     24  N   UNL A   1      37.494  30.446  33.248  1.00  0.00    -0.291 N 
ATOM     25  H   UNL A   1      37.981  30.357  34.099  1.00  0.00     0.173 HD
BRANCH  24  26
ATOM     26  C   UNL A   1      37.239  31.768  32.855  1.00  0.00     0.044 A 
ATOM     27  C   UNL A   1      36.020  32.323  33.260  1.00  0.00     0.026 A 
ATOM     28  C   UNL A   1      38.106  32.532  32.071  1.00  0.00     0.026 A 
ATOM     29  C   UNL A   1      35.695  33.641  32.930  1.00  0.00     0.002 A 
ATOM     30  C   UNL A   1      37.774  33.845  31.728  1.00  0.00     0.002 A 
ATOM     31  C   UNL A   1      36.574  34.402  32.164  1.00  0.00     0.000 A 
ENDBRANCH  24  26
ENDBRANCH  21  22
ENDBRANCH  19  21
ENDBRANCH  13  15
ENDBRANCH   6   8
ENDBRANCH   3   6
ENDBRANCH   1   2
BRANCH   1  32
ATOM     32  C   UNL A   1      45.062  22.278  24.811  1.00  0.00     0.023 C 
BRANCH  32  33
ATOM     33  C   UNL A   1      46.387  23.042  24.863  1.00  0.00     0.023 C 
BRANCH  33  34
ATOM     34  C   UNL A   1      46.315  24.416  25.516  1.00  0.00     0.116 C 
BRANCH  34  35
ATOM     35  N   UNL A   1      46.725  25.487  24.624  1.00  0.00    -0.352 N 
ATOM     36  C   UNL A   1      46.517  26.838  24.733  1.00  0.00     0.251 C 
ATOM     37  H   UNL A   1      47.224  25.201  23.825  1.00  0.00     0.163 HD
ATOM     38  O   UNL A   1      46.830  27.579  23.805  1.00  0.00    -0.269 OA
BRANCH  36  39
ATOM     39  C   UNL A   1      45.889  27.400  25.946  1.00  0.00     0.039 A 
ATOM     40  C   UNL A   1      46.719  27.894  26.955  1.00  0.00     0.014 A 
ATOM     41  C   UNL A   1      44.500  27.435  26.102  1.00  0.00     0.014 A 
ATOM     42  C   UNL A   1      46.157  28.469  28.094  1.00  0.00     0.010 A 
ATOM     43  C   UNL A   1      43.940  28.078  27.203  1.00  0.00     0.010 A 
ATOM     44  C   UNL A   1      44.762  28.594  28.214  1.00  0.00    -0.014 A 
BRANCH  44  45
ATOM     45  C   UNL A   1      44.169  29.269  29.395  1.00  0.00     0.031 A 
ATOM     46  C   UNL A   1      43.808  30.728  29.344  1.00  0.00     0.074 A 
ATOM     47  C   UNL A   1      43.973  28.565  30.527  1.00  0.00     0.049 A 
ATOM     48  N   UNL A   1      43.242  31.469  30.264  1.00  0.00    -0.248 NA
ATOM     49  C   UNL A   1      44.144  31.457  28.110  1.00  0.00     0.031 C 
ATOM     50  C   UNL A   1      44.336  27.159  30.723  1.00  0.00     0.029 A 
ATOM     51  N   UNL A   1      43.410  28.934  31.722  1.00  0.00    -0.354 N 
ATOM     52  C   UNL A   1      43.151  32.743  29.721  1.00  0.00     0.074 A 
ATOM     53  C   UNL A   1      43.778  32.693  28.418  1.00  0.00     0.031 C 
ATOM     54  C   UNL A   1      43.954  26.775  31.952  1.00  0.00     0.029 A 
ATOM     55  C   UNL A   1      43.345  27.911  32.636  1.00  0.00     0.049 A 
ATOM     56  H   UNL A   1      43.085  29.844  31.907  1.00  0.00     0.167 HD
ATOM     57  C   UNL A   1      42.574  33.851  30.245  1.00  0.00     0.031 A 
ATOM     58  C   UNL A   1      42.844  27.887  33.886  1.00  0.00     0.031 A 
ATOM     59  C   UNL A   1      41.955  33.905  31.543  1.00  0.00     0.049 A 
ATOM     60  C   UNL A   1      42.205  29.129  34.442  1.00  0.00     0.074 A 
ATOM     61  C   UNL A   1      41.313  34.971  32.149  1.00  0.00     0.029 A 
ATOM     62  N   UNL A   1      41.900  32.846  32.434  1.00  0.00    -0.354 N 
ATOM     63  N   UNL A   1      42.062  30.306  33.884  1.00  0.00    -0.248 NA
ATOM     64  C   UNL A   1      41.639  29.028  35.794  1.00  0.00     0.031 C 
ATOM     65  C   UNL A   1      40.908  34.569  33.426  1.00  0.00     0.029 A 
ATOM     66  C   UNL A   1      41.249  33.237  33.593  1.00  0.00     0.049 A 
ATOM     67  H   UNL A   1      42.271  31.948  32.269  1.00  0.00     0.167 HD
ATOM     68  C   UNL A   1      41.372  31.080  34.808  1.00  0.00     0.074 A 
ATOM     69  C   UNL A   1      41.101  30.228  35.949  1.00  0.00     0.031 C 
ATOM     70  C   UNL A   1      40.997  32.380  34.722  1.00  0.00     0.031 A 
BRANCH  57  71
ATOM     71  C   UNL A   1      42.581  35.096  29.402  1.00  0.00    -0.014 A 
ATOM     72  C   UNL A   1      43.623  36.033  29.507  1.00  0.00     0.009 A 
ATOM     73  C   UNL A   1      41.559  35.322  28.468  1.00  0.00     0.009 A 
ATOM     74  C   UNL A   1      43.622  37.186  28.719  1.00  0.00     0.001 A 
ATOM     75  C   UNL A   1      41.576  36.461  27.660  1.00  0.00     0.001 A 
ATOM     76  C   UNL A   1      42.601  37.396  27.793  1.00  0.00     0.000 A 
ENDBRANCH  57  71
BRANCH  58  77
ATOM     77  C   UNL A   1      42.905  26.638  34.689  1.00  0.00    -0.014 A 
ATOM     78  C   UNL A   1      41.782  25.805  34.804  1.00  0.00     0.009 A 
ATOM     79  C   UNL A   1      44.086  26.281  35.357  1.00  0.00     0.009 A 
ATOM     80  C   UNL A   1      41.830  24.657  35.599  1.00  0.00     0.001 A 
ATOM     81  C   UNL A   1      44.142  25.116  36.125  1.00  0.00     0.001 A 
ATOM     82  C   UNL A   1      43.011  24.312  36.255  1.00  0.00     0.000 A 
ENDBRANCH  58  77
BRANCH  70  83
ATOM     83  C   UNL A   1      40.237  32.947  35.887  1.00  0.00    -0.014 A 
ATOM     84  C   UNL A   1      40.901  33.470  37.008  1.00  0.00     0.009 A 
ATOM     85  C   UNL A   1      38.833  32.967  35.859  1.00  0.00     0.009 A 
ATOM     86  C   UNL A   1      40.175  33.960  38.095  1.00  0.00     0.001 A 
ATOM     87  C   UNL A   1      38.111  33.485  36.934  1.00  0.00     0.001 A 
ATOM     88  C   UNL A   1      38.781  33.969  38.056  1.00  0.00     0.000 A 
ENDBRANCH  70  83
ENDBRANCH  44  45
ENDBRANCH  36  39
ENDBRANCH  34  35
ENDBRANCH  33  34
ENDBRANCH  32  33
ENDBRANCH   1  32
TORSDOF 16
ENDMDL
MODEL 2
REMARK VINA RESULT:      -9.5      0.856      5.671
REMARK SMILES C[C@@H](C(=O)NCCCCNC(=O)c1ccc(-c2c3nc(c(-c4ccccc4)c4ccc([nH]4)c(-c4ccccc4)c4nc(c(-c5ccccc5)c5ccc2[nH]5)C=C4)C=C3)cc1)c1ccc(-c2cccc(OC(=O)Nc3ccccc3)c2)c(F)c1
REMARK SMILES IDX 6 1 5 2 3 3 4 4 2 6 1 7 61 8 62 9 83 10 63 11 81 12 64 13
REMARK SMILES IDX 82 14 65 15 66 16 80 17 67 18 69 19 68 20 70 21 71 22 72 23
REMARK SMILES IDX 73 24 74 26 75 27 79 28 76 29 78 30 77 31 7 32 8 33 9 34
REMARK SMILES IDX 10 35 11 36 12 38 13 39 14 40 60 41 15 42 59 43 16 44 17 45
REMARK SMILES IDX 18 46 53 47 19 48 58 49 52 50 54 51 20 52 57 53 51 54 50 55
REMARK SMILES IDX 21 57 43 58 28 59 42 60 29 61 32 62 41 63 55 64 30 65 31 66
REMARK SMILES IDX 40 68 56 69 33 70 22 71 23 72 27 73 24 74 26 75 25 76 44 77
REMARK SMILES IDX 45 78 49 79 46 80 48 81 47 82 34 83 35 84 39 85 36 86 38 87
REMARK SMILES IDX 37 88
REMARK H PARENT 5 5 73 25 10 37 54 56 32 67
REMARK Flexibility Score: inf
ROOT
ATOM      1  C   UNL A   1      43.827  23.324  24.482  1.00  0.00     0.116 C 
ENDROOT
BRANCH   1   2
ATOM      2  N   UNL A   1      42.580  22.963  25.120  1.00  0.00    -0.356 N 
ATOM      3  C   UNL A   1      42.018  23.440  26.270  1.00  0.00     0.227 C 
ATOM      4  O   UNL A   1      41.043  22.822  26.701  1.00  0.00    -0.274 OA
ATOM      5  H   UNL A   1      42.058  22.270  24.655  1.00  0.00     0.163 HD
BRANCH   3   6
ATOM      6  C   UNL A   1      42.576  24.717  26.935  1.00  0.00     0.105 C 
ATOM      7  C   UNL A   1      43.468  24.366  28.132  1.00  0.00     0.023 C 
BRANCH   6   8
ATOM      8  C   UNL A   1      41.458  25.700  27.296  1.00  0.00    -0.033 A 
ATOM      9  C   UNL A   1      41.252  26.903  26.604  1.00  0.00     0.005 A 
ATOM     10  C   UNL A   1      40.611  25.414  28.379  1.00  0.00     0.044 A 
ATOM     11  C   UNL A   1      40.251  27.797  26.992  1.00  0.00     0.012 A 
ATOM     12  C   UNL A   1      39.625  26.321  28.772  1.00  0.00     0.131 A 
ATOM     13  C   UNL A   1      39.432  27.531  28.095  1.00  0.00     0.018 A 
ATOM     14  F   UNL A   1      38.870  26.014  29.837  1.00  0.00    -0.206 F 
BRANCH  13  15
ATOM     15  C   UNL A   1      38.485  28.552  28.562  1.00  0.00    -0.012 A 
ATOM     16  C   UNL A   1      38.171  29.674  27.778  1.00  0.00     0.009 A 
ATOM     17  C   UNL A   1      37.951  28.464  29.858  1.00  0.00     0.056 A 
ATOM     18  C   UNL A   1      37.354  30.691  28.279  1.00  0.00     0.004 A 
ATOM     19  C   UNL A   1      37.161  29.490  30.364  1.00  0.00     0.133 A 
ATOM     20  C   UNL A   1      36.854  30.602  29.577  1.00  0.00     0.047 A 
BRANCH  19  21
ATOM     21  O   UNL A   1      36.644  29.523  31.681  1.00  0.00    -0.410 OA
BRANCH  21  22
ATOM     22  C   UNL A   1      37.345  29.228  32.849  1.00  0.00     0.417 C 
ATOM     23  O   UNL A   1      37.613  28.103  33.261  1.00  0.00    -0.224 OA
ATOM     24  N   UNL A   1      37.851  30.320  33.506  1.00  0.00    -0.291 N 
ATOM     25  H   UNL A   1      38.449  30.106  34.258  1.00  0.00     0.173 HD
BRANCH  24  26
ATOM     26  C   UNL A   1      37.657  31.691  33.284  1.00  0.00     0.044 A 
ATOM     27  C   UNL A   1      38.525  32.314  32.379  1.00  0.00     0.026 A 
ATOM     28  C   UNL A   1      36.683  32.458  33.927  1.00  0.00     0.026 A 
ATOM     29  C   UNL A   1      38.388  33.672  32.083  1.00  0.00     0.002 A 
ATOM     30  C   UNL A   1      36.558  33.820  33.643  1.00  0.00     0.002 A 
ATOM     31  C   UNL A   1      37.402  34.425  32.715  1.00  0.00     0.000 A 
ENDBRANCH  24  26
ENDBRANCH  21  22
ENDBRANCH  19  21
ENDBRANCH  13  15
ENDBRANCH   6   8
ENDBRANCH   3   6
ENDBRANCH   1   2
BRANCH   1  32
ATOM     32  C   UNL A   1      44.858  22.202  24.641  1.00  0.00     0.023 C 
BRANCH  32  33
ATOM     33  C   UNL A   1      46.304  22.680  24.789  1.00  0.00     0.023 C 
BRANCH  33  34
ATOM     34  C   UNL A   1      46.473  24.022  25.489  1.00  0.00     0.116 C 
BRANCH  34  35
ATOM     35  N   UNL A   1      47.114  25.019  24.650  1.00  0.00    -0.352 N 
ATOM     36  C   UNL A   1      47.043  26.387  24.714  1.00  0.00     0.251 C 
ATOM     37  H   UNL A   1      47.683  24.661  23.931  1.00  0.00     0.163 HD
ATOM     38  O   UNL A   1      47.557  27.066  23.830  1.00  0.00    -0.269 OA
BRANCH  36  39
ATOM     39  C   UNL A   1      46.320  27.044  25.823  1.00  0.00     0.039 A 
ATOM     40  C   UNL A   1      47.046  27.420  26.956  1.00  0.00     0.014 A 
ATOM     41  C   UNL A   1      44.944  27.282  25.760  1.00  0.00     0.014 A 
ATOM     42  C   UNL A   1      46.401  28.080  28.002  1.00  0.00     0.010 A 
ATOM     43  C   UNL A   1      44.317  28.008  26.771  1.00  0.00     0.010 A 
ATOM     44  C   UNL A   1      45.038  28.408  27.905  1.00  0.00    -0.014 A 
BRANCH  44  45
ATOM     45  C   UNL A   1      44.372  29.171  28.989  1.00  0.00     0.031 A 
ATOM     46  C   UNL A   1      43.947  28.489  30.259  1.00  0.00     0.074 A 
ATOM     47  C   UNL A   1      44.132  30.486  28.817  1.00  0.00     0.049 A 
ATOM     48  N   UNL A   1      43.393  29.007  31.327  1.00  0.00    -0.248 NA
ATOM     49  C   UNL A   1      44.150  27.033  30.336  1.00  0.00     0.031 C 
ATOM     50  C   UNL A   1      44.440  31.253  27.607  1.00  0.00     0.029 A 
ATOM     51  N   UNL A   1      43.581  31.412  29.666  1.00  0.00    -0.354 N 
ATOM     52  C   UNL A   1      43.186  27.946  32.198  1.00  0.00     0.074 A 
ATOM     53  C   UNL A   1      43.613  26.746  31.512  1.00  0.00     0.031 C 
ATOM     54  C   UNL A   1      44.109  32.539  27.806  1.00  0.00     0.029 A 
ATOM     55  C   UNL A   1      43.541  32.681  29.142  1.00  0.00     0.049 A 
ATOM     56  H   UNL A   1      43.247  31.188  30.564  1.00  0.00     0.167 HD
ATOM     57  C   UNL A   1      42.710  27.968  33.467  1.00  0.00     0.031 A 
ATOM     58  C   UNL A   1      43.103  33.835  29.681  1.00  0.00     0.031 A 
ATOM     59  C   UNL A   1      42.280  29.160  34.150  1.00  0.00     0.049 A 
ATOM     60  C   UNL A   1      42.583  33.833  31.091  1.00  0.00     0.074 A 
ATOM     61  C   UNL A   1      41.814  29.292  35.446  1.00  0.00     0.029 A 
ATOM     62  N   UNL A   1      42.264  30.427  33.589  1.00  0.00    -0.354 N 
ATOM     63  N   UNL A   1      42.464  32.831  31.927  1.00  0.00    -0.248 NA
ATOM     64  C   UNL A   1      42.159  35.130  31.637  1.00  0.00     0.031 C 
ATOM     65  C   UNL A   1      41.476  30.633  35.656  1.00  0.00     0.029 A 
ATOM     66  C   UNL A   1      41.782  31.345  34.508  1.00  0.00     0.049 A 
ATOM     67  H   UNL A   1      42.552  30.644  32.672  1.00  0.00     0.167 HD
ATOM     68  C   UNL A   1      41.971  33.379  33.104  1.00  0.00     0.074 A 
ATOM     69  C   UNL A   1      41.842  34.805  32.881  1.00  0.00     0.031 C 
ATOM     70  C   UNL A   1      41.650  32.757  34.266  1.00  0.00     0.031 A 
BRANCH  57  71
ATOM     71  C   UNL A   1      42.639  26.658  34.199  1.00  0.00    -0.014 A 
ATOM     72  C   UNL A   1      43.686  25.725  34.115  1.00  0.00     0.009 A 
ATOM     73  C   UNL A   1      41.533  26.362  35.011  1.00  0.00     0.009 A 
ATOM     74  C   UNL A   1      43.612  24.511  34.800  1.00  0.00     0.001 A 
ATOM     75  C   UNL A   1      41.474  25.160  35.718  1.00  0.00     0.001 A 
ATOM     76  C   UNL A   1      42.508  24.232  35.605  1.00  0.00     0.000 A 
ENDBRANCH  57  71
BRANCH  58  77
ATOM     77  C   UNL A   1      43.157  35.093  28.892  1.00  0.00    -0.014 A 
ATOM     78  C   UNL A   1      42.080  35.475  28.077  1.00  0.00     0.009 A 
ATOM     79  C   UNL A   1      44.295  35.912  28.940  1.00  0.00     0.009 A 
ATOM     80  C   UNL A   1      42.156  36.634  27.301  1.00  0.00     0.001 A 
ATOM     81  C   UNL A   1      44.356  37.087  28.188  1.00  0.00     0.001 A 
ATOM     82  C   UNL A   1      43.291  37.441  27.360  1.00  0.00     0.000 A 
ENDBRANCH  58  77
BRANCH  70  83
ATOM     83  C   UNL A   1      41.151  33.626  35.386  1.00  0.00    -0.014 A 
ATOM     84  C   UNL A   1      42.038  34.243  36.283  1.00  0.00     0.009 A 
ATOM     85  C   UNL A   1      39.772  33.839  35.540  1.00  0.00     0.009 A 
ATOM     86  C   UNL A   1      41.551  35.018  37.337  1.00  0.00     0.001 A 
ATOM     87  C   UNL A   1      39.290  34.639  36.575  1.00  0.00     0.001 A 
ATOM     88  C   UNL A   1      40.179  35.218  37.481  1.00  0.00     0.000 A 
ENDBRANCH  70  83
ENDBRANCH  44  45
ENDBRANCH  36  39
ENDBRANCH  34  35
ENDBRANCH  33  34
ENDBRANCH  32  33
ENDBRANCH   1  32
TORSDOF 16
ENDMDL
MODEL 3
REMARK VINA RESULT:      -9.2      1.943      2.804
REMARK SMILES C[C@@H](C(=O)NCCCCNC(=O)c1ccc(-c2c3nc(c(-c4ccccc4)c4ccc([nH]4)c(-c4ccccc4)c4nc(c(-c5ccccc5)c5ccc2[nH]5)C=C4)C=C3)cc1)c1ccc(-c2cccc(OC(=O)Nc3ccccc3)c2)c(F)c1
REMARK SMILES IDX 6 1 5 2 3 3 4 4 2 6 1 7 61 8 62 9 83 10 63 11 81 12 64 13
REMARK SMILES IDX 82 14 65 15 66 16 80 17 67 18 69 19 68 20 70 21 71 22 72 23
REMARK SMILES IDX 73 24 74 26 75 27 79 28 76 29 78 30 77 31 7 32 8 33 9 34
REMARK SMILES IDX 10 35 11 36 12 38 13 39 14 40 60 41 15 42 59 43 16 44 17 45
REMARK SMILES IDX 18 46 53 47 19 48 58 49 52 50 54 51 20 52 57 53 51 54 50 55
REMARK SMILES IDX 21 57 43 58 28 59 42 60 29 61 32 62 41 63 55 64 30 65 31 66
REMARK SMILES IDX 40 68 56 69 33 70 22 71 23 72 27 73 24 74 26 75 25 76 44 77
REMARK SMILES IDX 45 78 49 79 46 80 48 81 47 82 34 83 35 84 39 85 36 86 38 87
REMARK SMILES IDX 37 88
REMARK H PARENT 5 5 73 25 10 37 54 56 32 67
REMARK Flexibility Score: inf
ROOT
ATOM      1  C   UNL A   1      43.627  24.007  24.878  1.00  0.00     0.116 C 
ENDROOT
BRANCH   1   2
ATOM      2  N   UNL A   1      42.308  23.639  25.346  1.00  0.00    -0.356 N 
ATOM      3  C   UNL A   1      41.719  23.860  26.558  1.00  0.00     0.227 C 
ATOM      4  O   UNL A   1      40.660  23.268  26.770  1.00  0.00    -0.274 OA
ATOM      5  H   UNL A   1      41.753  23.155  24.693  1.00  0.00     0.163 HD
BRANCH   3   6
ATOM      6  C   UNL A   1      42.355  24.847  27.562  1.00  0.00     0.105 C 
ATOM      7  C   UNL A   1      42.802  24.120  28.836  1.00  0.00     0.023 C 
BRANCH   6   8
ATOM      8  C   UNL A   1      41.431  26.035  27.848  1.00  0.00    -0.033 A 
ATOM      9  C   UNL A   1      40.875  26.827  26.832  1.00  0.00     0.005 A 
ATOM     10  C   UNL A   1      41.139  26.376  29.179  1.00  0.00     0.044 A 
ATOM     11  C   UNL A   1      40.075  27.931  27.134  1.00  0.00     0.012 A 
ATOM     12  C   UNL A   1      40.353  27.492  29.472  1.00  0.00     0.131 A 
ATOM     13  C   UNL A   1      39.815  28.296  28.460  1.00  0.00     0.018 A 
ATOM     14  F   UNL A   1      40.139  27.794  30.762  1.00  0.00    -0.206 F 
BRANCH  13  15
ATOM     15  C   UNL A   1      39.088  29.539  28.745  1.00  0.00    -0.012 A 
ATOM     16  C   UNL A   1      39.709  30.620  29.391  1.00  0.00     0.009 A 
ATOM     17  C   UNL A   1      37.716  29.623  28.458  1.00  0.00     0.056 A 
ATOM     18  C   UNL A   1      38.976  31.753  29.753  1.00  0.00     0.004 A 
ATOM     19  C   UNL A   1      36.984  30.740  28.844  1.00  0.00     0.133 A 
ATOM     20  C   UNL A   1      37.610  31.811  29.485  1.00  0.00     0.047 A 
BRANCH  19  21
ATOM     21  O   UNL A   1      35.587  30.879  28.665  1.00  0.00    -0.410 OA
BRANCH  21  22
ATOM     22  C   UNL A   1      34.950  31.779  27.812  1.00  0.00     0.417 C 
ATOM     23  O   UNL A   1      35.186  32.981  27.731  1.00  0.00    -0.224 OA
ATOM     24  N   UNL A   1      34.066  31.209  26.932  1.00  0.00    -0.291 N 
ATOM     25  H   UNL A   1      33.712  31.824  26.250  1.00  0.00     0.173 HD
BRANCH  24  26
ATOM     26  C   UNL A   1      33.583  29.896  26.844  1.00  0.00     0.044 A 
ATOM     27  C   UNL A   1      32.274  29.673  27.284  1.00  0.00     0.026 A 
ATOM     28  C   UNL A   1      34.336  28.816  26.377  1.00  0.00     0.026 A 
ATOM     29  C   UNL A   1      31.707  28.398  27.211  1.00  0.00     0.002 A 
ATOM     30  C   UNL A   1      33.773  27.538  26.319  1.00  0.00     0.002 A 
ATOM     31  C   UNL A   1      32.457  27.331  26.726  1.00  0.00     0.000 A 
ENDBRANCH  24  26
ENDBRANCH  21  22
ENDBRANCH  19  21
ENDBRANCH  13  15
ENDBRANCH   6   8
ENDBRANCH   3   6
ENDBRANCH   1   2
BRANCH   1  32
ATOM     32  C   UNL A   1      44.628  22.879  25.145  1.00  0.00     0.023 C 
BRANCH  32  33
ATOM     33  C   UNL A   1      46.073  23.204  24.759  1.00  0.00     0.023 C 
BRANCH  33  34
ATOM     34  C   UNL A   1      46.685  24.393  25.489  1.00  0.00     0.116 C 
BRANCH  34  35
ATOM     35  N   UNL A   1      47.058  25.473  24.592  1.00  0.00    -0.352 N 
ATOM     36  C   UNL A   1      46.772  26.811  24.675  1.00  0.00     0.251 C 
ATOM     37  H   UNL A   1      47.594  25.205  23.811  1.00  0.00     0.163 HD
ATOM     38  O   UNL A   1      47.068  27.557  23.745  1.00  0.00    -0.269 OA
BRANCH  36  39
ATOM     39  C   UNL A   1      46.081  27.353  25.863  1.00  0.00     0.039 A 
ATOM     40  C   UNL A   1      46.849  27.701  26.977  1.00  0.00     0.014 A 
ATOM     41  C   UNL A   1      44.692  27.512  25.893  1.00  0.00     0.014 A 
ATOM     42  C   UNL A   1      46.232  28.254  28.098  1.00  0.00     0.010 A 
ATOM     43  C   UNL A   1      44.086  28.134  26.982  1.00  0.00     0.010 A 
ATOM     44  C   UNL A   1      44.849  28.504  28.098  1.00  0.00    -0.014 A 
BRANCH  44  45
ATOM     45  C   UNL A   1      44.206  29.157  29.265  1.00  0.00     0.031 A 
ATOM     46  C   UNL A   1      43.842  30.615  29.225  1.00  0.00     0.074 A 
ATOM     47  C   UNL A   1      43.964  28.432  30.376  1.00  0.00     0.049 A 
ATOM     48  N   UNL A   1      43.236  31.338  30.134  1.00  0.00    -0.248 NA
ATOM     49  C   UNL A   1      44.226  31.367  28.020  1.00  0.00     0.031 C 
ATOM     50  C   UNL A   1      44.324  27.024  30.562  1.00  0.00     0.029 A 
ATOM     51  N   UNL A   1      43.352  28.778  31.553  1.00  0.00    -0.354 N 
ATOM     52  C   UNL A   1      43.164  32.622  29.610  1.00  0.00     0.074 A 
ATOM     53  C   UNL A   1      43.844  32.596  28.333  1.00  0.00     0.031 C 
ATOM     54  C   UNL A   1      43.892  26.617  31.767  1.00  0.00     0.029 A 
ATOM     55  C   UNL A   1      43.253  27.739  32.446  1.00  0.00     0.049 A 
ATOM     56  H   UNL A   1      43.017  29.685  31.740  1.00  0.00     0.167 HD
ATOM     57  C   UNL A   1      42.563  33.719  30.129  1.00  0.00     0.031 A 
ATOM     58  C   UNL A   1      42.701  27.692  33.673  1.00  0.00     0.031 A 
ATOM     59  C   UNL A   1      41.890  33.749  31.401  1.00  0.00     0.049 A 
ATOM     60  C   UNL A   1      42.036  28.922  34.224  1.00  0.00     0.074 A 
ATOM     61  C   UNL A   1      41.221  34.802  32.000  1.00  0.00     0.029 A 
ATOM     62  N   UNL A   1      41.802  32.674  32.271  1.00  0.00    -0.354 N 
ATOM     63  N   UNL A   1      41.912  30.109  33.681  1.00  0.00    -0.248 NA
ATOM     64  C   UNL A   1      41.415  28.796  35.550  1.00  0.00     0.031 C 
ATOM     65  C   UNL A   1      40.765  34.376  33.252  1.00  0.00     0.029 A 
ATOM     66  C   UNL A   1      41.103  33.042  33.409  1.00  0.00     0.049 A 
ATOM     67  H   UNL A   1      42.182  31.780  32.106  1.00  0.00     0.167 HD
ATOM     68  C   UNL A   1      41.182  30.865  34.589  1.00  0.00     0.074 A 
ATOM     69  C   UNL A   1      40.867  29.993  35.703  1.00  0.00     0.031 C 
ATOM     70  C   UNL A   1      40.808  32.166  34.511  1.00  0.00     0.031 A 
BRANCH  57  71
ATOM     71  C   UNL A   1      42.601  34.979  29.310  1.00  0.00    -0.014 A 
ATOM     72  C   UNL A   1      43.668  35.885  29.427  1.00  0.00     0.009 A 
ATOM     73  C   UNL A   1      41.581  35.250  28.384  1.00  0.00     0.009 A 
ATOM     74  C   UNL A   1      43.695  37.052  28.661  1.00  0.00     0.001 A 
ATOM     75  C   UNL A   1      41.626  36.403  27.598  1.00  0.00     0.001 A 
ATOM     76  C   UNL A   1      42.678  37.307  27.743  1.00  0.00     0.000 A 
ENDBRANCH  57  71
BRANCH  58  77
ATOM     77  C   UNL A   1      42.732  26.430  34.456  1.00  0.00    -0.014 A 
ATOM     78  C   UNL A   1      41.546  25.856  34.938  1.00  0.00     0.009 A 
ATOM     79  C   UNL A   1      43.954  25.799  34.736  1.00  0.00     0.009 A 
ATOM     80  C   UNL A   1      41.586  24.695  35.714  1.00  0.00     0.001 A 
ATOM     81  C   UNL A   1      43.989  24.621  35.484  1.00  0.00     0.001 A 
ATOM     82  C   UNL A   1      42.806  24.076  35.983  1.00  0.00     0.000 A 
ENDBRANCH  58  77
BRANCH  70  83
ATOM     83  C   UNL A   1      39.998  32.709  35.654  1.00  0.00    -0.014 A 
ATOM     84  C   UNL A   1      38.598  32.605  35.672  1.00  0.00     0.009 A 
ATOM     85  C   UNL A   1      40.647  33.326  36.736  1.00  0.00     0.009 A 
ATOM     86  C   UNL A   1      37.862  33.148  36.727  1.00  0.00     0.001 A 
ATOM     87  C   UNL A   1      39.911  33.840  37.803  1.00  0.00     0.001 A 
ATOM     88  C   UNL A   1      38.519  33.763  37.792  1.00  0.00     0.000 A 
ENDBRANCH  70  83
ENDBRANCH  44  45
ENDBRANCH  36  39
ENDBRANCH  34  35
ENDBRANCH  33  34
ENDBRANCH  32  33
ENDBRANCH   1  32
TORSDOF 16
ENDMDL
