MODEL 1
REMARK VINA RESULT:     -11.2      0.000      0.000
REMARK SMILES CC(C)[NH2+][C@]1(C(=O)NCCCCNC(=O)c2ccc(-c3c4nc(c(-c5ccccc5)c5ccc([nH]5)c(-c5ccccc5)c5nc(c(-c6ccccc6)c6ccc3[nH]6)C=C5)C=C4)cc2)CC[C@@H](Oc2cc(F)ccc2F)C1
REMARK SMILES IDX 10 1 9 2 8 3 6 4 7 5 5 7 64 8 76 9 65 10 66 11 4 12 2 15
REMARK SMILES IDX 1 16 3 17 67 18 68 19 69 20 74 21 70 22 73 23 75 24 71 25
REMARK SMILES IDX 72 26 11 27 12 28 13 29 14 30 15 32 16 33 17 34 63 35 18 36
REMARK SMILES IDX 62 37 19 38 20 39 21 40 56 41 22 42 61 43 55 44 57 45 23 46
REMARK SMILES IDX 60 47 54 48 53 49 24 51 46 52 31 53 45 54 32 55 35 56 44 57
REMARK SMILES IDX 58 58 33 59 34 60 43 62 59 63 36 64 25 65 26 66 30 67 27 68
REMARK SMILES IDX 29 69 28 70 47 71 48 72 52 73 49 74 51 75 50 76 37 77 38 78
REMARK SMILES IDX 42 79 39 80 41 81 40 82
REMARK H PARENT 8 6 4 13 4 14 13 31 57 50 35 61
REMARK Flexibility Score: inf
ROOT
ATOM      1  C   UNL A   1      32.400  29.045  27.025  1.00  0.00     0.023 C 
ENDROOT
BRANCH   1   2
ATOM      2  C   UNL A   1      33.550  28.290  26.373  1.00  0.00     0.116 C 
BRANCH   2   3
ATOM      3  N   UNL A   1      33.971  28.844  25.102  1.00  0.00    -0.351 N 
ATOM      4  C   UNL A   1      33.773  28.332  23.843  1.00  0.00     0.281 C 
ATOM      5  O   UNL A   1      34.195  28.993  22.891  1.00  0.00    -0.268 OA
ATOM      6  H   UNL A   1      34.460  29.698  25.147  1.00  0.00     0.163 HD
BRANCH   4   7
ATOM      7  C   UNL A   1      33.062  26.953  23.661  1.00  0.00     0.179 C 
ATOM      8  C   UNL A   1      33.001  26.653  22.138  1.00  0.00     0.083 C 
ATOM      9  C   UNL A   1      33.902  25.749  24.157  1.00  0.00     0.124 C 
ATOM     10  C   UNL A   1      32.854  25.151  22.010  1.00  0.00     0.052 C 
ATOM     11  C   UNL A   1      33.698  24.600  23.154  1.00  0.00     0.180 C 
BRANCH   7  12
ATOM     12  N   UNL A   1      31.704  26.946  24.279  1.00  0.00    -0.332 N 
ATOM     13  H   UNL A   1      31.464  25.977  24.489  1.00  0.00     0.347 HD
ATOM     14  H   UNL A   1      31.776  27.552  25.096  1.00  0.00     0.347 HD
BRANCH  12  15
ATOM     15  C   UNL A   1      30.605  27.514  23.469  1.00  0.00     0.176 C 
ATOM     16  C   UNL A   1      29.336  26.712  23.772  1.00  0.00     0.075 C 
ATOM     17  C   UNL A   1      30.343  28.999  23.705  1.00  0.00     0.075 C 
ENDBRANCH  12  15
ENDBRANCH   7  12
BRANCH  11  18
ATOM     18  O   UNL A   1      34.880  23.880  22.772  1.00  0.00    -0.487 OA
BRANCH  18  19
ATOM     19  C   UNL A   1      35.356  22.943  23.647  1.00  0.00     0.158 A 
ATOM     20  C   UNL A   1      36.708  22.946  23.982  1.00  0.00     0.088 A 
ATOM     21  C   UNL A   1      34.552  21.879  24.067  1.00  0.00     0.165 A 
ATOM     22  C   UNL A   1      37.212  21.941  24.805  1.00  0.00     0.127 A 
ATOM     23  C   UNL A   1      35.054  20.885  24.903  1.00  0.00     0.046 A 
ATOM     24  F   UNL A   1      33.284  21.777  23.644  1.00  0.00    -0.203 F 
ATOM     25  F   UNL A   1      38.511  21.947  25.131  1.00  0.00    -0.207 F 
ATOM     26  C   UNL A   1      36.395  20.920  25.281  1.00  0.00     0.042 A 
ENDBRANCH  18  19
ENDBRANCH  11  18
ENDBRANCH   4   7
ENDBRANCH   2   3
ENDBRANCH   1   2
BRANCH   1  27
ATOM     27  C   UNL A   1      32.229  30.494  26.594  1.00  0.00     0.023 C 
BRANCH  27  28
ATOM     28  C   UNL A   1      33.212  31.484  27.202  1.00  0.00     0.116 C 
BRANCH  28  29
ATOM     29  N   UNL A   1      32.630  32.773  27.555  1.00  0.00    -0.352 N 
ATOM     30  C   UNL A   1      33.179  33.788  28.302  1.00  0.00     0.251 C 
ATOM     31  H   UNL A   1      31.722  32.938  27.213  1.00  0.00     0.163 HD
ATOM     32  O   UNL A   1      32.561  34.824  28.511  1.00  0.00    -0.269 OA
BRANCH  30  33
ATOM     33  C   UNL A   1      34.504  33.574  28.911  1.00  0.00     0.039 A 
ATOM     34  C   UNL A   1      34.575  32.851  30.103  1.00  0.00     0.014 A 
ATOM     35  C   UNL A   1      35.664  33.970  28.240  1.00  0.00     0.014 A 
ATOM     36  C   UNL A   1      35.818  32.435  30.575  1.00  0.00     0.010 A 
ATOM     37  C   UNL A   1      36.892  33.483  28.666  1.00  0.00     0.010 A 
ATOM     38  C   UNL A   1      36.979  32.702  29.831  1.00  0.00    -0.014 A 
BRANCH  38  39
ATOM     39  C   UNL A   1      38.295  32.164  30.246  1.00  0.00     0.031 A 
ATOM     40  C   UNL A   1      38.777  30.857  29.688  1.00  0.00     0.074 A 
ATOM     41  C   UNL A   1      39.018  32.813  31.180  1.00  0.00     0.049 A 
ATOM     42  N   UNL A   1      39.863  30.187  29.977  1.00  0.00    -0.248 NA
ATOM     43  C   UNL A   1      37.908  30.197  28.699  1.00  0.00     0.031 C 
ATOM     44  C   UNL A   1      38.632  34.061  31.842  1.00  0.00     0.029 A 
ATOM     45  N   UNL A   1      40.232  32.504  31.740  1.00  0.00    -0.354 N 
ATOM     46  C   UNL A   1      39.791  29.019  29.229  1.00  0.00     0.074 A 
ATOM     47  C   UNL A   1      38.536  29.048  28.512  1.00  0.00     0.031 C 
ATOM     48  C   UNL A   1      39.605  34.428  32.692  1.00  0.00     0.029 A 
ATOM     49  C   UNL A   1      40.665  33.426  32.660  1.00  0.00     0.049 A 
ATOM     50  H   UNL A   1      40.744  31.696  31.504  1.00  0.00     0.167 HD
ATOM     51  C   UNL A   1      40.701  28.021  29.129  1.00  0.00     0.031 A 
ATOM     52  C   UNL A   1      41.792  33.461  33.394  1.00  0.00     0.031 A 
ATOM     53  C   UNL A   1      41.961  28.006  29.817  1.00  0.00     0.049 A 
ATOM     54  C   UNL A   1      42.800  32.357  33.244  1.00  0.00     0.074 A 
ATOM     55  C   UNL A   1      42.981  27.076  29.731  1.00  0.00     0.029 A 
ATOM     56  N   UNL A   1      42.377  28.977  30.715  1.00  0.00    -0.354 N 
ATOM     57  N   UNL A   1      42.749  31.293  32.480  1.00  0.00    -0.248 NA
ATOM     58  C   UNL A   1      44.025  32.466  34.047  1.00  0.00     0.031 C 
ATOM     59  C   UNL A   1      44.003  27.466  30.603  1.00  0.00     0.029 A 
ATOM     60  C   UNL A   1      43.634  28.661  31.199  1.00  0.00     0.049 A 
ATOM     61  H   UNL A   1      41.855  29.772  30.970  1.00  0.00     0.167 HD
ATOM     62  C   UNL A   1      43.943  30.618  32.691  1.00  0.00     0.074 A 
ATOM     63  C   UNL A   1      44.704  31.401  33.645  1.00  0.00     0.031 C 
ATOM     64  C   UNL A   1      44.373  29.456  32.145  1.00  0.00     0.031 A 
BRANCH  51  65
ATOM     65  C   UNL A   1      40.351  26.865  28.237  1.00  0.00    -0.014 A 
ATOM     66  C   UNL A   1      39.520  25.826  28.687  1.00  0.00     0.009 A 
ATOM     67  C   UNL A   1      40.851  26.818  26.927  1.00  0.00     0.009 A 
ATOM     68  C   UNL A   1      39.231  24.742  27.857  1.00  0.00     0.001 A 
ATOM     69  C   UNL A   1      40.537  25.746  26.090  1.00  0.00     0.001 A 
ATOM     70  C   UNL A   1      39.737  24.705  26.558  1.00  0.00     0.000 A 
ENDBRANCH  51  65
BRANCH  52  71
ATOM     71  C   UNL A   1      42.049  34.598  34.315  1.00  0.00    -0.014 A 
ATOM     72  C   UNL A   1      42.658  35.770  33.840  1.00  0.00     0.009 A 
ATOM     73  C   UNL A   1      41.691  34.519  35.670  1.00  0.00     0.009 A 
ATOM     74  C   UNL A   1      42.928  36.830  34.709  1.00  0.00     0.001 A 
ATOM     75  C   UNL A   1      41.942  35.589  36.531  1.00  0.00     0.001 A 
ATOM     76  C   UNL A   1      42.567  36.740  36.053  1.00  0.00     0.000 A 
ENDBRANCH  52  71
BRANCH  64  77
ATOM     77  C   UNL A   1      45.739  28.978  32.541  1.00  0.00    -0.014 A 
ATOM     78  C   UNL A   1      46.883  29.380  31.833  1.00  0.00     0.009 A 
ATOM     79  C   UNL A   1      45.886  28.147  33.663  1.00  0.00     0.009 A 
ATOM     80  C   UNL A   1      48.146  28.938  32.228  1.00  0.00     0.001 A 
ATOM     81  C   UNL A   1      47.152  27.726  34.068  1.00  0.00     0.001 A 
ATOM     82  C   UNL A   1      48.280  28.116  33.346  1.00  0.00     0.000 A 
ENDBRANCH  64  77
ENDBRANCH  38  39
ENDBRANCH  30  33
ENDBRANCH  28  29
ENDBRANCH  27  28
ENDBRANCH   1  27
TORSDOF 15
ENDMDL
MODEL 2
REMARK VINA RESULT:     -11.1      0.543      5.857
REMARK SMILES CC(C)[NH2+][C@]1(C(=O)NCCCCNC(=O)c2ccc(-c3c4nc(c(-c5ccccc5)c5ccc([nH]5)c(-c5ccccc5)c5nc(c(-c6ccccc6)c6ccc3[nH]6)C=C5)C=C4)cc2)CC[C@@H](Oc2cc(F)ccc2F)C1
REMARK SMILES IDX 10 1 9 2 8 3 6 4 7 5 5 7 64 8 76 9 65 10 66 11 4 12 2 15
REMARK SMILES IDX 1 16 3 17 67 18 68 19 69 20 74 21 70 22 73 23 75 24 71 25
REMARK SMILES IDX 72 26 11 27 12 28 13 29 14 30 15 32 16 33 17 34 63 35 18 36
REMARK SMILES IDX 62 37 19 38 20 39 21 40 56 41 22 42 61 43 55 44 57 45 23 46
REMARK SMILES IDX 60 47 54 48 53 49 24 51 46 52 31 53 45 54 32 55 35 56 44 57
REMARK SMILES IDX 58 58 33 59 34 60 43 62 59 63 36 64 25 65 26 66 30 67 27 68
REMARK SMILES IDX 29 69 28 70 47 71 48 72 52 73 49 74 51 75 50 76 37 77 38 78
REMARK SMILES IDX 42 79 39 80 41 81 40 82
REMARK H PARENT 8 6 4 13 4 14 13 31 57 50 35 61
REMARK Flexibility Score: inf
ROOT
ATOM      1  C   UNL A   1      32.002  30.057  25.473  1.00  0.00     0.023 C 
ENDROOT
BRANCH   1   2
ATOM      2  C   UNL A   1      33.122  29.058  25.218  1.00  0.00     0.116 C 
BRANCH   2   3
ATOM      3  N   UNL A   1      33.699  29.148  23.891  1.00  0.00    -0.351 N 
ATOM      4  C   UNL A   1      33.688  28.205  22.893  1.00  0.00     0.281 C 
ATOM      5  O   UNL A   1      34.219  28.508  21.822  1.00  0.00    -0.268 OA
ATOM      6  H   UNL A   1      34.156  29.994  23.678  1.00  0.00     0.163 HD
BRANCH   4   7
ATOM      7  C   UNL A   1      33.042  26.804  23.145  1.00  0.00     0.179 C 
ATOM      8  C   UNL A   1      32.796  26.145  21.761  1.00  0.00     0.083 C 
ATOM      9  C   UNL A   1      34.013  25.778  23.783  1.00  0.00     0.124 C 
ATOM     10  C   UNL A   1      32.724  24.653  22.012  1.00  0.00     0.052 C 
ATOM     11  C   UNL A   1      33.745  24.416  23.118  1.00  0.00     0.180 C 
BRANCH   7  12
ATOM     12  N   UNL A   1      31.783  26.911  23.938  1.00  0.00    -0.332 N 
ATOM     13  H   UNL A   1      31.723  26.087  24.536  1.00  0.00     0.347 HD
ATOM     14  H   UNL A   1      31.854  27.796  24.439  1.00  0.00     0.347 HD
BRANCH  12  15
ATOM     15  C   UNL A   1      30.523  26.999  23.169  1.00  0.00     0.176 C 
ATOM     16  C   UNL A   1      29.450  26.224  23.938  1.00  0.00     0.075 C 
ATOM     17  C   UNL A   1      30.038  28.422  22.902  1.00  0.00     0.075 C 
ENDBRANCH  12  15
ENDBRANCH   7  12
BRANCH  11  18
ATOM     18  O   UNL A   1      34.906  23.656  22.749  1.00  0.00    -0.487 OA
BRANCH  18  19
ATOM     19  C   UNL A   1      35.372  22.741  23.652  1.00  0.00     0.158 A 
ATOM     20  C   UNL A   1      36.730  22.721  23.966  1.00  0.00     0.088 A 
ATOM     21  C   UNL A   1      34.548  21.716  24.124  1.00  0.00     0.165 A 
ATOM     22  C   UNL A   1      37.221  21.735  24.818  1.00  0.00     0.127 A 
ATOM     23  C   UNL A   1      35.038  20.741  24.990  1.00  0.00     0.046 A 
ATOM     24  F   UNL A   1      33.271  21.631  23.726  1.00  0.00    -0.203 F 
ATOM     25  F   UNL A   1      38.525  21.719  25.124  1.00  0.00    -0.207 F 
ATOM     26  C   UNL A   1      36.386  20.754  25.346  1.00  0.00     0.042 A 
ENDBRANCH  18  19
ENDBRANCH  11  18
ENDBRANCH   4   7
ENDBRANCH   2   3
ENDBRANCH   1   2
BRANCH   1  27
ATOM     27  C   UNL A   1      31.973  30.681  26.861  1.00  0.00     0.023 C 
BRANCH  27  28
ATOM     28  C   UNL A   1      33.056  31.711  27.144  1.00  0.00     0.116 C 
BRANCH  28  29
ATOM     29  N   UNL A   1      32.554  33.016  27.557  1.00  0.00    -0.352 N 
ATOM     30  C   UNL A   1      33.170  33.966  28.338  1.00  0.00     0.251 C 
ATOM     31  H   UNL A   1      31.654  33.248  27.234  1.00  0.00     0.163 HD
ATOM     32  O   UNL A   1      32.615  35.026  28.598  1.00  0.00    -0.269 OA
BRANCH  30  33
ATOM     33  C   UNL A   1      34.487  33.650  28.920  1.00  0.00     0.039 A 
ATOM     34  C   UNL A   1      34.528  32.881  30.083  1.00  0.00     0.014 A 
ATOM     35  C   UNL A   1      35.660  34.000  28.247  1.00  0.00     0.014 A 
ATOM     36  C   UNL A   1      35.749  32.374  30.522  1.00  0.00     0.010 A 
ATOM     37  C   UNL A   1      36.861  33.425  28.637  1.00  0.00     0.010 A 
ATOM     38  C   UNL A   1      36.915  32.598  29.772  1.00  0.00    -0.014 A 
BRANCH  38  39
ATOM     39  C   UNL A   1      38.201  31.966  30.148  1.00  0.00     0.031 A 
ATOM     40  C   UNL A   1      39.142  32.682  31.074  1.00  0.00     0.074 A 
ATOM     41  C   UNL A   1      38.554  30.788  29.597  1.00  0.00     0.049 A 
ATOM     42  N   UNL A   1      40.339  32.330  31.466  1.00  0.00    -0.248 NA
ATOM     43  C   UNL A   1      38.692  33.981  31.601  1.00  0.00     0.031 C 
ATOM     44  C   UNL A   1      37.754  30.021  28.639  1.00  0.00     0.029 A 
ATOM     45  N   UNL A   1      39.687  30.031  29.763  1.00  0.00    -0.354 N 
ATOM     46  C   UNL A   1      40.793  33.375  32.261  1.00  0.00     0.074 A 
ATOM     47  C   UNL A   1      39.766  34.392  32.255  1.00  0.00     0.031 C 
ATOM     48  C   UNL A   1      38.406  28.888  28.329  1.00  0.00     0.029 A 
ATOM     49  C   UNL A   1      39.681  28.865  29.038  1.00  0.00     0.049 A 
ATOM     50  H   UNL A   1      40.434  30.299  30.346  1.00  0.00     0.167 HD
ATOM     51  C   UNL A   1      41.953  33.469  32.953  1.00  0.00     0.031 A 
ATOM     52  C   UNL A   1      40.600  27.886  28.955  1.00  0.00     0.031 A 
ATOM     53  C   UNL A   1      42.959  32.445  32.984  1.00  0.00     0.049 A 
ATOM     54  C   UNL A   1      41.866  27.999  29.757  1.00  0.00     0.074 A 
ATOM     55  C   UNL A   1      44.137  32.415  33.708  1.00  0.00     0.029 A 
ATOM     56  N   UNL A   1      42.900  31.263  32.262  1.00  0.00    -0.354 N 
ATOM     57  N   UNL A   1      42.250  28.963  30.558  1.00  0.00    -0.248 NA
ATOM     58  C   UNL A   1      42.817  26.884  29.651  1.00  0.00     0.031 C 
ATOM     59  C   UNL A   1      44.809  31.227  33.399  1.00  0.00     0.029 A 
ATOM     60  C   UNL A   1      44.027  30.502  32.514  1.00  0.00     0.049 A 
ATOM     61  H   UNL A   1      42.165  31.005  31.659  1.00  0.00     0.167 HD
ATOM     62  C   UNL A   1      43.476  28.560  31.072  1.00  0.00     0.074 A 
ATOM     63  C   UNL A   1      43.763  27.260  30.501  1.00  0.00     0.031 C 
ATOM     64  C   UNL A   1      44.290  29.209  31.938  1.00  0.00     0.031 A 
BRANCH  51  65
ATOM     65  C   UNL A   1      42.182  34.731  33.733  1.00  0.00    -0.014 A 
ATOM     66  C   UNL A   1      41.783  34.836  35.076  1.00  0.00     0.009 A 
ATOM     67  C   UNL A   1      42.812  35.825  33.122  1.00  0.00     0.009 A 
ATOM     68  C   UNL A   1      41.973  36.027  35.778  1.00  0.00     0.001 A 
ATOM     69  C   UNL A   1      43.026  37.006  33.837  1.00  0.00     0.001 A 
ATOM     70  C   UNL A   1      42.597  37.109  35.159  1.00  0.00     0.000 A 
ENDBRANCH  51  65
BRANCH  52  71
ATOM     71  C   UNL A   1      40.346  26.692  28.109  1.00  0.00    -0.014 A 
ATOM     72  C   UNL A   1      40.876  26.620  26.811  1.00  0.00     0.009 A 
ATOM     73  C   UNL A   1      39.573  25.624  28.587  1.00  0.00     0.009 A 
ATOM     74  C   UNL A   1      40.616  25.512  26.001  1.00  0.00     0.001 A 
ATOM     75  C   UNL A   1      39.333  24.508  27.782  1.00  0.00     0.001 A 
ATOM     76  C   UNL A   1      39.847  24.456  26.487  1.00  0.00     0.000 A 
ENDBRANCH  52  71
BRANCH  64  77
ATOM     77  C   UNL A   1      45.553  28.507  32.346  1.00  0.00    -0.014 A 
ATOM     78  C   UNL A   1      46.753  28.709  31.647  1.00  0.00     0.009 A 
ATOM     79  C   UNL A   1      45.548  27.668  33.470  1.00  0.00     0.009 A 
ATOM     80  C   UNL A   1      47.920  28.060  32.052  1.00  0.00     0.001 A 
ATOM     81  C   UNL A   1      46.721  27.039  33.887  1.00  0.00     0.001 A 
ATOM     82  C   UNL A   1      47.904  27.230  33.173  1.00  0.00     0.000 A 
ENDBRANCH  64  77
ENDBRANCH  38  39
ENDBRANCH  30  33
ENDBRANCH  28  29
ENDBRANCH  27  28
ENDBRANCH   1  27
TORSDOF 15
ENDMDL
MODEL 3
REMARK VINA RESULT:     -11.0      3.266      8.384
REMARK SMILES CC(C)[NH2+][C@]1(C(=O)NCCCCNC(=O)c2ccc(-c3c4nc(c(-c5ccccc5)c5ccc([nH]5)c(-c5ccccc5)c5nc(c(-c6ccccc6)c6ccc3[nH]6)C=C5)C=C4)cc2)CC[C@@H](Oc2cc(F)ccc2F)C1
REMARK SMILES IDX 10 1 9 2 8 3 6 4 7 5 5 7 64 8 76 9 65 10 66 11 4 12 2 15
REMARK SMILES IDX 1 16 3 17 67 18 68 19 69 20 74 21 70 22 73 23 75 24 71 25
REMARK SMILES IDX 72 26 11 27 12 28 13 29 14 30 15 32 16 33 17 34 63 35 18 36
REMARK SMILES IDX 62 37 19 38 20 39 21 40 56 41 22 42 61 43 55 44 57 45 23 46
REMARK SMILES IDX 60 47 54 48 53 49 24 51 46 52 31 53 45 54 32 55 35 56 44 57
REMARK SMILES IDX 58 58 33 59 34 60 43 62 59 63 36 64 25 65 26 66 30 67 27 68
REMARK SMILES IDX 29 69 28 70 47 71 48 72 52 73 49 74 51 75 50 76 37 77 38 78
REMARK SMILES IDX 42 79 39 80 41 81 40 82
REMARK H PARENT 8 6 4 13 4 14 13 31 57 50 35 61
REMARK Flexibility Score: inf
ROOT
ATOM      1  C   UNL A   1      36.960  22.222  23.939  1.00  0.00     0.023 C 
ENDROOT
BRANCH   1   2
ATOM      2  C   UNL A   1      36.422  23.536  24.490  1.00  0.00     0.116 C 
BRANCH   2   3
ATOM      3  N   UNL A   1      35.646  23.390  25.705  1.00  0.00    -0.351 N 
ATOM      4  C   UNL A   1      34.280  23.354  25.844  1.00  0.00     0.281 C 
ATOM      5  O   UNL A   1      33.831  23.190  26.981  1.00  0.00    -0.268 OA
ATOM      6  H   UNL A   1      36.165  23.304  26.538  1.00  0.00     0.163 HD
BRANCH   4   7
ATOM      7  C   UNL A   1      33.360  23.540  24.595  1.00  0.00     0.179 C 
ATOM      8  C   UNL A   1      31.903  23.702  25.105  1.00  0.00     0.083 C 
ATOM      9  C   UNL A   1      33.563  24.895  23.870  1.00  0.00     0.124 C 
ATOM     10  C   UNL A   1      31.149  24.424  24.006  1.00  0.00     0.052 C 
ATOM     11  C   UNL A   1      32.174  25.398  23.436  1.00  0.00     0.180 C 
BRANCH   7  12
ATOM     12  N   UNL A   1      33.487  22.401  23.639  1.00  0.00    -0.332 N 
ATOM     13  H   UNL A   1      33.153  22.720  22.730  1.00  0.00     0.347 HD
ATOM     14  H   UNL A   1      34.473  22.139  23.661  1.00  0.00     0.347 HD
BRANCH  12  15
ATOM     15  C   UNL A   1      32.749  21.166  23.980  1.00  0.00     0.176 C 
ATOM     16  C   UNL A   1      32.098  20.641  22.698  1.00  0.00     0.075 C 
ATOM     17  C   UNL A   1      33.602  20.068  24.611  1.00  0.00     0.075 C 
ENDBRANCH  12  15
ENDBRANCH   7  12
BRANCH  11  18
ATOM     18  O   UNL A   1      31.910  26.791  23.662  1.00  0.00    -0.487 OA
BRANCH  18  19
ATOM     19  C   UNL A   1      32.367  27.337  24.828  1.00  0.00     0.158 A 
ATOM     20  C   UNL A   1      31.517  27.406  25.930  1.00  0.00     0.088 A 
ATOM     21  C   UNL A   1      33.604  27.987  24.880  1.00  0.00     0.165 A 
ATOM     22  C   UNL A   1      31.952  28.039  27.092  1.00  0.00     0.127 A 
ATOM     23  C   UNL A   1      34.043  28.605  26.049  1.00  0.00     0.046 A 
ATOM     24  F   UNL A   1      34.382  28.056  23.791  1.00  0.00    -0.203 F 
ATOM     25  F   UNL A   1      31.137  28.101  28.153  1.00  0.00    -0.207 F 
ATOM     26  C   UNL A   1      33.213  28.625  27.168  1.00  0.00     0.042 A 
ENDBRANCH  18  19
ENDBRANCH  11  18
ENDBRANCH   4   7
ENDBRANCH   2   3
ENDBRANCH   1   2
BRANCH   1  27
ATOM     27  C   UNL A   1      37.207  21.125  24.964  1.00  0.00     0.023 C 
BRANCH  27  28
ATOM     28  C   UNL A   1      38.504  21.238  25.752  1.00  0.00     0.116 C 
BRANCH  28  29
ATOM     29  N   UNL A   1      39.394  20.091  25.615  1.00  0.00    -0.352 N 
ATOM     30  C   UNL A   1      40.705  19.969  26.012  1.00  0.00     0.251 C 
ATOM     31  H   UNL A   1      39.004  19.299  25.181  1.00  0.00     0.163 HD
ATOM     32  O   UNL A   1      41.325  18.929  25.830  1.00  0.00    -0.269 OA
BRANCH  30  33
ATOM     33  C   UNL A   1      41.373  21.144  26.598  1.00  0.00     0.039 A 
ATOM     34  C   UNL A   1      41.916  22.095  25.733  1.00  0.00     0.014 A 
ATOM     35  C   UNL A   1      41.345  21.360  27.978  1.00  0.00     0.014 A 
ATOM     36  C   UNL A   1      42.343  23.318  26.246  1.00  0.00     0.010 A 
ATOM     37  C   UNL A   1      41.691  22.609  28.475  1.00  0.00     0.010 A 
ATOM     38  C   UNL A   1      42.182  23.603  27.612  1.00  0.00    -0.014 A 
BRANCH  38  39
ATOM     39  C   UNL A   1      42.512  24.940  28.159  1.00  0.00     0.031 A 
ATOM     40  C   UNL A   1      43.921  25.252  28.569  1.00  0.00     0.074 A 
ATOM     41  C   UNL A   1      41.530  25.842  28.358  1.00  0.00     0.049 A 
ATOM     42  N   UNL A   1      44.397  26.334  29.131  1.00  0.00    -0.248 NA
ATOM     43  C   UNL A   1      44.925  24.197  28.350  1.00  0.00     0.031 C 
ATOM     44  C   UNL A   1      40.111  25.638  28.055  1.00  0.00     0.029 A 
ATOM     45  N   UNL A   1      41.579  27.114  28.869  1.00  0.00    -0.354 N 
ATOM     46  C   UNL A   1      45.743  26.077  29.357  1.00  0.00     0.074 A 
ATOM     47  C   UNL A   1      45.998  24.724  28.917  1.00  0.00     0.031 C 
ATOM     48  C   UNL A   1      39.432  26.757  28.356  1.00  0.00     0.029 A 
ATOM     49  C   UNL A   1      40.359  27.742  28.901  1.00  0.00     0.049 A 
ATOM     50  H   UNL A   1      42.412  27.536  29.184  1.00  0.00     0.167 HD
ATOM     51  C   UNL A   1      46.688  26.903  29.864  1.00  0.00     0.031 A 
ATOM     52  C   UNL A   1      40.025  28.976  29.322  1.00  0.00     0.031 A 
ATOM     53  C   UNL A   1      46.442  28.258  30.270  1.00  0.00     0.049 A 
ATOM     54  C   UNL A   1      41.099  29.885  29.853  1.00  0.00     0.074 A 
ATOM     55  C   UNL A   1      47.345  29.198  30.733  1.00  0.00     0.029 A 
ATOM     56  N   UNL A   1      45.197  28.868  30.256  1.00  0.00    -0.354 N 
ATOM     57  N   UNL A   1      42.380  29.651  29.996  1.00  0.00    -0.248 NA
ATOM     58  C   UNL A   1      40.679  31.231  30.267  1.00  0.00     0.031 C 
ATOM     59  C   UNL A   1      46.641  30.370  31.029  1.00  0.00     0.029 A 
ATOM     60  C   UNL A   1      45.307  30.169  30.712  1.00  0.00     0.049 A 
ATOM     61  H   UNL A   1      44.361  28.439  29.965  1.00  0.00     0.167 HD
ATOM     62  C   UNL A   1      42.926  30.827  30.493  1.00  0.00     0.074 A 
ATOM     63  C   UNL A   1      41.837  31.776  30.614  1.00  0.00     0.031 C 
ATOM     64  C   UNL A   1      44.212  31.097  30.820  1.00  0.00     0.031 A 
BRANCH  51  65
ATOM     65  C   UNL A   1      48.077  26.349  29.999  1.00  0.00    -0.014 A 
ATOM     66  C   UNL A   1      48.978  26.380  28.922  1.00  0.00     0.009 A 
ATOM     67  C   UNL A   1      48.493  25.797  31.220  1.00  0.00     0.009 A 
ATOM     68  C   UNL A   1      50.255  25.832  29.053  1.00  0.00     0.001 A 
ATOM     69  C   UNL A   1      49.781  25.275  31.356  1.00  0.00     0.001 A 
ATOM     70  C   UNL A   1      50.656  25.283  30.271  1.00  0.00     0.000 A 
ENDBRANCH  51  65
BRANCH  52  71
ATOM     71  C   UNL A   1      38.619  29.442  29.229  1.00  0.00    -0.014 A 
ATOM     72  C   UNL A   1      37.757  29.316  30.329  1.00  0.00     0.009 A 
ATOM     73  C   UNL A   1      38.128  30.011  28.043  1.00  0.00     0.009 A 
ATOM     74  C   UNL A   1      36.425  29.726  30.237  1.00  0.00     0.001 A 
ATOM     75  C   UNL A   1      36.802  30.441  27.961  1.00  0.00     0.001 A 
ATOM     76  C   UNL A   1      35.949  30.291  29.054  1.00  0.00     0.000 A 
ENDBRANCH  52  71
BRANCH  64  77
ATOM     77  C   UNL A   1      44.517  32.483  31.309  1.00  0.00    -0.014 A 
ATOM     78  C   UNL A   1      44.841  33.513  30.413  1.00  0.00     0.009 A 
ATOM     79  C   UNL A   1      44.436  32.769  32.681  1.00  0.00     0.009 A 
ATOM     80  C   UNL A   1      45.105  34.799  30.886  1.00  0.00     0.001 A 
ATOM     81  C   UNL A   1      44.677  34.060  33.148  1.00  0.00     0.001 A 
ATOM     82  C   UNL A   1      45.018  35.073  32.251  1.00  0.00     0.000 A 
ENDBRANCH  64  77
ENDBRANCH  38  39
ENDBRANCH  30  33
ENDBRANCH  28  29
ENDBRANCH  27  28
ENDBRANCH   1  27
TORSDOF 15
ENDMDL
