MODEL 1
REMARK VINA RESULT:     -11.6      0.000      0.000
REMARK SMILES O=C(NCCCCNC(=O)c1ccc(Cl)cc1-c1ccc(C(F)(F)F)cc1)c1ccc(-c2c3nc(c(-c4ccccc4)c4ccc([nH]4)c(-c4ccccc4)c4nc(c(-c5ccccc5)c5ccc2[nH]5)C=C4)C=C3)cc1
REMARK SMILES IDX 5 1 4 2 3 3 1 4 2 5 28 7 29 8 75 9 30 10 74 11 31 12 32 13
REMARK SMILES IDX 33 14 68 15 34 16 73 17 67 18 69 19 35 20 72 21 66 22 65 23
REMARK SMILES IDX 36 25 58 26 43 27 57 28 44 29 47 30 56 31 70 32 45 33 46 34
REMARK SMILES IDX 55 36 71 37 48 38 37 39 38 40 42 41 39 42 41 43 40 44 59 45
REMARK SMILES IDX 60 46 64 47 61 48 63 49 62 50 49 51 50 52 54 53 51 54 53 55
REMARK SMILES IDX 52 56 6 57 7 58 8 59 9 60 10 62 11 63 12 64 17 65 13 66
REMARK SMILES IDX 16 67 14 68 15 69 18 70 19 71 27 72 20 73 26 74 21 75 22 76
REMARK SMILES IDX 23 77 24 78 25 79
REMARK H PARENT 3 6 69 24 47 35 8 61
REMARK Flexibility Score: inf
ROOT
ATOM      1  C   UNL A   1      38.926  21.121  25.390  1.00  0.00     0.023 C 
ENDROOT
BRANCH   1   2
ATOM      2  C   UNL A   1      39.193  19.846  26.181  1.00  0.00     0.116 C 
BRANCH   2   3
ATOM      3  N   UNL A   1      40.434  19.190  25.802  1.00  0.00    -0.352 N 
ATOM      4  O   UNL A   1      42.640  19.037  25.348  1.00  0.00    -0.269 OA
ATOM      5  C   UNL A   1      41.714  19.685  25.828  1.00  0.00     0.251 C 
ATOM      6  H   UNL A   1      40.343  18.262  25.484  1.00  0.00     0.163 HD
BRANCH   5   7
ATOM      7  C   UNL A   1      41.974  21.016  26.417  1.00  0.00     0.039 A 
ATOM      8  C   UNL A   1      41.864  21.217  27.796  1.00  0.00     0.014 A 
ATOM      9  C   UNL A   1      42.345  22.072  25.580  1.00  0.00     0.014 A 
ATOM     10  C   UNL A   1      42.005  22.495  28.322  1.00  0.00     0.010 A 
ATOM     11  C   UNL A   1      42.566  23.342  26.121  1.00  0.00     0.010 A 
ATOM     12  C   UNL A   1      42.384  23.565  27.495  1.00  0.00    -0.014 A 
BRANCH  12  13
ATOM     13  C   UNL A   1      42.702  24.876  28.110  1.00  0.00     0.031 A 
ATOM     14  C   UNL A   1      44.088  25.213  28.579  1.00  0.00     0.074 A 
ATOM     15  C   UNL A   1      41.704  25.773  28.235  1.00  0.00     0.049 A 
ATOM     16  N   UNL A   1      44.517  26.320  29.131  1.00  0.00    -0.248 NA
ATOM     17  C   UNL A   1      45.125  24.182  28.415  1.00  0.00     0.031 C 
ATOM     18  C   UNL A   1      40.313  25.547  27.828  1.00  0.00     0.029 A 
ATOM     19  N   UNL A   1      41.701  27.051  28.727  1.00  0.00    -0.354 N 
ATOM     20  C   UNL A   1      45.865  26.115  29.399  1.00  0.00     0.074 A 
ATOM     21  C   UNL A   1      46.182  24.773  28.960  1.00  0.00     0.031 C 
ATOM     22  C   UNL A   1      39.601  26.660  28.055  1.00  0.00     0.029 A 
ATOM     23  C   UNL A   1      40.466  27.652  28.681  1.00  0.00     0.049 A 
ATOM     24  H   UNL A   1      42.505  27.496  29.080  1.00  0.00     0.167 HD
ATOM     25  C   UNL A   1      46.750  26.972  29.961  1.00  0.00     0.031 A 
ATOM     26  C   UNL A   1      40.063  28.857  29.120  1.00  0.00     0.031 A 
ATOM     27  C   UNL A   1      46.430  28.309  30.388  1.00  0.00     0.049 A 
ATOM     28  C   UNL A   1      41.063  29.765  29.769  1.00  0.00     0.074 A 
ATOM     29  C   UNL A   1      47.277  29.274  30.908  1.00  0.00     0.029 A 
ATOM     30  N   UNL A   1      45.161  28.868  30.357  1.00  0.00    -0.354 N 
ATOM     31  N   UNL A   1      42.347  29.578  29.954  1.00  0.00    -0.248 NA
ATOM     32  C   UNL A   1      40.556  31.046  30.277  1.00  0.00     0.031 C 
ATOM     33  C   UNL A   1      46.510  30.394  31.246  1.00  0.00     0.029 A 
ATOM     34  C   UNL A   1      45.196  30.146  30.889  1.00  0.00     0.049 A 
ATOM     35  H   UNL A   1      44.356  28.421  30.009  1.00  0.00     0.167 HD
ATOM     36  C   UNL A   1      42.803  30.720  30.595  1.00  0.00     0.074 A 
ATOM     37  C   UNL A   1      41.666  31.606  30.738  1.00  0.00     0.031 C 
ATOM     38  C   UNL A   1      44.052  31.006  31.036  1.00  0.00     0.031 A 
BRANCH  25  39
ATOM     39  C   UNL A   1      48.158  26.493  30.179  1.00  0.00    -0.014 A 
ATOM     40  C   UNL A   1      48.540  25.870  31.376  1.00  0.00     0.009 A 
ATOM     41  C   UNL A   1      49.087  26.576  29.128  1.00  0.00     0.009 A 
ATOM     42  C   UNL A   1      49.830  25.352  31.520  1.00  0.00     0.001 A 
ATOM     43  C   UNL A   1      50.368  26.039  29.268  1.00  0.00     0.001 A 
ATOM     44  C   UNL A   1      50.740  25.430  30.464  1.00  0.00     0.000 A 
ENDBRANCH  25  39
BRANCH  26  45
ATOM     45  C   UNL A   1      38.635  29.250  29.003  1.00  0.00    -0.014 A 
ATOM     46  C   UNL A   1      37.759  29.107  30.087  1.00  0.00     0.009 A 
ATOM     47  C   UNL A   1      38.143  29.766  27.793  1.00  0.00     0.009 A 
ATOM     48  C   UNL A   1      36.412  29.449  29.955  1.00  0.00     0.001 A 
ATOM     49  C   UNL A   1      36.803  30.137  27.674  1.00  0.00     0.001 A 
ATOM     50  C   UNL A   1      35.936  29.968  28.751  1.00  0.00     0.000 A 
ENDBRANCH  26  45
BRANCH  38  51
ATOM     51  C   UNL A   1      44.244  32.333  31.711  1.00  0.00    -0.014 A 
ATOM     52  C   UNL A   1      44.562  33.479  30.966  1.00  0.00     0.009 A 
ATOM     53  C   UNL A   1      44.085  32.441  33.100  1.00  0.00     0.009 A 
ATOM     54  C   UNL A   1      44.749  34.705  31.606  1.00  0.00     0.001 A 
ATOM     55  C   UNL A   1      44.246  33.673  33.733  1.00  0.00     0.001 A 
ATOM     56  C   UNL A   1      44.587  34.802  32.988  1.00  0.00     0.000 A 
ENDBRANCH  38  51
ENDBRANCH  12  13
ENDBRANCH   5   7
ENDBRANCH   2   3
ENDBRANCH   1   2
BRANCH   1  57
ATOM     57  C   UNL A   1      38.586  22.349  26.229  1.00  0.00     0.023 C 
BRANCH  57  58
ATOM     58  C   UNL A   1      37.572  23.303  25.607  1.00  0.00     0.116 C 
BRANCH  58  59
ATOM     59  N   UNL A   1      37.296  23.014  24.208  1.00  0.00    -0.352 N 
ATOM     60  C   UNL A   1      36.108  23.124  23.523  1.00  0.00     0.251 C 
ATOM     61  H   UNL A   1      38.063  22.694  23.680  1.00  0.00     0.163 HD
ATOM     62  O   UNL A   1      36.047  22.863  22.327  1.00  0.00    -0.269 OA
BRANCH  60  63
ATOM     63  C   UNL A   1      34.910  23.580  24.261  1.00  0.00     0.047 A 
ATOM     64  C   UNL A   1      34.718  24.970  24.375  1.00  0.00     0.016 A 
ATOM     65  C   UNL A   1      34.010  22.667  24.845  1.00  0.00    -0.004 A 
ATOM     66  C   UNL A   1      33.679  25.468  25.155  1.00  0.00     0.021 A 
ATOM     67  C   UNL A   1      32.972  23.202  25.633  1.00  0.00     0.030 A 
ATOM     68  C   UNL A   1      32.822  24.582  25.797  1.00  0.00     0.041 A 
ATOM     69  Cl  UNL A   1      31.562  25.190  26.798  1.00  0.00    -0.084 Cl
BRANCH  65  70
ATOM     70  C   UNL A   1      34.078  21.207  24.648  1.00  0.00    -0.018 A 
ATOM     71  C   UNL A   1      32.985  20.531  24.076  1.00  0.00     0.009 A 
ATOM     72  C   UNL A   1      35.199  20.450  25.015  1.00  0.00     0.009 A 
ATOM     73  C   UNL A   1      33.013  19.149  23.873  1.00  0.00     0.014 A 
ATOM     74  C   UNL A   1      35.233  19.065  24.807  1.00  0.00     0.014 A 
ATOM     75  C   UNL A   1      34.141  18.400  24.231  1.00  0.00     0.056 A 
BRANCH  75  76
ATOM     76  C   UNL A   1      34.156  16.910  23.995  1.00  0.00     0.416 C 
ATOM     77  F   UNL A   1      35.112  16.280  24.734  1.00  0.00    -0.166 F 
ATOM     78  F   UNL A   1      32.977  16.313  24.325  1.00  0.00    -0.166 F 
ATOM     79  F   UNL A   1      34.401  16.564  22.700  1.00  0.00    -0.166 F 
ENDBRANCH  75  76
ENDBRANCH  65  70
ENDBRANCH  60  63
ENDBRANCH  58  59
ENDBRANCH  57  58
ENDBRANCH   1  57
TORSDOF 13
ENDMDL
MODEL 2
REMARK VINA RESULT:     -11.5      2.907      3.936
REMARK SMILES O=C(NCCCCNC(=O)c1ccc(Cl)cc1-c1ccc(C(F)(F)F)cc1)c1ccc(-c2c3nc(c(-c4ccccc4)c4ccc([nH]4)c(-c4ccccc4)c4nc(c(-c5ccccc5)c5ccc2[nH]5)C=C4)C=C3)cc1
REMARK SMILES IDX 5 1 4 2 3 3 1 4 2 5 28 7 29 8 75 9 30 10 74 11 31 12 32 13
REMARK SMILES IDX 33 14 68 15 34 16 73 17 67 18 69 19 35 20 72 21 66 22 65 23
REMARK SMILES IDX 36 25 58 26 43 27 57 28 44 29 47 30 56 31 70 32 45 33 46 34
REMARK SMILES IDX 55 36 71 37 48 38 37 39 38 40 42 41 39 42 41 43 40 44 59 45
REMARK SMILES IDX 60 46 64 47 61 48 63 49 62 50 49 51 50 52 54 53 51 54 53 55
REMARK SMILES IDX 52 56 6 57 7 58 8 59 9 60 10 62 11 63 12 64 17 65 13 66
REMARK SMILES IDX 16 67 14 68 15 69 18 70 19 71 27 72 20 73 26 74 21 75 22 76
REMARK SMILES IDX 23 77 24 78 25 79
REMARK H PARENT 3 6 69 24 47 35 8 61
REMARK Flexibility Score: inf
ROOT
ATOM      1  C   UNL A   1      37.805  19.971  24.773  1.00  0.00     0.023 C 
ENDROOT
BRANCH   1   2
ATOM      2  C   UNL A   1      38.855  20.296  25.827  1.00  0.00     0.116 C 
BRANCH   2   3
ATOM      3  N   UNL A   1      39.992  19.390  25.797  1.00  0.00    -0.352 N 
ATOM      4  O   UNL A   1      42.168  18.795  25.875  1.00  0.00    -0.269 OA
ATOM      5  C   UNL A   1      41.311  19.651  26.076  1.00  0.00     0.251 C 
ATOM      6  H   UNL A   1      39.787  18.460  25.543  1.00  0.00     0.163 HD
BRANCH   5   7
ATOM      7  C   UNL A   1      41.701  20.977  26.598  1.00  0.00     0.039 A 
ATOM      8  C   UNL A   1      42.100  21.995  25.726  1.00  0.00     0.014 A 
ATOM      9  C   UNL A   1      41.655  21.210  27.976  1.00  0.00     0.014 A 
ATOM     10  C   UNL A   1      42.566  23.200  26.238  1.00  0.00     0.010 A 
ATOM     11  C   UNL A   1      42.049  22.451  28.484  1.00  0.00     0.010 A 
ATOM     12  C   UNL A   1      42.520  23.450  27.619  1.00  0.00    -0.014 A 
BRANCH  12  13
ATOM     13  C   UNL A   1      42.854  24.806  28.119  1.00  0.00     0.031 A 
ATOM     14  C   UNL A   1      44.260  25.193  28.473  1.00  0.00     0.074 A 
ATOM     15  C   UNL A   1      41.849  25.696  28.245  1.00  0.00     0.049 A 
ATOM     16  N   UNL A   1      44.704  26.342  28.917  1.00  0.00    -0.248 NA
ATOM     17  C   UNL A   1      45.302  24.167  28.315  1.00  0.00     0.031 C 
ATOM     18  C   UNL A   1      40.439  25.424  27.946  1.00  0.00     0.029 A 
ATOM     19  N   UNL A   1      41.855  27.006  28.646  1.00  0.00    -0.354 N 
ATOM     20  C   UNL A   1      46.069  26.174  29.112  1.00  0.00     0.074 A 
ATOM     21  C   UNL A   1      46.381  24.808  28.748  1.00  0.00     0.031 C 
ATOM     22  C   UNL A   1      39.724  26.541  28.140  1.00  0.00     0.029 A 
ATOM     23  C   UNL A   1      40.610  27.586  28.638  1.00  0.00     0.049 A 
ATOM     24  H   UNL A   1      42.673  27.485  28.915  1.00  0.00     0.167 HD
ATOM     25  C   UNL A   1      46.974  27.080  29.554  1.00  0.00     0.031 A 
ATOM     26  C   UNL A   1      40.214  28.814  29.016  1.00  0.00     0.031 A 
ATOM     27  C   UNL A   1      46.657  28.440  29.906  1.00  0.00     0.049 A 
ATOM     28  C   UNL A   1      41.238  29.778  29.535  1.00  0.00     0.074 A 
ATOM     29  C   UNL A   1      47.519  29.449  30.302  1.00  0.00     0.029 A 
ATOM     30  N   UNL A   1      45.380  28.978  29.918  1.00  0.00    -0.354 N 
ATOM     31  N   UNL A   1      42.534  29.622  29.649  1.00  0.00    -0.248 NA
ATOM     32  C   UNL A   1      40.742  31.086  29.984  1.00  0.00     0.031 C 
ATOM     33  C   UNL A   1      46.756  30.580  30.610  1.00  0.00     0.029 A 
ATOM     34  C   UNL A   1      45.426  30.291  30.356  1.00  0.00     0.049 A 
ATOM     35  H   UNL A   1      44.562  28.498  29.655  1.00  0.00     0.167 HD
ATOM     36  C   UNL A   1      43.010  30.812  30.178  1.00  0.00     0.074 A 
ATOM     37  C   UNL A   1      41.869  31.691  30.332  1.00  0.00     0.031 C 
ATOM     38  C   UNL A   1      44.279  31.145  30.517  1.00  0.00     0.031 A 
BRANCH  25  39
ATOM     39  C   UNL A   1      48.401  26.636  29.713  1.00  0.00    -0.014 A 
ATOM     40  C   UNL A   1      49.330  26.783  28.673  1.00  0.00     0.009 A 
ATOM     41  C   UNL A   1      48.842  26.159  30.958  1.00  0.00     0.009 A 
ATOM     42  C   UNL A   1      50.672  26.448  28.874  1.00  0.00     0.001 A 
ATOM     43  C   UNL A   1      50.187  25.844  31.162  1.00  0.00     0.001 A 
ATOM     44  C   UNL A   1      51.100  25.986  30.120  1.00  0.00     0.000 A 
ENDBRANCH  25  39
BRANCH  26  45
ATOM     45  C   UNL A   1      38.775  29.179  28.965  1.00  0.00    -0.014 A 
ATOM     46  C   UNL A   1      38.203  29.682  27.788  1.00  0.00     0.009 A 
ATOM     47  C   UNL A   1      37.968  29.027  30.104  1.00  0.00     0.009 A 
ATOM     48  C   UNL A   1      36.857  30.052  27.762  1.00  0.00     0.001 A 
ATOM     49  C   UNL A   1      36.615  29.368  30.065  1.00  0.00     0.001 A 
ATOM     50  C   UNL A   1      36.064  29.890  28.897  1.00  0.00     0.000 A 
ENDBRANCH  26  45
BRANCH  38  51
ATOM     51  C   UNL A   1      44.490  32.518  31.083  1.00  0.00    -0.014 A 
ATOM     52  C   UNL A   1      44.740  33.613  30.241  1.00  0.00     0.009 A 
ATOM     53  C   UNL A   1      44.418  32.723  32.468  1.00  0.00     0.009 A 
ATOM     54  C   UNL A   1      44.946  34.883  30.780  1.00  0.00     0.001 A 
ATOM     55  C   UNL A   1      44.597  33.998  33.003  1.00  0.00     0.001 A 
ATOM     56  C   UNL A   1      44.870  35.076  32.160  1.00  0.00     0.000 A 
ENDBRANCH  38  51
ENDBRANCH  12  13
ENDBRANCH   5   7
ENDBRANCH   2   3
ENDBRANCH   1   2
BRANCH   1  57
ATOM     57  C   UNL A   1      36.392  20.454  25.089  1.00  0.00     0.023 C 
BRANCH  57  58
ATOM     58  C   UNL A   1      36.304  21.825  25.749  1.00  0.00     0.116 C 
BRANCH  58  59
ATOM     59  N   UNL A   1      35.372  21.865  26.866  1.00  0.00    -0.352 N 
ATOM     60  C   UNL A   1      34.003  21.736  26.852  1.00  0.00     0.251 C 
ATOM     61  H   UNL A   1      35.777  22.004  27.753  1.00  0.00     0.163 HD
ATOM     62  O   UNL A   1      33.359  21.767  27.894  1.00  0.00    -0.269 OA
BRANCH  60  63
ATOM     63  C   UNL A   1      33.328  21.544  25.550  1.00  0.00     0.047 A 
ATOM     64  C   UNL A   1      33.076  20.218  25.148  1.00  0.00     0.016 A 
ATOM     65  C   UNL A   1      32.971  22.635  24.734  1.00  0.00    -0.004 A 
ATOM     66  C   UNL A   1      32.553  19.960  23.885  1.00  0.00     0.021 A 
ATOM     67  C   UNL A   1      32.449  22.342  23.458  1.00  0.00     0.030 A 
ATOM     68  C   UNL A   1      32.260  21.022  23.038  1.00  0.00     0.041 A 
ATOM     69  Cl  UNL A   1      31.655  20.709  21.458  1.00  0.00    -0.084 Cl
BRANCH  65  70
ATOM     70  C   UNL A   1      33.082  24.044  25.153  1.00  0.00    -0.018 A 
ATOM     71  C   UNL A   1      32.031  24.641  25.873  1.00  0.00     0.009 A 
ATOM     72  C   UNL A   1      34.205  24.830  24.858  1.00  0.00     0.009 A 
ATOM     73  C   UNL A   1      32.101  25.973  26.288  1.00  0.00     0.014 A 
ATOM     74  C   UNL A   1      34.280  26.166  25.279  1.00  0.00     0.014 A 
ATOM     75  C   UNL A   1      33.229  26.749  26.000  1.00  0.00     0.056 A 
BRANCH  75  76
ATOM     76  C   UNL A   1      33.290  28.184  26.465  1.00  0.00     0.416 C 
ATOM     77  F   UNL A   1      34.314  28.872  25.886  1.00  0.00    -0.166 F 
ATOM     78  F   UNL A   1      32.159  28.881  26.169  1.00  0.00    -0.166 F 
ATOM     79  F   UNL A   1      33.469  28.316  27.810  1.00  0.00    -0.166 F 
ENDBRANCH  75  76
ENDBRANCH  65  70
ENDBRANCH  60  63
ENDBRANCH  58  59
ENDBRANCH  57  58
ENDBRANCH   1  57
TORSDOF 13
ENDMDL
MODEL 3
REMARK VINA RESULT:     -11.5      0.452      5.925
REMARK SMILES O=C(NCCCCNC(=O)c1ccc(Cl)cc1-c1ccc(C(F)(F)F)cc1)c1ccc(-c2c3nc(c(-c4ccccc4)c4ccc([nH]4)c(-c4ccccc4)c4nc(c(-c5ccccc5)c5ccc2[nH]5)C=C4)C=C3)cc1
REMARK SMILES IDX 5 1 4 2 3 3 1 4 2 5 28 7 29 8 75 9 30 10 74 11 31 12 32 13
REMARK SMILES IDX 33 14 68 15 34 16 73 17 67 18 69 19 35 20 72 21 66 22 65 23
REMARK SMILES IDX 36 25 58 26 43 27 57 28 44 29 47 30 56 31 70 32 45 33 46 34
REMARK SMILES IDX 55 36 71 37 48 38 37 39 38 40 42 41 39 42 41 43 40 44 59 45
REMARK SMILES IDX 60 46 64 47 61 48 63 49 62 50 49 51 50 52 54 53 51 54 53 55
REMARK SMILES IDX 52 56 6 57 7 58 8 59 9 60 10 62 11 63 12 64 17 65 13 66
REMARK SMILES IDX 16 67 14 68 15 69 18 70 19 71 27 72 20 73 26 74 21 75 22 76
REMARK SMILES IDX 23 77 24 78 25 79
REMARK H PARENT 3 6 69 24 47 35 8 61
REMARK Flexibility Score: inf
ROOT
ATOM      1  C   UNL A   1      39.128  20.875  25.451  1.00  0.00     0.023 C 
ENDROOT
BRANCH   1   2
ATOM      2  C   UNL A   1      39.569  19.690  26.299  1.00  0.00     0.116 C 
BRANCH   2   3
ATOM      3  N   UNL A   1      40.816  19.097  25.845  1.00  0.00    -0.352 N 
ATOM      4  O   UNL A   1      42.996  19.054  25.260  1.00  0.00    -0.269 OA
ATOM      5  C   UNL A   1      42.069  19.655  25.797  1.00  0.00     0.251 C 
ATOM      6  H   UNL A   1      40.753  18.165  25.530  1.00  0.00     0.163 HD
BRANCH   5   7
ATOM      7  C   UNL A   1      42.296  20.997  26.373  1.00  0.00     0.039 A 
ATOM      8  C   UNL A   1      42.208  21.202  27.753  1.00  0.00     0.014 A 
ATOM      9  C   UNL A   1      42.615  22.061  25.523  1.00  0.00     0.014 A 
ATOM     10  C   UNL A   1      42.317  22.488  28.269  1.00  0.00     0.010 A 
ATOM     11  C   UNL A   1      42.804  23.341  26.053  1.00  0.00     0.010 A 
ATOM     12  C   UNL A   1      42.643  23.565  27.429  1.00  0.00    -0.014 A 
BRANCH  12  13
ATOM     13  C   UNL A   1      42.930  24.889  28.030  1.00  0.00     0.031 A 
ATOM     14  C   UNL A   1      41.841  25.888  28.299  1.00  0.00     0.074 A 
ATOM     15  C   UNL A   1      44.210  25.178  28.339  1.00  0.00     0.049 A 
ATOM     16  N   UNL A   1      41.941  27.083  28.824  1.00  0.00    -0.248 NA
ATOM     17  C   UNL A   1      40.470  25.505  27.930  1.00  0.00     0.031 C 
ATOM     18  C   UNL A   1      45.354  24.289  28.107  1.00  0.00     0.029 A 
ATOM     19  N   UNL A   1      44.767  26.287  28.920  1.00  0.00    -0.354 N 
ATOM     20  C   UNL A   1      40.653  27.604  28.831  1.00  0.00     0.074 A 
ATOM     21  C   UNL A   1      39.789  26.600  28.247  1.00  0.00     0.031 C 
ATOM     22  C   UNL A   1      46.467  24.872  28.573  1.00  0.00     0.029 A 
ATOM     23  C   UNL A   1      46.128  26.198  29.074  1.00  0.00     0.049 A 
ATOM     24  H   UNL A   1      44.241  27.071  29.199  1.00  0.00     0.167 HD
ATOM     25  C   UNL A   1      40.236  28.811  29.285  1.00  0.00     0.031 A 
ATOM     26  C   UNL A   1      47.016  27.094  29.541  1.00  0.00     0.031 A 
ATOM     27  C   UNL A   1      41.100  29.801  29.874  1.00  0.00     0.049 A 
ATOM     28  C   UNL A   1      46.523  28.433  30.001  1.00  0.00     0.074 A 
ATOM     29  C   UNL A   1      40.758  31.026  30.421  1.00  0.00     0.029 A 
ATOM     30  N   UNL A   1      42.478  29.688  29.979  1.00  0.00    -0.354 N 
ATOM     31  N   UNL A   1      45.294  28.881  30.060  1.00  0.00    -0.248 NA
ATOM     32  C   UNL A   1      47.542  29.390  30.449  1.00  0.00     0.031 C 
ATOM     33  C   UNL A   1      41.934  31.679  30.804  1.00  0.00     0.029 A 
ATOM     34  C   UNL A   1      43.003  30.839  30.542  1.00  0.00     0.049 A 
ATOM     35  H   UNL A   1      43.004  28.906  29.695  1.00  0.00     0.167 HD
ATOM     36  C   UNL A   1      45.389  30.172  30.558  1.00  0.00     0.074 A 
ATOM     37  C   UNL A   1      46.793  30.422  30.814  1.00  0.00     0.031 C 
ATOM     38  C   UNL A   1      44.403  31.075  30.775  1.00  0.00     0.031 A 
BRANCH  25  39
ATOM     39  C   UNL A   1      38.780  29.154  29.147  1.00  0.00    -0.014 A 
ATOM     40  C   UNL A   1      37.887  28.990  30.216  1.00  0.00     0.009 A 
ATOM     41  C   UNL A   1      38.319  29.748  27.960  1.00  0.00     0.009 A 
ATOM     42  C   UNL A   1      36.556  29.401  30.093  1.00  0.00     0.001 A 
ATOM     43  C   UNL A   1      36.995  30.176  27.847  1.00  0.00     0.001 A 
ATOM     44  C   UNL A   1      36.114  30.001  28.913  1.00  0.00     0.000 A 
ENDBRANCH  25  39
BRANCH  26  45
ATOM     45  C   UNL A   1      48.466  26.768  29.547  1.00  0.00    -0.014 A 
ATOM     46  C   UNL A   1      49.283  27.105  28.459  1.00  0.00     0.009 A 
ATOM     47  C   UNL A   1      49.036  26.110  30.648  1.00  0.00     0.009 A 
ATOM     48  C   UNL A   1      50.637  26.764  28.463  1.00  0.00     0.001 A 
ATOM     49  C   UNL A   1      50.396  25.799  30.663  1.00  0.00     0.001 A 
ATOM     50  C   UNL A   1      51.193  26.117  29.566  1.00  0.00     0.000 A 
ENDBRANCH  26  45
BRANCH  38  51
ATOM     51  C   UNL A   1      44.817  32.411  31.318  1.00  0.00    -0.014 A 
ATOM     52  C   UNL A   1      45.103  33.480  30.454  1.00  0.00     0.009 A 
ATOM     53  C   UNL A   1      44.902  32.609  32.703  1.00  0.00     0.009 A 
ATOM     54  C   UNL A   1      45.499  34.715  30.971  1.00  0.00     0.001 A 
ATOM     55  C   UNL A   1      45.271  33.852  33.217  1.00  0.00     0.001 A 
ATOM     56  C   UNL A   1      45.578  34.901  32.351  1.00  0.00     0.000 A 
ENDBRANCH  38  51
ENDBRANCH  12  13
ENDBRANCH   5   7
ENDBRANCH   2   3
ENDBRANCH   1   2
BRANCH   1  57
ATOM     57  C   UNL A   1      38.840  22.159  26.223  1.00  0.00     0.023 C 
BRANCH  57  58
ATOM     58  C   UNL A   1      37.656  22.975  25.715  1.00  0.00     0.116 C 
BRANCH  58  59
ATOM     59  N   UNL A   1      37.391  22.779  24.298  1.00  0.00    -0.352 N 
ATOM     60  C   UNL A   1      36.219  22.976  23.605  1.00  0.00     0.251 C 
ATOM     61  H   UNL A   1      38.154  22.460  23.763  1.00  0.00     0.163 HD
ATOM     62  O   UNL A   1      36.167  22.788  22.395  1.00  0.00    -0.269 OA
BRANCH  60  63
ATOM     63  C   UNL A   1      35.029  23.435  24.352  1.00  0.00     0.047 A 
ATOM     64  C   UNL A   1      34.859  24.825  24.496  1.00  0.00     0.016 A 
ATOM     65  C   UNL A   1      34.114  22.525  24.918  1.00  0.00    -0.004 A 
ATOM     66  C   UNL A   1      33.827  25.324  25.285  1.00  0.00     0.021 A 
ATOM     67  C   UNL A   1      33.084  23.060  25.717  1.00  0.00     0.030 A 
ATOM     68  C   UNL A   1      32.956  24.438  25.909  1.00  0.00     0.041 A 
ATOM     69  Cl  UNL A   1      31.706  25.046  26.923  1.00  0.00    -0.084 Cl
BRANCH  65  70
ATOM     70  C   UNL A   1      34.159  21.069  24.690  1.00  0.00    -0.018 A 
ATOM     71  C   UNL A   1      33.034  20.413  24.158  1.00  0.00     0.009 A 
ATOM     72  C   UNL A   1      35.289  20.295  24.990  1.00  0.00     0.009 A 
ATOM     73  C   UNL A   1      33.040  19.035  23.928  1.00  0.00     0.014 A 
ATOM     74  C   UNL A   1      35.300  18.914  24.755  1.00  0.00     0.014 A 
ATOM     75  C   UNL A   1      34.175  18.270  24.218  1.00  0.00     0.056 A 
BRANCH  75  76
ATOM     76  C   UNL A   1      34.166  16.784  23.954  1.00  0.00     0.416 C 
ATOM     77  F   UNL A   1      32.952  16.221  24.211  1.00  0.00    -0.166 F 
ATOM     78  F   UNL A   1      34.451  16.478  22.658  1.00  0.00    -0.166 F 
ATOM     79  F   UNL A   1      35.064  16.089  24.708  1.00  0.00    -0.166 F 
ENDBRANCH  75  76
ENDBRANCH  65  70
ENDBRANCH  60  63
ENDBRANCH  58  59
ENDBRANCH  57  58
ENDBRANCH   1  57
TORSDOF 13
ENDMDL
