MODEL 1
REMARK VINA RESULT:     -10.6      0.000      0.000
REMARK SMILES CO[C@@H]1C[C@H](C(=O)NCCCCNC(=O)c2ccc(-c3c4nc(c(-c5ccccc5)c5ccc([nH]5)c(-c5ccccc5)c5nc(c(-c6ccccc6)c6ccc3[nH]6)C=C5)C=C4)cc2)N(C(=O)[C@H](CC(C)C)NC(N)=O)C1
REMARK SMILES IDX 9 1 8 2 6 3 7 4 5 6 3 7 4 8 76 9 64 10 2 11 1 12 65 13 66 14
REMARK SMILES IDX 67 15 72 16 73 17 74 19 75 20 68 23 69 24 70 25 71 26 10 27
REMARK SMILES IDX 11 28 12 29 13 30 14 31 15 33 16 34 17 35 63 36 18 37 62 38
REMARK SMILES IDX 19 39 20 40 21 41 56 42 22 43 61 44 55 45 57 46 23 47 60 48
REMARK SMILES IDX 54 49 53 50 24 52 46 53 31 54 45 55 32 56 35 57 44 58 58 59
REMARK SMILES IDX 33 60 34 61 43 63 59 64 36 65 25 66 26 67 30 68 27 69 29 70
REMARK SMILES IDX 28 71 47 72 48 73 52 74 49 75 51 76 50 77 37 78 38 79 42 80
REMARK SMILES IDX 39 81 41 82 40 83
REMARK H PARENT 8 5 72 18 74 21 74 22 13 32 57 51 35 62
REMARK Flexibility Score: inf
ROOT
ATOM      1  C   UNL A   1      36.782  22.681  25.657  1.00  0.00     0.116 C 
ENDROOT
BRANCH   1   2
ATOM      2  N   UNL A   1      35.809  22.062  26.532  1.00  0.00    -0.354 N 
ATOM      3  C   UNL A   1      34.476  22.282  26.671  1.00  0.00     0.242 C 
ATOM      4  O   UNL A   1      34.006  22.041  27.791  1.00  0.00    -0.273 OA
ATOM      5  H   UNL A   1      36.175  21.366  27.126  1.00  0.00     0.163 HD
BRANCH   3   6
ATOM      6  C   UNL A   1      33.533  22.828  25.565  1.00  0.00     0.177 C 
ATOM      7  C   UNL A   1      32.111  21.188  24.479  1.00  0.00     0.139 C 
ATOM      8  C   UNL A   1      33.464  21.887  24.362  1.00  0.00     0.069 C 
ATOM      9  C   UNL A   1      31.234  22.203  25.227  1.00  0.00     0.152 C 
ATOM     10  N   UNL A   1      32.142  23.156  25.861  1.00  0.00    -0.326 N 
BRANCH   7  11
ATOM     11  O   UNL A   1      32.194  19.977  25.223  1.00  0.00    -0.380 OA
ATOM     12  C   UNL A   1      33.380  19.227  24.977  1.00  0.00     0.195 C 
ENDBRANCH   7  11
BRANCH  10  13
ATOM     13  C   UNL A   1      31.622  24.327  26.384  1.00  0.00     0.246 C 
ATOM     14  O   UNL A   1      30.676  24.289  27.182  1.00  0.00    -0.272 OA
BRANCH  13  15
ATOM     15  C   UNL A   1      32.128  25.699  25.857  1.00  0.00     0.173 C 
BRANCH  15  16
ATOM     16  N   UNL A   1      31.599  25.799  24.489  1.00  0.00    -0.327 N 
ATOM     17  C   UNL A   1      32.394  25.779  23.391  1.00  0.00     0.312 C 
ATOM     18  H   UNL A   1      30.626  25.886  24.365  1.00  0.00     0.166 HD
ATOM     19  N   UNL A   1      31.719  25.995  22.240  1.00  0.00    -0.352 N 
ATOM     20  O   UNL A   1      33.604  25.603  23.401  1.00  0.00    -0.249 OA
ATOM     21  H   UNL A   1      30.745  26.133  22.259  1.00  0.00     0.161 HD
ATOM     22  H   UNL A   1      32.202  26.014  21.382  1.00  0.00     0.161 HD
ENDBRANCH  15  16
BRANCH  15  23
ATOM     23  C   UNL A   1      31.623  26.910  26.655  1.00  0.00     0.038 C 
BRANCH  23  24
ATOM     24  C   UNL A   1      32.711  27.902  27.090  1.00  0.00    -0.015 C 
ATOM     25  C   UNL A   1      33.975  27.825  26.230  1.00  0.00     0.007 C 
ATOM     26  C   UNL A   1      32.178  29.335  27.079  1.00  0.00     0.007 C 
ENDBRANCH  23  24
ENDBRANCH  15  23
ENDBRANCH  13  15
ENDBRANCH  10  13
ENDBRANCH   3   6
ENDBRANCH   1   2
BRANCH   1  27
ATOM     27  C   UNL A   1      37.085  21.736  24.493  1.00  0.00     0.023 C 
BRANCH  27  28
ATOM     28  C   UNL A   1      37.803  20.449  24.882  1.00  0.00     0.023 C 
BRANCH  28  29
ATOM     29  C   UNL A   1      38.978  20.654  25.827  1.00  0.00     0.116 C 
BRANCH  29  30
ATOM     30  N   UNL A   1      39.966  19.583  25.777  1.00  0.00    -0.352 N 
ATOM     31  C   UNL A   1      41.303  19.624  26.104  1.00  0.00     0.251 C 
ATOM     32  H   UNL A   1      39.631  18.711  25.467  1.00  0.00     0.163 HD
ATOM     33  O   UNL A   1      42.025  18.657  25.931  1.00  0.00    -0.269 OA
BRANCH  31  34
ATOM     34  C   UNL A   1      41.860  20.888  26.625  1.00  0.00     0.039 A 
ATOM     35  C   UNL A   1      42.319  21.847  25.721  1.00  0.00     0.014 A 
ATOM     36  C   UNL A   1      41.835  21.154  27.995  1.00  0.00     0.014 A 
ATOM     37  C   UNL A   1      42.669  23.115  26.188  1.00  0.00     0.010 A 
ATOM     38  C   UNL A   1      42.087  22.442  28.444  1.00  0.00     0.010 A 
ATOM     39  C   UNL A   1      42.505  23.435  27.546  1.00  0.00    -0.014 A 
BRANCH  39  40
ATOM     40  C   UNL A   1      42.766  24.803  28.056  1.00  0.00     0.031 A 
ATOM     41  C   UNL A   1      44.156  25.190  28.476  1.00  0.00     0.074 A 
ATOM     42  C   UNL A   1      41.741  25.662  28.225  1.00  0.00     0.049 A 
ATOM     43  N   UNL A   1      44.571  26.298  29.034  1.00  0.00    -0.248 NA
ATOM     44  C   UNL A   1      45.212  24.184  28.276  1.00  0.00     0.031 C 
ATOM     45  C   UNL A   1      40.336  25.386  27.914  1.00  0.00     0.029 A 
ATOM     46  N   UNL A   1      41.726  26.945  28.711  1.00  0.00    -0.354 N 
ATOM     47  C   UNL A   1      45.924  26.106  29.283  1.00  0.00     0.074 A 
ATOM     48  C   UNL A   1      46.249  24.760  28.865  1.00  0.00     0.031 C 
ATOM     49  C   UNL A   1      39.603  26.480  28.179  1.00  0.00     0.029 A 
ATOM     50  C   UNL A   1      40.477  27.518  28.715  1.00  0.00     0.049 A 
ATOM     51  H   UNL A   1      42.534  27.411  29.026  1.00  0.00     0.167 HD
ATOM     52  C   UNL A   1      46.825  26.979  29.790  1.00  0.00     0.031 A 
ATOM     53  C   UNL A   1      40.083  28.744  29.105  1.00  0.00     0.031 A 
ATOM     54  C   UNL A   1      46.511  28.330  30.168  1.00  0.00     0.049 A 
ATOM     55  C   UNL A   1      41.107  29.708  29.635  1.00  0.00     0.074 A 
ATOM     56  C   UNL A   1      47.364  29.318  30.624  1.00  0.00     0.029 A 
ATOM     57  N   UNL A   1      45.241  28.883  30.124  1.00  0.00    -0.354 N 
ATOM     58  N   UNL A   1      42.396  29.534  29.803  1.00  0.00    -0.248 NA
ATOM     59  C   UNL A   1      40.623  31.041  30.020  1.00  0.00     0.031 C 
ATOM     60  C   UNL A   1      46.603  30.461  30.888  1.00  0.00     0.029 A 
ATOM     61  C   UNL A   1      45.285  30.196  30.555  1.00  0.00     0.049 A 
ATOM     62  H   UNL A   1      44.429  28.410  29.828  1.00  0.00     0.167 HD
ATOM     63  C   UNL A   1      42.881  30.742  30.285  1.00  0.00     0.074 A 
ATOM     64  C   UNL A   1      41.750  31.644  30.370  1.00  0.00     0.031 C 
ATOM     65  C   UNL A   1      44.149  31.077  30.627  1.00  0.00     0.031 A 
BRANCH  52  66
ATOM     66  C   UNL A   1      48.236  26.492  29.956  1.00  0.00    -0.014 A 
ATOM     67  C   UNL A   1      49.183  26.648  28.930  1.00  0.00     0.009 A 
ATOM     68  C   UNL A   1      48.629  25.881  31.155  1.00  0.00     0.009 A 
ATOM     69  C   UNL A   1      50.482  26.161  29.087  1.00  0.00     0.001 A 
ATOM     70  C   UNL A   1      49.937  25.422  31.320  1.00  0.00     0.001 A 
ATOM     71  C   UNL A   1      50.859  25.552  30.283  1.00  0.00     0.000 A 
ENDBRANCH  52  66
BRANCH  53  72
ATOM     72  C   UNL A   1      38.659  29.147  28.979  1.00  0.00    -0.014 A 
ATOM     73  C   UNL A   1      37.798  29.054  30.084  1.00  0.00     0.009 A 
ATOM     74  C   UNL A   1      38.149  29.620  27.761  1.00  0.00     0.009 A 
ATOM     75  C   UNL A   1      36.451  29.400  29.964  1.00  0.00     0.001 A 
ATOM     76  C   UNL A   1      36.807  29.989  27.649  1.00  0.00     0.001 A 
ATOM     77  C   UNL A   1      35.957  29.870  28.748  1.00  0.00     0.000 A 
ENDBRANCH  53  72
BRANCH  65  78
ATOM     78  C   UNL A   1      44.385  32.485  31.089  1.00  0.00    -0.014 A 
ATOM     79  C   UNL A   1      44.325  32.822  32.449  1.00  0.00     0.009 A 
ATOM     80  C   UNL A   1      44.715  33.476  30.151  1.00  0.00     0.009 A 
ATOM     81  C   UNL A   1      44.564  34.135  32.859  1.00  0.00     0.001 A 
ATOM     82  C   UNL A   1      44.978  34.781  30.567  1.00  0.00     0.001 A 
ATOM     83  C   UNL A   1      44.895  35.111  31.919  1.00  0.00     0.000 A 
ENDBRANCH  65  78
ENDBRANCH  39  40
ENDBRANCH  31  34
ENDBRANCH  29  30
ENDBRANCH  28  29
ENDBRANCH  27  28
ENDBRANCH   1  27
TORSDOF 17
ENDMDL
MODEL 2
REMARK VINA RESULT:     -10.6      1.113      5.998
REMARK SMILES CO[C@@H]1C[C@H](C(=O)NCCCCNC(=O)c2ccc(-c3c4nc(c(-c5ccccc5)c5ccc([nH]5)c(-c5ccccc5)c5nc(c(-c6ccccc6)c6ccc3[nH]6)C=C5)C=C4)cc2)N(C(=O)[C@H](CC(C)C)NC(N)=O)C1
REMARK SMILES IDX 9 1 8 2 6 3 7 4 5 6 3 7 4 8 76 9 64 10 2 11 1 12 65 13 66 14
REMARK SMILES IDX 67 15 72 16 73 17 74 19 75 20 68 23 69 24 70 25 71 26 10 27
REMARK SMILES IDX 11 28 12 29 13 30 14 31 15 33 16 34 17 35 63 36 18 37 62 38
REMARK SMILES IDX 19 39 20 40 21 41 56 42 22 43 61 44 55 45 57 46 23 47 60 48
REMARK SMILES IDX 54 49 53 50 24 52 46 53 31 54 45 55 32 56 35 57 44 58 58 59
REMARK SMILES IDX 33 60 34 61 43 63 59 64 36 65 25 66 26 67 30 68 27 69 29 70
REMARK SMILES IDX 28 71 47 72 48 73 52 74 49 75 51 76 50 77 37 78 38 79 42 80
REMARK SMILES IDX 39 81 41 82 40 83
REMARK H PARENT 8 5 72 18 74 21 74 22 13 32 57 51 35 62
REMARK Flexibility Score: inf
ROOT
ATOM      1  C   UNL A   1      36.720  22.853  25.759  1.00  0.00     0.116 C 
ENDROOT
BRANCH   1   2
ATOM      2  N   UNL A   1      35.800  22.047  26.533  1.00  0.00    -0.354 N 
ATOM      3  C   UNL A   1      34.444  22.080  26.613  1.00  0.00     0.242 C 
ATOM      4  O   UNL A   1      33.960  21.695  27.686  1.00  0.00    -0.273 OA
ATOM      5  H   UNL A   1      36.228  21.361  27.096  1.00  0.00     0.163 HD
BRANCH   3   6
ATOM      6  C   UNL A   1      33.489  22.583  25.497  1.00  0.00     0.177 C 
ATOM      7  C   UNL A   1      32.158  20.880  24.394  1.00  0.00     0.139 C 
ATOM      8  C   UNL A   1      33.477  21.642  24.293  1.00  0.00     0.069 C 
ATOM      9  C   UNL A   1      31.225  21.850  25.134  1.00  0.00     0.152 C 
ATOM     10  N   UNL A   1      32.080  22.844  25.779  1.00  0.00    -0.326 N 
BRANCH   7  11
ATOM     11  O   UNL A   1      32.290  19.673  25.137  1.00  0.00    -0.380 OA
ATOM     12  C   UNL A   1      33.410  18.879  24.757  1.00  0.00     0.195 C 
ENDBRANCH   7  11
BRANCH  10  13
ATOM     13  C   UNL A   1      31.499  23.988  26.297  1.00  0.00     0.246 C 
ATOM     14  O   UNL A   1      30.982  23.972  27.422  1.00  0.00    -0.272 OA
BRANCH  13  15
ATOM     15  C   UNL A   1      31.366  25.257  25.408  1.00  0.00     0.173 C 
BRANCH  15  16
ATOM     16  N   UNL A   1      29.929  25.370  25.122  1.00  0.00    -0.327 N 
ATOM     17  C   UNL A   1      29.439  26.125  24.108  1.00  0.00     0.312 C 
ATOM     18  H   UNL A   1      29.294  24.877  25.691  1.00  0.00     0.166 HD
ATOM     19  N   UNL A   1      28.089  26.180  24.087  1.00  0.00    -0.352 N 
ATOM     20  O   UNL A   1      30.118  26.725  23.286  1.00  0.00    -0.249 OA
ATOM     21  H   UNL A   1      27.566  25.688  24.761  1.00  0.00     0.161 HD
ATOM     22  H   UNL A   1      27.628  26.713  23.400  1.00  0.00     0.161 HD
ENDBRANCH  15  16
BRANCH  15  23
ATOM     23  C   UNL A   1      31.822  26.557  26.087  1.00  0.00     0.038 C 
BRANCH  23  24
ATOM     24  C   UNL A   1      33.018  27.253  25.422  1.00  0.00    -0.015 C 
ATOM     25  C   UNL A   1      33.972  27.904  26.427  1.00  0.00     0.007 C 
ATOM     26  C   UNL A   1      33.799  26.275  24.545  1.00  0.00     0.007 C 
ENDBRANCH  23  24
ENDBRANCH  15  23
ENDBRANCH  13  15
ENDBRANCH  10  13
ENDBRANCH   3   6
ENDBRANCH   1   2
BRANCH   1  27
ATOM     27  C   UNL A   1      37.272  22.016  24.603  1.00  0.00     0.023 C 
BRANCH  27  28
ATOM     28  C   UNL A   1      37.887  20.684  25.014  1.00  0.00     0.023 C 
BRANCH  28  29
ATOM     29  C   UNL A   1      39.109  20.812  25.913  1.00  0.00     0.116 C 
BRANCH  29  30
ATOM     30  N   UNL A   1      39.994  19.655  25.871  1.00  0.00    -0.352 N 
ATOM     31  C   UNL A   1      41.341  19.586  26.151  1.00  0.00     0.251 C 
ATOM     32  H   UNL A   1      39.571  18.806  25.607  1.00  0.00     0.163 HD
ATOM     33  O   UNL A   1      41.967  18.551  25.991  1.00  0.00    -0.269 OA
BRANCH  31  34
ATOM     34  C   UNL A   1      42.028  20.813  26.603  1.00  0.00     0.039 A 
ATOM     35  C   UNL A   1      42.478  21.725  25.648  1.00  0.00     0.014 A 
ATOM     36  C   UNL A   1      42.135  21.095  27.965  1.00  0.00     0.014 A 
ATOM     37  C   UNL A   1      42.954  22.969  26.062  1.00  0.00     0.010 A 
ATOM     38  C   UNL A   1      42.514  22.366  28.370  1.00  0.00     0.010 A 
ATOM     39  C   UNL A   1      42.926  23.316  27.423  1.00  0.00    -0.014 A 
BRANCH  39  40
ATOM     40  C   UNL A   1      43.326  24.667  27.887  1.00  0.00     0.031 A 
ATOM     41  C   UNL A   1      42.271  25.697  28.181  1.00  0.00     0.074 A 
ATOM     42  C   UNL A   1      44.632  24.992  27.959  1.00  0.00     0.049 A 
ATOM     43  N   UNL A   1      42.416  26.957  28.503  1.00  0.00    -0.248 NA
ATOM     44  C   UNL A   1      40.870  25.264  28.058  1.00  0.00     0.031 C 
ATOM     45  C   UNL A   1      45.752  24.101  27.642  1.00  0.00     0.029 A 
ATOM     46  N   UNL A   1      45.238  26.170  28.316  1.00  0.00    -0.354 N 
ATOM     47  C   UNL A   1      41.128  27.470  28.586  1.00  0.00     0.074 A 
ATOM     48  C   UNL A   1      40.219  26.404  28.229  1.00  0.00     0.031 C 
ATOM     49  C   UNL A   1      46.907  24.753  27.857  1.00  0.00     0.029 A 
ATOM     50  C   UNL A   1      46.610  26.115  28.287  1.00  0.00     0.049 A 
ATOM     51  H   UNL A   1      44.736  26.978  28.570  1.00  0.00     0.167 HD
ATOM     52  C   UNL A   1      40.732  28.712  28.952  1.00  0.00     0.031 A 
ATOM     53  C   UNL A   1      47.526  27.057  28.577  1.00  0.00     0.031 A 
ATOM     54  C   UNL A   1      41.633  29.760  29.345  1.00  0.00     0.049 A 
ATOM     55  C   UNL A   1      47.063  28.419  29.011  1.00  0.00     0.074 A 
ATOM     56  C   UNL A   1      41.332  31.030  29.802  1.00  0.00     0.029 A 
ATOM     57  N   UNL A   1      43.015  29.652  29.335  1.00  0.00    -0.354 N 
ATOM     58  N   UNL A   1      45.840  28.870  29.149  1.00  0.00    -0.248 NA
ATOM     59  C   UNL A   1      48.107  29.398  29.341  1.00  0.00     0.031 C 
ATOM     60  C   UNL A   1      42.535  31.703  30.038  1.00  0.00     0.029 A 
ATOM     61  C   UNL A   1      43.582  30.837  29.769  1.00  0.00     0.049 A 
ATOM     62  H   UNL A   1      43.517  28.851  29.062  1.00  0.00     0.167 HD
ATOM     63  C   UNL A   1      45.966  30.174  29.607  1.00  0.00     0.074 A 
ATOM     64  C   UNL A   1      47.385  30.437  29.737  1.00  0.00     0.031 C 
ATOM     65  C   UNL A   1      44.996  31.075  29.895  1.00  0.00     0.031 A 
BRANCH  52  66
ATOM     66  C   UNL A   1      39.257  28.992  28.946  1.00  0.00    -0.014 A 
ATOM     67  C   UNL A   1      38.472  28.779  30.091  1.00  0.00     0.009 A 
ATOM     68  C   UNL A   1      38.644  29.488  27.786  1.00  0.00     0.009 A 
ATOM     69  C   UNL A   1      37.096  29.014  30.060  1.00  0.00     0.001 A 
ATOM     70  C   UNL A   1      37.272  29.751  27.767  1.00  0.00     0.001 A 
ATOM     71  C   UNL A   1      36.499  29.503  28.899  1.00  0.00     0.000 A 
ENDBRANCH  52  66
BRANCH  53  72
ATOM     72  C   UNL A   1      48.975  26.739  28.501  1.00  0.00    -0.014 A 
ATOM     73  C   UNL A   1      49.663  26.300  29.643  1.00  0.00     0.009 A 
ATOM     74  C   UNL A   1      49.681  26.876  27.296  1.00  0.00     0.009 A 
ATOM     75  C   UNL A   1      51.031  26.031  29.587  1.00  0.00     0.001 A 
ATOM     76  C   UNL A   1      51.045  26.583  27.236  1.00  0.00     0.001 A 
ATOM     77  C   UNL A   1      51.721  26.170  28.384  1.00  0.00     0.000 A 
ENDBRANCH  53  72
BRANCH  65  78
ATOM     78  C   UNL A   1      45.435  32.413  30.413  1.00  0.00    -0.014 A 
ATOM     79  C   UNL A   1      45.675  33.486  29.542  1.00  0.00     0.009 A 
ATOM     80  C   UNL A   1      45.567  32.612  31.796  1.00  0.00     0.009 A 
ATOM     81  C   UNL A   1      46.068  34.727  30.046  1.00  0.00     0.001 A 
ATOM     82  C   UNL A   1      45.935  33.860  32.298  1.00  0.00     0.001 A 
ATOM     83  C   UNL A   1      46.192  34.914  31.422  1.00  0.00     0.000 A 
ENDBRANCH  65  78
ENDBRANCH  39  40
ENDBRANCH  31  34
ENDBRANCH  29  30
ENDBRANCH  28  29
ENDBRANCH  27  28
ENDBRANCH   1  27
TORSDOF 17
ENDMDL
MODEL 3
REMARK VINA RESULT:     -10.5      3.619      9.046
REMARK SMILES CO[C@@H]1C[C@H](C(=O)NCCCCNC(=O)c2ccc(-c3c4nc(c(-c5ccccc5)c5ccc([nH]5)c(-c5ccccc5)c5nc(c(-c6ccccc6)c6ccc3[nH]6)C=C5)C=C4)cc2)N(C(=O)[C@H](CC(C)C)NC(N)=O)C1
REMARK SMILES IDX 9 1 8 2 6 3 7 4 5 6 3 7 4 8 76 9 64 10 2 11 1 12 65 13 66 14
REMARK SMILES IDX 67 15 72 16 73 17 74 19 75 20 68 23 69 24 70 25 71 26 10 27
REMARK SMILES IDX 11 28 12 29 13 30 14 31 15 33 16 34 17 35 63 36 18 37 62 38
REMARK SMILES IDX 19 39 20 40 21 41 56 42 22 43 61 44 55 45 57 46 23 47 60 48
REMARK SMILES IDX 54 49 53 50 24 52 46 53 31 54 45 55 32 56 35 57 44 58 58 59
REMARK SMILES IDX 33 60 34 61 43 63 59 64 36 65 25 66 26 67 30 68 27 69 29 70
REMARK SMILES IDX 28 71 47 72 48 73 52 74 49 75 51 76 50 77 37 78 38 79 42 80
REMARK SMILES IDX 39 81 41 82 40 83
REMARK H PARENT 8 5 72 18 74 21 74 22 13 32 57 51 35 62
REMARK Flexibility Score: inf
ROOT
ATOM      1  C   UNL A   1      33.211  29.584  26.322  1.00  0.00     0.116 C 
ENDROOT
BRANCH   1   2
ATOM      2  N   UNL A   1      33.271  29.813  24.894  1.00  0.00    -0.354 N 
ATOM      3  C   UNL A   1      33.113  28.956  23.852  1.00  0.00     0.242 C 
ATOM      4  O   UNL A   1      33.719  29.255  22.814  1.00  0.00    -0.273 OA
ATOM      5  H   UNL A   1      33.457  30.745  24.635  1.00  0.00     0.163 HD
BRANCH   3   6
ATOM      6  C   UNL A   1      32.275  27.649  23.880  1.00  0.00     0.177 C 
ATOM      7  C   UNL A   1      30.161  27.719  22.692  1.00  0.00     0.139 C 
ATOM      8  C   UNL A   1      30.785  27.933  24.069  1.00  0.00     0.069 C 
ATOM      9  C   UNL A   1      31.084  26.689  22.023  1.00  0.00     0.152 C 
ATOM     10  N   UNL A   1      32.336  26.696  22.775  1.00  0.00    -0.326 N 
BRANCH   7  11
ATOM     11  O   UNL A   1      30.131  28.916  21.923  1.00  0.00    -0.380 OA
ATOM     12  C   UNL A   1      29.053  29.788  22.252  1.00  0.00     0.195 C 
ENDBRANCH   7  11
BRANCH  10  13
ATOM     13  C   UNL A   1      33.252  25.683  22.555  1.00  0.00     0.246 C 
ATOM     14  O   UNL A   1      33.737  25.512  21.429  1.00  0.00    -0.272 OA
BRANCH  13  15
ATOM     15  C   UNL A   1      33.562  24.664  23.688  1.00  0.00     0.173 C 
BRANCH  15  16
ATOM     16  N   UNL A   1      32.276  24.014  23.977  1.00  0.00    -0.327 N 
ATOM     17  C   UNL A   1      31.649  24.127  25.173  1.00  0.00     0.312 C 
ATOM     18  H   UNL A   1      31.853  23.473  23.272  1.00  0.00     0.166 HD
ATOM     19  N   UNL A   1      30.537  23.363  25.267  1.00  0.00    -0.352 N 
ATOM     20  O   UNL A   1      32.027  24.824  26.104  1.00  0.00    -0.249 OA
ATOM     21  H   UNL A   1      30.254  22.810  24.503  1.00  0.00     0.161 HD
ATOM     22  H   UNL A   1      30.011  23.358  26.099  1.00  0.00     0.161 HD
ENDBRANCH  15  16
BRANCH  15  23
ATOM     23  C   UNL A   1      34.573  23.574  23.301  1.00  0.00     0.038 C 
BRANCH  23  24
ATOM     24  C   UNL A   1      35.726  23.374  24.295  1.00  0.00    -0.015 C 
ATOM     25  C   UNL A   1      35.560  24.187  25.582  1.00  0.00     0.007 C 
ATOM     26  C   UNL A   1      35.891  21.897  24.648  1.00  0.00     0.007 C 
ENDBRANCH  23  24
ENDBRANCH  15  23
ENDBRANCH  13  15
ENDBRANCH  10  13
ENDBRANCH   3   6
ENDBRANCH   1   2
BRANCH   1  27
ATOM     27  C   UNL A   1      31.889  30.131  26.864  1.00  0.00     0.023 C 
BRANCH  27  28
ATOM     28  C   UNL A   1      31.719  31.639  26.734  1.00  0.00     0.023 C 
BRANCH  28  29
ATOM     29  C   UNL A   1      32.873  32.448  27.307  1.00  0.00     0.116 C 
BRANCH  29  30
ATOM     30  N   UNL A   1      32.514  33.815  27.666  1.00  0.00    -0.352 N 
ATOM     31  C   UNL A   1      33.144  34.674  28.538  1.00  0.00     0.251 C 
ATOM     32  H   UNL A   1      31.710  34.172  27.223  1.00  0.00     0.163 HD
ATOM     33  O   UNL A   1      32.672  35.768  28.798  1.00  0.00    -0.269 OA
BRANCH  31  34
ATOM     34  C   UNL A   1      34.384  34.220  29.198  1.00  0.00     0.039 A 
ATOM     35  C   UNL A   1      34.294  33.550  30.418  1.00  0.00     0.014 A 
ATOM     36  C   UNL A   1      35.615  34.375  28.559  1.00  0.00     0.014 A 
ATOM     37  C   UNL A   1      35.434  32.952  30.956  1.00  0.00     0.010 A 
ATOM     38  C   UNL A   1      36.724  33.696  29.042  1.00  0.00     0.010 A 
ATOM     39  C   UNL A   1      36.645  32.977  30.244  1.00  0.00    -0.014 A 
BRANCH  39  40
ATOM     40  C   UNL A   1      37.848  32.261  30.734  1.00  0.00     0.031 A 
ATOM     41  C   UNL A   1      38.637  32.828  31.881  1.00  0.00     0.074 A 
ATOM     42  C   UNL A   1      38.277  31.155  30.095  1.00  0.00     0.049 A 
ATOM     43  N   UNL A   1      39.766  32.408  32.393  1.00  0.00    -0.248 NA
ATOM     44  C   UNL A   1      38.109  34.051  32.509  1.00  0.00     0.031 C 
ATOM     45  C   UNL A   1      37.634  30.539  28.931  1.00  0.00     0.029 A 
ATOM     46  N   UNL A   1      39.367  30.356  30.332  1.00  0.00    -0.354 N 
ATOM     47  C   UNL A   1      40.096  33.333  33.375  1.00  0.00     0.074 A 
ATOM     48  C   UNL A   1      39.081  34.362  33.352  1.00  0.00     0.031 C 
ATOM     49  C   UNL A   1      38.319  29.437  28.582  1.00  0.00     0.029 A 
ATOM     50  C   UNL A   1      39.468  29.292  29.469  1.00  0.00     0.049 A 
ATOM     51  H   UNL A   1      40.015  30.529  31.053  1.00  0.00     0.167 HD
ATOM     52  C   UNL A   1      41.138  33.316  34.239  1.00  0.00     0.031 A 
ATOM     53  C   UNL A   1      40.385  28.309  29.402  1.00  0.00     0.031 A 
ATOM     54  C   UNL A   1      42.125  32.273  34.289  1.00  0.00     0.049 A 
ATOM     55  C   UNL A   1      41.515  28.294  30.392  1.00  0.00     0.074 A 
ATOM     56  C   UNL A   1      43.178  32.124  35.172  1.00  0.00     0.029 A 
ATOM     57  N   UNL A   1      42.172  31.194  33.420  1.00  0.00    -0.354 N 
ATOM     58  N   UNL A   1      41.777  29.140  31.359  1.00  0.00    -0.248 NA
ATOM     59  C   UNL A   1      42.469  27.181  30.289  1.00  0.00     0.031 C 
ATOM     60  C   UNL A   1      43.884  30.970  34.817  1.00  0.00     0.029 A 
ATOM     61  C   UNL A   1      43.243  30.379  33.739  1.00  0.00     0.049 A 
ATOM     62  H   UNL A   1      41.536  31.032  32.686  1.00  0.00     0.167 HD
ATOM     63  C   UNL A   1      42.908  28.647  31.996  1.00  0.00     0.074 A 
ATOM     64  C   UNL A   1      43.274  27.423  31.314  1.00  0.00     0.031 C 
ATOM     65  C   UNL A   1      43.585  29.163  33.051  1.00  0.00     0.031 A 
BRANCH  52  66
ATOM     66  C   UNL A   1      41.251  34.463  35.202  1.00  0.00    -0.014 A 
ATOM     67  C   UNL A   1      42.022  35.596  34.895  1.00  0.00     0.009 A 
ATOM     68  C   UNL A   1      40.568  34.418  36.426  1.00  0.00     0.009 A 
ATOM     69  C   UNL A   1      42.142  36.641  35.813  1.00  0.00     0.001 A 
ATOM     70  C   UNL A   1      40.667  35.478  37.330  1.00  0.00     0.001 A 
ATOM     71  C   UNL A   1      41.462  36.582  37.029  1.00  0.00     0.000 A 
ENDBRANCH  52  66
BRANCH  53  72
ATOM     72  C   UNL A   1      40.257  27.235  28.383  1.00  0.00    -0.014 A 
ATOM     73  C   UNL A   1      40.868  27.377  27.128  1.00  0.00     0.009 A 
ATOM     74  C   UNL A   1      39.524  26.070  28.653  1.00  0.00     0.009 A 
ATOM     75  C   UNL A   1      40.724  26.387  26.154  1.00  0.00     0.001 A 
ATOM     76  C   UNL A   1      39.403  25.069  27.686  1.00  0.00     0.001 A 
ATOM     77  C   UNL A   1      39.995  25.233  26.434  1.00  0.00     0.000 A 
ENDBRANCH  53  72
BRANCH  65  78
ATOM     78  C   UNL A   1      44.765  28.384  33.553  1.00  0.00    -0.014 A 
ATOM     79  C   UNL A   1      44.625  27.427  34.568  1.00  0.00     0.009 A 
ATOM     80  C   UNL A   1      46.026  28.583  32.969  1.00  0.00     0.009 A 
ATOM     81  C   UNL A   1      45.734  26.702  35.010  1.00  0.00     0.001 A 
ATOM     82  C   UNL A   1      47.127  27.839  33.395  1.00  0.00     0.001 A 
ATOM     83  C   UNL A   1      46.981  26.905  34.420  1.00  0.00     0.000 A 
ENDBRANCH  65  78
ENDBRANCH  39  40
ENDBRANCH  31  34
ENDBRANCH  29  30
ENDBRANCH  28  29
ENDBRANCH  27  28
ENDBRANCH   1  27
TORSDOF 17
ENDMDL
