MODEL 1
REMARK VINA RESULT:     -11.5      0.000      0.000
REMARK SMILES C[C@H]1[C@@H](C(=O)NCCCCNC(=O)c2ccc(-c3c4nc(c(-c5ccccc5)c5ccc([nH]5)c(-c5ccccc5)c5nc(c(-c6ccccc6)c6ccc3[nH]6)C=C5)C=C4)cc2)CCN1C(=O)N1CCn2cnnc2C1
REMARK SMILES IDX 8 1 7 2 6 3 4 4 5 5 3 7 1 8 2 9 64 10 62 11 63 12 65 13
REMARK SMILES IDX 66 14 67 15 68 16 75 17 69 18 74 19 70 20 73 21 71 22 72 23
REMARK SMILES IDX 9 24 10 25 11 26 12 27 13 29 14 30 15 31 61 32 16 33 60 34
REMARK SMILES IDX 17 35 18 36 19 37 54 38 20 39 59 40 53 41 55 42 21 43 58 44
REMARK SMILES IDX 52 45 51 46 22 48 44 49 29 50 43 51 30 52 33 53 42 54 56 55
REMARK SMILES IDX 31 56 32 57 41 59 57 60 34 61 23 62 24 63 28 64 25 65 27 66
REMARK SMILES IDX 26 67 45 68 46 69 50 70 47 71 49 72 48 73 35 74 36 75 40 76
REMARK SMILES IDX 37 77 39 78 38 79
REMARK H PARENT 6 6 11 28 55 47 33 58
REMARK Flexibility Score: inf
ROOT
ATOM      1  C   UNL A   1      36.466  20.055  24.966  1.00  0.00     0.023 C 
ENDROOT
BRANCH   1   2
ATOM      2  C   UNL A   1      34.993  20.468  24.919  1.00  0.00     0.116 C 
BRANCH   2   3
ATOM      3  N   UNL A   1      34.908  21.803  24.392  1.00  0.00    -0.356 N 
ATOM      4  C   UNL A   1      33.836  22.598  24.158  1.00  0.00     0.225 C 
ATOM      5  O   UNL A   1      34.069  23.535  23.385  1.00  0.00    -0.275 OA
ATOM      6  H   UNL A   1      35.776  22.209  24.163  1.00  0.00     0.163 HD
BRANCH   4   7
ATOM      7  C   UNL A   1      32.494  22.486  24.918  1.00  0.00     0.102 C 
ATOM      8  C   UNL A   1      30.743  23.769  23.365  1.00  0.00     0.032 C 
ATOM      9  C   UNL A   1      31.288  23.450  24.740  1.00  0.00     0.096 C 
ATOM     10  N   UNL A   1      31.645  24.635  25.531  1.00  0.00    -0.321 N 
ATOM     11  C   UNL A   1      32.817  22.817  26.403  1.00  0.00     0.037 C 
ATOM     12  C   UNL A   1      32.766  24.346  26.402  1.00  0.00     0.122 C 
BRANCH  10  13
ATOM     13  C   UNL A   1      31.123  25.902  25.453  1.00  0.00     0.320 C 
ATOM     14  O   UNL A   1      29.934  26.135  25.658  1.00  0.00    -0.248 OA
BRANCH  13  15
ATOM     15  N   UNL A   1      32.016  26.910  25.121  1.00  0.00    -0.315 N 
ATOM     16  C   UNL A   1      31.988  28.156  25.898  1.00  0.00     0.144 C 
ATOM     17  C   UNL A   1      32.400  27.046  23.709  1.00  0.00     0.199 C 
ATOM     18  C   UNL A   1      31.476  29.380  25.114  1.00  0.00     0.146 C 
ATOM     19  C   UNL A   1      31.383  27.950  23.113  1.00  0.00     0.152 A 
ATOM     20  N   UNL A   1      30.920  29.012  23.837  1.00  0.00    -0.314 N 
ATOM     21  N   UNL A   1      30.677  27.843  22.011  1.00  0.00    -0.134 NA
ATOM     22  C   UNL A   1      29.844  29.491  23.177  1.00  0.00     0.226 A 
ATOM     23  N   UNL A   1      29.704  28.823  22.051  1.00  0.00    -0.139 NA
ENDBRANCH  13  15
ENDBRANCH  10  13
ENDBRANCH   4   7
ENDBRANCH   2   3
ENDBRANCH   1   2
BRANCH   1  24
ATOM     24  C   UNL A   1      37.452  21.186  24.725  1.00  0.00     0.023 C 
BRANCH  24  25
ATOM     25  C   UNL A   1      38.610  21.184  25.705  1.00  0.00     0.116 C 
BRANCH  25  26
ATOM     26  N   UNL A   1      39.463  20.001  25.609  1.00  0.00    -0.352 N 
ATOM     27  C   UNL A   1      40.783  19.880  25.973  1.00  0.00     0.251 C 
ATOM     28  H   UNL A   1      39.041  19.193  25.237  1.00  0.00     0.163 HD
ATOM     29  O   UNL A   1      41.405  18.841  25.781  1.00  0.00    -0.269 OA
BRANCH  27  30
ATOM     30  C   UNL A   1      41.448  21.062  26.550  1.00  0.00     0.039 A 
ATOM     31  C   UNL A   1      42.041  21.988  25.693  1.00  0.00     0.014 A 
ATOM     32  C   UNL A   1      41.323  21.321  27.916  1.00  0.00     0.014 A 
ATOM     33  C   UNL A   1      42.426  23.229  26.199  1.00  0.00     0.010 A 
ATOM     34  C   UNL A   1      41.600  22.592  28.389  1.00  0.00     0.010 A 
ATOM     35  C   UNL A   1      42.156  23.559  27.538  1.00  0.00    -0.014 A 
BRANCH  35  36
ATOM     36  C   UNL A   1      42.455  24.905  28.083  1.00  0.00     0.031 A 
ATOM     37  C   UNL A   1      43.858  25.232  28.516  1.00  0.00     0.074 A 
ATOM     38  C   UNL A   1      41.461  25.794  28.273  1.00  0.00     0.049 A 
ATOM     39  N   UNL A   1      44.309  26.303  29.113  1.00  0.00    -0.248 NA
ATOM     40  C   UNL A   1      44.879  24.194  28.291  1.00  0.00     0.031 C 
ATOM     41  C   UNL A   1      40.045  25.577  27.959  1.00  0.00     0.029 A 
ATOM     42  N   UNL A   1      41.491  27.066  28.787  1.00  0.00    -0.354 N 
ATOM     43  C   UNL A   1      45.650  26.051  29.368  1.00  0.00     0.074 A 
ATOM     44  C   UNL A   1      45.926  24.705  28.918  1.00  0.00     0.031 C 
ATOM     45  C   UNL A   1      39.354  26.691  28.248  1.00  0.00     0.029 A 
ATOM     46  C   UNL A   1      40.266  27.687  28.800  1.00  0.00     0.049 A 
ATOM     47  H   UNL A   1      42.315  27.495  29.115  1.00  0.00     0.167 HD
ATOM     48  C   UNL A   1      46.582  26.874  29.903  1.00  0.00     0.031 A 
ATOM     49  C   UNL A   1      39.919  28.921  29.209  1.00  0.00     0.031 A 
ATOM     50  C   UNL A   1      46.322  28.228  30.300  1.00  0.00     0.049 A 
ATOM     51  C   UNL A   1      40.980  29.836  29.752  1.00  0.00     0.074 A 
ATOM     52  C   UNL A   1      47.212  29.174  30.776  1.00  0.00     0.029 A 
ATOM     53  N   UNL A   1      45.076  28.833  30.254  1.00  0.00    -0.354 N 
ATOM     54  N   UNL A   1      42.260  29.606  29.922  1.00  0.00    -0.248 NA
ATOM     55  C   UNL A   1      40.551  31.185  30.146  1.00  0.00     0.031 C 
ATOM     56  C   UNL A   1      46.497  30.346  31.046  1.00  0.00     0.029 A 
ATOM     57  C   UNL A   1      45.171  30.139  30.700  1.00  0.00     0.049 A 
ATOM     58  H   UNL A   1      44.247  28.398  29.948  1.00  0.00     0.167 HD
ATOM     59  C   UNL A   1      42.793  30.788  30.420  1.00  0.00     0.074 A 
ATOM     60  C   UNL A   1      41.702  31.736  30.509  1.00  0.00     0.031 C 
ATOM     61  C   UNL A   1      44.071  31.065  30.773  1.00  0.00     0.031 A 
BRANCH  48  62
ATOM     62  C   UNL A   1      47.968  26.321  30.071  1.00  0.00    -0.014 A 
ATOM     63  C   UNL A   1      48.888  26.332  29.009  1.00  0.00     0.009 A 
ATOM     64  C   UNL A   1      48.361  25.783  31.305  1.00  0.00     0.009 A 
ATOM     65  C   UNL A   1      50.158  25.774  29.168  1.00  0.00     0.001 A 
ATOM     66  C   UNL A   1      49.642  25.253  31.469  1.00  0.00     0.001 A 
ATOM     67  C   UNL A   1      50.535  25.238  30.398  1.00  0.00     0.000 A 
ENDBRANCH  48  62
BRANCH  49  68
ATOM     68  C   UNL A   1      38.513  29.383  29.084  1.00  0.00    -0.014 A 
ATOM     69  C   UNL A   1      37.633  29.273  30.172  1.00  0.00     0.009 A 
ATOM     70  C   UNL A   1      38.040  29.931  27.882  1.00  0.00     0.009 A 
ATOM     71  C   UNL A   1      36.301  29.676  30.051  1.00  0.00     0.001 A 
ATOM     72  C   UNL A   1      36.713  30.355  27.772  1.00  0.00     0.001 A 
ATOM     73  C   UNL A   1      35.843  30.219  28.853  1.00  0.00     0.000 A 
ENDBRANCH  49  68
BRANCH  61  74
ATOM     74  C   UNL A   1      44.363  32.455  31.255  1.00  0.00    -0.014 A 
ATOM     75  C   UNL A   1      44.279  32.783  32.617  1.00  0.00     0.009 A 
ATOM     76  C   UNL A   1      44.775  33.435  30.338  1.00  0.00     0.009 A 
ATOM     77  C   UNL A   1      44.577  34.076  33.047  1.00  0.00     0.001 A 
ATOM     78  C   UNL A   1      45.097  34.719  30.776  1.00  0.00     0.001 A 
ATOM     79  C   UNL A   1      44.990  35.041  32.128  1.00  0.00     0.000 A 
ENDBRANCH  61  74
ENDBRANCH  35  36
ENDBRANCH  27  30
ENDBRANCH  25  26
ENDBRANCH  24  25
ENDBRANCH   1  24
TORSDOF 13
ENDMDL
MODEL 2
REMARK VINA RESULT:     -11.5      0.394      5.937
REMARK SMILES C[C@H]1[C@@H](C(=O)NCCCCNC(=O)c2ccc(-c3c4nc(c(-c5ccccc5)c5ccc([nH]5)c(-c5ccccc5)c5nc(c(-c6ccccc6)c6ccc3[nH]6)C=C5)C=C4)cc2)CCN1C(=O)N1CCn2cnnc2C1
REMARK SMILES IDX 8 1 7 2 6 3 4 4 5 5 3 7 1 8 2 9 64 10 62 11 63 12 65 13
REMARK SMILES IDX 66 14 67 15 68 16 75 17 69 18 74 19 70 20 73 21 71 22 72 23
REMARK SMILES IDX 9 24 10 25 11 26 12 27 13 29 14 30 15 31 61 32 16 33 60 34
REMARK SMILES IDX 17 35 18 36 19 37 54 38 20 39 59 40 53 41 55 42 21 43 58 44
REMARK SMILES IDX 52 45 51 46 22 48 44 49 29 50 43 51 30 52 33 53 42 54 56 55
REMARK SMILES IDX 31 56 32 57 41 59 57 60 34 61 23 62 24 63 28 64 25 65 27 66
REMARK SMILES IDX 26 67 45 68 46 69 50 70 47 71 49 72 48 73 35 74 36 75 40 76
REMARK SMILES IDX 37 77 39 78 38 79
REMARK H PARENT 6 6 11 28 55 47 33 58
REMARK Flexibility Score: inf
ROOT
ATOM      1  C   UNL A   1      36.512  20.268  24.988  1.00  0.00     0.023 C 
ENDROOT
BRANCH   1   2
ATOM      2  C   UNL A   1      35.023  20.618  24.956  1.00  0.00     0.116 C 
BRANCH   2   3
ATOM      3  N   UNL A   1      34.869  21.914  24.353  1.00  0.00    -0.356 N 
ATOM      4  C   UNL A   1      33.759  22.647  24.095  1.00  0.00     0.225 C 
ATOM      5  O   UNL A   1      33.937  23.545  23.263  1.00  0.00    -0.275 OA
ATOM      6  H   UNL A   1      35.714  22.341  24.081  1.00  0.00     0.163 HD
BRANCH   4   7
ATOM      7  C   UNL A   1      32.439  22.524  24.890  1.00  0.00     0.102 C 
ATOM      8  C   UNL A   1      30.642  23.813  23.394  1.00  0.00     0.032 C 
ATOM      9  C   UNL A   1      31.225  23.485  24.752  1.00  0.00     0.096 C 
ATOM     10  N   UNL A   1      31.598  24.665  25.541  1.00  0.00    -0.321 N 
ATOM     11  C   UNL A   1      32.800  22.845  26.368  1.00  0.00     0.037 C 
ATOM     12  C   UNL A   1      32.743  24.374  26.381  1.00  0.00     0.122 C 
BRANCH  10  13
ATOM     13  C   UNL A   1      31.071  25.931  25.488  1.00  0.00     0.320 C 
ATOM     14  O   UNL A   1      29.886  26.158  25.724  1.00  0.00    -0.248 OA
BRANCH  13  15
ATOM     15  N   UNL A   1      31.951  26.945  25.142  1.00  0.00    -0.315 N 
ATOM     16  C   UNL A   1      31.913  28.199  25.906  1.00  0.00     0.144 C 
ATOM     17  C   UNL A   1      32.329  27.071  23.727  1.00  0.00     0.199 C 
ATOM     18  C   UNL A   1      31.385  29.409  25.111  1.00  0.00     0.146 C 
ATOM     19  C   UNL A   1      31.301  27.957  23.126  1.00  0.00     0.152 A 
ATOM     20  N   UNL A   1      30.829  29.021  23.840  1.00  0.00    -0.314 N 
ATOM     21  N   UNL A   1      30.592  27.831  22.027  1.00  0.00    -0.134 NA
ATOM     22  C   UNL A   1      29.745  29.482  23.179  1.00  0.00     0.226 A 
ATOM     23  N   UNL A   1      29.608  28.802  22.060  1.00  0.00    -0.139 NA
ENDBRANCH  13  15
ENDBRANCH  10  13
ENDBRANCH   4   7
ENDBRANCH   2   3
ENDBRANCH   1   2
BRANCH   1  24
ATOM     24  C   UNL A   1      37.449  21.454  24.824  1.00  0.00     0.023 C 
BRANCH  24  25
ATOM     25  C   UNL A   1      38.648  21.397  25.751  1.00  0.00     0.116 C 
BRANCH  25  26
ATOM     26  N   UNL A   1      39.403  20.149  25.663  1.00  0.00    -0.352 N 
ATOM     27  C   UNL A   1      40.712  19.927  26.023  1.00  0.00     0.251 C 
ATOM     28  H   UNL A   1      38.917  19.373  25.303  1.00  0.00     0.163 HD
ATOM     29  O   UNL A   1      41.248  18.839  25.839  1.00  0.00    -0.269 OA
BRANCH  27  30
ATOM     30  C   UNL A   1      41.472  21.058  26.583  1.00  0.00     0.039 A 
ATOM     31  C   UNL A   1      41.984  22.023  25.716  1.00  0.00     0.014 A 
ATOM     32  C   UNL A   1      41.517  21.236  27.967  1.00  0.00     0.014 A 
ATOM     33  C   UNL A   1      42.460  23.223  26.243  1.00  0.00     0.010 A 
ATOM     34  C   UNL A   1      41.882  22.471  28.476  1.00  0.00     0.010 A 
ATOM     35  C   UNL A   1      42.359  23.476  27.622  1.00  0.00    -0.014 A 
BRANCH  35  36
ATOM     36  C   UNL A   1      42.757  24.781  28.204  1.00  0.00     0.031 A 
ATOM     37  C   UNL A   1      41.710  25.834  28.440  1.00  0.00     0.074 A 
ATOM     38  C   UNL A   1      44.057  25.050  28.434  1.00  0.00     0.049 A 
ATOM     39  N   UNL A   1      41.858  27.071  28.838  1.00  0.00    -0.248 NA
ATOM     40  C   UNL A   1      40.317  25.461  28.142  1.00  0.00     0.031 C 
ATOM     41  C   UNL A   1      45.178  24.140  28.184  1.00  0.00     0.029 A 
ATOM     42  N   UNL A   1      44.656  26.181  28.928  1.00  0.00    -0.354 N 
ATOM     43  C   UNL A   1      40.588  27.629  28.798  1.00  0.00     0.074 A 
ATOM     44  C   UNL A   1      39.692  26.620  28.281  1.00  0.00     0.031 C 
ATOM     45  C   UNL A   1      46.321  24.733  28.565  1.00  0.00     0.029 A 
ATOM     46  C   UNL A   1      46.021  26.076  29.050  1.00  0.00     0.049 A 
ATOM     47  H   UNL A   1      44.156  26.994  29.172  1.00  0.00     0.167 HD
ATOM     48  C   UNL A   1      40.191  28.864  29.185  1.00  0.00     0.031 A 
ATOM     49  C   UNL A   1      46.926  26.962  29.505  1.00  0.00     0.031 A 
ATOM     50  C   UNL A   1      41.070  29.848  29.749  1.00  0.00     0.049 A 
ATOM     51  C   UNL A   1      46.456  28.310  29.977  1.00  0.00     0.074 A 
ATOM     52  C   UNL A   1      40.758  31.099  30.249  1.00  0.00     0.029 A 
ATOM     53  N   UNL A   1      42.439  29.683  29.898  1.00  0.00    -0.354 N 
ATOM     54  N   UNL A   1      45.239  28.798  29.999  1.00  0.00    -0.248 NA
ATOM     55  C   UNL A   1      47.483  29.221  30.501  1.00  0.00     0.031 C 
ATOM     56  C   UNL A   1      41.945  31.704  30.677  1.00  0.00     0.029 A 
ATOM     57  C   UNL A   1      42.987  30.814  30.477  1.00  0.00     0.049 A 
ATOM     58  H   UNL A   1      42.945  28.881  29.632  1.00  0.00     0.167 HD
ATOM     59  C   UNL A   1      45.351  30.064  30.559  1.00  0.00     0.074 A 
ATOM     60  C   UNL A   1      46.750  30.260  30.878  1.00  0.00     0.031 C 
ATOM     61  C   UNL A   1      44.382  30.982  30.790  1.00  0.00     0.031 A 
BRANCH  48  62
ATOM     62  C   UNL A   1      38.737  29.200  29.017  1.00  0.00    -0.014 A 
ATOM     63  C   UNL A   1      38.239  29.677  27.794  1.00  0.00     0.009 A 
ATOM     64  C   UNL A   1      37.854  29.037  30.095  1.00  0.00     0.009 A 
ATOM     65  C   UNL A   1      36.893  30.028  27.667  1.00  0.00     0.001 A 
ATOM     66  C   UNL A   1      36.503  29.361  29.956  1.00  0.00     0.001 A 
ATOM     67  C   UNL A   1      36.026  29.866  28.747  1.00  0.00     0.000 A 
ENDBRANCH  48  62
BRANCH  49  68
ATOM     68  C   UNL A   1      48.363  26.594  29.578  1.00  0.00    -0.014 A 
ATOM     69  C   UNL A   1      49.223  26.889  28.509  1.00  0.00     0.009 A 
ATOM     70  C   UNL A   1      48.882  25.944  30.708  1.00  0.00     0.009 A 
ATOM     71  C   UNL A   1      50.569  26.516  28.557  1.00  0.00     0.001 A 
ATOM     72  C   UNL A   1      50.234  25.594  30.763  1.00  0.00     0.001 A 
ATOM     73  C   UNL A   1      51.073  25.872  29.685  1.00  0.00     0.000 A 
ENDBRANCH  49  68
BRANCH  61  74
ATOM     74  C   UNL A   1      44.798  32.267  31.445  1.00  0.00    -0.014 A 
ATOM     75  C   UNL A   1      45.094  33.406  30.683  1.00  0.00     0.009 A 
ATOM     76  C   UNL A   1      44.845  32.347  32.846  1.00  0.00     0.009 A 
ATOM     77  C   UNL A   1      45.456  34.597  31.313  1.00  0.00     0.001 A 
ATOM     78  C   UNL A   1      45.183  33.546  33.472  1.00  0.00     0.001 A 
ATOM     79  C   UNL A   1      45.495  34.667  32.706  1.00  0.00     0.000 A 
ENDBRANCH  61  74
ENDBRANCH  35  36
ENDBRANCH  27  30
ENDBRANCH  25  26
ENDBRANCH  24  25
ENDBRANCH   1  24
TORSDOF 13
ENDMDL
MODEL 3
REMARK VINA RESULT:     -11.3      1.803      7.591
REMARK SMILES C[C@H]1[C@@H](C(=O)NCCCCNC(=O)c2ccc(-c3c4nc(c(-c5ccccc5)c5ccc([nH]5)c(-c5ccccc5)c5nc(c(-c6ccccc6)c6ccc3[nH]6)C=C5)C=C4)cc2)CCN1C(=O)N1CCn2cnnc2C1
REMARK SMILES IDX 8 1 7 2 6 3 4 4 5 5 3 7 1 8 2 9 64 10 62 11 63 12 65 13
REMARK SMILES IDX 66 14 67 15 68 16 75 17 69 18 74 19 70 20 73 21 71 22 72 23
REMARK SMILES IDX 9 24 10 25 11 26 12 27 13 29 14 30 15 31 61 32 16 33 60 34
REMARK SMILES IDX 17 35 18 36 19 37 54 38 20 39 59 40 53 41 55 42 21 43 58 44
REMARK SMILES IDX 52 45 51 46 22 48 44 49 29 50 43 51 30 52 33 53 42 54 56 55
REMARK SMILES IDX 31 56 32 57 41 59 57 60 34 61 23 62 24 63 28 64 25 65 27 66
REMARK SMILES IDX 26 67 45 68 46 69 50 70 47 71 49 72 48 73 35 74 36 75 40 76
REMARK SMILES IDX 37 77 39 78 38 79
REMARK H PARENT 6 6 11 28 55 47 33 58
REMARK Flexibility Score: inf
ROOT
ATOM      1  C   UNL A   1      31.677  30.124  25.683  1.00  0.00     0.023 C 
ENDROOT
BRANCH   1   2
ATOM      2  C   UNL A   1      31.043  29.385  24.503  1.00  0.00     0.116 C 
BRANCH   2   3
ATOM      3  N   UNL A   1      32.067  29.104  23.534  1.00  0.00    -0.356 N 
ATOM      4  C   UNL A   1      32.662  27.938  23.183  1.00  0.00     0.225 C 
ATOM      5  O   UNL A   1      33.733  28.085  22.582  1.00  0.00    -0.275 OA
ATOM      6  H   UNL A   1      32.391  29.892  23.041  1.00  0.00     0.163 HD
BRANCH   4   7
ATOM      7  C   UNL A   1      31.998  26.550  23.333  1.00  0.00     0.102 C 
ATOM      8  C   UNL A   1      32.238  25.977  25.929  1.00  0.00     0.032 C 
ATOM      9  C   UNL A   1      32.291  25.543  24.480  1.00  0.00     0.096 C 
ATOM     10  N   UNL A   1      33.555  24.904  24.094  1.00  0.00    -0.321 N 
ATOM     11  C   UNL A   1      32.533  25.692  22.152  1.00  0.00     0.037 C 
ATOM     12  C   UNL A   1      33.866  25.188  22.708  1.00  0.00     0.122 C 
BRANCH  10  13
ATOM     13  C   UNL A   1      34.436  24.209  24.884  1.00  0.00     0.320 C 
ATOM     14  O   UNL A   1      35.395  24.751  25.431  1.00  0.00    -0.248 OA
BRANCH  13  15
ATOM     15  N   UNL A   1      34.190  22.852  25.025  1.00  0.00    -0.315 N 
ATOM     16  C   UNL A   1      33.425  22.164  23.976  1.00  0.00     0.144 C 
ATOM     17  C   UNL A   1      34.023  22.325  26.387  1.00  0.00     0.199 C 
ATOM     18  C   UNL A   1      32.023  21.700  24.416  1.00  0.00     0.146 C 
ATOM     19  C   UNL A   1      32.576  22.471  26.688  1.00  0.00     0.152 A 
ATOM     20  N   UNL A   1      31.657  22.228  25.706  1.00  0.00    -0.314 N 
ATOM     21  N   UNL A   1      31.961  22.966  27.737  1.00  0.00    -0.134 NA
ATOM     22  C   UNL A   1      30.471  22.682  26.165  1.00  0.00     0.226 A 
ATOM     23  N   UNL A   1      30.625  23.096  27.406  1.00  0.00    -0.139 NA
ENDBRANCH  13  15
ENDBRANCH  10  13
ENDBRANCH   4   7
ENDBRANCH   2   3
ENDBRANCH   1   2
BRANCH   1  24
ATOM     24  C   UNL A   1      32.179  29.225  26.801  1.00  0.00     0.023 C 
BRANCH  24  25
ATOM     25  C   UNL A   1      33.591  29.558  27.243  1.00  0.00     0.116 C 
BRANCH  25  26
ATOM     26  N   UNL A   1      33.686  30.771  28.052  1.00  0.00    -0.352 N 
ATOM     27  C   UNL A   1      34.758  31.211  28.791  1.00  0.00     0.251 C 
ATOM     28  H   UNL A   1      32.885  31.343  28.069  1.00  0.00     0.163 HD
ATOM     29  O   UNL A   1      34.686  32.223  29.480  1.00  0.00    -0.269 OA
BRANCH  27  30
ATOM     30  C   UNL A   1      35.984  30.393  28.779  1.00  0.00     0.039 A 
ATOM     31  C   UNL A   1      36.839  30.474  27.681  1.00  0.00     0.014 A 
ATOM     32  C   UNL A   1      36.351  29.690  29.928  1.00  0.00     0.014 A 
ATOM     33  C   UNL A   1      38.117  29.925  27.775  1.00  0.00     0.010 A 
ATOM     34  C   UNL A   1      37.657  29.249  30.059  1.00  0.00     0.010 A 
ATOM     35  C   UNL A   1      38.553  29.359  28.985  1.00  0.00    -0.014 A 
BRANCH  35  36
ATOM     36  C   UNL A   1      39.939  28.860  29.155  1.00  0.00     0.031 A 
ATOM     37  C   UNL A   1      40.990  29.778  29.717  1.00  0.00     0.074 A 
ATOM     38  C   UNL A   1      40.272  27.627  28.726  1.00  0.00     0.049 A 
ATOM     39  N   UNL A   1      42.275  29.578  29.849  1.00  0.00    -0.248 NA
ATOM     40  C   UNL A   1      40.543  31.115  30.142  1.00  0.00     0.031 C 
ATOM     41  C   UNL A   1      39.362  26.663  28.100  1.00  0.00     0.029 A 
ATOM     42  N   UNL A   1      41.478  26.975  28.746  1.00  0.00    -0.354 N 
ATOM     43  C   UNL A   1      42.790  30.774  30.331  1.00  0.00     0.074 A 
ATOM     44  C   UNL A   1      41.693  31.711  30.412  1.00  0.00     0.031 C 
ATOM     45  C   UNL A   1      40.034  25.531  27.836  1.00  0.00     0.029 A 
ATOM     46  C   UNL A   1      41.426  25.699  28.238  1.00  0.00     0.049 A 
ATOM     47  H   UNL A   1      42.306  27.381  29.093  1.00  0.00     0.167 HD
ATOM     48  C   UNL A   1      44.059  31.062  30.705  1.00  0.00     0.031 A 
ATOM     49  C   UNL A   1      42.392  24.771  28.114  1.00  0.00     0.031 A 
ATOM     50  C   UNL A   1      45.137  30.116  30.676  1.00  0.00     0.049 A 
ATOM     51  C   UNL A   1      43.783  25.096  28.582  1.00  0.00     0.074 A 
ATOM     52  C   UNL A   1      46.441  30.280  31.108  1.00  0.00     0.029 A 
ATOM     53  N   UNL A   1      45.030  28.820  30.197  1.00  0.00    -0.354 N 
ATOM     54  N   UNL A   1      44.239  26.209  29.103  1.00  0.00    -0.248 NA
ATOM     55  C   UNL A   1      44.788  24.030  28.459  1.00  0.00     0.031 C 
ATOM     56  C   UNL A   1      47.132  29.088  30.864  1.00  0.00     0.029 A 
ATOM     57  C   UNL A   1      46.248  28.173  30.316  1.00  0.00     0.049 A 
ATOM     58  H   UNL A   1      44.210  28.419  29.827  1.00  0.00     0.167 HD
ATOM     59  C   UNL A   1      45.577  25.971  29.390  1.00  0.00     0.074 A 
ATOM     60  C   UNL A   1      45.853  24.604  29.002  1.00  0.00     0.031 C 
ATOM     61  C   UNL A   1      46.495  26.810  29.928  1.00  0.00     0.031 A 
BRANCH  48  62
ATOM     62  C   UNL A   1      44.330  32.458  31.186  1.00  0.00    -0.014 A 
ATOM     63  C   UNL A   1      44.716  33.472  30.294  1.00  0.00     0.009 A 
ATOM     64  C   UNL A   1      44.197  32.766  32.548  1.00  0.00     0.009 A 
ATOM     65  C   UNL A   1      45.009  34.754  30.764  1.00  0.00     0.001 A 
ATOM     66  C   UNL A   1      44.462  34.056  33.011  1.00  0.00     0.001 A 
ATOM     67  C   UNL A   1      44.878  35.045  32.121  1.00  0.00     0.000 A 
ENDBRANCH  48  62
BRANCH  49  68
ATOM     68  C   UNL A   1      42.074  23.429  27.560  1.00  0.00    -0.014 A 
ATOM     69  C   UNL A   1      42.368  23.130  26.221  1.00  0.00     0.009 A 
ATOM     70  C   UNL A   1      41.474  22.445  28.360  1.00  0.00     0.009 A 
ATOM     71  C   UNL A   1      42.042  21.881  25.685  1.00  0.00     0.001 A 
ATOM     72  C   UNL A   1      41.171  21.189  27.827  1.00  0.00     0.001 A 
ATOM     73  C   UNL A   1      41.447  20.912  26.489  1.00  0.00     0.000 A 
ENDBRANCH  49  68
BRANCH  61  74
ATOM     74  C   UNL A   1      47.873  26.260  30.157  1.00  0.00    -0.014 A 
ATOM     75  C   UNL A   1      48.262  25.783  31.417  1.00  0.00     0.009 A 
ATOM     76  C   UNL A   1      48.773  26.177  29.083  1.00  0.00     0.009 A 
ATOM     77  C   UNL A   1      49.540  25.253  31.603  1.00  0.00     0.001 A 
ATOM     78  C   UNL A   1      50.041  25.624  29.268  1.00  0.00     0.001 A 
ATOM     79  C   UNL A   1      50.425  25.171  30.528  1.00  0.00     0.000 A 
ENDBRANCH  61  74
ENDBRANCH  35  36
ENDBRANCH  27  30
ENDBRANCH  25  26
ENDBRANCH  24  25
ENDBRANCH   1  24
TORSDOF 13
ENDMDL
