MODEL 1
REMARK VINA RESULT:     -11.5      0.000      0.000
REMARK SMILES C/C(=N\NC(N)=S)c1nnn(-c2ccc(C(=O)NCCCCNC(=O)c3ccc(-c4c5nc(c(-c6ccccc6)c6ccc([nH]6)c(-c6ccccc6)c6nc(c(-c7ccccc7)c7ccc4[nH]7)C=C6)C=C5)cc3)cc2)c1C
REMARK SMILES IDX 19 1 18 2 16 3 17 4 15 6 12 7 13 8 75 9 14 10 74 11 11 12
REMARK SMILES IDX 8 13 9 14 76 15 10 16 77 17 2 18 1 19 3 20 4 21 5 23 7 24
REMARK SMILES IDX 6 25 20 28 21 29 22 30 23 31 24 32 25 34 26 35 27 36 73 37
REMARK SMILES IDX 28 38 72 39 29 40 30 41 31 42 66 43 32 44 71 45 65 46 67 47
REMARK SMILES IDX 33 48 70 49 64 50 63 51 34 53 56 54 41 55 55 56 42 57 45 58
REMARK SMILES IDX 54 59 68 60 43 61 44 62 53 64 69 65 46 66 35 67 36 68 40 69
REMARK SMILES IDX 37 70 39 71 38 72 57 73 58 74 62 75 59 76 61 77 60 78 47 79
REMARK SMILES IDX 48 80 52 81 49 82 51 83 50 84
REMARK H PARENT 18 5 4 22 6 26 6 27 23 33 67 52 45 63
REMARK Flexibility Score: inf
ROOT
ATOM      1  C   UNL A   1      35.068  20.691  25.081  1.00  0.00     0.116 C 
ENDROOT
BRANCH   1   2
ATOM      2  N   UNL A   1      34.837  21.082  26.462  1.00  0.00    -0.352 N 
ATOM      3  C   UNL A   1      34.177  22.140  27.042  1.00  0.00     0.251 C 
ATOM      4  O   UNL A   1      34.092  22.142  28.271  1.00  0.00    -0.269 OA
ATOM      5  H   UNL A   1      35.236  20.462  27.116  1.00  0.00     0.163 HD
BRANCH   3   6
ATOM      6  C   UNL A   1      33.511  23.231  26.269  1.00  0.00     0.039 A 
ATOM      7  C   UNL A   1      32.355  25.477  25.069  1.00  0.00     0.067 A 
ATOM      8  C   UNL A   1      33.744  25.414  25.186  1.00  0.00     0.029 A 
ATOM      9  C   UNL A   1      31.557  24.392  25.425  1.00  0.00     0.029 A 
ATOM     10  C   UNL A   1      34.313  24.298  25.814  1.00  0.00     0.016 A 
ATOM     11  C   UNL A   1      32.146  23.260  25.978  1.00  0.00     0.016 A 
BRANCH   7  12
ATOM     12  N   UNL A   1      31.729  26.676  24.696  1.00  0.00    -0.217 N 
ATOM     13  C   UNL A   1      30.639  28.233  23.648  1.00  0.00     0.132 A 
ATOM     14  N   UNL A   1      30.968  28.687  24.900  1.00  0.00    -0.128 NA
ATOM     15  C   UNL A   1      31.087  26.935  23.499  1.00  0.00     0.071 A 
ATOM     16  N   UNL A   1      31.565  27.700  25.555  1.00  0.00    -0.061 NA
ATOM     17  C   UNL A   1      30.827  25.924  22.448  1.00  0.00     0.069 C 
BRANCH  13  18
ATOM     18  C   UNL A   1      29.732  28.960  22.780  1.00  0.00     0.087 C 
ATOM     19  C   UNL A   1      28.279  28.590  22.912  1.00  0.00     0.071 C 
ATOM     20  N   UNL A   1      30.274  29.870  22.024  1.00  0.00    -0.176 NA
BRANCH  20  21
ATOM     21  N   UNL A   1      29.524  30.693  21.232  1.00  0.00    -0.254 N 
ATOM     22  H   UNL A   1      29.518  30.465  20.274  1.00  0.00     0.193 HD
BRANCH  21  23
ATOM     23  C   UNL A   1      28.776  31.797  21.583  1.00  0.00     0.184 C 
ATOM     24  S   UNL A   1      28.759  32.663  23.003  1.00  0.00    -0.040 S 
BRANCH  23  25
ATOM     25  N   UNL A   1      27.939  32.190  20.574  1.00  0.00    -0.375 N 
ATOM     26  H   UNL A   1      27.775  31.592  19.809  1.00  0.00     0.159 HD
ATOM     27  H   UNL A   1      27.501  33.072  20.611  1.00  0.00     0.159 HD
ENDBRANCH  23  25
ENDBRANCH  21  23
ENDBRANCH  20  21
ENDBRANCH  13  18
ENDBRANCH   7  12
ENDBRANCH   3   6
ENDBRANCH   1   2
BRANCH   1  28
ATOM     28  C   UNL A   1      36.519  20.947  24.648  1.00  0.00     0.023 C 
BRANCH  28  29
ATOM     29  C   UNL A   1      37.524  19.844  25.009  1.00  0.00     0.023 C 
BRANCH  29  30
ATOM     30  C   UNL A   1      38.903  20.339  25.425  1.00  0.00     0.116 C 
BRANCH  30  31
ATOM     31  N   UNL A   1      39.865  19.256  25.643  1.00  0.00    -0.352 N 
ATOM     32  C   UNL A   1      41.216  19.359  25.936  1.00  0.00     0.251 C 
ATOM     33  H   UNL A   1      39.507  18.342  25.573  1.00  0.00     0.163 HD
ATOM     34  O   UNL A   1      41.988  18.443  25.715  1.00  0.00    -0.269 OA
BRANCH  32  35
ATOM     35  C   UNL A   1      41.695  20.610  26.547  1.00  0.00     0.039 A 
ATOM     36  C   UNL A   1      42.322  21.609  25.798  1.00  0.00     0.014 A 
ATOM     37  C   UNL A   1      41.444  20.781  27.904  1.00  0.00     0.014 A 
ATOM     38  C   UNL A   1      42.607  22.827  26.416  1.00  0.00     0.010 A 
ATOM     39  C   UNL A   1      41.565  22.027  28.458  1.00  0.00     0.010 A 
ATOM     40  C   UNL A   1      42.203  23.035  27.744  1.00  0.00    -0.014 A 
BRANCH  40  41
ATOM     41  C   UNL A   1      42.362  24.328  28.394  1.00  0.00     0.031 A 
ATOM     42  C   UNL A   1      41.296  25.326  28.116  1.00  0.00     0.074 A 
ATOM     43  C   UNL A   1      43.279  24.544  29.362  1.00  0.00     0.049 A 
ATOM     44  N   UNL A   1      41.423  26.440  27.476  1.00  0.00    -0.248 NA
ATOM     45  C   UNL A   1      39.912  25.018  28.507  1.00  0.00     0.031 C 
ATOM     46  C   UNL A   1      44.200  23.585  29.985  1.00  0.00     0.029 A 
ATOM     47  N   UNL A   1      43.486  25.669  30.095  1.00  0.00    -0.354 N 
ATOM     48  C   UNL A   1      40.180  27.065  27.525  1.00  0.00     0.074 A 
ATOM     49  C   UNL A   1      39.256  26.083  28.040  1.00  0.00     0.031 C 
ATOM     50  C   UNL A   1      44.659  24.090  31.151  1.00  0.00     0.029 A 
ATOM     51  C   UNL A   1      44.221  25.469  31.256  1.00  0.00     0.049 A 
ATOM     52  H   UNL A   1      43.143  26.552  29.826  1.00  0.00     0.167 HD
ATOM     53  C   UNL A   1      40.051  28.407  27.339  1.00  0.00     0.031 A 
ATOM     54  C   UNL A   1      44.423  26.368  32.249  1.00  0.00     0.031 A 
ATOM     55  C   UNL A   1      41.264  28.995  26.831  1.00  0.00     0.049 A 
ATOM     56  C   UNL A   1      44.178  27.713  31.678  1.00  0.00     0.074 A 
ATOM     57  C   UNL A   1      42.026  28.821  25.693  1.00  0.00     0.029 A 
ATOM     58  N   UNL A   1      42.082  29.622  27.741  1.00  0.00    -0.354 N 
ATOM     59  N   UNL A   1      44.936  28.246  30.764  1.00  0.00    -0.248 NA
ATOM     60  C   UNL A   1      42.838  28.269  31.778  1.00  0.00     0.031 C 
ATOM     61  C   UNL A   1      43.376  28.885  26.149  1.00  0.00     0.029 A 
ATOM     62  C   UNL A   1      43.358  29.173  27.515  1.00  0.00     0.049 A 
ATOM     63  H   UNL A   1      41.804  30.271  28.427  1.00  0.00     0.167 HD
ATOM     64  C   UNL A   1      44.051  28.857  29.886  1.00  0.00     0.074 A 
ATOM     65  C   UNL A   1      42.788  28.934  30.620  1.00  0.00     0.031 C 
ATOM     66  C   UNL A   1      44.343  28.974  28.556  1.00  0.00     0.031 A 
BRANCH  53  67
ATOM     67  C   UNL A   1      38.976  29.254  27.966  1.00  0.00    -0.014 A 
ATOM     68  C   UNL A   1      38.936  29.372  29.367  1.00  0.00     0.009 A 
ATOM     69  C   UNL A   1      37.846  29.703  27.258  1.00  0.00     0.009 A 
ATOM     70  C   UNL A   1      37.799  29.853  30.026  1.00  0.00     0.001 A 
ATOM     71  C   UNL A   1      36.725  30.221  27.910  1.00  0.00     0.001 A 
ATOM     72  C   UNL A   1      36.690  30.270  29.297  1.00  0.00     0.000 A 
ENDBRANCH  53  67
BRANCH  54  73
ATOM     73  C   UNL A   1      44.540  26.127  33.702  1.00  0.00    -0.014 A 
ATOM     74  C   UNL A   1      45.068  27.113  34.550  1.00  0.00     0.009 A 
ATOM     75  C   UNL A   1      43.870  25.042  34.296  1.00  0.00     0.009 A 
ATOM     76  C   UNL A   1      44.886  27.040  35.939  1.00  0.00     0.001 A 
ATOM     77  C   UNL A   1      43.691  24.967  35.682  1.00  0.00     0.001 A 
ATOM     78  C   UNL A   1      44.183  25.977  36.501  1.00  0.00     0.000 A 
ENDBRANCH  54  73
BRANCH  66  79
ATOM     79  C   UNL A   1      45.740  28.618  28.103  1.00  0.00    -0.014 A 
ATOM     80  C   UNL A   1      46.805  29.538  28.088  1.00  0.00     0.009 A 
ATOM     81  C   UNL A   1      46.025  27.273  27.827  1.00  0.00     0.009 A 
ATOM     82  C   UNL A   1      48.105  29.129  27.768  1.00  0.00     0.001 A 
ATOM     83  C   UNL A   1      47.327  26.860  27.530  1.00  0.00     0.001 A 
ATOM     84  C   UNL A   1      48.364  27.789  27.492  1.00  0.00     0.000 A 
ENDBRANCH  66  79
ENDBRANCH  40  41
ENDBRANCH  32  35
ENDBRANCH  30  31
ENDBRANCH  29  30
ENDBRANCH  28  29
ENDBRANCH   1  28
TORSDOF 16
ENDMDL
MODEL 2
REMARK VINA RESULT:     -11.4      2.494      5.783
REMARK SMILES C/C(=N\NC(N)=S)c1nnn(-c2ccc(C(=O)NCCCCNC(=O)c3ccc(-c4c5nc(c(-c6ccccc6)c6ccc([nH]6)c(-c6ccccc6)c6nc(c(-c7ccccc7)c7ccc4[nH]7)C=C6)C=C5)cc3)cc2)c1C
REMARK SMILES IDX 19 1 18 2 16 3 17 4 15 6 12 7 13 8 75 9 14 10 74 11 11 12
REMARK SMILES IDX 8 13 9 14 76 15 10 16 77 17 2 18 1 19 3 20 4 21 5 23 7 24
REMARK SMILES IDX 6 25 20 28 21 29 22 30 23 31 24 32 25 34 26 35 27 36 73 37
REMARK SMILES IDX 28 38 72 39 29 40 30 41 31 42 66 43 32 44 71 45 65 46 67 47
REMARK SMILES IDX 33 48 70 49 64 50 63 51 34 53 56 54 41 55 55 56 42 57 45 58
REMARK SMILES IDX 54 59 68 60 43 61 44 62 53 64 69 65 46 66 35 67 36 68 40 69
REMARK SMILES IDX 37 70 39 71 38 72 57 73 58 74 62 75 59 76 61 77 60 78 47 79
REMARK SMILES IDX 48 80 52 81 49 82 51 83 50 84
REMARK H PARENT 18 5 4 22 6 26 6 27 23 33 67 52 45 63
REMARK Flexibility Score: inf
ROOT
ATOM      1  C   UNL A   1      35.614  20.203  24.923  1.00  0.00     0.116 C 
ENDROOT
BRANCH   1   2
ATOM      2  N   UNL A   1      34.343  19.551  25.194  1.00  0.00    -0.352 N 
ATOM      3  C   UNL A   1      33.037  19.980  25.147  1.00  0.00     0.251 C 
ATOM      4  O   UNL A   1      32.162  19.140  25.363  1.00  0.00    -0.269 OA
ATOM      5  H   UNL A   1      34.437  18.609  25.468  1.00  0.00     0.163 HD
BRANCH   3   6
ATOM      6  C   UNL A   1      32.630  21.371  24.786  1.00  0.00     0.039 A 
ATOM      7  C   UNL A   1      32.165  24.005  23.970  1.00  0.00     0.067 A 
ATOM      8  C   UNL A   1      32.280  23.009  23.000  1.00  0.00     0.029 A 
ATOM      9  C   UNL A   1      32.154  23.687  25.326  1.00  0.00     0.029 A 
ATOM     10  C   UNL A   1      32.542  21.697  23.417  1.00  0.00     0.016 A 
ATOM     11  C   UNL A   1      32.339  22.366  25.722  1.00  0.00     0.016 A 
BRANCH   7  12
ATOM     12  N   UNL A   1      32.172  25.359  23.600  1.00  0.00    -0.217 N 
ATOM     13  C   UNL A   1      31.628  27.413  23.157  1.00  0.00     0.132 A 
ATOM     14  N   UNL A   1      32.985  27.271  23.010  1.00  0.00    -0.128 NA
ATOM     15  C   UNL A   1      31.083  26.211  23.565  1.00  0.00     0.071 A 
ATOM     16  N   UNL A   1      33.312  26.034  23.358  1.00  0.00    -0.061 NA
ATOM     17  C   UNL A   1      29.729  25.867  24.057  1.00  0.00     0.069 C 
BRANCH  13  18
ATOM     18  C   UNL A   1      30.984  28.713  23.133  1.00  0.00     0.087 C 
ATOM     19  C   UNL A   1      31.003  29.465  24.436  1.00  0.00     0.071 C 
ATOM     20  N   UNL A   1      30.504  29.089  21.985  1.00  0.00    -0.176 NA
BRANCH  20  21
ATOM     21  N   UNL A   1      29.959  30.328  21.799  1.00  0.00    -0.254 N 
ATOM     22  H   UNL A   1      30.586  31.023  21.494  1.00  0.00     0.193 HD
BRANCH  21  23
ATOM     23  C   UNL A   1      28.656  30.744  21.977  1.00  0.00     0.184 C 
ATOM     24  S   UNL A   1      27.967  31.571  23.244  1.00  0.00    -0.040 S 
BRANCH  23  25
ATOM     25  N   UNL A   1      27.857  30.390  20.923  1.00  0.00    -0.375 N 
ATOM     26  H   UNL A   1      28.253  29.971  20.124  1.00  0.00     0.159 HD
ATOM     27  H   UNL A   1      26.887  30.554  20.962  1.00  0.00     0.159 HD
ENDBRANCH  23  25
ENDBRANCH  21  23
ENDBRANCH  20  21
ENDBRANCH  13  18
ENDBRANCH   7  12
ENDBRANCH   3   6
ENDBRANCH   1   2
BRANCH   1  28
ATOM     28  C   UNL A   1      35.813  21.455  25.789  1.00  0.00     0.023 C 
BRANCH  28  29
ATOM     29  C   UNL A   1      36.398  22.676  25.067  1.00  0.00     0.023 C 
BRANCH  29  30
ATOM     30  C   UNL A   1      37.652  23.263  25.703  1.00  0.00     0.116 C 
BRANCH  30  31
ATOM     31  N   UNL A   1      38.707  22.271  25.926  1.00  0.00    -0.352 N 
ATOM     32  C   UNL A   1      39.984  22.478  26.421  1.00  0.00     0.251 C 
ATOM     33  H   UNL A   1      38.478  21.342  25.697  1.00  0.00     0.163 HD
ATOM     34  O   UNL A   1      40.887  21.690  26.205  1.00  0.00    -0.269 OA
BRANCH  32  35
ATOM     35  C   UNL A   1      40.220  23.680  27.240  1.00  0.00     0.039 A 
ATOM     36  C   UNL A   1      41.472  23.971  27.786  1.00  0.00     0.014 A 
ATOM     37  C   UNL A   1      39.146  24.548  27.401  1.00  0.00     0.014 A 
ATOM     38  C   UNL A   1      41.654  25.201  28.418  1.00  0.00     0.010 A 
ATOM     39  C   UNL A   1      39.371  25.817  27.864  1.00  0.00     0.010 A 
ATOM     40  C   UNL A   1      40.601  26.130  28.432  1.00  0.00    -0.014 A 
BRANCH  40  41
ATOM     41  C   UNL A   1      40.778  27.473  28.965  1.00  0.00     0.031 A 
ATOM     42  C   UNL A   1      41.830  28.295  28.310  1.00  0.00     0.074 A 
ATOM     43  C   UNL A   1      39.906  28.028  29.834  1.00  0.00     0.049 A 
ATOM     44  N   UNL A   1      42.928  28.717  28.841  1.00  0.00    -0.248 NA
ATOM     45  C   UNL A   1      41.701  28.607  26.879  1.00  0.00     0.031 C 
ATOM     46  C   UNL A   1      38.641  27.480  30.341  1.00  0.00     0.029 A 
ATOM     47  N   UNL A   1      39.910  29.285  30.350  1.00  0.00    -0.354 N 
ATOM     48  C   UNL A   1      43.557  29.495  27.874  1.00  0.00     0.074 A 
ATOM     49  C   UNL A   1      42.835  29.272  26.645  1.00  0.00     0.031 C 
ATOM     50  C   UNL A   1      37.893  28.478  30.862  1.00  0.00     0.029 A 
ATOM     51  C   UNL A   1      38.698  29.684  30.897  1.00  0.00     0.049 A 
ATOM     52  H   UNL A   1      40.706  29.864  30.338  1.00  0.00     0.167 HD
ATOM     53  C   UNL A   1      44.493  30.427  28.208  1.00  0.00     0.031 A 
ATOM     54  C   UNL A   1      38.372  30.929  31.317  1.00  0.00     0.031 A 
ATOM     55  C   UNL A   1      44.915  30.291  29.579  1.00  0.00     0.049 A 
ATOM     56  C   UNL A   1      39.641  31.652  31.569  1.00  0.00     0.074 A 
ATOM     57  C   UNL A   1      45.518  29.292  30.316  1.00  0.00     0.029 A 
ATOM     58  N   UNL A   1      44.344  31.144  30.495  1.00  0.00    -0.354 N 
ATOM     59  N   UNL A   1      40.467  31.326  32.522  1.00  0.00    -0.248 NA
ATOM     60  C   UNL A   1      40.216  32.431  30.485  1.00  0.00     0.031 C 
ATOM     61  C   UNL A   1      44.852  29.321  31.578  1.00  0.00     0.029 A 
ATOM     62  C   UNL A   1      43.944  30.382  31.563  1.00  0.00     0.049 A 
ATOM     63  H   UNL A   1      44.241  32.118  30.401  1.00  0.00     0.167 HD
ATOM     64  C   UNL A   1      41.726  31.446  31.950  1.00  0.00     0.074 A 
ATOM     65  C   UNL A   1      41.514  32.235  30.737  1.00  0.00     0.031 C 
ATOM     66  C   UNL A   1      42.764  30.653  32.354  1.00  0.00     0.031 A 
BRANCH  53  67
ATOM     67  C   UNL A   1      44.750  31.691  27.434  1.00  0.00    -0.014 A 
ATOM     68  C   UNL A   1      46.051  31.946  26.963  1.00  0.00     0.009 A 
ATOM     69  C   UNL A   1      43.840  32.763  27.398  1.00  0.00     0.009 A 
ATOM     70  C   UNL A   1      46.436  33.223  26.539  1.00  0.00     0.001 A 
ATOM     71  C   UNL A   1      44.210  34.030  26.937  1.00  0.00     0.001 A 
ATOM     72  C   UNL A   1      45.516  34.267  26.534  1.00  0.00     0.000 A 
ENDBRANCH  53  67
BRANCH  54  73
ATOM     73  C   UNL A   1      37.065  31.613  31.249  1.00  0.00    -0.014 A 
ATOM     74  C   UNL A   1      36.655  32.478  32.277  1.00  0.00     0.009 A 
ATOM     75  C   UNL A   1      36.342  31.642  30.042  1.00  0.00     0.009 A 
ATOM     76  C   UNL A   1      35.594  33.375  32.082  1.00  0.00     0.001 A 
ATOM     77  C   UNL A   1      35.281  32.533  29.849  1.00  0.00     0.001 A 
ATOM     78  C   UNL A   1      34.920  33.414  30.864  1.00  0.00     0.000 A 
ENDBRANCH  54  73
BRANCH  66  79
ATOM     79  C   UNL A   1      42.563  29.795  33.582  1.00  0.00    -0.014 A 
ATOM     80  C   UNL A   1      41.983  28.513  33.543  1.00  0.00     0.009 A 
ATOM     81  C   UNL A   1      43.115  30.233  34.794  1.00  0.00     0.009 A 
ATOM     82  C   UNL A   1      41.924  27.714  34.690  1.00  0.00     0.001 A 
ATOM     83  C   UNL A   1      43.077  29.426  35.935  1.00  0.00     0.001 A 
ATOM     84  C   UNL A   1      42.474  28.171  35.885  1.00  0.00     0.000 A 
ENDBRANCH  66  79
ENDBRANCH  40  41
ENDBRANCH  32  35
ENDBRANCH  30  31
ENDBRANCH  29  30
ENDBRANCH  28  29
ENDBRANCH   1  28
TORSDOF 16
ENDMDL
MODEL 3
REMARK VINA RESULT:     -11.2      3.672      8.425
REMARK SMILES C/C(=N\NC(N)=S)c1nnn(-c2ccc(C(=O)NCCCCNC(=O)c3ccc(-c4c5nc(c(-c6ccccc6)c6ccc([nH]6)c(-c6ccccc6)c6nc(c(-c7ccccc7)c7ccc4[nH]7)C=C6)C=C5)cc3)cc2)c1C
REMARK SMILES IDX 19 1 18 2 16 3 17 4 15 6 12 7 13 8 75 9 14 10 74 11 11 12
REMARK SMILES IDX 8 13 9 14 76 15 10 16 77 17 2 18 1 19 3 20 4 21 5 23 7 24
REMARK SMILES IDX 6 25 20 28 21 29 22 30 23 31 24 32 25 34 26 35 27 36 73 37
REMARK SMILES IDX 28 38 72 39 29 40 30 41 31 42 66 43 32 44 71 45 65 46 67 47
REMARK SMILES IDX 33 48 70 49 64 50 63 51 34 53 56 54 41 55 55 56 42 57 45 58
REMARK SMILES IDX 54 59 68 60 43 61 44 62 53 64 69 65 46 66 35 67 36 68 40 69
REMARK SMILES IDX 37 70 39 71 38 72 57 73 58 74 62 75 59 76 61 77 60 78 47 79
REMARK SMILES IDX 48 80 52 81 49 82 51 83 50 84
REMARK H PARENT 18 5 4 22 6 26 6 27 23 33 67 52 45 63
REMARK Flexibility Score: inf
ROOT
ATOM      1  C   UNL A   1      30.679  30.480  24.925  1.00  0.00     0.116 C 
ENDROOT
BRANCH   1   2
ATOM      2  N   UNL A   1      30.264  30.265  23.548  1.00  0.00    -0.352 N 
ATOM      3  C   UNL A   1      30.249  29.158  22.733  1.00  0.00     0.251 C 
ATOM      4  O   UNL A   1      29.751  29.292  21.614  1.00  0.00    -0.269 OA
ATOM      5  H   UNL A   1      29.926  31.080  23.110  1.00  0.00     0.163 HD
BRANCH   3   6
ATOM      6  C   UNL A   1      30.734  27.808  23.151  1.00  0.00     0.039 A 
ATOM      7  C   UNL A   1      31.610  25.389  24.246  1.00  0.00     0.067 A 
ATOM      8  C   UNL A   1      30.281  25.771  24.431  1.00  0.00     0.029 A 
ATOM      9  C   UNL A   1      32.460  26.128  23.427  1.00  0.00     0.029 A 
ATOM     10  C   UNL A   1      29.859  26.999  23.904  1.00  0.00     0.016 A 
ATOM     11  C   UNL A   1      32.001  27.306  22.848  1.00  0.00     0.016 A 
BRANCH   7  12
ATOM     12  N   UNL A   1      32.146  24.314  24.972  1.00  0.00    -0.217 N 
ATOM     13  C   UNL A   1      32.833  22.362  25.625  1.00  0.00     0.132 A 
ATOM     14  N   UNL A   1      33.161  23.291  26.581  1.00  0.00    -0.128 NA
ATOM     15  C   UNL A   1      32.210  22.993  24.568  1.00  0.00     0.071 A 
ATOM     16  N   UNL A   1      32.804  24.487  26.135  1.00  0.00    -0.061 NA
ATOM     17  C   UNL A   1      31.843  22.509  23.216  1.00  0.00     0.069 C 
BRANCH  13  18
ATOM     18  C   UNL A   1      33.338  21.002  25.670  1.00  0.00     0.087 C 
ATOM     19  C   UNL A   1      34.786  20.839  25.294  1.00  0.00     0.071 C 
ATOM     20  N   UNL A   1      32.494  20.095  26.067  1.00  0.00    -0.176 NA
BRANCH  20  21
ATOM     21  N   UNL A   1      32.864  18.792  26.248  1.00  0.00    -0.254 N 
ATOM     22  H   UNL A   1      33.195  18.569  27.148  1.00  0.00     0.193 HD
BRANCH  21  23
ATOM     23  C   UNL A   1      32.840  17.746  25.350  1.00  0.00     0.184 C 
ATOM     24  S   UNL A   1      32.864  17.771  23.688  1.00  0.00    -0.040 S 
BRANCH  23  25
ATOM     25  N   UNL A   1      32.784  16.531  25.980  1.00  0.00    -0.375 N 
ATOM     26  H   UNL A   1      32.288  15.786  25.569  1.00  0.00     0.159 HD
ATOM     27  H   UNL A   1      33.239  16.403  26.843  1.00  0.00     0.159 HD
ENDBRANCH  23  25
ENDBRANCH  21  23
ENDBRANCH  20  21
ENDBRANCH  13  18
ENDBRANCH   7  12
ENDBRANCH   3   6
ENDBRANCH   1   2
BRANCH   1  28
ATOM     28  C   UNL A   1      31.913  29.645  25.290  1.00  0.00     0.023 C 
BRANCH  28  29
ATOM     29  C   UNL A   1      32.406  29.785  26.737  1.00  0.00     0.023 C 
BRANCH  29  30
ATOM     30  C   UNL A   1      33.733  30.516  26.900  1.00  0.00     0.116 C 
BRANCH  30  31
ATOM     31  N   UNL A   1      33.662  31.646  27.829  1.00  0.00    -0.352 N 
ATOM     32  C   UNL A   1      34.505  31.935  28.890  1.00  0.00     0.251 C 
ATOM     33  H   UNL A   1      32.923  32.280  27.679  1.00  0.00     0.163 HD
ATOM     34  O   UNL A   1      34.149  32.647  29.812  1.00  0.00    -0.269 OA
BRANCH  32  35
ATOM     35  C   UNL A   1      35.865  31.370  28.863  1.00  0.00     0.039 A 
ATOM     36  C   UNL A   1      37.001  32.162  29.044  1.00  0.00     0.014 A 
ATOM     37  C   UNL A   1      35.968  29.992  28.707  1.00  0.00     0.014 A 
ATOM     38  C   UNL A   1      38.241  31.534  29.160  1.00  0.00     0.010 A 
ATOM     39  C   UNL A   1      37.152  29.370  28.993  1.00  0.00     0.010 A 
ATOM     40  C   UNL A   1      38.304  30.132  29.157  1.00  0.00    -0.014 A 
BRANCH  40  41
ATOM     41  C   UNL A   1      39.554  29.425  29.402  1.00  0.00     0.031 A 
ATOM     42  C   UNL A   1      39.812  29.042  30.815  1.00  0.00     0.074 A 
ATOM     43  C   UNL A   1      40.321  28.944  28.400  1.00  0.00     0.049 A 
ATOM     44  N   UNL A   1      40.750  29.488  31.581  1.00  0.00    -0.248 NA
ATOM     45  C   UNL A   1      38.874  28.132  31.489  1.00  0.00     0.031 C 
ATOM     46  C   UNL A   1      40.058  28.952  26.956  1.00  0.00     0.029 A 
ATOM     47  N   UNL A   1      41.462  28.211  28.487  1.00  0.00    -0.354 N 
ATOM     48  C   UNL A   1      40.637  28.796  32.783  1.00  0.00     0.074 A 
ATOM     49  C   UNL A   1      39.382  28.087  32.722  1.00  0.00     0.031 C 
ATOM     50  C   UNL A   1      40.854  28.047  26.345  1.00  0.00     0.029 A 
ATOM     51  C   UNL A   1      41.805  27.544  27.319  1.00  0.00     0.049 A 
ATOM     52  H   UNL A   1      42.001  28.159  29.309  1.00  0.00     0.167 HD
ATOM     53  C   UNL A   1      41.686  28.693  33.646  1.00  0.00     0.031 A 
ATOM     54  C   UNL A   1      42.781  26.616  27.175  1.00  0.00     0.031 A 
ATOM     55  C   UNL A   1      42.759  29.586  33.292  1.00  0.00     0.049 A 
ATOM     56  C   UNL A   1      43.728  26.800  28.299  1.00  0.00     0.074 A 
ATOM     57  C   UNL A   1      42.882  30.955  33.167  1.00  0.00     0.029 A 
ATOM     58  N   UNL A   1      43.816  29.047  32.598  1.00  0.00    -0.354 N 
ATOM     59  N   UNL A   1      44.473  27.860  28.435  1.00  0.00    -0.248 NA
ATOM     60  C   UNL A   1      43.512  26.031  29.514  1.00  0.00     0.031 C 
ATOM     61  C   UNL A   1      43.690  31.142  32.006  1.00  0.00     0.029 A 
ATOM     62  C   UNL A   1      44.076  29.882  31.541  1.00  0.00     0.049 A 
ATOM     63  H   UNL A   1      44.297  28.216  32.818  1.00  0.00     0.167 HD
ATOM     64  C   UNL A   1      44.433  28.146  29.792  1.00  0.00     0.074 A 
ATOM     65  C   UNL A   1      43.921  26.927  30.417  1.00  0.00     0.031 C 
ATOM     66  C   UNL A   1      44.536  29.431  30.246  1.00  0.00     0.031 A 
BRANCH  53  67
ATOM     67  C   UNL A   1      41.913  27.530  34.574  1.00  0.00    -0.014 A 
ATOM     68  C   UNL A   1      41.819  27.741  35.962  1.00  0.00     0.009 A 
ATOM     69  C   UNL A   1      42.489  26.317  34.153  1.00  0.00     0.009 A 
ATOM     70  C   UNL A   1      42.334  26.816  36.877  1.00  0.00     0.001 A 
ATOM     71  C   UNL A   1      42.967  25.373  35.065  1.00  0.00     0.001 A 
ATOM     72  C   UNL A   1      42.915  25.635  36.427  1.00  0.00     0.000 A 
ENDBRANCH  53  67
BRANCH  54  73
ATOM     73  C   UNL A   1      42.799  25.423  26.304  1.00  0.00    -0.014 A 
ATOM     74  C   UNL A   1      43.819  25.246  25.355  1.00  0.00     0.009 A 
ATOM     75  C   UNL A   1      41.978  24.319  26.597  1.00  0.00     0.009 A 
ATOM     76  C   UNL A   1      44.039  23.995  24.761  1.00  0.00     0.001 A 
ATOM     77  C   UNL A   1      42.195  23.072  26.002  1.00  0.00     0.001 A 
ATOM     78  C   UNL A   1      43.240  22.905  25.098  1.00  0.00     0.000 A 
ENDBRANCH  54  73
BRANCH  66  79
ATOM     79  C   UNL A   1      44.911  30.505  29.252  1.00  0.00    -0.014 A 
ATOM     80  C   UNL A   1      43.976  31.147  28.419  1.00  0.00     0.009 A 
ATOM     81  C   UNL A   1      46.227  30.991  29.265  1.00  0.00     0.009 A 
ATOM     82  C   UNL A   1      44.358  32.215  27.597  1.00  0.00     0.001 A 
ATOM     83  C   UNL A   1      46.602  32.071  28.461  1.00  0.00     0.001 A 
ATOM     84  C   UNL A   1      45.670  32.677  27.622  1.00  0.00     0.000 A 
ENDBRANCH  66  79
ENDBRANCH  40  41
ENDBRANCH  32  35
ENDBRANCH  30  31
ENDBRANCH  29  30
ENDBRANCH  28  29
ENDBRANCH   1  28
TORSDOF 16
ENDMDL
