MODEL 1
REMARK VINA RESULT:     -11.0      0.000      0.000
REMARK SMILES Cc1oc(CNC(=O)c2ccnn2C)cc1C(=O)NCCCCNC(=O)c1ccc(-c2c3nc(c(-c4ccccc4)c4ccc([nH]4)c(-c4ccccc4)c4nc(c(-c5ccccc5)c5ccc2[nH]5)C=C4)C=C3)cc1
REMARK SMILES IDX 21 1 20 2 19 3 17 4 18 5 16 7 1 8 2 9 3 10 4 11 15 12 5 13
REMARK SMILES IDX 6 14 7 15 8 17 9 18 10 19 13 20 11 21 12 22 14 23 22 24
REMARK SMILES IDX 23 25 24 26 25 27 26 29 27 30 28 31 74 32 29 33 73 34 30 35
REMARK SMILES IDX 31 36 32 37 67 38 33 39 72 40 66 41 68 42 34 43 71 44 65 45
REMARK SMILES IDX 64 46 35 48 57 49 42 50 56 51 43 52 46 53 55 54 69 55 44 56
REMARK SMILES IDX 45 57 54 59 70 60 47 61 36 62 37 63 41 64 38 65 40 66 39 67
REMARK SMILES IDX 58 68 59 69 63 70 60 71 62 72 61 73 48 74 49 75 53 76 50 77
REMARK SMILES IDX 52 78 51 79
REMARK H PARENT 19 6 6 16 24 28 68 47 46 58
REMARK Flexibility Score: inf
ROOT
ATOM      1  C   UNL A   1      34.607  30.851  27.761  1.00  0.00     0.023 C 
ENDROOT
BRANCH   1   2
ATOM      2  C   UNL A   1      34.478  29.431  27.215  1.00  0.00     0.116 C 
BRANCH   2   3
ATOM      3  N   UNL A   1      33.283  28.806  27.716  1.00  0.00    -0.352 N 
ATOM      4  C   UNL A   1      32.207  28.220  27.111  1.00  0.00     0.254 C 
ATOM      5  O   UNL A   1      31.358  27.776  27.892  1.00  0.00    -0.269 OA
ATOM      6  H   UNL A   1      33.228  28.800  28.699  1.00  0.00     0.163 HD
BRANCH   4   7
ATOM      7  C   UNL A   1      32.032  28.033  25.670  1.00  0.00     0.081 A 
ATOM      8  C   UNL A   1      33.554  26.094  24.595  1.00  0.00     0.088 C 
ATOM      9  C   UNL A   1      32.559  27.182  24.700  1.00  0.00     0.113 A 
ATOM     10  O   UNL A   1      32.012  27.464  23.479  1.00  0.00    -0.464 OA
ATOM     11  C   UNL A   1      31.181  28.521  23.614  1.00  0.00     0.124 A 
ATOM     12  C   UNL A   1      31.162  28.914  24.927  1.00  0.00     0.061 A 
BRANCH  11  13
ATOM     13  C   UNL A   1      30.484  28.984  22.394  1.00  0.00     0.191 C 
BRANCH  13  14
ATOM     14  N   UNL A   1      29.061  28.752  22.532  1.00  0.00    -0.343 N 
ATOM     15  C   UNL A   1      28.068  29.648  22.820  1.00  0.00     0.269 C 
ATOM     16  H   UNL A   1      28.768  27.821  22.400  1.00  0.00     0.164 HD
ATOM     17  O   UNL A   1      26.963  29.207  23.133  1.00  0.00    -0.268 OA
BRANCH  15  18
ATOM     18  C   UNL A   1      28.351  31.056  22.768  1.00  0.00     0.125 A 
ATOM     19  C   UNL A   1      28.672  31.894  23.821  1.00  0.00     0.055 A 
ATOM     20  N   UNL A   1      28.256  31.887  21.678  1.00  0.00    -0.263 N 
ATOM     21  C   UNL A   1      28.848  33.163  23.251  1.00  0.00     0.136 A 
ATOM     22  N   UNL A   1      28.626  33.157  21.935  1.00  0.00    -0.181 NA
ATOM     23  C   UNL A   1      27.794  31.566  20.348  1.00  0.00     0.174 C 
ENDBRANCH  15  18
ENDBRANCH  13  14
ENDBRANCH  11  13
ENDBRANCH   4   7
ENDBRANCH   2   3
ENDBRANCH   1   2
BRANCH   1  24
ATOM     24  C   UNL A   1      33.290  31.625  27.863  1.00  0.00     0.023 C 
BRANCH  24  25
ATOM     25  C   UNL A   1      33.282  32.982  27.168  1.00  0.00     0.116 C 
BRANCH  25  26
ATOM     26  N   UNL A   1      32.764  34.056  28.001  1.00  0.00    -0.352 N 
ATOM     27  C   UNL A   1      33.320  34.595  29.134  1.00  0.00     0.251 C 
ATOM     28  H   UNL A   1      31.907  34.446  27.714  1.00  0.00     0.163 HD
ATOM     29  O   UNL A   1      32.718  35.447  29.779  1.00  0.00    -0.269 OA
BRANCH  27  30
ATOM     30  C   UNL A   1      34.628  34.099  29.602  1.00  0.00     0.039 A 
ATOM     31  C   UNL A   1      34.668  33.315  30.759  1.00  0.00     0.014 A 
ATOM     32  C   UNL A   1      35.798  34.369  28.886  1.00  0.00     0.014 A 
ATOM     33  C   UNL A   1      35.873  32.740  31.160  1.00  0.00     0.010 A 
ATOM     34  C   UNL A   1      36.989  33.754  29.258  1.00  0.00     0.010 A 
ATOM     35  C   UNL A   1      37.033  32.928  30.391  1.00  0.00    -0.014 A 
BRANCH  35  36
ATOM     36  C   UNL A   1      38.300  32.249  30.742  1.00  0.00     0.031 A 
ATOM     37  C   UNL A   1      39.252  32.883  31.713  1.00  0.00     0.074 A 
ATOM     38  C   UNL A   1      38.628  31.098  30.125  1.00  0.00     0.049 A 
ATOM     39  N   UNL A   1      40.444  32.486  32.076  1.00  0.00    -0.248 NA
ATOM     40  C   UNL A   1      38.817  34.144  32.335  1.00  0.00     0.031 C 
ATOM     41  C   UNL A   1      37.807  30.405  29.129  1.00  0.00     0.029 A 
ATOM     42  N   UNL A   1      39.748  30.316  30.238  1.00  0.00    -0.354 N 
ATOM     43  C   UNL A   1      40.914  33.460  32.947  1.00  0.00     0.074 A 
ATOM     44  C   UNL A   1      39.888  34.477  33.041  1.00  0.00     0.031 C 
ATOM     45  C   UNL A   1      38.445  29.291  28.735  1.00  0.00     0.029 A 
ATOM     46  C   UNL A   1      39.726  29.207  29.428  1.00  0.00     0.049 A 
ATOM     47  H   UNL A   1      40.497  30.529  30.840  1.00  0.00     0.167 HD
ATOM     48  C   UNL A   1      42.090  33.500  33.613  1.00  0.00     0.031 A 
ATOM     49  C   UNL A   1      40.638  28.231  29.264  1.00  0.00     0.031 A 
ATOM     50  C   UNL A   1      43.099  32.479  33.546  1.00  0.00     0.049 A 
ATOM     51  C   UNL A   1      41.915  28.276  30.051  1.00  0.00     0.074 A 
ATOM     52  C   UNL A   1      44.301  32.404  34.228  1.00  0.00     0.029 A 
ATOM     53  N   UNL A   1      43.017  31.347  32.751  1.00  0.00    -0.354 N 
ATOM     54  N   UNL A   1      42.326  29.181  30.904  1.00  0.00    -0.248 NA
ATOM     55  C   UNL A   1      42.848  27.156  29.858  1.00  0.00     0.031 C 
ATOM     56  C   UNL A   1      44.955  31.232  33.832  1.00  0.00     0.029 A 
ATOM     57  C   UNL A   1      44.149  30.569  32.923  1.00  0.00     0.049 A 
ATOM     58  H   UNL A   1      42.266  31.128  32.154  1.00  0.00     0.167 HD
ATOM     59  C   UNL A   1      43.555  28.734  31.364  1.00  0.00     0.074 A 
ATOM     60  C   UNL A   1      43.821  27.473  30.702  1.00  0.00     0.031 C 
ATOM     61  C   UNL A   1      44.390  29.316  32.259  1.00  0.00     0.031 A 
BRANCH  48  62
ATOM     62  C   UNL A   1      42.346  34.702  34.473  1.00  0.00    -0.014 A 
ATOM     63  C   UNL A   1      42.953  35.852  33.944  1.00  0.00     0.009 A 
ATOM     64  C   UNL A   1      41.966  34.688  35.823  1.00  0.00     0.009 A 
ATOM     65  C   UNL A   1      43.202  36.956  34.762  1.00  0.00     0.001 A 
ATOM     66  C   UNL A   1      42.201  35.800  36.633  1.00  0.00     0.001 A 
ATOM     67  C   UNL A   1      42.825  36.929  36.104  1.00  0.00     0.000 A 
ENDBRANCH  48  62
BRANCH  49  68
ATOM     68  C   UNL A   1      40.360  27.112  28.333  1.00  0.00    -0.014 A 
ATOM     69  C   UNL A   1      39.605  26.011  28.762  1.00  0.00     0.009 A 
ATOM     70  C   UNL A   1      40.840  27.142  27.017  1.00  0.00     0.009 A 
ATOM     71  C   UNL A   1      39.350  24.950  27.892  1.00  0.00     0.001 A 
ATOM     72  C   UNL A   1      40.568  26.087  26.143  1.00  0.00     0.001 A 
ATOM     73  C   UNL A   1      39.829  24.989  26.583  1.00  0.00     0.000 A 
ENDBRANCH  49  68
BRANCH  61  74
ATOM     74  C   UNL A   1      45.651  28.577  32.591  1.00  0.00    -0.014 A 
ATOM     75  C   UNL A   1      45.672  27.609  33.605  1.00  0.00     0.009 A 
ATOM     76  C   UNL A   1      46.818  28.830  31.856  1.00  0.00     0.009 A 
ATOM     77  C   UNL A   1      46.850  26.918  33.890  1.00  0.00     0.001 A 
ATOM     78  C   UNL A   1      47.991  28.127  32.135  1.00  0.00     0.001 A 
ATOM     79  C   UNL A   1      48.007  27.176  33.155  1.00  0.00     0.000 A 
ENDBRANCH  61  74
ENDBRANCH  35  36
ENDBRANCH  27  30
ENDBRANCH  25  26
ENDBRANCH  24  25
ENDBRANCH   1  24
TORSDOF 14
ENDMDL
MODEL 2
REMARK VINA RESULT:     -10.8      4.773      9.242
REMARK SMILES Cc1oc(CNC(=O)c2ccnn2C)cc1C(=O)NCCCCNC(=O)c1ccc(-c2c3nc(c(-c4ccccc4)c4ccc([nH]4)c(-c4ccccc4)c4nc(c(-c5ccccc5)c5ccc2[nH]5)C=C4)C=C3)cc1
REMARK SMILES IDX 21 1 20 2 19 3 17 4 18 5 16 7 1 8 2 9 3 10 4 11 15 12 5 13
REMARK SMILES IDX 6 14 7 15 8 17 9 18 10 19 13 20 11 21 12 22 14 23 22 24
REMARK SMILES IDX 23 25 24 26 25 27 26 29 27 30 28 31 74 32 29 33 73 34 30 35
REMARK SMILES IDX 31 36 32 37 67 38 33 39 72 40 66 41 68 42 34 43 71 44 65 45
REMARK SMILES IDX 64 46 35 48 57 49 42 50 56 51 43 52 46 53 55 54 69 55 44 56
REMARK SMILES IDX 45 57 54 59 70 60 47 61 36 62 37 63 41 64 38 65 40 66 39 67
REMARK SMILES IDX 58 68 59 69 63 70 60 71 62 72 61 73 48 74 49 75 53 76 50 77
REMARK SMILES IDX 52 78 51 79
REMARK H PARENT 19 6 6 16 24 28 68 47 46 58
REMARK Flexibility Score: inf
ROOT
ATOM      1  C   UNL A   1      37.056  21.373  24.428  1.00  0.00     0.023 C 
ENDROOT
BRANCH   1   2
ATOM      2  C   UNL A   1      36.824  22.507  25.425  1.00  0.00     0.116 C 
BRANCH   2   3
ATOM      3  N   UNL A   1      35.948  22.075  26.482  1.00  0.00    -0.352 N 
ATOM      4  C   UNL A   1      34.607  21.822  26.543  1.00  0.00     0.254 C 
ATOM      5  O   UNL A   1      34.205  21.452  27.652  1.00  0.00    -0.269 OA
ATOM      6  H   UNL A   1      36.411  21.935  27.339  1.00  0.00     0.163 HD
BRANCH   4   7
ATOM      7  C   UNL A   1      33.670  21.893  25.421  1.00  0.00     0.081 A 
ATOM      8  C   UNL A   1      33.119  19.528  24.266  1.00  0.00     0.088 C 
ATOM      9  C   UNL A   1      33.085  20.978  24.547  1.00  0.00     0.113 A 
ATOM     10  O   UNL A   1      32.259  21.626  23.671  1.00  0.00    -0.464 OA
ATOM     11  C   UNL A   1      32.334  22.954  23.911  1.00  0.00     0.124 A 
ATOM     12  C   UNL A   1      33.186  23.174  24.961  1.00  0.00     0.061 A 
BRANCH  11  13
ATOM     13  C   UNL A   1      31.505  23.835  23.061  1.00  0.00     0.191 C 
BRANCH  13  14
ATOM     14  N   UNL A   1      32.320  24.394  22.003  1.00  0.00    -0.343 N 
ATOM     15  C   UNL A   1      32.814  25.665  21.878  1.00  0.00     0.269 C 
ATOM     16  H   UNL A   1      32.552  23.776  21.273  1.00  0.00     0.164 HD
ATOM     17  O   UNL A   1      33.276  26.003  20.790  1.00  0.00    -0.268 OA
BRANCH  15  18
ATOM     18  C   UNL A   1      32.758  26.557  23.004  1.00  0.00     0.125 A 
ATOM     19  C   UNL A   1      33.690  26.702  24.016  1.00  0.00     0.055 A 
ATOM     20  N   UNL A   1      31.716  27.374  23.370  1.00  0.00    -0.263 N 
ATOM     21  C   UNL A   1      33.169  27.688  24.867  1.00  0.00     0.136 A 
ATOM     22  N   UNL A   1      31.977  28.125  24.459  1.00  0.00    -0.181 NA
ATOM     23  C   UNL A   1      30.414  27.491  22.756  1.00  0.00     0.174 C 
ENDBRANCH  15  18
ENDBRANCH  13  14
ENDBRANCH  11  13
ENDBRANCH   4   7
ENDBRANCH   2   3
ENDBRANCH   1   2
BRANCH   1  24
ATOM     24  C   UNL A   1      37.747  20.136  25.008  1.00  0.00     0.023 C 
BRANCH  24  25
ATOM     25  C   UNL A   1      39.052  20.412  25.747  1.00  0.00     0.116 C 
BRANCH  25  26
ATOM     26  N   UNL A   1      39.963  19.279  25.755  1.00  0.00    -0.352 N 
ATOM     27  C   UNL A   1      41.309  19.273  26.024  1.00  0.00     0.251 C 
ATOM     28  H   UNL A   1      39.563  18.405  25.541  1.00  0.00     0.163 HD
ATOM     29  O   UNL A   1      41.964  18.242  25.909  1.00  0.00    -0.269 OA
BRANCH  27  30
ATOM     30  C   UNL A   1      41.974  20.535  26.400  1.00  0.00     0.039 A 
ATOM     31  C   UNL A   1      42.409  21.388  25.382  1.00  0.00     0.014 A 
ATOM     32  C   UNL A   1      42.132  20.893  27.743  1.00  0.00     0.014 A 
ATOM     33  C   UNL A   1      42.938  22.636  25.708  1.00  0.00     0.010 A 
ATOM     34  C   UNL A   1      42.612  22.157  28.065  1.00  0.00     0.010 A 
ATOM     35  C   UNL A   1      43.009  23.041  27.050  1.00  0.00    -0.014 A 
BRANCH  35  36
ATOM     36  C   UNL A   1      43.476  24.398  27.414  1.00  0.00     0.031 A 
ATOM     37  C   UNL A   1      42.494  25.438  27.863  1.00  0.00     0.074 A 
ATOM     38  C   UNL A   1      44.776  24.713  27.262  1.00  0.00     0.049 A 
ATOM     39  N   UNL A   1      42.699  26.701  28.138  1.00  0.00    -0.248 NA
ATOM     40  C   UNL A   1      41.092  25.010  27.995  1.00  0.00     0.031 C 
ATOM     41  C   UNL A   1      45.822  23.802  26.790  1.00  0.00     0.029 A 
ATOM     42  N   UNL A   1      45.435  25.896  27.478  1.00  0.00    -0.354 N 
ATOM     43  C   UNL A   1      41.451  27.225  28.447  1.00  0.00     0.074 A 
ATOM     44  C   UNL A   1      40.492  26.150  28.306  1.00  0.00     0.031 C 
ATOM     45  C   UNL A   1      46.995  24.455  26.770  1.00  0.00     0.029 A 
ATOM     46  C   UNL A   1      46.779  25.832  27.199  1.00  0.00     0.049 A 
ATOM     47  H   UNL A   1      44.990  26.711  27.802  1.00  0.00     0.167 HD
ATOM     48  C   UNL A   1      41.134  28.486  28.821  1.00  0.00     0.031 A 
ATOM     49  C   UNL A   1      47.730  26.780  27.281  1.00  0.00     0.031 A 
ATOM     50  C   UNL A   1      42.086  29.548  28.992  1.00  0.00     0.049 A 
ATOM     51  C   UNL A   1      47.359  28.159  27.744  1.00  0.00     0.074 A 
ATOM     52  C   UNL A   1      41.867  30.845  29.421  1.00  0.00     0.029 A 
ATOM     53  N   UNL A   1      43.445  29.430  28.745  1.00  0.00    -0.354 N 
ATOM     54  N   UNL A   1      46.181  28.628  28.075  1.00  0.00    -0.248 NA
ATOM     55  C   UNL A   1      48.453  29.135  27.853  1.00  0.00     0.031 C 
ATOM     56  C   UNL A   1      43.094  31.519  29.419  1.00  0.00     0.029 A 
ATOM     57  C   UNL A   1      44.077  30.633  29.010  1.00  0.00     0.049 A 
ATOM     58  H   UNL A   1      43.894  28.613  28.429  1.00  0.00     0.167 HD
ATOM     59  C   UNL A   1      46.392  29.946  28.450  1.00  0.00     0.074 A 
ATOM     60  C   UNL A   1      47.812  30.202  28.313  1.00  0.00     0.031 C 
ATOM     61  C   UNL A   1      45.490  30.864  28.873  1.00  0.00     0.031 A 
BRANCH  48  62
ATOM     62  C   UNL A   1      39.684  28.779  29.067  1.00  0.00    -0.014 A 
ATOM     63  C   UNL A   1      38.862  29.270  28.040  1.00  0.00     0.009 A 
ATOM     64  C   UNL A   1      39.131  28.552  30.336  1.00  0.00     0.009 A 
ATOM     65  C   UNL A   1      37.519  29.557  28.289  1.00  0.00     0.001 A 
ATOM     66  C   UNL A   1      37.783  28.823  30.577  1.00  0.00     0.001 A 
ATOM     67  C   UNL A   1      36.981  29.332  29.556  1.00  0.00     0.000 A 
ENDBRANCH  48  62
BRANCH  49  68
ATOM     68  C   UNL A   1      49.133  26.448  26.942  1.00  0.00    -0.014 A 
ATOM     69  C   UNL A   1      50.016  26.016  27.944  1.00  0.00     0.009 A 
ATOM     70  C   UNL A   1      49.594  26.553  25.622  1.00  0.00     0.009 A 
ATOM     71  C   UNL A   1      51.342  25.711  27.630  1.00  0.00     0.001 A 
ATOM     72  C   UNL A   1      50.916  26.231  25.309  1.00  0.00     0.001 A 
ATOM     73  C   UNL A   1      51.790  25.816  26.315  1.00  0.00     0.000 A 
ENDBRANCH  49  68
BRANCH  61  74
ATOM     74  C   UNL A   1      46.019  32.216  29.244  1.00  0.00    -0.014 A 
ATOM     75  C   UNL A   1      46.463  32.482  30.548  1.00  0.00     0.009 A 
ATOM     76  C   UNL A   1      46.107  33.219  28.269  1.00  0.00     0.009 A 
ATOM     77  C   UNL A   1      46.968  33.741  30.872  1.00  0.00     0.001 A 
ATOM     78  C   UNL A   1      46.627  34.473  28.594  1.00  0.00     0.001 A 
ATOM     79  C   UNL A   1      47.052  34.734  29.896  1.00  0.00     0.000 A 
ENDBRANCH  61  74
ENDBRANCH  35  36
ENDBRANCH  27  30
ENDBRANCH  25  26
ENDBRANCH  24  25
ENDBRANCH   1  24
TORSDOF 14
ENDMDL
MODEL 3
REMARK VINA RESULT:     -10.6      2.031      3.925
REMARK SMILES Cc1oc(CNC(=O)c2ccnn2C)cc1C(=O)NCCCCNC(=O)c1ccc(-c2c3nc(c(-c4ccccc4)c4ccc([nH]4)c(-c4ccccc4)c4nc(c(-c5ccccc5)c5ccc2[nH]5)C=C4)C=C3)cc1
REMARK SMILES IDX 21 1 20 2 19 3 17 4 18 5 16 7 1 8 2 9 3 10 4 11 15 12 5 13
REMARK SMILES IDX 6 14 7 15 8 17 9 18 10 19 13 20 11 21 12 22 14 23 22 24
REMARK SMILES IDX 23 25 24 26 25 27 26 29 27 30 28 31 74 32 29 33 73 34 30 35
REMARK SMILES IDX 31 36 32 37 67 38 33 39 72 40 66 41 68 42 34 43 71 44 65 45
REMARK SMILES IDX 64 46 35 48 57 49 42 50 56 51 43 52 46 53 55 54 69 55 44 56
REMARK SMILES IDX 45 57 54 59 70 60 47 61 36 62 37 63 41 64 38 65 40 66 39 67
REMARK SMILES IDX 58 68 59 69 63 70 60 71 62 72 61 73 48 74 49 75 53 76 50 77
REMARK SMILES IDX 52 78 51 79
REMARK H PARENT 19 6 6 16 24 28 68 47 46 58
REMARK Flexibility Score: inf
ROOT
ATOM      1  C   UNL A   1      31.746  29.916  26.414  1.00  0.00     0.023 C 
ENDROOT
BRANCH   1   2
ATOM      2  C   UNL A   1      33.153  29.387  26.145  1.00  0.00     0.116 C 
BRANCH   2   3
ATOM      3  N   UNL A   1      33.469  29.485  24.745  1.00  0.00    -0.352 N 
ATOM      4  C   UNL A   1      33.005  28.843  23.633  1.00  0.00     0.254 C 
ATOM      5  O   UNL A   1      33.523  29.211  22.573  1.00  0.00    -0.269 OA
ATOM      6  H   UNL A   1      34.165  30.152  24.548  1.00  0.00     0.163 HD
BRANCH   4   7
ATOM      7  C   UNL A   1      31.937  27.842  23.605  1.00  0.00     0.081 A 
ATOM      8  C   UNL A   1      29.504  28.809  22.994  1.00  0.00     0.088 C 
ATOM      9  C   UNL A   1      30.570  27.844  23.337  1.00  0.00     0.113 A 
ATOM     10  O   UNL A   1      30.062  26.581  23.462  1.00  0.00    -0.464 OA
ATOM     11  C   UNL A   1      31.056  25.757  23.863  1.00  0.00     0.124 A 
ATOM     12  C   UNL A   1      32.217  26.474  23.975  1.00  0.00     0.061 A 
BRANCH  11  13
ATOM     13  C   UNL A   1      30.706  24.332  24.055  1.00  0.00     0.191 C 
BRANCH  13  14
ATOM     14  N   UNL A   1      30.301  24.114  25.428  1.00  0.00    -0.343 N 
ATOM     15  C   UNL A   1      30.973  23.468  26.431  1.00  0.00     0.269 C 
ATOM     16  H   UNL A   1      29.421  24.481  25.675  1.00  0.00     0.164 HD
ATOM     17  O   UNL A   1      30.352  23.180  27.452  1.00  0.00    -0.268 OA
BRANCH  15  18
ATOM     18  C   UNL A   1      32.359  23.135  26.249  1.00  0.00     0.125 A 
ATOM     19  C   UNL A   1      33.461  23.932  26.501  1.00  0.00     0.055 A 
ATOM     20  N   UNL A   1      32.876  21.994  25.685  1.00  0.00    -0.263 N 
ATOM     21  C   UNL A   1      34.575  23.152  26.158  1.00  0.00     0.136 A 
ATOM     22  N   UNL A   1      34.223  21.954  25.689  1.00  0.00    -0.181 NA
ATOM     23  C   UNL A   1      32.162  20.890  25.088  1.00  0.00     0.174 C 
ENDBRANCH  15  18
ENDBRANCH  13  14
ENDBRANCH  11  13
ENDBRANCH   4   7
ENDBRANCH   2   3
ENDBRANCH   1   2
BRANCH   1  24
ATOM     24  C   UNL A   1      31.632  31.441  26.482  1.00  0.00     0.023 C 
BRANCH  24  25
ATOM     25  C   UNL A   1      32.786  32.144  27.187  1.00  0.00     0.116 C 
BRANCH  25  26
ATOM     26  N   UNL A   1      32.464  33.494  27.620  1.00  0.00    -0.352 N 
ATOM     27  C   UNL A   1      33.188  34.316  28.448  1.00  0.00     0.251 C 
ATOM     28  H   UNL A   1      31.620  33.865  27.275  1.00  0.00     0.163 HD
ATOM     29  O   UNL A   1      32.741  35.406  28.790  1.00  0.00    -0.269 OA
BRANCH  27  30
ATOM     30  C   UNL A   1      34.488  33.852  28.968  1.00  0.00     0.039 A 
ATOM     31  C   UNL A   1      34.504  33.100  30.147  1.00  0.00     0.014 A 
ATOM     32  C   UNL A   1      35.675  34.120  28.280  1.00  0.00     0.014 A 
ATOM     33  C   UNL A   1      35.704  32.555  30.599  1.00  0.00     0.010 A 
ATOM     34  C   UNL A   1      36.862  33.534  28.705  1.00  0.00     0.010 A 
ATOM     35  C   UNL A   1      36.884  32.739  29.860  1.00  0.00    -0.014 A 
BRANCH  35  36
ATOM     36  C   UNL A   1      38.149  32.088  30.268  1.00  0.00     0.031 A 
ATOM     37  C   UNL A   1      39.083  32.783  31.215  1.00  0.00     0.074 A 
ATOM     38  C   UNL A   1      38.492  30.907  29.722  1.00  0.00     0.049 A 
ATOM     39  N   UNL A   1      40.271  32.414  31.618  1.00  0.00    -0.248 NA
ATOM     40  C   UNL A   1      38.632  34.074  31.759  1.00  0.00     0.031 C 
ATOM     41  C   UNL A   1      37.689  30.153  28.755  1.00  0.00     0.029 A 
ATOM     42  N   UNL A   1      39.615  30.139  29.895  1.00  0.00    -0.354 N 
ATOM     43  C   UNL A   1      40.723  33.439  32.438  1.00  0.00     0.074 A 
ATOM     44  C   UNL A   1      39.691  34.453  32.460  1.00  0.00     0.031 C 
ATOM     45  C   UNL A   1      38.339  29.022  28.435  1.00  0.00     0.029 A 
ATOM     46  C   UNL A   1      39.610  28.986  29.150  1.00  0.00     0.049 A 
ATOM     47  H   UNL A   1      40.353  30.391  30.495  1.00  0.00     0.167 HD
ATOM     48  C   UNL A   1      41.890  33.523  33.118  1.00  0.00     0.031 A 
ATOM     49  C   UNL A   1      40.529  28.008  29.055  1.00  0.00     0.031 A 
ATOM     50  C   UNL A   1      42.904  32.506  33.124  1.00  0.00     0.049 A 
ATOM     51  C   UNL A   1      41.794  28.104  29.856  1.00  0.00     0.074 A 
ATOM     52  C   UNL A   1      44.097  32.477  33.826  1.00  0.00     0.029 A 
ATOM     53  N   UNL A   1      42.840  31.330  32.394  1.00  0.00    -0.354 N 
ATOM     54  N   UNL A   1      42.188  29.059  30.663  1.00  0.00    -0.248 NA
ATOM     55  C   UNL A   1      42.736  26.982  29.740  1.00  0.00     0.031 C 
ATOM     56  C   UNL A   1      44.763  31.289  33.507  1.00  0.00     0.029 A 
ATOM     57  C   UNL A   1      43.973  30.570  32.625  1.00  0.00     0.049 A 
ATOM     58  H   UNL A   1      42.099  31.073  31.798  1.00  0.00     0.167 HD
ATOM     59  C   UNL A   1      43.412  28.646  31.165  1.00  0.00     0.074 A 
ATOM     60  C   UNL A   1      43.695  27.352  30.579  1.00  0.00     0.031 C 
ATOM     61  C   UNL A   1      44.231  29.283  32.037  1.00  0.00     0.031 A 
BRANCH  48  62
ATOM     62  C   UNL A   1      42.127  34.774  33.912  1.00  0.00    -0.014 A 
ATOM     63  C   UNL A   1      42.743  35.892  33.331  1.00  0.00     0.009 A 
ATOM     64  C   UNL A   1      41.718  34.837  35.252  1.00  0.00     0.009 A 
ATOM     65  C   UNL A   1      42.975  37.042  34.088  1.00  0.00     0.001 A 
ATOM     66  C   UNL A   1      41.935  35.995  36.002  1.00  0.00     0.001 A 
ATOM     67  C   UNL A   1      42.569  37.092  35.421  1.00  0.00     0.000 A 
ENDBRANCH  48  62
BRANCH  49  68
ATOM     68  C   UNL A   1      40.271  26.836  28.185  1.00  0.00    -0.014 A 
ATOM     69  C   UNL A   1      40.791  26.798  26.882  1.00  0.00     0.009 A 
ATOM     70  C   UNL A   1      39.515  25.752  28.652  1.00  0.00     0.009 A 
ATOM     71  C   UNL A   1      40.542  25.701  26.056  1.00  0.00     0.001 A 
ATOM     72  C   UNL A   1      39.282  24.648  27.829  1.00  0.00     0.001 A 
ATOM     73  C   UNL A   1      39.791  24.627  26.530  1.00  0.00     0.000 A 
ENDBRANCH  49  68
BRANCH  61  74
ATOM     74  C   UNL A   1      45.490  28.572  32.429  1.00  0.00    -0.014 A 
ATOM     75  C   UNL A   1      45.510  27.689  33.519  1.00  0.00     0.009 A 
ATOM     76  C   UNL A   1      46.658  28.762  31.677  1.00  0.00     0.009 A 
ATOM     77  C   UNL A   1      46.687  27.023  33.860  1.00  0.00     0.001 A 
ATOM     78  C   UNL A   1      47.830  28.082  32.012  1.00  0.00     0.001 A 
ATOM     79  C   UNL A   1      47.844  27.218  33.106  1.00  0.00     0.000 A 
ENDBRANCH  61  74
ENDBRANCH  35  36
ENDBRANCH  27  30
ENDBRANCH  25  26
ENDBRANCH  24  25
ENDBRANCH   1  24
TORSDOF 14
ENDMDL
