MODEL 1
REMARK VINA RESULT:     -11.1      0.000      0.000
REMARK SMILES O=C(NCCCCNC(=O)[C@@H](Cc1ccccc1)Nc1ccc(Cl)c(Br)c1)c1ccc(-c2c3nc(c(-c4ccccc4)c4ccc([nH]4)c(-c4ccccc4)c4nc(c(-c5ccccc5)c5ccc2[nH]5)C=C4)C=C3)cc1
REMARK SMILES IDX 5 1 4 2 3 3 1 4 2 5 28 7 29 8 75 9 30 10 74 11 31 12 32 13
REMARK SMILES IDX 33 14 68 15 34 16 73 17 67 18 69 19 35 20 72 21 66 22 65 23
REMARK SMILES IDX 36 25 58 26 43 27 57 28 44 29 47 30 56 31 70 32 45 33 46 34
REMARK SMILES IDX 55 36 71 37 48 38 37 39 38 40 42 41 39 42 41 43 40 44 59 45
REMARK SMILES IDX 60 46 64 47 61 48 63 49 62 50 49 51 50 52 54 53 51 54 53 55
REMARK SMILES IDX 52 56 6 57 7 58 8 59 9 60 10 62 11 63 12 64 13 65 14 66
REMARK SMILES IDX 18 67 15 68 17 69 16 70 19 71 20 73 21 74 27 75 22 76 25 77
REMARK SMILES IDX 23 78 26 79 24 80
REMARK H PARENT 3 6 69 24 47 35 8 61 19 72
REMARK Flexibility Score: inf
ROOT
ATOM      1  C   UNL A   1      31.985  31.090  26.518  1.00  0.00     0.023 C 
ENDROOT
BRANCH   1   2
ATOM      2  C   UNL A   1      32.993  31.925  27.294  1.00  0.00     0.116 C 
BRANCH   2   3
ATOM      3  N   UNL A   1      32.523  33.260  27.650  1.00  0.00    -0.352 N 
ATOM      4  O   UNL A   1      32.618  35.265  28.709  1.00  0.00    -0.269 OA
ATOM      5  C   UNL A   1      33.152  34.194  28.441  1.00  0.00     0.251 C 
ATOM      6  H   UNL A   1      31.650  33.524  27.280  1.00  0.00     0.163 HD
BRANCH   5   7
ATOM      7  C   UNL A   1      34.469  33.850  29.009  1.00  0.00     0.039 A 
ATOM      8  C   UNL A   1      35.631  34.175  28.308  1.00  0.00     0.014 A 
ATOM      9  C   UNL A   1      34.528  33.094  30.182  1.00  0.00     0.014 A 
ATOM     10  C   UNL A   1      36.831  33.589  28.678  1.00  0.00     0.010 A 
ATOM     11  C   UNL A   1      35.758  32.586  30.607  1.00  0.00     0.010 A 
ATOM     12  C   UNL A   1      36.909  32.789  29.831  1.00  0.00    -0.014 A 
BRANCH  12  13
ATOM     13  C   UNL A   1      38.217  32.204  30.213  1.00  0.00     0.031 A 
ATOM     14  C   UNL A   1      39.093  32.853  31.248  1.00  0.00     0.074 A 
ATOM     15  C   UNL A   1      38.582  31.036  29.652  1.00  0.00     0.049 A 
ATOM     16  N   UNL A   1      40.255  32.456  31.703  1.00  0.00    -0.248 NA
ATOM     17  C   UNL A   1      38.612  34.108  31.847  1.00  0.00     0.031 C 
ATOM     18  C   UNL A   1      37.805  30.307  28.644  1.00  0.00     0.029 A 
ATOM     19  N   UNL A   1      39.675  30.241  29.869  1.00  0.00    -0.354 N 
ATOM     20  C   UNL A   1      40.658  33.424  32.615  1.00  0.00     0.074 A 
ATOM     21  C   UNL A   1      39.621  34.433  32.645  1.00  0.00     0.031 C 
ATOM     22  C   UNL A   1      38.412  29.140  28.384  1.00  0.00     0.029 A 
ATOM     23  C   UNL A   1      39.653  29.075  29.145  1.00  0.00     0.049 A 
ATOM     24  H   UNL A   1      40.405  30.481  30.484  1.00  0.00     0.167 HD
ATOM     25  C   UNL A   1      41.791  33.466  33.356  1.00  0.00     0.031 A 
ATOM     26  C   UNL A   1      40.540  28.067  29.084  1.00  0.00     0.031 A 
ATOM     27  C   UNL A   1      42.814  32.453  33.336  1.00  0.00     0.049 A 
ATOM     28  C   UNL A   1      41.792  28.150  29.900  1.00  0.00     0.074 A 
ATOM     29  C   UNL A   1      43.989  32.399  34.065  1.00  0.00     0.029 A 
ATOM     30  N   UNL A   1      42.780  31.315  32.546  1.00  0.00    -0.354 N 
ATOM     31  N   UNL A   1      42.160  29.078  30.749  1.00  0.00    -0.248 NA
ATOM     32  C   UNL A   1      42.758  27.056  29.737  1.00  0.00     0.031 C 
ATOM     33  C   UNL A   1      44.686  31.244  33.688  1.00  0.00     0.029 A 
ATOM     34  C   UNL A   1      43.923  30.560  32.755  1.00  0.00     0.049 A 
ATOM     35  H   UNL A   1      42.052  31.078  31.927  1.00  0.00     0.167 HD
ATOM     36  C   UNL A   1      43.402  28.682  31.222  1.00  0.00     0.074 A 
ATOM     37  C   UNL A   1      43.710  27.416  30.586  1.00  0.00     0.031 C 
ATOM     38  C   UNL A   1      44.218  29.314  32.100  1.00  0.00     0.031 A 
BRANCH  25  39
ATOM     39  C   UNL A   1      42.005  34.666  34.235  1.00  0.00    -0.014 A 
ATOM     40  C   UNL A   1      41.603  34.669  35.579  1.00  0.00     0.009 A 
ATOM     41  C   UNL A   1      42.667  35.793  33.721  1.00  0.00     0.009 A 
ATOM     42  C   UNL A   1      41.840  35.786  36.385  1.00  0.00     0.001 A 
ATOM     43  C   UNL A   1      42.922  36.899  34.534  1.00  0.00     0.001 A 
ATOM     44  C   UNL A   1      42.503  36.897  35.863  1.00  0.00     0.000 A 
ENDBRANCH  25  39
BRANCH  26  45
ATOM     45  C   UNL A   1      40.271  26.911  28.195  1.00  0.00    -0.014 A 
ATOM     46  C   UNL A   1      40.800  26.873  26.896  1.00  0.00     0.009 A 
ATOM     47  C   UNL A   1      39.519  25.820  28.657  1.00  0.00     0.009 A 
ATOM     48  C   UNL A   1      40.574  25.765  26.077  1.00  0.00     0.001 A 
ATOM     49  C   UNL A   1      39.318  24.704  27.846  1.00  0.00     0.001 A 
ATOM     50  C   UNL A   1      39.841  24.679  26.555  1.00  0.00     0.000 A 
ENDBRANCH  26  45
BRANCH  38  51
ATOM     51  C   UNL A   1      45.515  28.636  32.420  1.00  0.00    -0.014 A 
ATOM     52  C   UNL A   1      46.658  28.863  31.637  1.00  0.00     0.009 A 
ATOM     53  C   UNL A   1      45.600  27.773  33.522  1.00  0.00     0.009 A 
ATOM     54  C   UNL A   1      47.856  28.212  31.936  1.00  0.00     0.001 A 
ATOM     55  C   UNL A   1      46.805  27.140  33.831  1.00  0.00     0.001 A 
ATOM     56  C   UNL A   1      47.928  27.354  33.034  1.00  0.00     0.000 A 
ENDBRANCH  38  51
ENDBRANCH  12  13
ENDBRANCH   5   7
ENDBRANCH   2   3
ENDBRANCH   1   2
BRANCH   1  57
ATOM     57  C   UNL A   1      31.957  29.623  26.922  1.00  0.00     0.023 C 
BRANCH  57  58
ATOM     58  C   UNL A   1      33.033  28.755  26.277  1.00  0.00     0.116 C 
BRANCH  58  59
ATOM     59  N   UNL A   1      33.324  29.231  24.944  1.00  0.00    -0.354 N 
ATOM     60  C   UNL A   1      32.960  28.731  23.732  1.00  0.00     0.242 C 
ATOM     61  H   UNL A   1      33.874  30.047  24.907  1.00  0.00     0.163 HD
ATOM     62  O   UNL A   1      33.575  29.174  22.754  1.00  0.00    -0.273 OA
BRANCH  60  63
ATOM     63  C   UNL A   1      31.818  27.701  23.535  1.00  0.00     0.173 C 
BRANCH  63  64
ATOM     64  C   UNL A   1      30.672  28.142  22.596  1.00  0.00     0.070 C 
BRANCH  64  65
ATOM     65  C   UNL A   1      29.633  29.173  22.989  1.00  0.00    -0.045 A 
ATOM     66  C   UNL A   1      28.273  28.910  22.743  1.00  0.00     0.004 A 
ATOM     67  C   UNL A   1      29.976  30.430  23.503  1.00  0.00     0.004 A 
ATOM     68  C   UNL A   1      27.285  29.843  23.075  1.00  0.00     0.000 A 
ATOM     69  C   UNL A   1      28.988  31.360  23.846  1.00  0.00     0.000 A 
ATOM     70  C   UNL A   1      27.643  31.064  23.641  1.00  0.00     0.000 A 
ENDBRANCH  64  65
ENDBRANCH  63  64
BRANCH  63  71
ATOM     71  N   UNL A   1      32.338  26.341  23.310  1.00  0.00    -0.373 N 
ATOM     72  H   UNL A   1      32.368  26.008  22.383  1.00  0.00     0.161 HD
BRANCH  71  73
ATOM     73  C   UNL A   1      32.789  25.498  24.313  1.00  0.00     0.036 A 
ATOM     74  C   UNL A   1      31.875  25.051  25.276  1.00  0.00     0.027 A 
ATOM     75  C   UNL A   1      34.123  25.098  24.456  1.00  0.00     0.043 A 
ATOM     76  C   UNL A   1      32.264  24.190  26.309  1.00  0.00     0.024 A 
ATOM     77  C   UNL A   1      34.523  24.231  25.484  1.00  0.00     0.038 A 
ATOM     78  C   UNL A   1      33.589  23.769  26.410  1.00  0.00     0.055 A 
ATOM     79  Br  UNL A   1      36.356  23.729  25.538  1.00  0.00    -0.049 Br
ATOM     80  Cl  UNL A   1      33.994  22.689  27.695  1.00  0.00    -0.083 Cl
ENDBRANCH  71  73
ENDBRANCH  63  71
ENDBRANCH  60  63
ENDBRANCH  58  59
ENDBRANCH  57  58
ENDBRANCH   1  57
TORSDOF 15
ENDMDL
MODEL 2
REMARK VINA RESULT:     -11.1      3.961      9.159
REMARK SMILES O=C(NCCCCNC(=O)[C@@H](Cc1ccccc1)Nc1ccc(Cl)c(Br)c1)c1ccc(-c2c3nc(c(-c4ccccc4)c4ccc([nH]4)c(-c4ccccc4)c4nc(c(-c5ccccc5)c5ccc2[nH]5)C=C4)C=C3)cc1
REMARK SMILES IDX 5 1 4 2 3 3 1 4 2 5 28 7 29 8 75 9 30 10 74 11 31 12 32 13
REMARK SMILES IDX 33 14 68 15 34 16 73 17 67 18 69 19 35 20 72 21 66 22 65 23
REMARK SMILES IDX 36 25 58 26 43 27 57 28 44 29 47 30 56 31 70 32 45 33 46 34
REMARK SMILES IDX 55 36 71 37 48 38 37 39 38 40 42 41 39 42 41 43 40 44 59 45
REMARK SMILES IDX 60 46 64 47 61 48 63 49 62 50 49 51 50 52 54 53 51 54 53 55
REMARK SMILES IDX 52 56 6 57 7 58 8 59 9 60 10 62 11 63 12 64 13 65 14 66
REMARK SMILES IDX 18 67 15 68 17 69 16 70 19 71 20 73 21 74 27 75 22 76 25 77
REMARK SMILES IDX 23 78 26 79 24 80
REMARK H PARENT 3 6 69 24 47 35 8 61 19 72
REMARK Flexibility Score: inf
ROOT
ATOM      1  C   UNL A   1      37.514  20.666  24.961  1.00  0.00     0.023 C 
ENDROOT
BRANCH   1   2
ATOM      2  C   UNL A   1      38.832  20.872  25.693  1.00  0.00     0.116 C 
BRANCH   2   3
ATOM      3  N   UNL A   1      39.750  19.741  25.608  1.00  0.00    -0.352 N 
ATOM      4  O   UNL A   1      41.754  18.692  25.805  1.00  0.00    -0.269 OA
ATOM      5  C   UNL A   1      41.074  19.697  25.983  1.00  0.00     0.251 C 
ATOM      6  H   UNL A   1      39.378  18.908  25.237  1.00  0.00     0.163 HD
BRANCH   5   7
ATOM      7  C   UNL A   1      41.674  20.916  26.556  1.00  0.00     0.039 A 
ATOM      8  C   UNL A   1      41.649  21.117  27.937  1.00  0.00     0.014 A 
ATOM      9  C   UNL A   1      42.151  21.909  25.698  1.00  0.00     0.014 A 
ATOM     10  C   UNL A   1      41.924  22.377  28.444  1.00  0.00     0.010 A 
ATOM     11  C   UNL A   1      42.522  23.148  26.223  1.00  0.00     0.010 A 
ATOM     12  C   UNL A   1      42.365  23.406  27.594  1.00  0.00    -0.014 A 
BRANCH  12  13
ATOM     13  C   UNL A   1      42.681  24.733  28.177  1.00  0.00     0.031 A 
ATOM     14  C   UNL A   1      44.093  25.124  28.515  1.00  0.00     0.074 A 
ATOM     15  C   UNL A   1      41.675  25.612  28.344  1.00  0.00     0.049 A 
ATOM     16  N   UNL A   1      44.533  26.252  29.013  1.00  0.00    -0.248 NA
ATOM     17  C   UNL A   1      45.146  24.126  28.269  1.00  0.00     0.031 C 
ATOM     18  C   UNL A   1      40.265  25.347  28.038  1.00  0.00     0.029 A 
ATOM     19  N   UNL A   1      41.684  26.911  28.776  1.00  0.00    -0.354 N 
ATOM     20  C   UNL A   1      45.904  26.090  29.170  1.00  0.00     0.074 A 
ATOM     21  C   UNL A   1      46.225  24.751  28.722  1.00  0.00     0.031 C 
ATOM     22  C   UNL A   1      39.559  26.470  28.227  1.00  0.00     0.029 A 
ATOM     23  C   UNL A   1      40.448  27.506  28.738  1.00  0.00     0.049 A 
ATOM     24  H   UNL A   1      42.496  27.372  29.085  1.00  0.00     0.167 HD
ATOM     25  C   UNL A   1      46.810  26.977  29.648  1.00  0.00     0.031 A 
ATOM     26  C   UNL A   1      40.062  28.745  29.089  1.00  0.00     0.031 A 
ATOM     27  C   UNL A   1      46.490  28.313  30.078  1.00  0.00     0.049 A 
ATOM     28  C   UNL A   1      41.082  29.697  29.631  1.00  0.00     0.074 A 
ATOM     29  C   UNL A   1      47.343  29.291  30.560  1.00  0.00     0.029 A 
ATOM     30  N   UNL A   1      45.217  28.858  30.076  1.00  0.00    -0.354 N 
ATOM     31  N   UNL A   1      42.372  29.522  29.782  1.00  0.00    -0.248 NA
ATOM     32  C   UNL A   1      40.591  31.010  30.067  1.00  0.00     0.031 C 
ATOM     33  C   UNL A   1      46.578  30.418  30.885  1.00  0.00     0.029 A 
ATOM     34  C   UNL A   1      45.256  30.153  30.565  1.00  0.00     0.049 A 
ATOM     35  H   UNL A   1      44.403  28.394  29.772  1.00  0.00     0.167 HD
ATOM     36  C   UNL A   1      42.849  30.702  30.331  1.00  0.00     0.074 A 
ATOM     37  C   UNL A   1      41.714  31.594  30.461  1.00  0.00     0.031 C 
ATOM     38  C   UNL A   1      44.113  31.017  30.702  1.00  0.00     0.031 A 
BRANCH  25  39
ATOM     39  C   UNL A   1      48.237  26.521  29.761  1.00  0.00    -0.014 A 
ATOM     40  C   UNL A   1      49.166  26.764  28.738  1.00  0.00     0.009 A 
ATOM     41  C   UNL A   1      48.671  25.886  30.936  1.00  0.00     0.009 A 
ATOM     42  C   UNL A   1      50.496  26.358  28.879  1.00  0.00     0.001 A 
ATOM     43  C   UNL A   1      50.005  25.500  31.083  1.00  0.00     0.001 A 
ATOM     44  C   UNL A   1      50.915  25.731  30.053  1.00  0.00     0.000 A 
ENDBRANCH  25  39
BRANCH  26  45
ATOM     45  C   UNL A   1      38.637  29.131  28.954  1.00  0.00    -0.014 A 
ATOM     46  C   UNL A   1      37.763  29.022  30.046  1.00  0.00     0.009 A 
ATOM     47  C   UNL A   1      38.155  29.654  27.744  1.00  0.00     0.009 A 
ATOM     48  C   UNL A   1      36.431  29.422  29.924  1.00  0.00     0.001 A 
ATOM     49  C   UNL A   1      36.831  30.078  27.633  1.00  0.00     0.001 A 
ATOM     50  C   UNL A   1      35.968  29.957  28.722  1.00  0.00     0.000 A 
ENDBRANCH  26  45
BRANCH  38  51
ATOM     51  C   UNL A   1      44.325  32.385  31.277  1.00  0.00    -0.014 A 
ATOM     52  C   UNL A   1      44.239  32.605  32.660  1.00  0.00     0.009 A 
ATOM     53  C   UNL A   1      44.626  33.461  30.429  1.00  0.00     0.009 A 
ATOM     54  C   UNL A   1      44.422  33.887  33.181  1.00  0.00     0.001 A 
ATOM     55  C   UNL A   1      44.829  34.737  30.956  1.00  0.00     0.001 A 
ATOM     56  C   UNL A   1      44.719  34.950  32.328  1.00  0.00     0.000 A 
ENDBRANCH  38  51
ENDBRANCH  12  13
ENDBRANCH   5   7
ENDBRANCH   2   3
ENDBRANCH   1   2
BRANCH   1  57
ATOM     57  C   UNL A   1      36.975  21.924  24.296  1.00  0.00     0.023 C 
BRANCH  57  58
ATOM     58  C   UNL A   1      35.603  22.378  24.787  1.00  0.00     0.116 C 
BRANCH  58  59
ATOM     59  N   UNL A   1      34.729  22.626  23.663  1.00  0.00    -0.354 N 
ATOM     60  C   UNL A   1      33.402  22.365  23.506  1.00  0.00     0.242 C 
ATOM     61  H   UNL A   1      35.162  23.050  22.888  1.00  0.00     0.163 HD
ATOM     62  O   UNL A   1      32.969  22.424  22.348  1.00  0.00    -0.273 OA
BRANCH  60  63
ATOM     63  C   UNL A   1      32.442  22.054  24.682  1.00  0.00     0.173 C 
BRANCH  63  64
ATOM     64  C   UNL A   1      32.544  20.630  25.274  1.00  0.00     0.070 C 
BRANCH  64  65
ATOM     65  C   UNL A   1      32.942  19.421  24.451  1.00  0.00    -0.045 A 
ATOM     66  C   UNL A   1      34.129  18.733  24.763  1.00  0.00     0.004 A 
ATOM     67  C   UNL A   1      32.225  19.012  23.319  1.00  0.00     0.004 A 
ATOM     68  C   UNL A   1      34.540  17.624  24.017  1.00  0.00     0.000 A 
ATOM     69  C   UNL A   1      32.629  17.895  22.578  1.00  0.00     0.000 A 
ATOM     70  C   UNL A   1      33.780  17.196  22.931  1.00  0.00     0.000 A 
ENDBRANCH  64  65
ENDBRANCH  63  64
BRANCH  63  71
ATOM     71  N   UNL A   1      32.405  23.151  25.666  1.00  0.00    -0.373 N 
ATOM     72  H   UNL A   1      32.611  22.933  26.604  1.00  0.00     0.161 HD
BRANCH  71  73
ATOM     73  C   UNL A   1      32.102  24.468  25.361  1.00  0.00     0.036 A 
ATOM     74  C   UNL A   1      30.931  24.738  24.640  1.00  0.00     0.027 A 
ATOM     75  C   UNL A   1      32.923  25.554  25.687  1.00  0.00     0.043 A 
ATOM     76  C   UNL A   1      30.563  26.047  24.309  1.00  0.00     0.024 A 
ATOM     77  C   UNL A   1      32.560  26.871  25.365  1.00  0.00     0.038 A 
ATOM     78  C   UNL A   1      31.372  27.119  24.680  1.00  0.00     0.055 A 
ATOM     79  Br  UNL A   1      33.742  28.258  25.906  1.00  0.00    -0.049 Br
ATOM     80  Cl  UNL A   1      30.844  28.709  24.259  1.00  0.00    -0.083 Cl
ENDBRANCH  71  73
ENDBRANCH  63  71
ENDBRANCH  60  63
ENDBRANCH  58  59
ENDBRANCH  57  58
ENDBRANCH   1  57
TORSDOF 15
ENDMDL
MODEL 3
REMARK VINA RESULT:     -11.1      0.392      5.964
REMARK SMILES O=C(NCCCCNC(=O)[C@@H](Cc1ccccc1)Nc1ccc(Cl)c(Br)c1)c1ccc(-c2c3nc(c(-c4ccccc4)c4ccc([nH]4)c(-c4ccccc4)c4nc(c(-c5ccccc5)c5ccc2[nH]5)C=C4)C=C3)cc1
REMARK SMILES IDX 5 1 4 2 3 3 1 4 2 5 28 7 29 8 75 9 30 10 74 11 31 12 32 13
REMARK SMILES IDX 33 14 68 15 34 16 73 17 67 18 69 19 35 20 72 21 66 22 65 23
REMARK SMILES IDX 36 25 58 26 43 27 57 28 44 29 47 30 56 31 70 32 45 33 46 34
REMARK SMILES IDX 55 36 71 37 48 38 37 39 38 40 42 41 39 42 41 43 40 44 59 45
REMARK SMILES IDX 60 46 64 47 61 48 63 49 62 50 49 51 50 52 54 53 51 54 53 55
REMARK SMILES IDX 52 56 6 57 7 58 8 59 9 60 10 62 11 63 12 64 13 65 14 66
REMARK SMILES IDX 18 67 15 68 17 69 16 70 19 71 20 73 21 74 27 75 22 76 25 77
REMARK SMILES IDX 23 78 26 79 24 80
REMARK H PARENT 3 6 69 24 47 35 8 61 19 72
REMARK Flexibility Score: inf
ROOT
ATOM      1  C   UNL A   1      31.996  30.709  26.410  1.00  0.00     0.023 C 
ENDROOT
BRANCH   1   2
ATOM      2  C   UNL A   1      32.937  31.533  27.276  1.00  0.00     0.116 C 
BRANCH   2   3
ATOM      3  N   UNL A   1      32.470  32.888  27.552  1.00  0.00    -0.352 N 
ATOM      4  O   UNL A   1      32.576  34.955  28.484  1.00  0.00    -0.269 OA
ATOM      5  C   UNL A   1      33.107  33.869  28.279  1.00  0.00     0.251 C 
ATOM      6  H   UNL A   1      31.595  33.129  27.174  1.00  0.00     0.163 HD
BRANCH   5   7
ATOM      7  C   UNL A   1      34.428  33.560  28.856  1.00  0.00     0.039 A 
ATOM      8  C   UNL A   1      35.586  33.863  28.137  1.00  0.00     0.014 A 
ATOM      9  C   UNL A   1      34.498  32.856  30.060  1.00  0.00     0.014 A 
ATOM     10  C   UNL A   1      36.792  33.302  28.527  1.00  0.00     0.010 A 
ATOM     11  C   UNL A   1      35.732  32.375  30.502  1.00  0.00     0.010 A 
ATOM     12  C   UNL A   1      36.880  32.554  29.713  1.00  0.00    -0.014 A 
BRANCH  12  13
ATOM     13  C   UNL A   1      38.193  31.995  30.115  1.00  0.00     0.031 A 
ATOM     14  C   UNL A   1      38.706  30.705  29.536  1.00  0.00     0.074 A 
ATOM     15  C   UNL A   1      38.953  32.703  30.972  1.00  0.00     0.049 A 
ATOM     16  N   UNL A   1      39.841  30.096  29.772  1.00  0.00    -0.248 NA
ATOM     17  C   UNL A   1      37.838  30.006  28.575  1.00  0.00     0.031 C 
ATOM     18  C   UNL A   1      38.564  33.976  31.588  1.00  0.00     0.029 A 
ATOM     19  N   UNL A   1      40.217  32.476  31.446  1.00  0.00    -0.354 N 
ATOM     20  C   UNL A   1      39.810  28.930  29.017  1.00  0.00     0.074 A 
ATOM     21  C   UNL A   1      38.542  28.911  28.320  1.00  0.00     0.031 C 
ATOM     22  C   UNL A   1      39.595  34.448  32.303  1.00  0.00     0.029 A 
ATOM     23  C   UNL A   1      40.683  33.480  32.257  1.00  0.00     0.049 A 
ATOM     24  H   UNL A   1      40.739  31.671  31.228  1.00  0.00     0.167 HD
ATOM     25  C   UNL A   1      40.754  27.963  28.918  1.00  0.00     0.031 A 
ATOM     26  C   UNL A   1      41.853  33.607  32.908  1.00  0.00     0.031 A 
ATOM     27  C   UNL A   1      42.022  27.993  29.600  1.00  0.00     0.049 A 
ATOM     28  C   UNL A   1      42.869  32.513  32.795  1.00  0.00     0.074 A 
ATOM     29  C   UNL A   1      43.051  27.068  29.548  1.00  0.00     0.029 A 
ATOM     30  N   UNL A   1      42.433  29.001  30.457  1.00  0.00    -0.354 N 
ATOM     31  N   UNL A   1      42.818  31.414  32.084  1.00  0.00    -0.248 NA
ATOM     32  C   UNL A   1      44.096  32.671  33.586  1.00  0.00     0.031 C 
ATOM     33  C   UNL A   1      44.071  27.500  30.404  1.00  0.00     0.029 A 
ATOM     34  C   UNL A   1      43.693  28.714  30.955  1.00  0.00     0.049 A 
ATOM     35  H   UNL A   1      41.907  29.803  30.679  1.00  0.00     0.167 HD
ATOM     36  C   UNL A   1      44.005  30.745  32.342  1.00  0.00     0.074 A 
ATOM     37  C   UNL A   1      44.767  31.578  33.253  1.00  0.00     0.031 C 
ATOM     38  C   UNL A   1      44.425  29.546  31.873  1.00  0.00     0.031 A 
BRANCH  25  39
ATOM     39  C   UNL A   1      40.442  26.769  28.061  1.00  0.00    -0.014 A 
ATOM     40  C   UNL A   1      40.918  26.668  26.745  1.00  0.00     0.009 A 
ATOM     41  C   UNL A   1      39.702  25.704  28.600  1.00  0.00     0.009 A 
ATOM     42  C   UNL A   1      40.641  25.533  25.978  1.00  0.00     0.001 A 
ATOM     43  C   UNL A   1      39.444  24.562  27.838  1.00  0.00     0.001 A 
ATOM     44  C   UNL A   1      39.908  24.480  26.527  1.00  0.00     0.000 A 
ENDBRANCH  25  39
BRANCH  26  45
ATOM     45  C   UNL A   1      42.098  34.810  33.739  1.00  0.00    -0.014 A 
ATOM     46  C   UNL A   1      41.696  34.841  35.082  1.00  0.00     0.009 A 
ATOM     47  C   UNL A   1      42.777  35.915  33.204  1.00  0.00     0.009 A 
ATOM     48  C   UNL A   1      41.963  35.962  35.871  1.00  0.00     0.001 A 
ATOM     49  C   UNL A   1      43.066  37.023  34.001  1.00  0.00     0.001 A 
ATOM     50  C   UNL A   1      42.655  37.048  35.333  1.00  0.00     0.000 A 
ENDBRANCH  26  45
BRANCH  38  51
ATOM     51  C   UNL A   1      45.769  29.075  32.338  1.00  0.00    -0.014 A 
ATOM     52  C   UNL A   1      45.895  28.278  33.486  1.00  0.00     0.009 A 
ATOM     53  C   UNL A   1      46.920  29.419  31.613  1.00  0.00     0.009 A 
ATOM     54  C   UNL A   1      47.154  27.858  33.917  1.00  0.00     0.001 A 
ATOM     55  C   UNL A   1      48.176  28.981  32.036  1.00  0.00     0.001 A 
ATOM     56  C   UNL A   1      48.293  28.209  33.190  1.00  0.00     0.000 A 
ENDBRANCH  38  51
ENDBRANCH  12  13
ENDBRANCH   5   7
ENDBRANCH   2   3
ENDBRANCH   1   2
BRANCH   1  57
ATOM     57  C   UNL A   1      32.081  29.210  26.657  1.00  0.00     0.023 C 
BRANCH  57  58
ATOM     58  C   UNL A   1      33.325  28.532  26.089  1.00  0.00     0.116 C 
BRANCH  58  59
ATOM     59  N   UNL A   1      33.560  28.977  24.735  1.00  0.00    -0.354 N 
ATOM     60  C   UNL A   1      33.075  28.502  23.556  1.00  0.00     0.242 C 
ATOM     61  H   UNL A   1      34.168  29.747  24.652  1.00  0.00     0.163 HD
ATOM     62  O   UNL A   1      33.654  28.890  22.533  1.00  0.00    -0.273 OA
BRANCH  60  63
ATOM     63  C   UNL A   1      31.844  27.566  23.447  1.00  0.00     0.173 C 
BRANCH  63  64
ATOM     64  C   UNL A   1      30.717  28.045  22.504  1.00  0.00     0.070 C 
BRANCH  64  65
ATOM     65  C   UNL A   1      29.664  29.051  22.922  1.00  0.00    -0.045 A 
ATOM     66  C   UNL A   1      28.303  28.723  22.784  1.00  0.00     0.004 A 
ATOM     67  C   UNL A   1      29.987  30.345  23.353  1.00  0.00     0.004 A 
ATOM     68  C   UNL A   1      27.300  29.631  23.141  1.00  0.00     0.000 A 
ATOM     69  C   UNL A   1      28.985  31.250  23.722  1.00  0.00     0.000 A 
ATOM     70  C   UNL A   1      27.643  30.891  23.625  1.00  0.00     0.000 A 
ENDBRANCH  64  65
ENDBRANCH  63  64
BRANCH  63  71
ATOM     71  N   UNL A   1      32.240  26.154  23.300  1.00  0.00    -0.373 N 
ATOM     72  H   UNL A   1      32.170  25.748  22.406  1.00  0.00     0.161 HD
BRANCH  71  73
ATOM     73  C   UNL A   1      32.706  25.358  24.335  1.00  0.00     0.036 A 
ATOM     74  C   UNL A   1      31.801  24.938  25.318  1.00  0.00     0.027 A 
ATOM     75  C   UNL A   1      34.045  24.982  24.489  1.00  0.00     0.043 A 
ATOM     76  C   UNL A   1      32.205  24.124  26.383  1.00  0.00     0.024 A 
ATOM     77  C   UNL A   1      34.460  24.162  25.550  1.00  0.00     0.038 A 
ATOM     78  C   UNL A   1      33.535  23.726  26.497  1.00  0.00     0.055 A 
ATOM     79  Br  UNL A   1      36.300  23.689  25.618  1.00  0.00    -0.049 Br
ATOM     80  Cl  UNL A   1      33.958  22.704  27.822  1.00  0.00    -0.083 Cl
ENDBRANCH  71  73
ENDBRANCH  63  71
ENDBRANCH  60  63
ENDBRANCH  58  59
ENDBRANCH  57  58
ENDBRANCH   1  57
TORSDOF 15
ENDMDL
