MODEL 1
REMARK VINA RESULT:     -11.0      0.000      0.000
REMARK SMILES COc1ccc([C@H]2C[NH2+]C[C@@H]2C(=O)NCCCCNC(=O)c2ccc(-c3c4nc(c(-c5ccccc5)c5ccc([nH]5)c(-c5ccccc5)c5nc(c(-c6ccccc6)c6ccc3[nH]6)C=C5)C=C4)cc2)cc1OC
REMARK SMILES IDX 16 1 15 2 14 3 12 4 13 5 11 7 7 8 8 9 9 10 10 11 6 14 3 15
REMARK SMILES IDX 4 16 71 17 5 18 70 19 2 20 1 21 72 22 73 23 17 24 18 25
REMARK SMILES IDX 19 26 20 27 21 29 22 30 23 31 69 32 24 33 68 34 25 35 26 36
REMARK SMILES IDX 27 37 62 38 28 39 67 40 61 41 63 42 29 43 66 44 60 45 59 46
REMARK SMILES IDX 30 48 52 49 37 50 51 51 38 52 41 53 50 54 64 55 39 56 40 57
REMARK SMILES IDX 49 59 65 60 42 61 31 62 32 63 36 64 33 65 35 66 34 67 53 68
REMARK SMILES IDX 54 69 58 70 55 71 57 72 56 73 43 74 44 75 48 76 45 77 47 78
REMARK SMILES IDX 46 79
REMARK H PARENT 14 6 9 12 9 13 19 28 63 47 41 58
REMARK Flexibility Score: inf
ROOT
ATOM      1  C   UNL A   1      37.254  21.548  24.591  1.00  0.00     0.023 C 
ENDROOT
BRANCH   1   2
ATOM      2  C   UNL A   1      36.696  22.367  25.744  1.00  0.00     0.116 C 
BRANCH   2   3
ATOM      3  N   UNL A   1      35.637  21.718  26.482  1.00  0.00    -0.356 N 
ATOM      4  C   UNL A   1      34.288  21.847  26.407  1.00  0.00     0.229 C 
ATOM      5  O   UNL A   1      33.632  21.041  27.080  1.00  0.00    -0.275 OA
ATOM      6  H   UNL A   1      35.948  21.071  27.157  1.00  0.00     0.163 HD
BRANCH   4   7
ATOM      7  C   UNL A   1      33.547  22.888  25.563  1.00  0.00     0.146 C 
ATOM      8  C   UNL A   1      33.431  24.295  26.170  1.00  0.00     0.092 C 
ATOM      9  C   UNL A   1      31.985  24.313  26.690  1.00  0.00     0.269 C 
ATOM     10  N   UNL A   1      31.198  23.456  25.786  1.00  0.00    -0.345 N 
ATOM     11  C   UNL A   1      32.132  22.499  25.160  1.00  0.00     0.274 C 
ATOM     12  H   UNL A   1      30.749  24.026  25.069  1.00  0.00     0.346 HD
ATOM     13  H   UNL A   1      30.470  22.962  26.302  1.00  0.00     0.346 HD
BRANCH   8  14
ATOM     14  C   UNL A   1      33.572  25.492  25.222  1.00  0.00    -0.034 A 
ATOM     15  C   UNL A   1      33.347  27.735  23.525  1.00  0.00     0.160 A 
ATOM     16  C   UNL A   1      33.343  27.895  24.916  1.00  0.00     0.051 A 
ATOM     17  C   UNL A   1      33.586  26.478  22.970  1.00  0.00     0.161 A 
ATOM     18  C   UNL A   1      33.465  26.787  25.754  1.00  0.00     0.008 A 
ATOM     19  C   UNL A   1      33.687  25.372  23.830  1.00  0.00     0.054 A 
BRANCH  15  20
ATOM     20  O   UNL A   1      33.150  28.855  22.764  1.00  0.00    -0.493 OA
ATOM     21  C   UNL A   1      31.754  29.103  22.566  1.00  0.00     0.278 C 
ENDBRANCH  15  20
BRANCH  17  22
ATOM     22  O   UNL A   1      33.723  26.118  21.659  1.00  0.00    -0.493 OA
ATOM     23  C   UNL A   1      32.592  25.645  20.951  1.00  0.00     0.278 C 
ENDBRANCH  17  22
ENDBRANCH   8  14
ENDBRANCH   4   7
ENDBRANCH   2   3
ENDBRANCH   1   2
BRANCH   1  24
ATOM     24  C   UNL A   1      37.950  20.253  24.979  1.00  0.00     0.023 C 
BRANCH  24  25
ATOM     25  C   UNL A   1      39.140  20.404  25.917  1.00  0.00     0.116 C 
BRANCH  25  26
ATOM     26  N   UNL A   1      40.065  19.278  25.881  1.00  0.00    -0.352 N 
ATOM     27  C   UNL A   1      41.424  19.252  26.093  1.00  0.00     0.251 C 
ATOM     28  H   UNL A   1      39.657  18.407  25.673  1.00  0.00     0.163 HD
ATOM     29  O   UNL A   1      42.056  18.215  25.943  1.00  0.00    -0.269 OA
BRANCH  27  30
ATOM     30  C   UNL A   1      42.126  20.501  26.458  1.00  0.00     0.039 A 
ATOM     31  C   UNL A   1      42.683  21.277  25.441  1.00  0.00     0.014 A 
ATOM     32  C   UNL A   1      42.177  20.931  27.785  1.00  0.00     0.014 A 
ATOM     33  C   UNL A   1      43.208  22.533  25.746  1.00  0.00     0.010 A 
ATOM     34  C   UNL A   1      42.612  22.220  28.073  1.00  0.00     0.010 A 
ATOM     35  C   UNL A   1      43.127  23.037  27.055  1.00  0.00    -0.014 A 
BRANCH  35  36
ATOM     36  C   UNL A   1      43.557  24.423  27.367  1.00  0.00     0.031 A 
ATOM     37  C   UNL A   1      42.543  25.468  27.740  1.00  0.00     0.074 A 
ATOM     38  C   UNL A   1      44.859  24.753  27.262  1.00  0.00     0.049 A 
ATOM     39  N   UNL A   1      42.731  26.729  28.037  1.00  0.00    -0.248 NA
ATOM     40  C   UNL A   1      41.131  25.053  27.755  1.00  0.00     0.031 C 
ATOM     41  C   UNL A   1      45.936  23.848  26.851  1.00  0.00     0.029 A 
ATOM     42  N   UNL A   1      45.500  25.944  27.495  1.00  0.00    -0.354 N 
ATOM     43  C   UNL A   1      41.466  27.257  28.261  1.00  0.00     0.074 A 
ATOM     44  C   UNL A   1      40.515  26.197  28.007  1.00  0.00     0.031 C 
ATOM     45  C   UNL A   1      47.106  24.504  26.904  1.00  0.00     0.029 A 
ATOM     46  C   UNL A   1      46.861  25.882  27.314  1.00  0.00     0.049 A 
ATOM     47  H   UNL A   1      45.030  26.766  27.767  1.00  0.00     0.167 HD
ATOM     48  C   UNL A   1      41.126  28.503  28.666  1.00  0.00     0.031 A 
ATOM     49  C   UNL A   1      47.807  26.827  27.464  1.00  0.00     0.031 A 
ATOM     50  C   UNL A   1      42.071  29.555  28.929  1.00  0.00     0.049 A 
ATOM     51  C   UNL A   1      47.403  28.204  27.913  1.00  0.00     0.074 A 
ATOM     52  C   UNL A   1      41.829  30.832  29.403  1.00  0.00     0.029 A 
ATOM     53  N   UNL A   1      43.439  29.450  28.735  1.00  0.00    -0.354 N 
ATOM     54  N   UNL A   1      46.209  28.661  28.201  1.00  0.00    -0.248 NA
ATOM     55  C   UNL A   1      48.482  29.190  28.069  1.00  0.00     0.031 C 
ATOM     56  C   UNL A   1      43.047  31.518  29.445  1.00  0.00     0.029 A 
ATOM     57  C   UNL A   1      44.053  30.650  29.054  1.00  0.00     0.049 A 
ATOM     58  H   UNL A   1      43.905  28.643  28.418  1.00  0.00     0.167 HD
ATOM     59  C   UNL A   1      46.395  29.981  28.594  1.00  0.00     0.074 A 
ATOM     60  C   UNL A   1      47.818  30.241  28.530  1.00  0.00     0.031 C 
ATOM     61  C   UNL A   1      45.470  30.896  28.975  1.00  0.00     0.031 A 
BRANCH  48  62
ATOM     62  C   UNL A   1      39.661  28.792  28.850  1.00  0.00    -0.014 A 
ATOM     63  C   UNL A   1      39.015  28.529  30.070  1.00  0.00     0.009 A 
ATOM     64  C   UNL A   1      38.924  29.361  27.801  1.00  0.00     0.009 A 
ATOM     65  C   UNL A   1      37.653  28.795  30.222  1.00  0.00     0.001 A 
ATOM     66  C   UNL A   1      37.568  29.653  27.966  1.00  0.00     0.001 A 
ATOM     67  C   UNL A   1      36.932  29.361  29.171  1.00  0.00     0.000 A 
ENDBRANCH  48  62
BRANCH  49  68
ATOM     68  C   UNL A   1      49.237  26.501  27.216  1.00  0.00    -0.014 A 
ATOM     69  C   UNL A   1      50.070  26.105  28.274  1.00  0.00     0.009 A 
ATOM     70  C   UNL A   1      49.777  26.591  25.924  1.00  0.00     0.009 A 
ATOM     71  C   UNL A   1      51.421  25.834  28.047  1.00  0.00     0.001 A 
ATOM     72  C   UNL A   1      51.122  26.289  25.695  1.00  0.00     0.001 A 
ATOM     73  C   UNL A   1      51.944  25.921  26.759  1.00  0.00     0.000 A 
ENDBRANCH  49  68
BRANCH  61  74
ATOM     74  C   UNL A   1      45.975  32.253  29.371  1.00  0.00    -0.014 A 
ATOM     75  C   UNL A   1      46.429  32.510  30.674  1.00  0.00     0.009 A 
ATOM     76  C   UNL A   1      46.021  33.284  28.419  1.00  0.00     0.009 A 
ATOM     77  C   UNL A   1      46.882  33.783  31.026  1.00  0.00     0.001 A 
ATOM     78  C   UNL A   1      46.504  34.547  28.765  1.00  0.00     0.001 A 
ATOM     79  C   UNL A   1      46.923  34.799  30.070  1.00  0.00     0.000 A 
ENDBRANCH  61  74
ENDBRANCH  35  36
ENDBRANCH  27  30
ENDBRANCH  25  26
ENDBRANCH  24  25
ENDBRANCH   1  24
TORSDOF 14
ENDMDL
MODEL 2
REMARK VINA RESULT:     -10.8      5.219      9.773
REMARK SMILES COc1ccc([C@H]2C[NH2+]C[C@@H]2C(=O)NCCCCNC(=O)c2ccc(-c3c4nc(c(-c5ccccc5)c5ccc([nH]5)c(-c5ccccc5)c5nc(c(-c6ccccc6)c6ccc3[nH]6)C=C5)C=C4)cc2)cc1OC
REMARK SMILES IDX 16 1 15 2 14 3 12 4 13 5 11 7 7 8 8 9 9 10 10 11 6 14 3 15
REMARK SMILES IDX 4 16 71 17 5 18 70 19 2 20 1 21 72 22 73 23 17 24 18 25
REMARK SMILES IDX 19 26 20 27 21 29 22 30 23 31 69 32 24 33 68 34 25 35 26 36
REMARK SMILES IDX 27 37 62 38 28 39 67 40 61 41 63 42 29 43 66 44 60 45 59 46
REMARK SMILES IDX 30 48 52 49 37 50 51 51 38 52 41 53 50 54 64 55 39 56 40 57
REMARK SMILES IDX 49 59 65 60 42 61 31 62 32 63 36 64 33 65 35 66 34 67 53 68
REMARK SMILES IDX 54 69 58 70 55 71 57 72 56 73 43 74 44 75 48 76 45 77 47 78
REMARK SMILES IDX 46 79
REMARK H PARENT 14 6 9 12 9 13 19 28 63 47 41 58
REMARK Flexibility Score: inf
ROOT
ATOM      1  C   UNL A   1      31.904  30.317  26.813  1.00  0.00     0.023 C 
ENDROOT
BRANCH   1   2
ATOM      2  C   UNL A   1      32.467  29.711  25.538  1.00  0.00     0.116 C 
BRANCH   2   3
ATOM      3  N   UNL A   1      31.566  29.750  24.409  1.00  0.00    -0.356 N 
ATOM      4  C   UNL A   1      30.968  28.752  23.710  1.00  0.00     0.229 C 
ATOM      5  O   UNL A   1      30.128  29.110  22.874  1.00  0.00    -0.275 OA
ATOM      6  H   UNL A   1      31.350  30.657  24.091  1.00  0.00     0.163 HD
BRANCH   4   7
ATOM      7  C   UNL A   1      31.251  27.257  23.888  1.00  0.00     0.146 C 
ATOM      8  C   UNL A   1      32.731  26.856  23.997  1.00  0.00     0.092 C 
ATOM      9  C   UNL A   1      33.029  26.309  22.592  1.00  0.00     0.269 C 
ATOM     10  N   UNL A   1      31.778  25.708  22.096  1.00  0.00    -0.345 N 
ATOM     11  C   UNL A   1      30.661  26.358  22.811  1.00  0.00     0.274 C 
ATOM     12  H   UNL A   1      31.775  24.706  22.281  1.00  0.00     0.346 HD
ATOM     13  H   UNL A   1      31.688  25.846  21.089  1.00  0.00     0.346 HD
BRANCH   8  14
ATOM     14  C   UNL A   1      33.094  25.743  24.988  1.00  0.00    -0.034 A 
ATOM     15  C   UNL A   1      33.709  23.397  26.430  1.00  0.00     0.160 A 
ATOM     16  C   UNL A   1      34.676  24.004  25.619  1.00  0.00     0.051 A 
ATOM     17  C   UNL A   1      32.475  24.018  26.625  1.00  0.00     0.161 A 
ATOM     18  C   UNL A   1      34.374  25.171  24.915  1.00  0.00     0.008 A 
ATOM     19  C   UNL A   1      32.184  25.180  25.893  1.00  0.00     0.054 A 
BRANCH  15  20
ATOM     20  O   UNL A   1      34.048  22.218  27.033  1.00  0.00    -0.493 OA
ATOM     21  C   UNL A   1      33.635  21.098  26.243  1.00  0.00     0.278 C 
ENDBRANCH  15  20
BRANCH  17  22
ATOM     22  O   UNL A   1      31.438  23.653  27.436  1.00  0.00    -0.493 OA
ATOM     23  C   UNL A   1      30.258  23.127  26.854  1.00  0.00     0.278 C 
ENDBRANCH  17  22
ENDBRANCH   8  14
ENDBRANCH   4   7
ENDBRANCH   2   3
ENDBRANCH   1   2
BRANCH   1  24
ATOM     24  C   UNL A   1      31.659  31.818  26.778  1.00  0.00     0.023 C 
BRANCH  24  25
ATOM     25  C   UNL A   1      32.819  32.683  27.251  1.00  0.00     0.116 C 
BRANCH  25  26
ATOM     26  N   UNL A   1      32.431  34.036  27.627  1.00  0.00    -0.352 N 
ATOM     27  C   UNL A   1      32.991  34.883  28.555  1.00  0.00     0.251 C 
ATOM     28  H   UNL A   1      31.653  34.398  27.145  1.00  0.00     0.163 HD
ATOM     29  O   UNL A   1      32.477  35.968  28.795  1.00  0.00    -0.269 OA
BRANCH  27  30
ATOM     30  C   UNL A   1      34.193  34.453  29.299  1.00  0.00     0.039 A 
ATOM     31  C   UNL A   1      34.029  33.850  30.547  1.00  0.00     0.014 A 
ATOM     32  C   UNL A   1      35.466  34.588  28.741  1.00  0.00     0.014 A 
ATOM     33  C   UNL A   1      35.134  33.295  31.192  1.00  0.00     0.010 A 
ATOM     34  C   UNL A   1      36.548  33.951  29.338  1.00  0.00     0.010 A 
ATOM     35  C   UNL A   1      36.392  33.293  30.567  1.00  0.00    -0.014 A 
BRANCH  35  36
ATOM     36  C   UNL A   1      37.547  32.588  31.178  1.00  0.00     0.031 A 
ATOM     37  C   UNL A   1      38.110  33.046  32.494  1.00  0.00     0.074 A 
ATOM     38  C   UNL A   1      38.123  31.564  30.517  1.00  0.00     0.049 A 
ATOM     39  N   UNL A   1      39.118  32.558  33.172  1.00  0.00    -0.248 NA
ATOM     40  C   UNL A   1      37.481  34.221  33.116  1.00  0.00     0.031 C 
ATOM     41  C   UNL A   1      37.711  31.058  29.205  1.00  0.00     0.029 A 
ATOM     42  N   UNL A   1      39.181  30.760  30.862  1.00  0.00    -0.354 N 
ATOM     43  C   UNL A   1      39.248  33.372  34.290  1.00  0.00     0.074 A 
ATOM     44  C   UNL A   1      38.258  34.419  34.169  1.00  0.00     0.031 C 
ATOM     45  C   UNL A   1      38.477  30.006  28.877  1.00  0.00     0.029 A 
ATOM     46  C   UNL A   1      39.457  29.785  29.935  1.00  0.00     0.049 A 
ATOM     47  H   UNL A   1      39.693  30.872  31.695  1.00  0.00     0.167 HD
ATOM     48  C   UNL A   1      40.097  33.247  35.337  1.00  0.00     0.031 A 
ATOM     49  C   UNL A   1      40.393  28.817  29.936  1.00  0.00     0.031 A 
ATOM     50  C   UNL A   1      41.076  32.201  35.465  1.00  0.00     0.049 A 
ATOM     51  C   UNL A   1      41.325  28.700  31.109  1.00  0.00     0.074 A 
ATOM     52  C   UNL A   1      41.940  31.953  36.516  1.00  0.00     0.029 A 
ATOM     53  N   UNL A   1      41.322  31.233  34.505  1.00  0.00    -0.354 N 
ATOM     54  N   UNL A   1      41.378  29.429  32.197  1.00  0.00    -0.248 NA
ATOM     55  C   UNL A   1      42.318  27.618  31.057  1.00  0.00     0.031 C 
ATOM     56  C   UNL A   1      42.746  30.863  36.169  1.00  0.00     0.029 A 
ATOM     57  C   UNL A   1      42.344  30.399  34.928  1.00  0.00     0.049 A 
ATOM     58  H   UNL A   1      40.842  31.149  33.649  1.00  0.00     0.167 HD
ATOM     59  C   UNL A   1      42.394  28.880  32.970  1.00  0.00     0.074 A 
ATOM     60  C   UNL A   1      42.912  27.744  32.236  1.00  0.00     0.031 C 
ATOM     61  C   UNL A   1      42.856  29.280  34.180  1.00  0.00     0.031 A 
BRANCH  48  62
ATOM     62  C   UNL A   1      39.999  34.275  36.431  1.00  0.00    -0.014 A 
ATOM     63  C   UNL A   1      39.216  34.048  37.575  1.00  0.00     0.009 A 
ATOM     64  C   UNL A   1      40.721  35.474  36.331  1.00  0.00     0.009 A 
ATOM     65  C   UNL A   1      39.129  35.015  38.578  1.00  0.00     0.001 A 
ATOM     66  C   UNL A   1      40.656  36.427  37.349  1.00  0.00     0.001 A 
ATOM     67  C   UNL A   1      39.852  36.202  38.466  1.00  0.00     0.000 A 
ENDBRANCH  48  62
BRANCH  49  68
ATOM     68  C   UNL A   1      40.480  27.860  28.801  1.00  0.00    -0.014 A 
ATOM     69  C   UNL A   1      39.774  26.647  28.837  1.00  0.00     0.009 A 
ATOM     70  C   UNL A   1      41.275  28.149  27.681  1.00  0.00     0.009 A 
ATOM     71  C   UNL A   1      39.885  25.732  27.789  1.00  0.00     0.001 A 
ATOM     72  C   UNL A   1      41.359  27.245  26.619  1.00  0.00     0.001 A 
ATOM     73  C   UNL A   1      40.672  26.033  26.679  1.00  0.00     0.000 A 
ENDBRANCH  49  68
BRANCH  61  74
ATOM     74  C   UNL A   1      43.962  28.468  34.791  1.00  0.00    -0.014 A 
ATOM     75  C   UNL A   1      43.688  27.362  35.610  1.00  0.00     0.009 A 
ATOM     76  C   UNL A   1      45.299  28.800  34.521  1.00  0.00     0.009 A 
ATOM     77  C   UNL A   1      44.731  26.629  36.179  1.00  0.00     0.001 A 
ATOM     78  C   UNL A   1      46.340  28.046  35.066  1.00  0.00     0.001 A 
ATOM     79  C   UNL A   1      46.056  26.969  35.902  1.00  0.00     0.000 A 
ENDBRANCH  61  74
ENDBRANCH  35  36
ENDBRANCH  27  30
ENDBRANCH  25  26
ENDBRANCH  24  25
ENDBRANCH   1  24
TORSDOF 14
ENDMDL
MODEL 3
REMARK VINA RESULT:     -10.8      2.573      7.590
REMARK SMILES COc1ccc([C@H]2C[NH2+]C[C@@H]2C(=O)NCCCCNC(=O)c2ccc(-c3c4nc(c(-c5ccccc5)c5ccc([nH]5)c(-c5ccccc5)c5nc(c(-c6ccccc6)c6ccc3[nH]6)C=C5)C=C4)cc2)cc1OC
REMARK SMILES IDX 16 1 15 2 14 3 12 4 13 5 11 7 7 8 8 9 9 10 10 11 6 14 3 15
REMARK SMILES IDX 4 16 71 17 5 18 70 19 2 20 1 21 72 22 73 23 17 24 18 25
REMARK SMILES IDX 19 26 20 27 21 29 22 30 23 31 69 32 24 33 68 34 25 35 26 36
REMARK SMILES IDX 27 37 62 38 28 39 67 40 61 41 63 42 29 43 66 44 60 45 59 46
REMARK SMILES IDX 30 48 52 49 37 50 51 51 38 52 41 53 50 54 64 55 39 56 40 57
REMARK SMILES IDX 49 59 65 60 42 61 31 62 32 63 36 64 33 65 35 66 34 67 53 68
REMARK SMILES IDX 54 69 58 70 55 71 57 72 56 73 43 74 44 75 48 76 45 77 47 78
REMARK SMILES IDX 46 79
REMARK H PARENT 14 6 9 12 9 13 19 28 63 47 41 58
REMARK Flexibility Score: inf
ROOT
ATOM      1  C   UNL A   1      31.386  28.944  26.221  1.00  0.00     0.023 C 
ENDROOT
BRANCH   1   2
ATOM      2  C   UNL A   1      32.013  29.427  24.923  1.00  0.00     0.116 C 
BRANCH   2   3
ATOM      3  N   UNL A   1      31.130  29.384  23.780  1.00  0.00    -0.356 N 
ATOM      4  C   UNL A   1      30.795  28.364  22.950  1.00  0.00     0.229 C 
ATOM      5  O   UNL A   1      29.893  28.606  22.138  1.00  0.00    -0.275 OA
ATOM      6  H   UNL A   1      30.699  30.243  23.566  1.00  0.00     0.163 HD
BRANCH   4   7
ATOM      7  C   UNL A   1      31.435  26.973  22.959  1.00  0.00     0.146 C 
ATOM      8  C   UNL A   1      32.882  26.895  23.471  1.00  0.00     0.092 C 
ATOM      9  C   UNL A   1      33.688  26.790  22.167  1.00  0.00     0.269 C 
ATOM     10  N   UNL A   1      32.842  26.067  21.201  1.00  0.00    -0.345 N 
ATOM     11  C   UNL A   1      31.437  26.258  21.615  1.00  0.00     0.274 C 
ATOM     12  H   UNL A   1      33.076  25.076  21.206  1.00  0.00     0.346 HD
ATOM     13  H   UNL A   1      32.989  26.424  20.257  1.00  0.00     0.346 HD
BRANCH   8  14
ATOM     14  C   UNL A   1      33.269  25.683  24.327  1.00  0.00    -0.034 A 
ATOM     15  C   UNL A   1      34.000  23.772  26.270  1.00  0.00     0.160 A 
ATOM     16  C   UNL A   1      32.673  24.209  26.169  1.00  0.00     0.051 A 
ATOM     17  C   UNL A   1      34.943  24.188  25.330  1.00  0.00     0.161 A 
ATOM     18  C   UNL A   1      32.310  25.145  25.201  1.00  0.00     0.008 A 
ATOM     19  C   UNL A   1      34.563  25.146  24.376  1.00  0.00     0.054 A 
BRANCH  15  20
ATOM     20  O   UNL A   1      34.300  22.909  27.288  1.00  0.00    -0.493 OA
ATOM     21  C   UNL A   1      33.110  22.387  27.888  1.00  0.00     0.278 C 
ENDBRANCH  15  20
BRANCH  17  22
ATOM     22  O   UNL A   1      36.250  23.818  25.188  1.00  0.00    -0.493 OA
ATOM     23  C   UNL A   1      36.658  23.163  24.000  1.00  0.00     0.278 C 
ENDBRANCH  17  22
ENDBRANCH   8  14
ENDBRANCH   4   7
ENDBRANCH   2   3
ENDBRANCH   1   2
BRANCH   1  24
ATOM     24  C   UNL A   1      32.349  28.349  27.237  1.00  0.00     0.023 C 
BRANCH  24  25
ATOM     25  C   UNL A   1      33.744  28.958  27.252  1.00  0.00     0.116 C 
BRANCH  25  26
ATOM     26  N   UNL A   1      33.810  30.265  27.892  1.00  0.00    -0.352 N 
ATOM     27  C   UNL A   1      34.856  30.866  28.554  1.00  0.00     0.251 C 
ATOM     28  H   UNL A   1      32.984  30.798  27.842  1.00  0.00     0.163 HD
ATOM     29  O   UNL A   1      34.703  31.949  29.102  1.00  0.00    -0.269 OA
BRANCH  27  30
ATOM     30  C   UNL A   1      36.155  30.168  28.643  1.00  0.00     0.039 A 
ATOM     31  C   UNL A   1      37.025  30.230  27.554  1.00  0.00     0.014 A 
ATOM     32  C   UNL A   1      36.536  29.512  29.816  1.00  0.00     0.014 A 
ATOM     33  C   UNL A   1      38.316  29.716  27.676  1.00  0.00     0.010 A 
ATOM     34  C   UNL A   1      37.852  29.087  29.968  1.00  0.00     0.010 A 
ATOM     35  C   UNL A   1      38.757  29.190  28.901  1.00  0.00    -0.014 A 
BRANCH  35  36
ATOM     36  C   UNL A   1      40.167  28.765  29.087  1.00  0.00     0.031 A 
ATOM     37  C   UNL A   1      41.170  29.701  29.699  1.00  0.00     0.074 A 
ATOM     38  C   UNL A   1      40.555  27.549  28.653  1.00  0.00     0.049 A 
ATOM     39  N   UNL A   1      42.444  29.507  29.932  1.00  0.00    -0.248 NA
ATOM     40  C   UNL A   1      40.691  31.041  30.074  1.00  0.00     0.031 C 
ATOM     41  C   UNL A   1      39.694  26.568  27.987  1.00  0.00     0.029 A 
ATOM     42  N   UNL A   1      41.779  26.930  28.709  1.00  0.00    -0.354 N 
ATOM     43  C   UNL A   1      42.916  30.698  30.466  1.00  0.00     0.074 A 
ATOM     44  C   UNL A   1      41.809  31.629  30.468  1.00  0.00     0.031 C 
ATOM     45  C   UNL A   1      40.405  25.456  27.738  1.00  0.00     0.029 A 
ATOM     46  C   UNL A   1      41.777  25.658  28.188  1.00  0.00     0.049 A 
ATOM     47  H   UNL A   1      42.583  27.356  29.086  1.00  0.00     0.167 HD
ATOM     48  C   UNL A   1      44.152  30.986  30.938  1.00  0.00     0.031 A 
ATOM     49  C   UNL A   1      42.768  24.753  28.089  1.00  0.00     0.031 A 
ATOM     50  C   UNL A   1      45.251  30.060  30.946  1.00  0.00     0.049 A 
ATOM     51  C   UNL A   1      44.132  25.098  28.618  1.00  0.00     0.074 A 
ATOM     52  C   UNL A   1      46.524  30.236  31.458  1.00  0.00     0.029 A 
ATOM     53  N   UNL A   1      45.207  28.782  30.412  1.00  0.00    -0.354 N 
ATOM     54  N   UNL A   1      44.539  26.201  29.196  1.00  0.00    -0.248 NA
ATOM     55  C   UNL A   1      45.170  24.065  28.489  1.00  0.00     0.031 C 
ATOM     56  C   UNL A   1      47.267  29.082  31.187  1.00  0.00     0.029 A 
ATOM     57  C   UNL A   1      46.440  28.167  30.558  1.00  0.00     0.049 A 
ATOM     58  H   UNL A   1      44.417  28.371  29.991  1.00  0.00     0.167 HD
ATOM     59  C   UNL A   1      45.872  25.987  29.522  1.00  0.00     0.074 A 
ATOM     60  C   UNL A   1      46.197  24.642  29.097  1.00  0.00     0.031 C 
ATOM     61  C   UNL A   1      46.750  26.830  30.120  1.00  0.00     0.031 A 
BRANCH  48  62
ATOM     62  C   UNL A   1      44.376  32.370  31.485  1.00  0.00    -0.014 A 
ATOM     63  C   UNL A   1      44.157  32.658  32.843  1.00  0.00     0.009 A 
ATOM     64  C   UNL A   1      44.839  33.390  30.641  1.00  0.00     0.009 A 
ATOM     65  C   UNL A   1      44.360  33.949  33.334  1.00  0.00     0.001 A 
ATOM     66  C   UNL A   1      45.071  34.672  31.142  1.00  0.00     0.001 A 
ATOM     67  C   UNL A   1      44.822  34.953  32.484  1.00  0.00     0.000 A 
ENDBRANCH  48  62
BRANCH  49  68
ATOM     68  C   UNL A   1      42.504  23.418  27.488  1.00  0.00    -0.014 A 
ATOM     69  C   UNL A   1      42.800  23.176  26.137  1.00  0.00     0.009 A 
ATOM     70  C   UNL A   1      41.949  22.384  28.258  1.00  0.00     0.009 A 
ATOM     71  C   UNL A   1      42.518  21.934  25.564  1.00  0.00     0.001 A 
ATOM     72  C   UNL A   1      41.697  21.134  27.688  1.00  0.00     0.001 A 
ATOM     73  C   UNL A   1      41.972  20.913  26.339  1.00  0.00     0.000 A 
ENDBRANCH  49  68
BRANCH  61  74
ATOM     74  C   UNL A   1      48.136  26.309  30.367  1.00  0.00    -0.014 A 
ATOM     75  C   UNL A   1      49.136  26.400  29.386  1.00  0.00     0.009 A 
ATOM     76  C   UNL A   1      48.455  25.742  31.612  1.00  0.00     0.009 A 
ATOM     77  C   UNL A   1      50.414  25.897  29.632  1.00  0.00     0.001 A 
ATOM     78  C   UNL A   1      49.743  25.269  31.866  1.00  0.00     0.001 A 
ATOM     79  C   UNL A   1      50.718  25.336  30.873  1.00  0.00     0.000 A 
ENDBRANCH  61  74
ENDBRANCH  35  36
ENDBRANCH  27  30
ENDBRANCH  25  26
ENDBRANCH  24  25
ENDBRANCH   1  24
TORSDOF 14
ENDMDL
