MODEL 1
REMARK VINA RESULT:     -11.8      0.000      0.000
REMARK SMILES CC(C)CN(C)c1cc2c(cc1Cl)C=C(C(=O)NCCCCNC(=O)c1ccc(-c3c4nc(c(-c5ccccc5)c5ccc([nH]5)c(-c5ccccc5)c5nc(c(-c6ccccc6)c6ccc3[nH]6)C=C5)C=C4)cc1)[C@H](C(F)(F)F)O2
REMARK SMILES IDX 20 1 19 2 18 3 16 4 17 5 15 7 7 8 8 9 12 10 9 11 11 12 13 13
REMARK SMILES IDX 10 14 79 15 14 16 74 17 5 18 6 19 4 20 2 21 1 22 3 23 75 24
REMARK SMILES IDX 76 25 77 26 78 27 21 28 22 29 23 30 24 31 25 33 26 34 27 35
REMARK SMILES IDX 73 36 28 37 72 38 29 39 30 40 31 41 66 42 32 43 71 44 65 45
REMARK SMILES IDX 67 46 33 47 70 48 64 49 63 50 34 52 56 53 41 54 55 55 42 56
REMARK SMILES IDX 45 57 54 58 68 59 43 60 44 61 53 63 69 64 46 65 35 66 36 67
REMARK SMILES IDX 40 68 37 69 39 70 38 71 57 72 58 73 62 74 59 75 61 76 60 77
REMARK SMILES IDX 47 78 48 79 52 80 49 81 51 82 50 83
REMARK H PARENT 18 6 23 32 67 51 45 62
REMARK Flexibility Score: inf
ROOT
ATOM      1  C   UNL A   1      37.171  22.382  24.437  1.00  0.00     0.023 C 
ENDROOT
BRANCH   1   2
ATOM      2  C   UNL A   1      36.375  23.248  25.412  1.00  0.00     0.116 C 
BRANCH   2   3
ATOM      3  N   UNL A   1      35.667  22.424  26.370  1.00  0.00    -0.352 N 
ATOM      4  C   UNL A   1      34.366  22.285  26.719  1.00  0.00     0.251 C 
ATOM      5  O   UNL A   1      34.109  21.436  27.574  1.00  0.00    -0.270 OA
ATOM      6  H   UNL A   1      36.266  21.835  26.883  1.00  0.00     0.163 HD
BRANCH   4   7
ATOM      7  C   UNL A   1      33.265  23.070  26.098  1.00  0.00     0.067 C 
ATOM      8  C   UNL A   1      30.533  26.978  24.402  1.00  0.00     0.059 A 
ATOM      9  C   UNL A   1      30.504  25.588  24.212  1.00  0.00     0.074 A 
ATOM     10  C   UNL A   1      31.484  27.490  25.310  1.00  0.00     0.065 A 
ATOM     11  C   UNL A   1      31.404  24.745  24.866  1.00  0.00     0.130 A 
ATOM     12  C   UNL A   1      32.419  26.649  25.926  1.00  0.00     0.034 A 
ATOM     13  Cl  UNL A   1      31.533  29.164  25.743  1.00  0.00    -0.082 Cl
ATOM     14  C   UNL A   1      32.384  25.273  25.698  1.00  0.00     0.019 A 
ATOM     15  O   UNL A   1      31.247  23.414  24.633  1.00  0.00    -0.475 OA
ATOM     16  C   UNL A   1      33.362  24.393  26.308  1.00  0.00     0.025 C 
ATOM     17  C   UNL A   1      32.180  22.475  25.234  1.00  0.00     0.314 C 
BRANCH   8  18
ATOM     18  N   UNL A   1      29.644  27.804  23.698  1.00  0.00    -0.373 N 
ATOM     19  C   UNL A   1      28.274  27.299  23.621  1.00  0.00     0.143 C 
BRANCH  18  20
ATOM     20  C   UNL A   1      30.170  28.444  22.473  1.00  0.00     0.119 C 
BRANCH  20  21
ATOM     21  C   UNL A   1      29.706  29.907  22.319  1.00  0.00     0.002 C 
ATOM     22  C   UNL A   1      28.466  30.024  21.428  1.00  0.00     0.009 C 
ATOM     23  C   UNL A   1      29.399  30.529  23.684  1.00  0.00     0.009 C 
ENDBRANCH  20  21
ENDBRANCH  18  20
ENDBRANCH   8  18
BRANCH  17  24
ATOM     24  C   UNL A   1      32.663  21.535  24.114  1.00  0.00     0.429 C 
ATOM     25  F   UNL A   1      33.911  21.831  23.686  1.00  0.00    -0.167 F 
ATOM     26  F   UNL A   1      32.667  20.233  24.465  1.00  0.00    -0.167 F 
ATOM     27  F   UNL A   1      31.842  21.652  23.036  1.00  0.00    -0.167 F 
ENDBRANCH  17  24
ENDBRANCH   4   7
ENDBRANCH   2   3
ENDBRANCH   1   2
BRANCH   1  28
ATOM     28  C   UNL A   1      37.634  21.049  25.017  1.00  0.00     0.023 C 
BRANCH  28  29
ATOM     29  C   UNL A   1      38.921  21.124  25.821  1.00  0.00     0.116 C 
BRANCH  29  30
ATOM     30  N   UNL A   1      39.731  19.914  25.739  1.00  0.00    -0.352 N 
ATOM     31  C   UNL A   1      41.061  19.764  26.067  1.00  0.00     0.251 C 
ATOM     32  H   UNL A   1      39.272  19.108  25.410  1.00  0.00     0.163 HD
ATOM     33  O   UNL A   1      41.651  18.712  25.885  1.00  0.00    -0.269 OA
BRANCH  31  34
ATOM     34  C   UNL A   1      41.762  20.946  26.601  1.00  0.00     0.039 A 
ATOM     35  C   UNL A   1      41.759  21.176  27.977  1.00  0.00     0.014 A 
ATOM     36  C   UNL A   1      42.253  21.899  25.708  1.00  0.00     0.014 A 
ATOM     37  C   UNL A   1      42.074  22.441  28.448  1.00  0.00     0.010 A 
ATOM     38  C   UNL A   1      42.659  23.140  26.197  1.00  0.00     0.010 A 
ATOM     39  C   UNL A   1      42.518  23.439  27.562  1.00  0.00    -0.014 A 
BRANCH  39  40
ATOM     40  C   UNL A   1      42.828  24.791  28.083  1.00  0.00     0.031 A 
ATOM     41  C   UNL A   1      41.733  25.796  28.323  1.00  0.00     0.074 A 
ATOM     42  C   UNL A   1      44.104  25.091  28.388  1.00  0.00     0.049 A 
ATOM     43  N   UNL A   1      41.835  27.035  28.734  1.00  0.00    -0.248 NA
ATOM     44  C   UNL A   1      40.348  25.362  28.072  1.00  0.00     0.031 C 
ATOM     45  C   UNL A   1      45.241  24.178  28.242  1.00  0.00     0.029 A 
ATOM     46  N   UNL A   1      44.658  26.232  28.907  1.00  0.00    -0.354 N 
ATOM     47  C   UNL A   1      40.538  27.535  28.761  1.00  0.00     0.074 A 
ATOM     48  C   UNL A   1      39.664  26.472  28.317  1.00  0.00     0.031 C 
ATOM     49  C   UNL A   1      46.343  24.770  28.721  1.00  0.00     0.029 A 
ATOM     50  C   UNL A   1      46.011  26.133  29.120  1.00  0.00     0.049 A 
ATOM     51  H   UNL A   1      44.137  27.043  29.107  1.00  0.00     0.167 HD
ATOM     52  C   UNL A   1      40.122  28.770  29.125  1.00  0.00     0.031 A 
ATOM     53  C   UNL A   1      46.897  27.045  29.558  1.00  0.00     0.031 A 
ATOM     54  C   UNL A   1      40.997  29.810  29.596  1.00  0.00     0.049 A 
ATOM     55  C   UNL A   1      46.419  28.430  29.874  1.00  0.00     0.074 A 
ATOM     56  C   UNL A   1      40.663  31.082  30.029  1.00  0.00     0.029 A 
ATOM     57  N   UNL A   1      42.374  29.701  29.696  1.00  0.00    -0.354 N 
ATOM     58  N   UNL A   1      45.193  28.893  29.877  1.00  0.00    -0.248 NA
ATOM     59  C   UNL A   1      47.443  29.424  30.219  1.00  0.00     0.031 C 
ATOM     60  C   UNL A   1      41.843  31.761  30.337  1.00  0.00     0.029 A 
ATOM     61  C   UNL A   1      42.908  30.896  30.147  1.00  0.00     0.049 A 
ATOM     62  H   UNL A   1      42.896  28.894  29.479  1.00  0.00     0.167 HD
ATOM     63  C   UNL A   1      45.296  30.231  30.223  1.00  0.00     0.074 A 
ATOM     64  C   UNL A   1      46.703  30.502  30.443  1.00  0.00     0.031 C 
ATOM     65  C   UNL A   1      44.311  31.152  30.345  1.00  0.00     0.031 A 
BRANCH  52  66
ATOM     66  C   UNL A   1      38.659  29.093  29.018  1.00  0.00    -0.014 A 
ATOM     67  C   UNL A   1      38.159  29.642  27.825  1.00  0.00     0.009 A 
ATOM     68  C   UNL A   1      37.800  28.969  30.121  1.00  0.00     0.009 A 
ATOM     69  C   UNL A   1      36.834  30.074  27.742  1.00  0.00     0.001 A 
ATOM     70  C   UNL A   1      36.468  29.382  30.028  1.00  0.00     0.001 A 
ATOM     71  C   UNL A   1      35.990  29.942  28.843  1.00  0.00     0.000 A 
ENDBRANCH  52  66
BRANCH  53  72
ATOM     72  C   UNL A   1      48.326  26.664  29.685  1.00  0.00    -0.014 A 
ATOM     73  C   UNL A   1      49.207  26.828  28.601  1.00  0.00     0.009 A 
ATOM     74  C   UNL A   1      48.800  26.067  30.861  1.00  0.00     0.009 A 
ATOM     75  C   UNL A   1      50.521  26.367  28.681  1.00  0.00     0.001 A 
ATOM     76  C   UNL A   1      50.124  25.633  30.946  1.00  0.00     0.001 A 
ATOM     77  C   UNL A   1      50.980  25.772  29.853  1.00  0.00     0.000 A 
ENDBRANCH  53  72
BRANCH  65  78
ATOM     78  C   UNL A   1      44.705  32.547  30.727  1.00  0.00    -0.014 A 
ATOM     79  C   UNL A   1      44.607  32.959  32.064  1.00  0.00     0.009 A 
ATOM     80  C   UNL A   1      45.068  33.481  29.746  1.00  0.00     0.009 A 
ATOM     81  C   UNL A   1      44.847  34.290  32.411  1.00  0.00     0.001 A 
ATOM     82  C   UNL A   1      45.331  34.805  30.100  1.00  0.00     0.001 A 
ATOM     83  C   UNL A   1      45.209  35.210  31.429  1.00  0.00     0.000 A 
ENDBRANCH  65  78
ENDBRANCH  39  40
ENDBRANCH  31  34
ENDBRANCH  29  30
ENDBRANCH  28  29
ENDBRANCH   1  28
TORSDOF 15
ENDMDL
MODEL 2
REMARK VINA RESULT:     -11.8      0.301      5.788
REMARK SMILES CC(C)CN(C)c1cc2c(cc1Cl)C=C(C(=O)NCCCCNC(=O)c1ccc(-c3c4nc(c(-c5ccccc5)c5ccc([nH]5)c(-c5ccccc5)c5nc(c(-c6ccccc6)c6ccc3[nH]6)C=C5)C=C4)cc1)[C@H](C(F)(F)F)O2
REMARK SMILES IDX 20 1 19 2 18 3 16 4 17 5 15 7 7 8 8 9 12 10 9 11 11 12 13 13
REMARK SMILES IDX 10 14 79 15 14 16 74 17 5 18 6 19 4 20 2 21 1 22 3 23 75 24
REMARK SMILES IDX 76 25 77 26 78 27 21 28 22 29 23 30 24 31 25 33 26 34 27 35
REMARK SMILES IDX 73 36 28 37 72 38 29 39 30 40 31 41 66 42 32 43 71 44 65 45
REMARK SMILES IDX 67 46 33 47 70 48 64 49 63 50 34 52 56 53 41 54 55 55 42 56
REMARK SMILES IDX 45 57 54 58 68 59 43 60 44 61 53 63 69 64 46 65 35 66 36 67
REMARK SMILES IDX 40 68 37 69 39 70 38 71 57 72 58 73 62 74 59 75 61 76 60 77
REMARK SMILES IDX 47 78 48 79 52 80 49 81 51 82 50 83
REMARK H PARENT 18 6 23 32 67 51 45 62
REMARK Flexibility Score: inf
ROOT
ATOM      1  C   UNL A   1      37.081  22.258  24.401  1.00  0.00     0.023 C 
ENDROOT
BRANCH   1   2
ATOM      2  C   UNL A   1      36.437  23.164  25.448  1.00  0.00     0.116 C 
BRANCH   2   3
ATOM      3  N   UNL A   1      35.720  22.382  26.434  1.00  0.00    -0.352 N 
ATOM      4  C   UNL A   1      34.418  22.274  26.789  1.00  0.00     0.251 C 
ATOM      5  O   UNL A   1      34.150  21.456  27.672  1.00  0.00    -0.270 OA
ATOM      6  H   UNL A   1      36.311  21.801  26.964  1.00  0.00     0.163 HD
BRANCH   4   7
ATOM      7  C   UNL A   1      33.327  23.055  26.146  1.00  0.00     0.067 C 
ATOM      8  C   UNL A   1      30.582  26.956  24.455  1.00  0.00     0.059 A 
ATOM      9  C   UNL A   1      30.592  25.572  24.221  1.00  0.00     0.074 A 
ATOM     10  C   UNL A   1      31.482  27.459  25.418  1.00  0.00     0.065 A 
ATOM     11  C   UNL A   1      31.483  24.728  24.887  1.00  0.00     0.130 A 
ATOM     12  C   UNL A   1      32.409  26.619  26.048  1.00  0.00     0.034 A 
ATOM     13  Cl  UNL A   1      31.476  29.119  25.904  1.00  0.00    -0.082 Cl
ATOM     14  C   UNL A   1      32.415  25.250  25.776  1.00  0.00     0.019 A 
ATOM     15  O   UNL A   1      31.365  23.402  24.607  1.00  0.00    -0.475 OA
ATOM     16  C   UNL A   1      33.385  24.372  26.401  1.00  0.00     0.025 C 
ATOM     17  C   UNL A   1      32.293  22.464  25.219  1.00  0.00     0.314 C 
BRANCH   8  18
ATOM     18  N   UNL A   1      29.706  27.785  23.739  1.00  0.00    -0.373 N 
ATOM     19  C   UNL A   1      28.337  27.282  23.639  1.00  0.00     0.143 C 
BRANCH  18  20
ATOM     20  C   UNL A   1      30.252  28.428  22.524  1.00  0.00     0.119 C 
BRANCH  20  21
ATOM     21  C   UNL A   1      29.730  29.865  22.325  1.00  0.00     0.002 C 
ATOM     22  C   UNL A   1      28.418  29.894  21.536  1.00  0.00     0.009 C 
ATOM     23  C   UNL A   1      29.517  30.561  23.673  1.00  0.00     0.009 C 
ENDBRANCH  20  21
ENDBRANCH  18  20
ENDBRANCH   8  18
BRANCH  17  24
ATOM     24  C   UNL A   1      32.843  21.571  24.092  1.00  0.00     0.429 C 
ATOM     25  F   UNL A   1      33.913  22.115  23.469  1.00  0.00    -0.167 F 
ATOM     26  F   UNL A   1      33.216  20.343  24.509  1.00  0.00    -0.167 F 
ATOM     27  F   UNL A   1      31.886  21.393  23.142  1.00  0.00    -0.167 F 
ENDBRANCH  17  24
ENDBRANCH   4   7
ENDBRANCH   2   3
ENDBRANCH   1   2
BRANCH   1  28
ATOM     28  C   UNL A   1      37.603  20.935  24.955  1.00  0.00     0.023 C 
BRANCH  28  29
ATOM     29  C   UNL A   1      38.922  21.040  25.701  1.00  0.00     0.116 C 
BRANCH  29  30
ATOM     30  N   UNL A   1      39.725  19.823  25.641  1.00  0.00    -0.352 N 
ATOM     31  C   UNL A   1      41.041  19.660  26.015  1.00  0.00     0.251 C 
ATOM     32  H   UNL A   1      39.272  19.023  25.290  1.00  0.00     0.163 HD
ATOM     33  O   UNL A   1      41.629  18.605  25.848  1.00  0.00    -0.269 OA
BRANCH  31  34
ATOM     34  C   UNL A   1      41.732  20.833  26.583  1.00  0.00     0.039 A 
ATOM     35  C   UNL A   1      41.637  21.085  27.952  1.00  0.00     0.014 A 
ATOM     36  C   UNL A   1      42.309  21.761  25.714  1.00  0.00     0.014 A 
ATOM     37  C   UNL A   1      41.949  22.349  28.427  1.00  0.00     0.010 A 
ATOM     38  C   UNL A   1      42.710  22.999  26.214  1.00  0.00     0.010 A 
ATOM     39  C   UNL A   1      42.480  23.322  27.562  1.00  0.00    -0.014 A 
BRANCH  39  40
ATOM     40  C   UNL A   1      42.785  24.674  28.085  1.00  0.00     0.031 A 
ATOM     41  C   UNL A   1      44.200  25.083  28.393  1.00  0.00     0.074 A 
ATOM     42  C   UNL A   1      41.777  25.553  28.235  1.00  0.00     0.049 A 
ATOM     43  N   UNL A   1      44.636  26.210  28.896  1.00  0.00    -0.248 NA
ATOM     44  C   UNL A   1      45.266  24.107  28.101  1.00  0.00     0.031 C 
ATOM     45  C   UNL A   1      40.371  25.282  27.922  1.00  0.00     0.029 A 
ATOM     46  N   UNL A   1      41.778  26.856  28.660  1.00  0.00    -0.354 N 
ATOM     47  C   UNL A   1      46.014  26.069  29.010  1.00  0.00     0.074 A 
ATOM     48  C   UNL A   1      46.347  24.745  28.533  1.00  0.00     0.031 C 
ATOM     49  C   UNL A   1      39.658  26.401  28.103  1.00  0.00     0.029 A 
ATOM     50  C   UNL A   1      40.535  27.439  28.632  1.00  0.00     0.049 A 
ATOM     51  H   UNL A   1      42.589  27.327  28.956  1.00  0.00     0.167 HD
ATOM     52  C   UNL A   1      46.915  26.968  29.471  1.00  0.00     0.031 A 
ATOM     53  C   UNL A   1      40.134  28.663  29.019  1.00  0.00     0.031 A 
ATOM     54  C   UNL A   1      46.577  28.294  29.914  1.00  0.00     0.049 A 
ATOM     55  C   UNL A   1      41.141  29.607  29.604  1.00  0.00     0.074 A 
ATOM     56  C   UNL A   1      47.427  29.293  30.359  1.00  0.00     0.029 A 
ATOM     57  N   UNL A   1      45.292  28.807  29.969  1.00  0.00    -0.354 N 
ATOM     58  N   UNL A   1      42.436  29.453  29.721  1.00  0.00    -0.248 NA
ATOM     59  C   UNL A   1      40.630  30.878  30.133  1.00  0.00     0.031 C 
ATOM     60  C   UNL A   1      46.651  30.390  30.736  1.00  0.00     0.029 A 
ATOM     61  C   UNL A   1      45.322  30.094  30.476  1.00  0.00     0.049 A 
ATOM     62  H   UNL A   1      44.479  28.328  29.688  1.00  0.00     0.167 HD
ATOM     63  C   UNL A   1      42.899  30.605  30.338  1.00  0.00     0.074 A 
ATOM     64  C   UNL A   1      41.748  31.459  30.552  1.00  0.00     0.031 C 
ATOM     65  C   UNL A   1      44.166  30.924  30.696  1.00  0.00     0.031 A 
BRANCH  52  66
ATOM     66  C   UNL A   1      48.359  26.560  29.547  1.00  0.00    -0.014 A 
ATOM     67  C   UNL A   1      48.846  25.963  30.722  1.00  0.00     0.009 A 
ATOM     68  C   UNL A   1      49.260  26.867  28.517  1.00  0.00     0.009 A 
ATOM     69  C   UNL A   1      50.208  25.695  30.870  1.00  0.00     0.001 A 
ATOM     70  C   UNL A   1      50.620  26.578  28.660  1.00  0.00     0.001 A 
ATOM     71  C   UNL A   1      51.093  26.001  29.839  1.00  0.00     0.000 A 
ENDBRANCH  52  66
BRANCH  53  72
ATOM     72  C   UNL A   1      38.703  29.032  28.886  1.00  0.00    -0.014 A 
ATOM     73  C   UNL A   1      38.223  29.615  27.699  1.00  0.00     0.009 A 
ATOM     74  C   UNL A   1      37.825  28.877  29.968  1.00  0.00     0.009 A 
ATOM     75  C   UNL A   1      36.906  30.066  27.612  1.00  0.00     0.001 A 
ATOM     76  C   UNL A   1      36.499  29.304  29.867  1.00  0.00     0.001 A 
ATOM     77  C   UNL A   1      36.044  29.908  28.695  1.00  0.00     0.000 A 
ENDBRANCH  53  72
BRANCH  65  78
ATOM     78  C   UNL A   1      44.388  32.247  31.364  1.00  0.00    -0.014 A 
ATOM     79  C   UNL A   1      44.644  33.387  30.588  1.00  0.00     0.009 A 
ATOM     80  C   UNL A   1      44.452  32.340  32.762  1.00  0.00     0.009 A 
ATOM     81  C   UNL A   1      44.981  34.596  31.200  1.00  0.00     0.001 A 
ATOM     82  C   UNL A   1      44.766  33.555  33.371  1.00  0.00     0.001 A 
ATOM     83  C   UNL A   1      45.039  34.678  32.590  1.00  0.00     0.000 A 
ENDBRANCH  65  78
ENDBRANCH  39  40
ENDBRANCH  31  34
ENDBRANCH  29  30
ENDBRANCH  28  29
ENDBRANCH   1  28
TORSDOF 15
ENDMDL
MODEL 3
REMARK VINA RESULT:     -11.2      2.541      7.805
REMARK SMILES CC(C)CN(C)c1cc2c(cc1Cl)C=C(C(=O)NCCCCNC(=O)c1ccc(-c3c4nc(c(-c5ccccc5)c5ccc([nH]5)c(-c5ccccc5)c5nc(c(-c6ccccc6)c6ccc3[nH]6)C=C5)C=C4)cc1)[C@H](C(F)(F)F)O2
REMARK SMILES IDX 20 1 19 2 18 3 16 4 17 5 15 7 7 8 8 9 12 10 9 11 11 12 13 13
REMARK SMILES IDX 10 14 79 15 14 16 74 17 5 18 6 19 4 20 2 21 1 22 3 23 75 24
REMARK SMILES IDX 76 25 77 26 78 27 21 28 22 29 23 30 24 31 25 33 26 34 27 35
REMARK SMILES IDX 73 36 28 37 72 38 29 39 30 40 31 41 66 42 32 43 71 44 65 45
REMARK SMILES IDX 67 46 33 47 70 48 64 49 63 50 34 52 56 53 41 54 55 55 42 56
REMARK SMILES IDX 45 57 54 58 68 59 43 60 44 61 53 63 69 64 46 65 35 66 36 67
REMARK SMILES IDX 40 68 37 69 39 70 38 71 57 72 58 73 62 74 59 75 61 76 60 77
REMARK SMILES IDX 47 78 48 79 52 80 49 81 51 82 50 83
REMARK H PARENT 18 6 23 32 67 51 45 62
REMARK Flexibility Score: inf
ROOT
ATOM      1  C   UNL A   1      31.823  29.618  25.578  1.00  0.00     0.023 C 
ENDROOT
BRANCH   1   2
ATOM      2  C   UNL A   1      32.623  29.298  24.317  1.00  0.00     0.116 C 
BRANCH   2   3
ATOM      3  N   UNL A   1      31.739  29.061  23.194  1.00  0.00    -0.352 N 
ATOM      4  C   UNL A   1      31.185  27.955  22.644  1.00  0.00     0.251 C 
ATOM      5  O   UNL A   1      30.428  28.131  21.688  1.00  0.00    -0.270 OA
ATOM      6  H   UNL A   1      31.485  29.889  22.726  1.00  0.00     0.163 HD
BRANCH   4   7
ATOM      7  C   UNL A   1      31.421  26.579  23.160  1.00  0.00     0.067 C 
ATOM      8  C   UNL A   1      33.774  22.475  24.958  1.00  0.00     0.059 A 
ATOM      9  C   UNL A   1      32.438  22.898  24.873  1.00  0.00     0.074 A 
ATOM     10  C   UNL A   1      34.757  23.305  24.378  1.00  0.00     0.065 A 
ATOM     11  C   UNL A   1      32.097  24.111  24.273  1.00  0.00     0.130 A 
ATOM     12  C   UNL A   1      34.418  24.545  23.822  1.00  0.00     0.034 A 
ATOM     13  Cl  UNL A   1      36.419  22.836  24.287  1.00  0.00    -0.082 Cl
ATOM     14  C   UNL A   1      33.084  24.953  23.776  1.00  0.00     0.019 A 
ATOM     15  O   UNL A   1      30.766  24.389  24.214  1.00  0.00    -0.475 OA
ATOM     16  C   UNL A   1      32.720  26.245  23.226  1.00  0.00     0.025 C 
ATOM     17  C   UNL A   1      30.332  25.658  23.653  1.00  0.00     0.314 C 
BRANCH   8  18
ATOM     18  N   UNL A   1      34.093  21.272  25.605  1.00  0.00    -0.373 N 
ATOM     19  C   UNL A   1      34.681  21.433  26.934  1.00  0.00     0.143 C 
BRANCH  18  20
ATOM     20  C   UNL A   1      34.673  20.204  24.763  1.00  0.00     0.119 C 
BRANCH  20  21
ATOM     21  C   UNL A   1      33.784  18.946  24.700  1.00  0.00     0.002 C 
ATOM     22  C   UNL A   1      32.571  19.146  23.787  1.00  0.00     0.009 C 
ATOM     23  C   UNL A   1      34.583  17.735  24.209  1.00  0.00     0.009 C 
ENDBRANCH  20  21
ENDBRANCH  18  20
ENDBRANCH   8  18
BRANCH  17  24
ATOM     24  C   UNL A   1      29.339  26.280  24.652  1.00  0.00     0.429 C 
ATOM     25  F   UNL A   1      29.805  27.418  25.213  1.00  0.00    -0.167 F 
ATOM     26  F   UNL A   1      28.139  26.573  24.110  1.00  0.00    -0.167 F 
ATOM     27  F   UNL A   1      29.110  25.407  25.670  1.00  0.00    -0.167 F 
ENDBRANCH  17  24
ENDBRANCH   4   7
ENDBRANCH   2   3
ENDBRANCH   1   2
BRANCH   1  28
ATOM     28  C   UNL A   1      32.308  28.891  26.829  1.00  0.00     0.023 C 
BRANCH  28  29
ATOM     29  C   UNL A   1      33.713  29.263  27.270  1.00  0.00     0.116 C 
BRANCH  29  30
ATOM     30  N   UNL A   1      33.781  30.524  28.000  1.00  0.00    -0.352 N 
ATOM     31  C   UNL A   1      34.844  31.031  28.715  1.00  0.00     0.251 C 
ATOM     32  H   UNL A   1      32.969  31.080  27.979  1.00  0.00     0.163 HD
ATOM     33  O   UNL A   1      34.754  32.069  29.348  1.00  0.00    -0.269 OA
BRANCH  31  34
ATOM     34  C   UNL A   1      36.087  30.237  28.729  1.00  0.00     0.039 A 
ATOM     35  C   UNL A   1      36.478  29.601  29.908  1.00  0.00     0.014 A 
ATOM     36  C   UNL A   1      36.934  30.292  27.621  1.00  0.00     0.014 A 
ATOM     37  C   UNL A   1      37.792  29.182  30.043  1.00  0.00     0.010 A 
ATOM     38  C   UNL A   1      38.227  29.783  27.731  1.00  0.00     0.010 A 
ATOM     39  C   UNL A   1      38.683  29.277  28.959  1.00  0.00    -0.014 A 
BRANCH  39  40
ATOM     40  C   UNL A   1      40.089  28.845  29.132  1.00  0.00     0.031 A 
ATOM     41  C   UNL A   1      40.536  27.476  28.697  1.00  0.00     0.074 A 
ATOM     42  C   UNL A   1      40.977  29.719  29.642  1.00  0.00     0.049 A 
ATOM     43  N   UNL A   1      41.718  26.924  28.815  1.00  0.00    -0.248 NA
ATOM     44  C   UNL A   1      39.536  26.611  28.046  1.00  0.00     0.031 C 
ATOM     45  C   UNL A   1      40.666  31.091  30.054  1.00  0.00     0.029 A 
ATOM     46  N   UNL A   1      42.322  29.599  29.876  1.00  0.00    -0.354 N 
ATOM     47  C   UNL A   1      41.596  25.645  28.285  1.00  0.00     0.074 A 
ATOM     48  C   UNL A   1      40.225  25.494  27.851  1.00  0.00     0.031 C 
ATOM     49  C   UNL A   1      41.797  31.704  30.427  1.00  0.00     0.029 A 
ATOM     50  C   UNL A   1      42.894  30.745  30.371  1.00  0.00     0.049 A 
ATOM     51  H   UNL A   1      42.828  28.772  29.705  1.00  0.00     0.167 HD
ATOM     52  C   UNL A   1      42.547  24.689  28.172  1.00  0.00     0.031 A 
ATOM     53  C   UNL A   1      44.154  30.993  30.768  1.00  0.00     0.031 A 
ATOM     54  C   UNL A   1      43.916  24.860  28.578  1.00  0.00     0.049 A 
ATOM     55  C   UNL A   1      45.165  29.888  30.710  1.00  0.00     0.074 A 
ATOM     56  C   UNL A   1      44.964  23.962  28.465  1.00  0.00     0.029 A 
ATOM     57  N   UNL A   1      44.428  26.002  29.173  1.00  0.00    -0.354 N 
ATOM     58  N   UNL A   1      45.031  28.679  30.223  1.00  0.00    -0.248 NA
ATOM     59  C   UNL A   1      46.490  30.169  31.277  1.00  0.00     0.031 C 
ATOM     60  C   UNL A   1      46.096  24.539  29.042  1.00  0.00     0.029 A 
ATOM     61  C   UNL A   1      45.768  25.816  29.467  1.00  0.00     0.049 A 
ATOM     62  H   UNL A   1      43.917  26.822  29.358  1.00  0.00     0.167 HD
ATOM     63  C   UNL A   1      46.251  28.053  30.425  1.00  0.00     0.074 A 
ATOM     64  C   UNL A   1      47.121  29.022  31.060  1.00  0.00     0.031 C 
ATOM     65  C   UNL A   1      46.614  26.786  30.113  1.00  0.00     0.031 A 
BRANCH  52  66
ATOM     66  C   UNL A   1      42.155  23.353  27.607  1.00  0.00    -0.014 A 
ATOM     67  C   UNL A   1      42.344  23.102  26.237  1.00  0.00     0.009 A 
ATOM     68  C   UNL A   1      41.497  22.393  28.389  1.00  0.00     0.009 A 
ATOM     69  C   UNL A   1      41.870  21.923  25.659  1.00  0.00     0.001 A 
ATOM     70  C   UNL A   1      41.042  21.204  27.812  1.00  0.00     0.001 A 
ATOM     71  C   UNL A   1      41.221  20.975  26.447  1.00  0.00     0.000 A 
ENDBRANCH  52  66
BRANCH  53  72
ATOM     72  C   UNL A   1      44.501  32.341  31.281  1.00  0.00    -0.014 A 
ATOM     73  C   UNL A   1      45.024  33.321  30.419  1.00  0.00     0.009 A 
ATOM     74  C   UNL A   1      44.383  32.633  32.647  1.00  0.00     0.009 A 
ATOM     75  C   UNL A   1      45.455  34.549  30.919  1.00  0.00     0.001 A 
ATOM     76  C   UNL A   1      44.790  33.875  33.140  1.00  0.00     0.001 A 
ATOM     77  C   UNL A   1      45.336  34.827  32.278  1.00  0.00     0.000 A 
ENDBRANCH  53  72
BRANCH  65  78
ATOM     78  C   UNL A   1      48.010  26.358  30.454  1.00  0.00    -0.014 A 
ATOM     79  C   UNL A   1      49.023  26.442  29.488  1.00  0.00     0.009 A 
ATOM     80  C   UNL A   1      48.294  25.770  31.696  1.00  0.00     0.009 A 
ATOM     81  C   UNL A   1      50.293  25.928  29.751  1.00  0.00     0.001 A 
ATOM     82  C   UNL A   1      49.571  25.278  31.964  1.00  0.00     0.001 A 
ATOM     83  C   UNL A   1      50.566  25.348  30.989  1.00  0.00     0.000 A 
ENDBRANCH  65  78
ENDBRANCH  39  40
ENDBRANCH  31  34
ENDBRANCH  29  30
ENDBRANCH  28  29
ENDBRANCH   1  28
TORSDOF 15
ENDMDL
