MODEL 1
REMARK VINA RESULT:     -10.4      0.000      0.000
REMARK SMILES C[C@H](C(=O)NCCCCNC(=O)c1ccc(-c2c3nc(c(-c4ccccc4)c4ccc([nH]4)c(-c4ccccc4)c4nc(c(-c5ccccc5)c5ccc2[nH]5)C=C4)C=C3)cc1)[C@H](C)c1ccoc1
REMARK SMILES IDX 7 1 6 2 5 3 3 4 4 5 2 7 1 8 61 9 62 10 63 11 64 12 67 13
REMARK SMILES IDX 65 14 66 15 8 16 9 17 10 18 11 19 12 21 13 22 14 23 60 24
REMARK SMILES IDX 15 25 59 26 16 27 17 28 18 29 53 30 19 31 58 32 52 33 54 34
REMARK SMILES IDX 20 35 57 36 51 37 50 38 21 40 43 41 28 42 42 43 29 44 32 45
REMARK SMILES IDX 41 46 55 47 30 48 31 49 40 51 56 52 33 53 22 54 23 55 27 56
REMARK SMILES IDX 24 57 26 58 25 59 44 60 45 61 49 62 46 63 48 64 47 65 34 66
REMARK SMILES IDX 35 67 39 68 36 69 38 70 37 71
REMARK H PARENT 5 6 10 20 54 39 32 50
REMARK Flexibility Score: inf
ROOT
ATOM      1  C   UNL A   1      31.816  30.223  26.879  1.00  0.00     0.023 C 
ENDROOT
BRANCH   1   2
ATOM      2  C   UNL A   1      33.219  29.614  26.810  1.00  0.00     0.116 C 
BRANCH   2   3
ATOM      3  N   UNL A   1      33.736  29.528  25.459  1.00  0.00    -0.356 N 
ATOM      4  C   UNL A   1      33.554  28.581  24.497  1.00  0.00     0.223 C 
ATOM      5  O   UNL A   1      34.104  28.777  23.410  1.00  0.00    -0.275 OA
ATOM      6  H   UNL A   1      34.315  30.278  25.192  1.00  0.00     0.163 HD
BRANCH   4   7
ATOM      7  C   UNL A   1      32.731  27.320  24.779  1.00  0.00     0.082 C 
ATOM      8  C   UNL A   1      33.308  26.632  26.025  1.00  0.00     0.019 C 
BRANCH   7   9
ATOM      9  C   UNL A   1      31.204  27.613  24.835  1.00  0.00     0.031 C 
ATOM     10  C   UNL A   1      30.309  26.382  25.066  1.00  0.00     0.014 C 
BRANCH   9  11
ATOM     11  C   UNL A   1      30.644  28.418  23.685  1.00  0.00    -0.006 A 
ATOM     12  C   UNL A   1      30.001  29.688  23.751  1.00  0.00     0.046 A 
ATOM     13  C   UNL A   1      30.541  28.034  22.361  1.00  0.00     0.198 A 
ATOM     14  C   UNL A   1      29.542  29.963  22.484  1.00  0.00     0.195 A 
ATOM     15  O   UNL A   1      29.879  28.964  21.631  1.00  0.00    -0.472 OA
ENDBRANCH   9  11
ENDBRANCH   7   9
ENDBRANCH   4   7
ENDBRANCH   2   3
ENDBRANCH   1   2
BRANCH   1  16
ATOM     16  C   UNL A   1      31.752  31.741  26.699  1.00  0.00     0.023 C 
BRANCH  16  17
ATOM     17  C   UNL A   1      32.877  32.509  27.380  1.00  0.00     0.116 C 
BRANCH  17  18
ATOM     18  N   UNL A   1      32.525  33.900  27.627  1.00  0.00    -0.352 N 
ATOM     19  C   UNL A   1      33.040  34.787  28.544  1.00  0.00     0.251 C 
ATOM     20  H   UNL A   1      31.813  34.260  27.050  1.00  0.00     0.163 HD
ATOM     21  O   UNL A   1      32.490  35.859  28.741  1.00  0.00    -0.269 OA
BRANCH  19  22
ATOM     22  C   UNL A   1      34.252  34.421  29.305  1.00  0.00     0.039 A 
ATOM     23  C   UNL A   1      34.112  33.895  30.592  1.00  0.00     0.014 A 
ATOM     24  C   UNL A   1      35.518  34.575  28.737  1.00  0.00     0.014 A 
ATOM     25  C   UNL A   1      35.241  33.432  31.273  1.00  0.00     0.010 A 
ATOM     26  C   UNL A   1      36.630  34.050  29.385  1.00  0.00     0.010 A 
ATOM     27  C   UNL A   1      36.499  33.459  30.652  1.00  0.00    -0.014 A 
BRANCH  27  28
ATOM     28  C   UNL A   1      37.690  32.831  31.277  1.00  0.00     0.031 A 
ATOM     29  C   UNL A   1      38.332  31.630  30.640  1.00  0.00     0.074 A 
ATOM     30  C   UNL A   1      38.115  33.273  32.478  1.00  0.00     0.049 A 
ATOM     31  N   UNL A   1      39.285  30.863  31.105  1.00  0.00    -0.248 NA
ATOM     32  C   UNL A   1      37.816  31.219  29.324  1.00  0.00     0.031 C 
ATOM     33  C   UNL A   1      37.542  34.398  33.221  1.00  0.00     0.029 A 
ATOM     34  N   UNL A   1      39.113  32.811  33.299  1.00  0.00    -0.354 N 
ATOM     35  C   UNL A   1      39.462  29.866  30.154  1.00  0.00     0.074 A 
ATOM     36  C   UNL A   1      38.500  30.104  29.101  1.00  0.00     0.031 C 
ATOM     37  C   UNL A   1      38.201  34.542  34.382  1.00  0.00     0.029 A 
ATOM     38  C   UNL A   1      39.209  33.493  34.489  1.00  0.00     0.049 A 
ATOM     39  H   UNL A   1      39.705  32.062  33.059  1.00  0.00     0.167 HD
ATOM     40  C   UNL A   1      40.355  28.849  30.156  1.00  0.00     0.031 A 
ATOM     41  C   UNL A   1      39.998  33.281  35.559  1.00  0.00     0.031 A 
ATOM     42  C   UNL A   1      41.329  28.631  31.191  1.00  0.00     0.049 A 
ATOM     43  C   UNL A   1      40.973  32.138  35.533  1.00  0.00     0.074 A 
ATOM     44  C   UNL A   1      42.340  27.686  31.235  1.00  0.00     0.029 A 
ATOM     45  N   UNL A   1      41.410  29.360  32.366  1.00  0.00    -0.354 N 
ATOM     46  N   UNL A   1      41.195  31.264  34.582  1.00  0.00    -0.248 NA
ATOM     47  C   UNL A   1      41.806  31.950  36.730  1.00  0.00     0.031 C 
ATOM     48  C   UNL A   1      42.994  27.805  32.464  1.00  0.00     0.029 A 
ATOM     49  C   UNL A   1      42.426  28.859  33.161  1.00  0.00     0.049 A 
ATOM     50  H   UNL A   1      40.832  30.121  32.600  1.00  0.00     0.167 HD
ATOM     51  C   UNL A   1      42.205  30.437  35.057  1.00  0.00     0.074 A 
ATOM     52  C   UNL A   1      42.568  30.928  36.370  1.00  0.00     0.031 C 
ATOM     53  C   UNL A   1      42.775  29.361  34.463  1.00  0.00     0.031 A 
BRANCH  40  54
ATOM     54  C   UNL A   1      40.325  27.881  29.008  1.00  0.00    -0.014 A 
ATOM     55  C   UNL A   1      41.075  28.107  27.844  1.00  0.00     0.009 A 
ATOM     56  C   UNL A   1      39.599  26.685  29.128  1.00  0.00     0.009 A 
ATOM     57  C   UNL A   1      41.083  27.163  26.814  1.00  0.00     0.001 A 
ATOM     58  C   UNL A   1      39.628  25.733  28.109  1.00  0.00     0.001 A 
ATOM     59  C   UNL A   1      40.366  25.974  26.951  1.00  0.00     0.000 A 
ENDBRANCH  40  54
BRANCH  41  60
ATOM     60  C   UNL A   1      39.888  34.150  36.761  1.00  0.00    -0.014 A 
ATOM     61  C   UNL A   1      39.047  33.792  37.826  1.00  0.00     0.009 A 
ATOM     62  C   UNL A   1      40.596  35.360  36.834  1.00  0.00     0.009 A 
ATOM     63  C   UNL A   1      38.889  34.646  38.921  1.00  0.00     0.001 A 
ATOM     64  C   UNL A   1      40.461  36.196  37.944  1.00  0.00     0.001 A 
ATOM     65  C   UNL A   1      39.597  35.844  38.981  1.00  0.00     0.000 A 
ENDBRANCH  41  60
BRANCH  53  66
ATOM     66  C   UNL A   1      43.863  28.655  35.218  1.00  0.00    -0.014 A 
ATOM     67  C   UNL A   1      43.573  27.571  36.060  1.00  0.00     0.009 A 
ATOM     68  C   UNL A   1      45.199  29.047  35.044  1.00  0.00     0.009 A 
ATOM     69  C   UNL A   1      44.600  26.907  36.733  1.00  0.00     0.001 A 
ATOM     70  C   UNL A   1      46.226  28.363  35.696  1.00  0.00     0.001 A 
ATOM     71  C   UNL A   1      45.925  27.299  36.546  1.00  0.00     0.000 A 
ENDBRANCH  53  66
ENDBRANCH  27  28
ENDBRANCH  19  22
ENDBRANCH  17  18
ENDBRANCH  16  17
ENDBRANCH   1  16
TORSDOF 13
ENDMDL
MODEL 2
REMARK VINA RESULT:     -10.4      3.838      9.770
REMARK SMILES C[C@H](C(=O)NCCCCNC(=O)c1ccc(-c2c3nc(c(-c4ccccc4)c4ccc([nH]4)c(-c4ccccc4)c4nc(c(-c5ccccc5)c5ccc2[nH]5)C=C4)C=C3)cc1)[C@H](C)c1ccoc1
REMARK SMILES IDX 7 1 6 2 5 3 3 4 4 5 2 7 1 8 61 9 62 10 63 11 64 12 67 13
REMARK SMILES IDX 65 14 66 15 8 16 9 17 10 18 11 19 12 21 13 22 14 23 60 24
REMARK SMILES IDX 15 25 59 26 16 27 17 28 18 29 53 30 19 31 58 32 52 33 54 34
REMARK SMILES IDX 20 35 57 36 51 37 50 38 21 40 43 41 28 42 42 43 29 44 32 45
REMARK SMILES IDX 41 46 55 47 30 48 31 49 40 51 56 52 33 53 22 54 23 55 27 56
REMARK SMILES IDX 24 57 26 58 25 59 44 60 45 61 49 62 46 63 48 64 47 65 34 66
REMARK SMILES IDX 35 67 39 68 36 69 38 70 37 71
REMARK H PARENT 5 6 10 20 54 39 32 50
REMARK Flexibility Score: inf
ROOT
ATOM      1  C   UNL A   1      37.930  33.467  29.477  1.00  0.00     0.023 C 
ENDROOT
BRANCH   1   2
ATOM      2  C   UNL A   1      38.528  34.441  30.494  1.00  0.00     0.116 C 
BRANCH   2   3
ATOM      3  N   UNL A   1      37.606  34.794  31.555  1.00  0.00    -0.356 N 
ATOM      4  C   UNL A   1      37.650  34.537  32.892  1.00  0.00     0.223 C 
ATOM      5  O   UNL A   1      36.727  34.984  33.577  1.00  0.00    -0.275 OA
ATOM      6  H   UNL A   1      36.816  35.303  31.261  1.00  0.00     0.163 HD
BRANCH   4   7
ATOM      7  C   UNL A   1      38.783  33.700  33.496  1.00  0.00     0.082 C 
ATOM      8  C   UNL A   1      39.060  34.211  34.917  1.00  0.00     0.019 C 
BRANCH   7   9
ATOM      9  C   UNL A   1      38.509  32.172  33.386  1.00  0.00     0.031 C 
ATOM     10  C   UNL A   1      37.024  31.780  33.277  1.00  0.00     0.014 C 
BRANCH   9  11
ATOM     11  C   UNL A   1      39.171  31.306  34.433  1.00  0.00    -0.006 A 
ATOM     12  C   UNL A   1      40.502  30.798  34.419  1.00  0.00     0.046 A 
ATOM     13  C   UNL A   1      38.584  30.740  35.550  1.00  0.00     0.198 A 
ATOM     14  C   UNL A   1      40.613  29.955  35.501  1.00  0.00     0.195 A 
ATOM     15  O   UNL A   1      39.451  29.927  36.199  1.00  0.00    -0.472 OA
ENDBRANCH   9  11
ENDBRANCH   7   9
ENDBRANCH   4   7
ENDBRANCH   2   3
ENDBRANCH   1   2
BRANCH   1  16
ATOM     16  C   UNL A   1      36.401  33.436  29.420  1.00  0.00     0.023 C 
BRANCH  16  17
ATOM     17  C   UNL A   1      35.821  33.315  28.018  1.00  0.00     0.116 C 
BRANCH  17  18
ATOM     18  N   UNL A   1      34.693  32.396  27.963  1.00  0.00    -0.352 N 
ATOM     19  C   UNL A   1      34.679  31.020  27.972  1.00  0.00     0.251 C 
ATOM     20  H   UNL A   1      33.808  32.824  27.913  1.00  0.00     0.163 HD
ATOM     21  O   UNL A   1      33.650  30.413  27.724  1.00  0.00    -0.269 OA
BRANCH  19  22
ATOM     22  C   UNL A   1      35.927  30.284  28.262  1.00  0.00     0.039 A 
ATOM     23  C   UNL A   1      36.903  30.184  27.266  1.00  0.00     0.014 A 
ATOM     24  C   UNL A   1      36.140  29.720  29.521  1.00  0.00     0.014 A 
ATOM     25  C   UNL A   1      38.134  29.597  27.566  1.00  0.00     0.010 A 
ATOM     26  C   UNL A   1      37.390  29.202  29.838  1.00  0.00     0.010 A 
ATOM     27  C   UNL A   1      38.404  29.150  28.869  1.00  0.00    -0.014 A 
BRANCH  27  28
ATOM     28  C   UNL A   1      39.752  28.672  29.266  1.00  0.00     0.031 A 
ATOM     29  C   UNL A   1      40.703  29.596  29.974  1.00  0.00     0.074 A 
ATOM     30  C   UNL A   1      40.156  27.445  28.880  1.00  0.00     0.049 A 
ATOM     31  N   UNL A   1      41.962  29.408  30.274  1.00  0.00    -0.248 NA
ATOM     32  C   UNL A   1      40.179  30.914  30.370  1.00  0.00     0.031 C 
ATOM     33  C   UNL A   1      39.342  26.474  28.143  1.00  0.00     0.029 A 
ATOM     34  N   UNL A   1      41.365  26.812  29.031  1.00  0.00    -0.354 N 
ATOM     35  C   UNL A   1      42.389  30.590  30.866  1.00  0.00     0.074 A 
ATOM     36  C   UNL A   1      41.265  31.501  30.857  1.00  0.00     0.031 C 
ATOM     37  C   UNL A   1      40.072  25.370  27.914  1.00  0.00     0.029 A 
ATOM     38  C   UNL A   1      41.416  25.571  28.442  1.00  0.00     0.049 A 
ATOM     39  H   UNL A   1      42.124  27.210  29.516  1.00  0.00     0.167 HD
ATOM     40  C   UNL A   1      43.605  30.884  31.380  1.00  0.00     0.031 A 
ATOM     41  C   UNL A   1      42.438  24.704  28.315  1.00  0.00     0.031 A 
ATOM     42  C   UNL A   1      44.712  29.967  31.413  1.00  0.00     0.049 A 
ATOM     43  C   UNL A   1      43.779  25.065  28.888  1.00  0.00     0.074 A 
ATOM     44  C   UNL A   1      45.954  30.140  31.999  1.00  0.00     0.029 A 
ATOM     45  N   UNL A   1      44.714  28.711  30.829  1.00  0.00    -0.354 N 
ATOM     46  N   UNL A   1      44.136  26.148  29.533  1.00  0.00    -0.248 NA
ATOM     47  C   UNL A   1      44.860  24.082  28.716  1.00  0.00     0.031 C 
ATOM     48  C   UNL A   1      46.729  29.010  31.719  1.00  0.00     0.029 A 
ATOM     49  C   UNL A   1      45.950  28.114  31.005  1.00  0.00     0.049 A 
ATOM     50  H   UNL A   1      43.951  28.304  30.360  1.00  0.00     0.167 HD
ATOM     51  C   UNL A   1      45.474  25.970  29.860  1.00  0.00     0.074 A 
ATOM     52  C   UNL A   1      45.858  24.664  29.364  1.00  0.00     0.031 C 
ATOM     53  C   UNL A   1      46.313  26.814  30.506  1.00  0.00     0.031 A 
BRANCH  40  54
ATOM     54  C   UNL A   1      43.818  32.259  31.947  1.00  0.00    -0.014 A 
ATOM     55  C   UNL A   1      43.620  32.522  33.312  1.00  0.00     0.009 A 
ATOM     56  C   UNL A   1      44.303  33.284  31.120  1.00  0.00     0.009 A 
ATOM     57  C   UNL A   1      43.885  33.792  33.831  1.00  0.00     0.001 A 
ATOM     58  C   UNL A   1      44.590  34.544  31.646  1.00  0.00     0.001 A 
ATOM     59  C   UNL A   1      44.377  34.799  33.000  1.00  0.00     0.000 A 
ENDBRANCH  40  54
BRANCH  41  60
ATOM     60  C   UNL A   1      42.249  23.418  27.591  1.00  0.00    -0.014 A 
ATOM     61  C   UNL A   1      41.700  22.304  28.242  1.00  0.00     0.009 A 
ATOM     62  C   UNL A   1      42.652  23.289  26.252  1.00  0.00     0.009 A 
ATOM     63  C   UNL A   1      41.592  21.078  27.582  1.00  0.00     0.001 A 
ATOM     64  C   UNL A   1      42.514  22.070  25.583  1.00  0.00     0.001 A 
ATOM     65  C   UNL A   1      41.996  20.963  26.253  1.00  0.00     0.000 A 
ENDBRANCH  41  60
BRANCH  53  66
ATOM     66  C   UNL A   1      47.722  26.346  30.729  1.00  0.00    -0.014 A 
ATOM     67  C   UNL A   1      48.108  25.769  31.948  1.00  0.00     0.009 A 
ATOM     68  C   UNL A   1      48.660  26.437  29.689  1.00  0.00     0.009 A 
ATOM     69  C   UNL A   1      49.415  25.314  32.130  1.00  0.00     0.001 A 
ATOM     70  C   UNL A   1      49.957  25.955  29.864  1.00  0.00     0.001 A 
ATOM     71  C   UNL A   1      50.335  25.401  31.086  1.00  0.00     0.000 A 
ENDBRANCH  53  66
ENDBRANCH  27  28
ENDBRANCH  19  22
ENDBRANCH  17  18
ENDBRANCH  16  17
ENDBRANCH   1  16
TORSDOF 13
ENDMDL
MODEL 3
REMARK VINA RESULT:     -10.3      5.542     10.169
REMARK SMILES C[C@H](C(=O)NCCCCNC(=O)c1ccc(-c2c3nc(c(-c4ccccc4)c4ccc([nH]4)c(-c4ccccc4)c4nc(c(-c5ccccc5)c5ccc2[nH]5)C=C4)C=C3)cc1)[C@H](C)c1ccoc1
REMARK SMILES IDX 7 1 6 2 5 3 3 4 4 5 2 7 1 8 61 9 62 10 63 11 64 12 67 13
REMARK SMILES IDX 65 14 66 15 8 16 9 17 10 18 11 19 12 21 13 22 14 23 60 24
REMARK SMILES IDX 15 25 59 26 16 27 17 28 18 29 53 30 19 31 58 32 52 33 54 34
REMARK SMILES IDX 20 35 57 36 51 37 50 38 21 40 43 41 28 42 42 43 29 44 32 45
REMARK SMILES IDX 41 46 55 47 30 48 31 49 40 51 56 52 33 53 22 54 23 55 27 56
REMARK SMILES IDX 24 57 26 58 25 59 44 60 45 61 49 62 46 63 48 64 47 65 34 66
REMARK SMILES IDX 35 67 39 68 36 69 38 70 37 71
REMARK H PARENT 5 6 10 20 54 39 32 50
REMARK Flexibility Score: inf
ROOT
ATOM      1  C   UNL A   1      36.494  21.918  24.521  1.00  0.00     0.023 C 
ENDROOT
BRANCH   1   2
ATOM      2  C   UNL A   1      35.813  22.637  25.687  1.00  0.00     0.116 C 
BRANCH   2   3
ATOM      3  N   UNL A   1      34.844  23.625  25.259  1.00  0.00    -0.356 N 
ATOM      4  C   UNL A   1      33.504  23.518  25.041  1.00  0.00     0.223 C 
ATOM      5  O   UNL A   1      32.910  24.544  24.698  1.00  0.00    -0.275 OA
ATOM      6  H   UNL A   1      35.215  24.523  25.099  1.00  0.00     0.163 HD
BRANCH   4   7
ATOM      7  C   UNL A   1      32.788  22.171  25.184  1.00  0.00     0.082 C 
ATOM      8  C   UNL A   1      31.331  22.436  25.592  1.00  0.00     0.019 C 
BRANCH   7   9
ATOM      9  C   UNL A   1      32.968  21.272  23.927  1.00  0.00     0.031 C 
ATOM     10  C   UNL A   1      32.153  21.701  22.693  1.00  0.00     0.014 C 
BRANCH   9  11
ATOM     11  C   UNL A   1      32.784  19.788  24.145  1.00  0.00    -0.006 A 
ATOM     12  C   UNL A   1      33.124  19.036  25.306  1.00  0.00     0.046 A 
ATOM     13  C   UNL A   1      32.360  18.849  23.223  1.00  0.00     0.198 A 
ATOM     14  C   UNL A   1      32.905  17.713  24.997  1.00  0.00     0.195 A 
ATOM     15  O   UNL A   1      32.428  17.596  23.733  1.00  0.00    -0.472 OA
ENDBRANCH   9  11
ENDBRANCH   7   9
ENDBRANCH   4   7
ENDBRANCH   2   3
ENDBRANCH   1   2
BRANCH   1  16
ATOM     16  C   UNL A   1      37.302  20.675  24.900  1.00  0.00     0.023 C 
BRANCH  16  17
ATOM     17  C   UNL A   1      38.548  20.957  25.728  1.00  0.00     0.116 C 
BRANCH  17  18
ATOM     18  N   UNL A   1      39.488  19.845  25.709  1.00  0.00    -0.352 N 
ATOM     19  C   UNL A   1      40.835  19.827  25.988  1.00  0.00     0.251 C 
ATOM     20  H   UNL A   1      39.100  18.975  25.460  1.00  0.00     0.163 HD
ATOM     21  O   UNL A   1      41.504  18.839  25.733  1.00  0.00    -0.269 OA
BRANCH  19  22
ATOM     22  C   UNL A   1      41.469  21.025  26.579  1.00  0.00     0.039 A 
ATOM     23  C   UNL A   1      42.026  21.985  25.731  1.00  0.00     0.014 A 
ATOM     24  C   UNL A   1      41.487  21.205  27.963  1.00  0.00     0.014 A 
ATOM     25  C   UNL A   1      42.518  23.176  26.270  1.00  0.00     0.010 A 
ATOM     26  C   UNL A   1      41.911  22.419  28.491  1.00  0.00     0.010 A 
ATOM     27  C   UNL A   1      42.415  23.422  27.648  1.00  0.00    -0.014 A 
BRANCH  27  28
ATOM     28  C   UNL A   1      42.777  24.737  28.234  1.00  0.00     0.031 A 
ATOM     29  C   UNL A   1      41.719  25.780  28.459  1.00  0.00     0.074 A 
ATOM     30  C   UNL A   1      44.076  25.027  28.451  1.00  0.00     0.049 A 
ATOM     31  N   UNL A   1      41.859  27.028  28.827  1.00  0.00    -0.248 NA
ATOM     32  C   UNL A   1      40.325  25.379  28.210  1.00  0.00     0.031 C 
ATOM     33  C   UNL A   1      45.201  24.115  28.224  1.00  0.00     0.029 A 
ATOM     34  N   UNL A   1      44.674  26.183  28.887  1.00  0.00    -0.354 N 
ATOM     35  C   UNL A   1      40.579  27.567  28.824  1.00  0.00     0.074 A 
ATOM     36  C   UNL A   1      39.677  26.522  28.391  1.00  0.00     0.031 C 
ATOM     37  C   UNL A   1      46.347  24.745  28.528  1.00  0.00     0.029 A 
ATOM     38  C   UNL A   1      46.047  26.115  28.923  1.00  0.00     0.049 A 
ATOM     39  H   UNL A   1      44.167  26.987  29.148  1.00  0.00     0.167 HD
ATOM     40  C   UNL A   1      40.190  28.818  29.165  1.00  0.00     0.031 A 
ATOM     41  C   UNL A   1      46.962  27.058  29.216  1.00  0.00     0.031 A 
ATOM     42  C   UNL A   1      41.086  29.846  29.622  1.00  0.00     0.049 A 
ATOM     43  C   UNL A   1      46.498  28.440  29.580  1.00  0.00     0.074 A 
ATOM     44  C   UNL A   1      40.775  31.114  30.082  1.00  0.00     0.029 A 
ATOM     45  N   UNL A   1      42.465  29.728  29.671  1.00  0.00    -0.354 N 
ATOM     46  N   UNL A   1      45.276  28.903  29.668  1.00  0.00    -0.248 NA
ATOM     47  C   UNL A   1      47.542  29.431  29.884  1.00  0.00     0.031 C 
ATOM     48  C   UNL A   1      41.971  31.784  30.352  1.00  0.00     0.029 A 
ATOM     49  C   UNL A   1      43.022  30.915  30.113  1.00  0.00     0.049 A 
ATOM     50  H   UNL A   1      42.972  28.920  29.428  1.00  0.00     0.167 HD
ATOM     51  C   UNL A   1      45.402  30.231  30.057  1.00  0.00     0.074 A 
ATOM     52  C   UNL A   1      46.818  30.492  30.210  1.00  0.00     0.031 C 
ATOM     53  C   UNL A   1      44.433  31.155  30.260  1.00  0.00     0.031 A 
BRANCH  40  54
ATOM     54  C   UNL A   1      38.732  29.159  29.051  1.00  0.00    -0.014 A 
ATOM     55  C   UNL A   1      37.863  29.017  30.144  1.00  0.00     0.009 A 
ATOM     56  C   UNL A   1      38.239  29.709  27.857  1.00  0.00     0.009 A 
ATOM     57  C   UNL A   1      36.524  29.400  30.035  1.00  0.00     0.001 A 
ATOM     58  C   UNL A   1      36.907  30.114  27.759  1.00  0.00     0.001 A 
ATOM     59  C   UNL A   1      36.049  29.955  28.847  1.00  0.00     0.000 A 
ENDBRANCH  40  54
BRANCH  41  60
ATOM     60  C   UNL A   1      48.415  26.744  29.150  1.00  0.00    -0.014 A 
ATOM     61  C   UNL A   1      49.135  26.936  27.962  1.00  0.00     0.009 A 
ATOM     62  C   UNL A   1      49.081  26.216  30.268  1.00  0.00     0.009 A 
ATOM     63  C   UNL A   1      50.481  26.571  27.881  1.00  0.00     0.001 A 
ATOM     64  C   UNL A   1      50.435  25.881  30.195  1.00  0.00     0.001 A 
ATOM     65  C   UNL A   1      51.130  26.047  28.998  1.00  0.00     0.000 A 
ENDBRANCH  41  60
BRANCH  53  66
ATOM     66  C   UNL A   1      44.869  32.527  30.688  1.00  0.00    -0.014 A 
ATOM     67  C   UNL A   1      45.100  33.539  29.746  1.00  0.00     0.009 A 
ATOM     68  C   UNL A   1      44.999  32.821  32.054  1.00  0.00     0.009 A 
ATOM     69  C   UNL A   1      45.478  34.817  30.163  1.00  0.00     0.001 A 
ATOM     70  C   UNL A   1      45.349  34.106  32.469  1.00  0.00     0.001 A 
ATOM     71  C   UNL A   1      45.595  35.100  31.523  1.00  0.00     0.000 A 
ENDBRANCH  53  66
ENDBRANCH  27  28
ENDBRANCH  19  22
ENDBRANCH  17  18
ENDBRANCH  16  17
ENDBRANCH   1  16
TORSDOF 13
ENDMDL
