MODEL 1
REMARK VINA RESULT:      -9.5      0.000      0.000
REMARK SMILES O=C(NCCCCNC(=O)[C@@H]1C=C[C@H](NC(=O)c2ccc(Br)cc2)C1)c1ccc(-c2c3nc(c(-c4ccccc4)c4ccc([nH]4)c(-c4ccccc4)c4nc(c(-c5ccccc5)c5ccc2[nH]5)C=C4)C=C3)cc1
REMARK SMILES IDX 5 1 4 2 3 3 1 4 2 5 26 7 27 8 73 9 28 10 72 11 29 12 30 13
REMARK SMILES IDX 31 14 66 15 32 16 71 17 65 18 67 19 33 20 70 21 64 22 63 23
REMARK SMILES IDX 34 25 56 26 41 27 55 28 42 29 45 30 54 31 68 32 43 33 44 34
REMARK SMILES IDX 53 36 69 37 46 38 35 39 36 40 40 41 37 42 39 43 38 44 57 45
REMARK SMILES IDX 58 46 62 47 59 48 61 49 60 50 47 51 48 52 52 53 49 54 51 55
REMARK SMILES IDX 50 56 6 57 7 58 8 59 9 60 10 62 11 63 12 64 25 65 13 66
REMARK SMILES IDX 14 67 15 68 16 69 17 71 18 72 19 73 24 74 20 75 23 76 21 77
REMARK SMILES IDX 22 78
REMARK H PARENT 3 6 67 24 45 35 8 61 15 70
REMARK Flexibility Score: inf
ROOT
ATOM      1  C   UNL A   1      33.653  33.737  28.165  1.00  0.00     0.023 C 
ENDROOT
BRANCH   1   2
ATOM      2  C   UNL A   1      34.633  32.579  28.014  1.00  0.00     0.116 C 
BRANCH   2   3
ATOM      3  N   UNL A   1      33.978  31.293  27.831  1.00  0.00    -0.352 N 
ATOM      4  O   UNL A   1      33.816  29.062  27.550  1.00  0.00    -0.269 OA
ATOM      5  C   UNL A   1      34.513  30.025  27.846  1.00  0.00     0.251 C 
ATOM      6  H   UNL A   1      33.008  31.336  27.672  1.00  0.00     0.163 HD
BRANCH   5   7
ATOM      7  C   UNL A   1      35.942  29.826  28.180  1.00  0.00     0.039 A 
ATOM      8  C   UNL A   1      36.943  30.073  27.238  1.00  0.00     0.014 A 
ATOM      9  C   UNL A   1      36.283  29.373  29.458  1.00  0.00     0.014 A 
ATOM     10  C   UNL A   1      38.256  29.704  27.514  1.00  0.00     0.010 A 
ATOM     11  C   UNL A   1      37.618  29.083  29.762  1.00  0.00     0.010 A 
ATOM     12  C   UNL A   1      38.608  29.196  28.776  1.00  0.00    -0.014 A 
BRANCH  12  13
ATOM     13  C   UNL A   1      40.018  28.799  29.032  1.00  0.00     0.031 A 
ATOM     14  C   UNL A   1      40.532  27.446  28.614  1.00  0.00     0.074 A 
ATOM     15  C   UNL A   1      40.858  29.690  29.591  1.00  0.00     0.049 A 
ATOM     16  N   UNL A   1      41.753  26.972  28.685  1.00  0.00    -0.248 NA
ATOM     17  C   UNL A   1      39.556  26.499  28.054  1.00  0.00     0.031 C 
ATOM     18  C   UNL A   1      40.486  31.031  30.047  1.00  0.00     0.029 A 
ATOM     19  N   UNL A   1      42.205  29.616  29.841  1.00  0.00    -0.354 N 
ATOM     20  C   UNL A   1      41.685  25.670  28.203  1.00  0.00     0.074 A 
ATOM     21  C   UNL A   1      40.301  25.419  27.864  1.00  0.00     0.031 C 
ATOM     22  C   UNL A   1      41.588  31.675  30.460  1.00  0.00     0.029 A 
ATOM     23  C   UNL A   1      42.733  30.779  30.347  1.00  0.00     0.049 A 
ATOM     24  H   UNL A   1      42.742  28.807  29.674  1.00  0.00     0.167 HD
ATOM     25  C   UNL A   1      42.684  24.767  28.052  1.00  0.00     0.031 A 
ATOM     26  C   UNL A   1      43.997  31.094  30.681  1.00  0.00     0.031 A 
ATOM     27  C   UNL A   1      44.065  25.016  28.371  1.00  0.00     0.049 A 
ATOM     28  C   UNL A   1      45.083  30.076  30.500  1.00  0.00     0.074 A 
ATOM     29  C   UNL A   1      45.152  24.173  28.212  1.00  0.00     0.029 A 
ATOM     30  N   UNL A   1      44.549  26.195  28.912  1.00  0.00    -0.354 N 
ATOM     31  N   UNL A   1      45.005  28.864  30.009  1.00  0.00    -0.248 NA
ATOM     32  C   UNL A   1      46.435  30.474  30.918  1.00  0.00     0.031 C 
ATOM     33  C   UNL A   1      46.290  24.829  28.697  1.00  0.00     0.029 A 
ATOM     34  C   UNL A   1      45.918  26.096  29.113  1.00  0.00     0.049 A 
ATOM     35  H   UNL A   1      44.004  26.987  29.124  1.00  0.00     0.167 HD
ATOM     36  C   UNL A   1      46.298  28.362  30.040  1.00  0.00     0.074 A 
ATOM     37  C   UNL A   1      47.144  29.406  30.581  1.00  0.00     0.031 C 
ATOM     38  C   UNL A   1      46.745  27.141  29.654  1.00  0.00     0.031 A 
BRANCH  25  39
ATOM     39  C   UNL A   1      42.314  23.405  27.535  1.00  0.00    -0.014 A 
ATOM     40  C   UNL A   1      41.768  22.425  28.379  1.00  0.00     0.009 A 
ATOM     41  C   UNL A   1      42.473  23.113  26.171  1.00  0.00     0.009 A 
ATOM     42  C   UNL A   1      41.418  21.171  27.873  1.00  0.00     0.001 A 
ATOM     43  C   UNL A   1      42.100  21.867  25.662  1.00  0.00     0.001 A 
ATOM     44  C   UNL A   1      41.580  20.895  26.515  1.00  0.00     0.000 A 
ENDBRANCH  25  39
BRANCH  26  45
ATOM     45  C   UNL A   1      44.305  32.448  31.207  1.00  0.00    -0.014 A 
ATOM     46  C   UNL A   1      44.530  33.519  30.329  1.00  0.00     0.009 A 
ATOM     47  C   UNL A   1      44.364  32.677  32.590  1.00  0.00     0.009 A 
ATOM     48  C   UNL A   1      44.828  34.789  30.826  1.00  0.00     0.001 A 
ATOM     49  C   UNL A   1      44.636  33.953  33.085  1.00  0.00     0.001 A 
ATOM     50  C   UNL A   1      44.875  35.007  32.203  1.00  0.00     0.000 A 
ENDBRANCH  26  45
BRANCH  38  51
ATOM     51  C   UNL A   1      48.219  26.887  29.778  1.00  0.00    -0.014 A 
ATOM     52  C   UNL A   1      49.111  27.272  28.765  1.00  0.00     0.009 A 
ATOM     53  C   UNL A   1      48.723  26.268  30.932  1.00  0.00     0.009 A 
ATOM     54  C   UNL A   1      50.477  27.009  28.891  1.00  0.00     0.001 A 
ATOM     55  C   UNL A   1      50.091  26.028  31.066  1.00  0.00     0.001 A 
ATOM     56  C   UNL A   1      50.965  26.389  30.041  1.00  0.00     0.000 A 
ENDBRANCH  38  51
ENDBRANCH  12  13
ENDBRANCH   5   7
ENDBRANCH   2   3
ENDBRANCH   1   2
BRANCH   1  57
ATOM     57  C   UNL A   1      34.248  35.043  28.699  1.00  0.00     0.023 C 
BRANCH  57  58
ATOM     58  C   UNL A   1      33.858  35.400  30.132  1.00  0.00     0.116 C 
BRANCH  58  59
ATOM     59  N   UNL A   1      33.613  34.223  30.940  1.00  0.00    -0.356 N 
ATOM     60  C   UNL A   1      34.466  33.534  31.752  1.00  0.00     0.227 C 
ATOM     61  H   UNL A   1      32.695  33.869  30.898  1.00  0.00     0.163 HD
ATOM     62  O   UNL A   1      33.979  32.649  32.458  1.00  0.00    -0.274 OA
BRANCH  60  63
ATOM     63  C   UNL A   1      35.946  33.919  31.799  1.00  0.00     0.103 C 
ATOM     64  C   UNL A   1      36.770  33.294  30.709  1.00  0.00    -0.016 C 
ATOM     65  C   UNL A   1      36.644  33.409  33.075  1.00  0.00     0.047 C 
ATOM     66  C   UNL A   1      37.665  32.419  31.180  1.00  0.00    -0.006 C 
ATOM     67  C   UNL A   1      37.571  32.261  32.650  1.00  0.00     0.106 C 
BRANCH  67  68
ATOM     68  N   UNL A   1      37.139  30.942  33.094  1.00  0.00    -0.346 N 
ATOM     69  C   UNL A   1      37.744  29.719  33.224  1.00  0.00     0.251 C 
ATOM     70  H   UNL A   1      36.192  30.926  33.365  1.00  0.00     0.164 HD
ATOM     71  O   UNL A   1      37.051  28.706  33.289  1.00  0.00    -0.269 OA
BRANCH  69  72
ATOM     72  C   UNL A   1      39.202  29.577  33.374  1.00  0.00     0.039 A 
ATOM     73  C   UNL A   1      39.863  28.480  32.810  1.00  0.00     0.015 A 
ATOM     74  C   UNL A   1      39.934  30.601  33.979  1.00  0.00     0.015 A 
ATOM     75  C   UNL A   1      41.246  28.350  32.960  1.00  0.00     0.016 A 
ATOM     76  C   UNL A   1      41.317  30.474  34.125  1.00  0.00     0.016 A 
ATOM     77  C   UNL A   1      41.963  29.340  33.633  1.00  0.00     0.018 A 
ATOM     78  Br  UNL A   1      43.826  29.144  33.877  1.00  0.00    -0.051 Br
ENDBRANCH  69  72
ENDBRANCH  67  68
ENDBRANCH  60  63
ENDBRANCH  58  59
ENDBRANCH  57  58
ENDBRANCH   1  57
TORSDOF 13
ENDMDL
MODEL 2
REMARK VINA RESULT:      -9.5      4.476      9.902
REMARK SMILES O=C(NCCCCNC(=O)[C@@H]1C=C[C@H](NC(=O)c2ccc(Br)cc2)C1)c1ccc(-c2c3nc(c(-c4ccccc4)c4ccc([nH]4)c(-c4ccccc4)c4nc(c(-c5ccccc5)c5ccc2[nH]5)C=C4)C=C3)cc1
REMARK SMILES IDX 5 1 4 2 3 3 1 4 2 5 26 7 27 8 73 9 28 10 72 11 29 12 30 13
REMARK SMILES IDX 31 14 66 15 32 16 71 17 65 18 67 19 33 20 70 21 64 22 63 23
REMARK SMILES IDX 34 25 56 26 41 27 55 28 42 29 45 30 54 31 68 32 43 33 44 34
REMARK SMILES IDX 53 36 69 37 46 38 35 39 36 40 40 41 37 42 39 43 38 44 57 45
REMARK SMILES IDX 58 46 62 47 59 48 61 49 60 50 47 51 48 52 52 53 49 54 51 55
REMARK SMILES IDX 50 56 6 57 7 58 8 59 9 60 10 62 11 63 12 64 25 65 13 66
REMARK SMILES IDX 14 67 15 68 16 69 17 71 18 72 19 73 24 74 20 75 23 76 21 77
REMARK SMILES IDX 22 78
REMARK H PARENT 3 6 67 24 45 35 8 61 15 70
REMARK Flexibility Score: inf
ROOT
ATOM      1  C   UNL A   1      37.770  20.325  24.635  1.00  0.00     0.023 C 
ENDROOT
BRANCH   1   2
ATOM      2  C   UNL A   1      38.788  20.489  25.757  1.00  0.00     0.116 C 
BRANCH   2   3
ATOM      3  N   UNL A   1      39.855  19.501  25.714  1.00  0.00    -0.352 N 
ATOM      4  O   UNL A   1      41.962  18.708  25.824  1.00  0.00    -0.269 OA
ATOM      5  C   UNL A   1      41.186  19.630  26.041  1.00  0.00     0.251 C 
ATOM      6  H   UNL A   1      39.585  18.606  25.405  1.00  0.00     0.163 HD
BRANCH   5   7
ATOM      7  C   UNL A   1      41.689  20.897  26.619  1.00  0.00     0.039 A 
ATOM      8  C   UNL A   1      41.763  21.079  28.001  1.00  0.00     0.014 A 
ATOM      9  C   UNL A   1      42.082  21.926  25.757  1.00  0.00     0.014 A 
ATOM     10  C   UNL A   1      42.062  22.337  28.516  1.00  0.00     0.010 A 
ATOM     11  C   UNL A   1      42.465  23.166  26.281  1.00  0.00     0.010 A 
ATOM     12  C   UNL A   1      42.407  23.398  27.663  1.00  0.00    -0.014 A 
BRANCH  12  13
ATOM     13  C   UNL A   1      42.707  24.733  28.247  1.00  0.00     0.031 A 
ATOM     14  C   UNL A   1      44.121  25.142  28.564  1.00  0.00     0.074 A 
ATOM     15  C   UNL A   1      41.699  25.605  28.437  1.00  0.00     0.049 A 
ATOM     16  N   UNL A   1      44.565  26.298  28.996  1.00  0.00    -0.248 NA
ATOM     17  C   UNL A   1      45.172  24.129  28.382  1.00  0.00     0.031 C 
ATOM     18  C   UNL A   1      40.284  25.331  28.177  1.00  0.00     0.029 A 
ATOM     19  N   UNL A   1      41.713  26.910  28.860  1.00  0.00    -0.354 N 
ATOM     20  C   UNL A   1      45.937  26.142  29.160  1.00  0.00     0.074 A 
ATOM     21  C   UNL A   1      46.250  24.776  28.803  1.00  0.00     0.031 C 
ATOM     22  C   UNL A   1      39.575  26.451  28.384  1.00  0.00     0.029 A 
ATOM     23  C   UNL A   1      40.475  27.505  28.839  1.00  0.00     0.049 A 
ATOM     24  H   UNL A   1      42.531  27.376  29.150  1.00  0.00     0.167 HD
ATOM     25  C   UNL A   1      46.853  27.054  29.566  1.00  0.00     0.031 A 
ATOM     26  C   UNL A   1      40.101  28.760  29.147  1.00  0.00     0.031 A 
ATOM     27  C   UNL A   1      46.550  28.420  29.906  1.00  0.00     0.049 A 
ATOM     28  C   UNL A   1      41.138  29.750  29.590  1.00  0.00     0.074 A 
ATOM     29  C   UNL A   1      47.422  29.426  30.289  1.00  0.00     0.029 A 
ATOM     30  N   UNL A   1      45.280  28.970  29.903  1.00  0.00    -0.354 N 
ATOM     31  N   UNL A   1      42.433  29.594  29.703  1.00  0.00    -0.248 NA
ATOM     32  C   UNL A   1      40.656  31.093  29.946  1.00  0.00     0.031 C 
ATOM     33  C   UNL A   1      46.671  30.577  30.558  1.00  0.00     0.029 A 
ATOM     34  C   UNL A   1      45.340  30.298  30.297  1.00  0.00     0.049 A 
ATOM     35  H   UNL A   1      44.456  28.491  29.658  1.00  0.00     0.167 HD
ATOM     36  C   UNL A   1      42.925  30.822  30.123  1.00  0.00     0.074 A 
ATOM     37  C   UNL A   1      41.791  31.717  30.227  1.00  0.00     0.031 C 
ATOM     38  C   UNL A   1      44.204  31.175  30.399  1.00  0.00     0.031 A 
BRANCH  25  39
ATOM     39  C   UNL A   1      48.280  26.596  29.688  1.00  0.00    -0.014 A 
ATOM     40  C   UNL A   1      48.760  26.007  30.868  1.00  0.00     0.009 A 
ATOM     41  C   UNL A   1      49.144  26.716  28.589  1.00  0.00     0.009 A 
ATOM     42  C   UNL A   1      50.086  25.575  30.953  1.00  0.00     0.001 A 
ATOM     43  C   UNL A   1      50.462  26.262  28.668  1.00  0.00     0.001 A 
ATOM     44  C   UNL A   1      50.934  25.699  29.853  1.00  0.00     0.000 A 
ENDBRANCH  25  39
BRANCH  26  45
ATOM     45  C   UNL A   1      38.675  29.155  29.028  1.00  0.00    -0.014 A 
ATOM     46  C   UNL A   1      37.815  29.055  30.131  1.00  0.00     0.009 A 
ATOM     47  C   UNL A   1      38.171  29.643  27.813  1.00  0.00     0.009 A 
ATOM     48  C   UNL A   1      36.472  29.419  30.014  1.00  0.00     0.001 A 
ATOM     49  C   UNL A   1      36.835  30.031  27.706  1.00  0.00     0.001 A 
ATOM     50  C   UNL A   1      35.984  29.911  28.804  1.00  0.00     0.000 A 
ENDBRANCH  26  45
BRANCH  38  51
ATOM     51  C   UNL A   1      44.442  32.600  30.809  1.00  0.00    -0.014 A 
ATOM     52  C   UNL A   1      44.428  32.980  32.159  1.00  0.00     0.009 A 
ATOM     53  C   UNL A   1      44.700  33.570  29.829  1.00  0.00     0.009 A 
ATOM     54  C   UNL A   1      44.632  34.314  32.518  1.00  0.00     0.001 A 
ATOM     55  C   UNL A   1      44.928  34.898  30.192  1.00  0.00     0.001 A 
ATOM     56  C   UNL A   1      44.884  35.271  31.535  1.00  0.00     0.000 A 
ENDBRANCH  38  51
ENDBRANCH  12  13
ENDBRANCH   5   7
ENDBRANCH   2   3
ENDBRANCH   1   2
BRANCH   1  57
ATOM     57  C   UNL A   1      36.569  19.431  24.955  1.00  0.00     0.023 C 
BRANCH  57  58
ATOM     58  C   UNL A   1      35.211  20.131  24.933  1.00  0.00     0.116 C 
BRANCH  58  59
ATOM     59  N   UNL A   1      34.992  20.936  26.118  1.00  0.00    -0.356 N 
ATOM     60  C   UNL A   1      34.739  22.271  26.226  1.00  0.00     0.227 C 
ATOM     61  H   UNL A   1      35.032  20.445  26.971  1.00  0.00     0.163 HD
ATOM     62  O   UNL A   1      34.437  22.698  27.341  1.00  0.00    -0.274 OA
BRANCH  60  63
ATOM     63  C   UNL A   1      34.778  23.155  24.976  1.00  0.00     0.103 C 
ATOM     64  C   UNL A   1      35.026  24.608  25.269  1.00  0.00    -0.016 C 
ATOM     65  C   UNL A   1      33.424  23.193  24.242  1.00  0.00     0.047 C 
ATOM     66  C   UNL A   1      33.974  25.378  24.972  1.00  0.00    -0.006 C 
ATOM     67  C   UNL A   1      32.824  24.586  24.481  1.00  0.00     0.106 C 
BRANCH  67  68
ATOM     68  N   UNL A   1      31.658  24.598  25.354  1.00  0.00    -0.346 N 
ATOM     69  C   UNL A   1      30.706  25.527  25.685  1.00  0.00     0.251 C 
ATOM     70  H   UNL A   1      31.521  23.738  25.815  1.00  0.00     0.164 HD
ATOM     71  O   UNL A   1      30.046  25.379  26.712  1.00  0.00    -0.269 OA
BRANCH  69  72
ATOM     72  C   UNL A   1      30.382  26.664  24.807  1.00  0.00     0.039 A 
ATOM     73  C   UNL A   1      29.248  26.618  23.988  1.00  0.00     0.015 A 
ATOM     74  C   UNL A   1      31.144  27.831  24.883  1.00  0.00     0.015 A 
ATOM     75  C   UNL A   1      28.949  27.699  23.154  1.00  0.00     0.016 A 
ATOM     76  C   UNL A   1      30.844  28.914  24.053  1.00  0.00     0.016 A 
ATOM     77  C   UNL A   1      29.760  28.834  23.179  1.00  0.00     0.018 A 
ATOM     78  Br  UNL A   1      29.385  30.278  22.019  1.00  0.00    -0.051 Br
ENDBRANCH  69  72
ENDBRANCH  67  68
ENDBRANCH  60  63
ENDBRANCH  58  59
ENDBRANCH  57  58
ENDBRANCH   1  57
TORSDOF 13
ENDMDL
MODEL 3
REMARK VINA RESULT:      -9.4      0.474      5.993
REMARK SMILES O=C(NCCCCNC(=O)[C@@H]1C=C[C@H](NC(=O)c2ccc(Br)cc2)C1)c1ccc(-c2c3nc(c(-c4ccccc4)c4ccc([nH]4)c(-c4ccccc4)c4nc(c(-c5ccccc5)c5ccc2[nH]5)C=C4)C=C3)cc1
REMARK SMILES IDX 5 1 4 2 3 3 1 4 2 5 26 7 27 8 73 9 28 10 72 11 29 12 30 13
REMARK SMILES IDX 31 14 66 15 32 16 71 17 65 18 67 19 33 20 70 21 64 22 63 23
REMARK SMILES IDX 34 25 56 26 41 27 55 28 42 29 45 30 54 31 68 32 43 33 44 34
REMARK SMILES IDX 53 36 69 37 46 38 35 39 36 40 40 41 37 42 39 43 38 44 57 45
REMARK SMILES IDX 58 46 62 47 59 48 61 49 60 50 47 51 48 52 52 53 49 54 51 55
REMARK SMILES IDX 50 56 6 57 7 58 8 59 9 60 10 62 11 63 12 64 25 65 13 66
REMARK SMILES IDX 14 67 15 68 16 69 17 71 18 72 19 73 24 74 20 75 23 76 21 77
REMARK SMILES IDX 22 78
REMARK H PARENT 3 6 67 24 45 35 8 61 15 70
REMARK Flexibility Score: inf
ROOT
ATOM      1  C   UNL A   1      33.564  33.626  28.231  1.00  0.00     0.023 C 
ENDROOT
BRANCH   1   2
ATOM      2  C   UNL A   1      34.556  32.472  28.131  1.00  0.00     0.116 C 
BRANCH   2   3
ATOM      3  N   UNL A   1      33.916  31.176  27.974  1.00  0.00    -0.352 N 
ATOM      4  O   UNL A   1      33.778  28.944  27.690  1.00  0.00    -0.269 OA
ATOM      5  C   UNL A   1      34.473  29.917  27.955  1.00  0.00     0.251 C 
ATOM      6  H   UNL A   1      32.937  31.203  27.866  1.00  0.00     0.163 HD
BRANCH   5   7
ATOM      7  C   UNL A   1      35.921  29.742  28.213  1.00  0.00     0.039 A 
ATOM      8  C   UNL A   1      36.864  29.971  27.210  1.00  0.00     0.014 A 
ATOM      9  C   UNL A   1      36.338  29.330  29.483  1.00  0.00     0.014 A 
ATOM     10  C   UNL A   1      38.194  29.623  27.422  1.00  0.00     0.010 A 
ATOM     11  C   UNL A   1      37.691  29.062  29.719  1.00  0.00     0.010 A 
ATOM     12  C   UNL A   1      38.623  29.156  28.676  1.00  0.00    -0.014 A 
BRANCH  12  13
ATOM     13  C   UNL A   1      40.049  28.780  28.863  1.00  0.00     0.031 A 
ATOM     14  C   UNL A   1      41.011  29.703  29.563  1.00  0.00     0.074 A 
ATOM     15  C   UNL A   1      40.467  27.569  28.450  1.00  0.00     0.049 A 
ATOM     16  N   UNL A   1      42.265  29.495  29.884  1.00  0.00    -0.248 NA
ATOM     17  C   UNL A   1      40.509  31.032  29.947  1.00  0.00     0.031 C 
ATOM     18  C   UNL A   1      39.639  26.582  27.752  1.00  0.00     0.029 A 
ATOM     19  N   UNL A   1      41.681  26.946  28.586  1.00  0.00    -0.354 N 
ATOM     20  C   UNL A   1      42.706  30.670  30.483  1.00  0.00     0.074 A 
ATOM     21  C   UNL A   1      41.593  31.596  30.461  1.00  0.00     0.031 C 
ATOM     22  C   UNL A   1      40.348  25.457  27.580  1.00  0.00     0.029 A 
ATOM     23  C   UNL A   1      41.693  25.658  28.107  1.00  0.00     0.049 A 
ATOM     24  H   UNL A   1      42.469  27.379  28.989  1.00  0.00     0.167 HD
ATOM     25  C   UNL A   1      43.922  30.953  31.008  1.00  0.00     0.031 A 
ATOM     26  C   UNL A   1      42.673  24.738  28.094  1.00  0.00     0.031 A 
ATOM     27  C   UNL A   1      45.027  30.030  31.049  1.00  0.00     0.049 A 
ATOM     28  C   UNL A   1      44.010  25.076  28.684  1.00  0.00     0.074 A 
ATOM     29  C   UNL A   1      46.285  30.216  31.597  1.00  0.00     0.029 A 
ATOM     30  N   UNL A   1      45.006  28.750  30.522  1.00  0.00    -0.354 N 
ATOM     31  N   UNL A   1      44.395  26.179  29.278  1.00  0.00    -0.248 NA
ATOM     32  C   UNL A   1      45.047  24.037  28.605  1.00  0.00     0.031 C 
ATOM     33  C   UNL A   1      47.040  29.061  31.365  1.00  0.00     0.029 A 
ATOM     34  C   UNL A   1      46.236  28.140  30.714  1.00  0.00     0.049 A 
ATOM     35  H   UNL A   1      44.233  28.334  30.076  1.00  0.00     0.167 HD
ATOM     36  C   UNL A   1      45.711  25.960  29.660  1.00  0.00     0.074 A 
ATOM     37  C   UNL A   1      46.053  24.614  29.248  1.00  0.00     0.031 C 
ATOM     38  C   UNL A   1      46.562  26.802  30.296  1.00  0.00     0.031 A 
BRANCH  25  39
ATOM     39  C   UNL A   1      44.134  32.333  31.564  1.00  0.00    -0.014 A 
ATOM     40  C   UNL A   1      43.830  32.637  32.900  1.00  0.00     0.009 A 
ATOM     41  C   UNL A   1      44.689  33.332  30.750  1.00  0.00     0.009 A 
ATOM     42  C   UNL A   1      44.049  33.924  33.399  1.00  0.00     0.001 A 
ATOM     43  C   UNL A   1      44.929  34.610  31.257  1.00  0.00     0.001 A 
ATOM     44  C   UNL A   1      44.602  34.907  32.579  1.00  0.00     0.000 A 
ENDBRANCH  25  39
BRANCH  26  45
ATOM     45  C   UNL A   1      42.417  23.396  27.513  1.00  0.00    -0.014 A 
ATOM     46  C   UNL A   1      42.865  23.082  26.221  1.00  0.00     0.009 A 
ATOM     47  C   UNL A   1      41.732  22.420  28.253  1.00  0.00     0.009 A 
ATOM     48  C   UNL A   1      42.615  21.822  25.674  1.00  0.00     0.001 A 
ATOM     49  C   UNL A   1      41.507  21.152  27.713  1.00  0.00     0.001 A 
ATOM     50  C   UNL A   1      41.941  20.856  26.422  1.00  0.00     0.000 A 
ENDBRANCH  26  45
BRANCH  38  51
ATOM     51  C   UNL A   1      47.932  26.275  30.610  1.00  0.00    -0.014 A 
ATOM     52  C   UNL A   1      48.961  26.310  29.657  1.00  0.00     0.009 A 
ATOM     53  C   UNL A   1      48.199  25.751  31.884  1.00  0.00     0.009 A 
ATOM     54  C   UNL A   1      50.223  25.797  29.963  1.00  0.00     0.001 A 
ATOM     55  C   UNL A   1      49.468  25.260  32.195  1.00  0.00     0.001 A 
ATOM     56  C   UNL A   1      50.475  25.274  31.231  1.00  0.00     0.000 A 
ENDBRANCH  38  51
ENDBRANCH  12  13
ENDBRANCH   5   7
ENDBRANCH   2   3
ENDBRANCH   1   2
BRANCH   1  57
ATOM     57  C   UNL A   1      34.154  34.972  28.660  1.00  0.00     0.023 C 
BRANCH  57  58
ATOM     58  C   UNL A   1      33.930  35.346  30.124  1.00  0.00     0.116 C 
BRANCH  58  59
ATOM     59  N   UNL A   1      33.653  34.186  30.947  1.00  0.00    -0.356 N 
ATOM     60  C   UNL A   1      34.473  33.512  31.803  1.00  0.00     0.227 C 
ATOM     61  H   UNL A   1      32.736  33.834  30.879  1.00  0.00     0.163 HD
ATOM     62  O   UNL A   1      33.958  32.644  32.509  1.00  0.00    -0.274 OA
BRANCH  60  63
ATOM     63  C   UNL A   1      35.953  33.895  31.896  1.00  0.00     0.103 C 
ATOM     64  C   UNL A   1      36.792  33.347  30.777  1.00  0.00    -0.016 C 
ATOM     65  C   UNL A   1      36.635  33.300  33.143  1.00  0.00     0.047 C 
ATOM     66  C   UNL A   1      37.683  32.443  31.199  1.00  0.00    -0.006 C 
ATOM     67  C   UNL A   1      37.569  32.184  32.653  1.00  0.00     0.106 C 
BRANCH  67  68
ATOM     68  N   UNL A   1      37.134  30.838  33.001  1.00  0.00    -0.346 N 
ATOM     69  C   UNL A   1      37.760  29.628  33.153  1.00  0.00     0.251 C 
ATOM     70  H   UNL A   1      36.164  30.784  33.165  1.00  0.00     0.164 HD
ATOM     71  O   UNL A   1      37.097  28.594  33.106  1.00  0.00    -0.269 OA
BRANCH  69  72
ATOM     72  C   UNL A   1      39.197  29.522  33.458  1.00  0.00     0.039 A 
ATOM     73  C   UNL A   1      39.766  30.324  34.453  1.00  0.00     0.015 A 
ATOM     74  C   UNL A   1      39.962  28.536  32.830  1.00  0.00     0.015 A 
ATOM     75  C   UNL A   1      41.131  30.221  34.734  1.00  0.00     0.016 A 
ATOM     76  C   UNL A   1      41.326  28.429  33.113  1.00  0.00     0.016 A 
ATOM     77  C   UNL A   1      41.906  29.285  34.048  1.00  0.00     0.018 A 
ATOM     78  Br  UNL A   1      43.761  29.174  34.393  1.00  0.00    -0.051 Br
ENDBRANCH  69  72
ENDBRANCH  67  68
ENDBRANCH  60  63
ENDBRANCH  58  59
ENDBRANCH  57  58
ENDBRANCH   1  57
TORSDOF 13
ENDMDL
