MODEL 1
REMARK VINA RESULT:     -10.9      0.000      0.000
REMARK SMILES O=C(CC1(NS(=O)(=O)C[C@H]2CCCO2)CCC1)NCCCCNC(=O)c1ccc(-c2c3nc(c(-c4ccccc4)c4ccc([nH]4)c(-c4ccccc4)c4nc(c(-c5ccccc5)c5ccc2[nH]5)C=C4)C=C3)cc1
REMARK SMILES IDX 19 1 18 2 1 3 2 4 3 6 4 7 15 8 17 9 16 10 5 11 6 13 7 14
REMARK SMILES IDX 8 15 9 16 10 17 11 18 14 19 12 20 13 21 20 22 21 23 22 24
REMARK SMILES IDX 23 25 24 26 25 28 26 29 27 30 73 31 28 32 72 33 29 34 30 35
REMARK SMILES IDX 31 36 66 37 32 38 71 39 65 40 67 41 33 42 70 43 64 44 63 45
REMARK SMILES IDX 34 47 56 48 41 49 55 50 42 51 45 52 54 53 68 54 43 55 44 56
REMARK SMILES IDX 53 58 69 59 46 60 35 61 36 62 40 63 37 64 39 65 38 66 57 67
REMARK SMILES IDX 58 68 62 69 59 70 61 71 60 72 47 73 48 74 52 75 49 76 51 77
REMARK SMILES IDX 50 78
REMARK H PARENT 18 5 5 12 23 27 67 46 45 57
REMARK Flexibility Score: inf
ROOT
ATOM      1  C   UNL A   1      32.782  29.878  26.831  1.00  0.00     0.116 C 
ENDROOT
BRANCH   1   2
ATOM      2  N   UNL A   1      32.862  28.511  26.359  1.00  0.00    -0.356 N 
ATOM      3  O   UNL A   1      31.130  27.749  27.665  1.00  0.00    -0.275 OA
ATOM      4  C   UNL A   1      32.001  27.543  26.826  1.00  0.00     0.221 C 
ATOM      5  H   UNL A   1      33.545  28.269  25.692  1.00  0.00     0.163 HD
BRANCH   4   6
ATOM      6  C   UNL A   1      32.236  26.173  26.247  1.00  0.00     0.123 C 
BRANCH   6   7
ATOM      7  C   UNL A   1      31.504  25.853  24.938  1.00  0.00     0.042 C 
ATOM      8  C   UNL A   1      32.397  25.135  23.872  1.00  0.00     0.024 C 
ATOM      9  C   UNL A   1      30.652  24.528  24.937  1.00  0.00     0.024 C 
ATOM     10  C   UNL A   1      31.215  24.211  23.546  1.00  0.00     0.004 C 
BRANCH   7  11
ATOM     11  N   UNL A   1      30.738  27.069  24.460  1.00  0.00    -0.208 NA
ATOM     12  H   UNL A   1      30.699  27.676  25.280  1.00  0.00     0.141 HD
BRANCH  11  13
ATOM     13  S   UNL A   1      31.059  28.116  23.191  1.00  0.00     0.214 S 
ATOM     14  O   UNL A   1      32.422  28.573  23.338  1.00  0.00    -0.212 OA
ATOM     15  O   UNL A   1      30.655  27.411  21.991  1.00  0.00    -0.212 OA
BRANCH  13  16
ATOM     16  C   UNL A   1      29.997  29.529  23.408  1.00  0.00     0.185 C 
BRANCH  16  17
ATOM     17  C   UNL A   1      28.698  29.606  22.604  1.00  0.00     0.134 C 
ATOM     18  C   UNL A   1      27.649  30.512  23.234  1.00  0.00     0.035 C 
ATOM     19  O   UNL A   1      28.853  30.079  21.260  1.00  0.00    -0.377 OA
ATOM     20  C   UNL A   1      27.940  31.838  22.584  1.00  0.00     0.031 C 
ATOM     21  C   UNL A   1      28.357  31.429  21.188  1.00  0.00     0.160 C 
ENDBRANCH  16  17
ENDBRANCH  13  16
ENDBRANCH  11  13
ENDBRANCH   7  11
ENDBRANCH   6   7
ENDBRANCH   4   6
ENDBRANCH   1   2
BRANCH   1  22
ATOM     22  C   UNL A   1      31.688  30.674  26.126  1.00  0.00     0.023 C 
BRANCH  22  23
ATOM     23  C   UNL A   1      31.429  32.069  26.697  1.00  0.00     0.023 C 
BRANCH  23  24
ATOM     24  C   UNL A   1      32.652  32.785  27.262  1.00  0.00     0.116 C 
BRANCH  24  25
ATOM     25  N   UNL A   1      32.389  34.169  27.625  1.00  0.00    -0.352 N 
ATOM     26  C   UNL A   1      33.000  34.962  28.566  1.00  0.00     0.251 C 
ATOM     27  H   UNL A   1      31.664  34.602  27.120  1.00  0.00     0.163 HD
ATOM     28  O   UNL A   1      32.542  36.072  28.822  1.00  0.00    -0.269 OA
BRANCH  26  29
ATOM     29  C   UNL A   1      34.188  34.475  29.300  1.00  0.00     0.039 A 
ATOM     30  C   UNL A   1      34.012  33.910  30.567  1.00  0.00     0.014 A 
ATOM     31  C   UNL A   1      35.471  34.572  28.754  1.00  0.00     0.014 A 
ATOM     32  C   UNL A   1      35.108  33.375  31.249  1.00  0.00     0.010 A 
ATOM     33  C   UNL A   1      36.549  33.969  29.397  1.00  0.00     0.010 A 
ATOM     34  C   UNL A   1      36.379  33.361  30.650  1.00  0.00    -0.014 A 
BRANCH  34  35
ATOM     35  C   UNL A   1      37.535  32.702  31.315  1.00  0.00     0.031 A 
ATOM     36  C   UNL A   1      38.204  31.513  30.681  1.00  0.00     0.074 A 
ATOM     37  C   UNL A   1      37.947  33.138  32.522  1.00  0.00     0.049 A 
ATOM     38  N   UNL A   1      39.186  30.777  31.138  1.00  0.00    -0.248 NA
ATOM     39  C   UNL A   1      37.686  31.078  29.373  1.00  0.00     0.031 C 
ATOM     40  C   UNL A   1      37.363  34.257  33.264  1.00  0.00     0.029 A 
ATOM     41  N   UNL A   1      38.950  32.684  33.342  1.00  0.00    -0.354 N 
ATOM     42  C   UNL A   1      39.396  29.791  30.183  1.00  0.00     0.074 A 
ATOM     43  C   UNL A   1      38.403  29.986  29.150  1.00  0.00     0.031 C 
ATOM     44  C   UNL A   1      38.036  34.420  34.414  1.00  0.00     0.029 A 
ATOM     45  C   UNL A   1      39.064  33.390  34.515  1.00  0.00     0.049 A 
ATOM     46  H   UNL A   1      39.533  31.925  33.110  1.00  0.00     0.167 HD
ATOM     47  C   UNL A   1      40.342  28.821  30.155  1.00  0.00     0.031 A 
ATOM     48  C   UNL A   1      39.895  33.223  35.562  1.00  0.00     0.031 A 
ATOM     49  C   UNL A   1      41.328  28.621  31.185  1.00  0.00     0.049 A 
ATOM     50  C   UNL A   1      40.913  32.117  35.525  1.00  0.00     0.074 A 
ATOM     51  C   UNL A   1      42.355  27.694  31.225  1.00  0.00     0.029 A 
ATOM     52  N   UNL A   1      41.406  29.355  32.358  1.00  0.00    -0.354 N 
ATOM     53  N   UNL A   1      41.141  31.234  34.583  1.00  0.00    -0.248 NA
ATOM     54  C   UNL A   1      41.797  31.993  36.693  1.00  0.00     0.031 C 
ATOM     55  C   UNL A   1      43.015  27.826  32.451  1.00  0.00     0.029 A 
ATOM     56  C   UNL A   1      42.445  28.882  33.142  1.00  0.00     0.049 A 
ATOM     57  H   UNL A   1      40.812  30.102  32.598  1.00  0.00     0.167 HD
ATOM     58  C   UNL A   1      42.211  30.470  35.030  1.00  0.00     0.074 A 
ATOM     59  C   UNL A   1      42.599  31.005  36.319  1.00  0.00     0.031 C 
ATOM     60  C   UNL A   1      42.820  29.420  34.426  1.00  0.00     0.031 A 
BRANCH  47  61
ATOM     61  C   UNL A   1      40.345  27.891  28.972  1.00  0.00    -0.014 A 
ATOM     62  C   UNL A   1      41.050  28.205  27.799  1.00  0.00     0.009 A 
ATOM     63  C   UNL A   1      39.661  26.666  29.043  1.00  0.00     0.009 A 
ATOM     64  C   UNL A   1      41.033  27.334  26.706  1.00  0.00     0.001 A 
ATOM     65  C   UNL A   1      39.674  25.782  27.962  1.00  0.00     0.001 A 
ATOM     66  C   UNL A   1      40.351  26.122  26.791  1.00  0.00     0.000 A 
ENDBRANCH  47  61
BRANCH  48  67
ATOM     67  C   UNL A   1      39.803  34.129  36.738  1.00  0.00    -0.014 A 
ATOM     68  C   UNL A   1      39.017  33.783  37.848  1.00  0.00     0.009 A 
ATOM     69  C   UNL A   1      40.493  35.351  36.753  1.00  0.00     0.009 A 
ATOM     70  C   UNL A   1      38.902  34.654  38.935  1.00  0.00     0.001 A 
ATOM     71  C   UNL A   1      40.404  36.205  37.855  1.00  0.00     0.001 A 
ATOM     72  C   UNL A   1      39.600  35.860  38.939  1.00  0.00     0.000 A 
ENDBRANCH  48  67
BRANCH  60  73
ATOM     73  C   UNL A   1      43.996  28.803  35.133  1.00  0.00    -0.014 A 
ATOM     74  C   UNL A   1      43.837  27.724  36.016  1.00  0.00     0.009 A 
ATOM     75  C   UNL A   1      45.289  29.287  34.878  1.00  0.00     0.009 A 
ATOM     76  C   UNL A   1      44.947  27.167  36.658  1.00  0.00     0.001 A 
ATOM     77  C   UNL A   1      46.399  28.706  35.494  1.00  0.00     0.001 A 
ATOM     78  C   UNL A   1      46.226  27.654  36.391  1.00  0.00     0.000 A 
ENDBRANCH  60  73
ENDBRANCH  34  35
ENDBRANCH  26  29
ENDBRANCH  24  25
ENDBRANCH  23  24
ENDBRANCH  22  23
ENDBRANCH   1  22
TORSDOF 16
ENDMDL
MODEL 2
REMARK VINA RESULT:     -10.4      1.010      6.112
REMARK SMILES O=C(CC1(NS(=O)(=O)C[C@H]2CCCO2)CCC1)NCCCCNC(=O)c1ccc(-c2c3nc(c(-c4ccccc4)c4ccc([nH]4)c(-c4ccccc4)c4nc(c(-c5ccccc5)c5ccc2[nH]5)C=C4)C=C3)cc1
REMARK SMILES IDX 19 1 18 2 1 3 2 4 3 6 4 7 15 8 17 9 16 10 5 11 6 13 7 14
REMARK SMILES IDX 8 15 9 16 10 17 11 18 14 19 12 20 13 21 20 22 21 23 22 24
REMARK SMILES IDX 23 25 24 26 25 28 26 29 27 30 73 31 28 32 72 33 29 34 30 35
REMARK SMILES IDX 31 36 66 37 32 38 71 39 65 40 67 41 33 42 70 43 64 44 63 45
REMARK SMILES IDX 34 47 56 48 41 49 55 50 42 51 45 52 54 53 68 54 43 55 44 56
REMARK SMILES IDX 53 58 69 59 46 60 35 61 36 62 40 63 37 64 39 65 38 66 57 67
REMARK SMILES IDX 58 68 62 69 59 70 61 71 60 72 47 73 48 74 52 75 49 76 51 77
REMARK SMILES IDX 50 78
REMARK H PARENT 18 5 5 12 23 27 67 46 45 57
REMARK Flexibility Score: inf
ROOT
ATOM      1  C   UNL A   1      32.939  30.182  26.194  1.00  0.00     0.116 C 
ENDROOT
BRANCH   1   2
ATOM      2  N   UNL A   1      33.205  29.488  24.952  1.00  0.00    -0.356 N 
ATOM      3  O   UNL A   1      34.004  27.580  25.957  1.00  0.00    -0.275 OA
ATOM      4  C   UNL A   1      33.722  28.212  24.943  1.00  0.00     0.221 C 
ATOM      5  H   UNL A   1      33.014  29.938  24.096  1.00  0.00     0.163 HD
BRANCH   4   6
ATOM      6  C   UNL A   1      33.958  27.648  23.567  1.00  0.00     0.123 C 
BRANCH   6   7
ATOM      7  C   UNL A   1      32.779  26.908  22.923  1.00  0.00     0.042 C 
ATOM      8  C   UNL A   1      33.173  26.053  21.673  1.00  0.00     0.024 C 
ATOM      9  C   UNL A   1      32.388  25.534  23.587  1.00  0.00     0.024 C 
ATOM     10  C   UNL A   1      32.249  24.937  22.182  1.00  0.00     0.004 C 
BRANCH   7  11
ATOM     11  N   UNL A   1      31.608  27.853  22.746  1.00  0.00    -0.208 NA
ATOM     12  H   UNL A   1      31.283  27.670  21.796  1.00  0.00     0.141 HD
BRANCH  11  13
ATOM     13  S   UNL A   1      30.197  28.001  23.640  1.00  0.00     0.214 S 
ATOM     14  O   UNL A   1      29.200  27.159  23.021  1.00  0.00    -0.212 OA
ATOM     15  O   UNL A   1      30.582  27.777  25.019  1.00  0.00    -0.212 OA
BRANCH  13  16
ATOM     16  C   UNL A   1      29.653  29.688  23.466  1.00  0.00     0.185 C 
BRANCH  16  17
ATOM     17  C   UNL A   1      28.342  29.968  22.729  1.00  0.00     0.134 C 
ATOM     18  C   UNL A   1      27.704  31.296  23.113  1.00  0.00     0.035 C 
ATOM     19  O   UNL A   1      28.452  29.996  21.301  1.00  0.00    -0.377 OA
ATOM     20  C   UNL A   1      28.289  32.238  22.095  1.00  0.00     0.031 C 
ATOM     21  C   UNL A   1      28.377  31.365  20.861  1.00  0.00     0.160 C 
ENDBRANCH  16  17
ENDBRANCH  13  16
ENDBRANCH  11  13
ENDBRANCH   7  11
ENDBRANCH   6   7
ENDBRANCH   4   6
ENDBRANCH   1   2
BRANCH   1  22
ATOM     22  C   UNL A   1      31.510  30.712  26.270  1.00  0.00     0.023 C 
BRANCH  22  23
ATOM     23  C   UNL A   1      31.386  32.204  26.583  1.00  0.00     0.023 C 
BRANCH  23  24
ATOM     24  C   UNL A   1      32.612  32.844  27.228  1.00  0.00     0.116 C 
BRANCH  24  25
ATOM     25  N   UNL A   1      32.376  34.207  27.678  1.00  0.00    -0.352 N 
ATOM     26  C   UNL A   1      33.015  34.934  28.654  1.00  0.00     0.251 C 
ATOM     27  H   UNL A   1      31.649  34.680  27.212  1.00  0.00     0.163 HD
ATOM     28  O   UNL A   1      32.578  36.033  28.984  1.00  0.00    -0.269 OA
BRANCH  26  29
ATOM     29  C   UNL A   1      34.207  34.386  29.337  1.00  0.00     0.039 A 
ATOM     30  C   UNL A   1      34.039  33.723  30.556  1.00  0.00     0.014 A 
ATOM     31  C   UNL A   1      35.485  34.521  28.788  1.00  0.00     0.014 A 
ATOM     32  C   UNL A   1      35.139  33.133  31.184  1.00  0.00     0.010 A 
ATOM     33  C   UNL A   1      36.566  33.865  29.372  1.00  0.00     0.010 A 
ATOM     34  C   UNL A   1      36.404  33.161  30.575  1.00  0.00    -0.014 A 
BRANCH  34  35
ATOM     35  C   UNL A   1      37.563  32.448  31.175  1.00  0.00     0.031 A 
ATOM     36  C   UNL A   1      38.200  32.955  32.441  1.00  0.00     0.074 A 
ATOM     37  C   UNL A   1      38.084  31.375  30.547  1.00  0.00     0.049 A 
ATOM     38  N   UNL A   1      39.249  32.498  33.078  1.00  0.00    -0.248 NA
ATOM     39  C   UNL A   1      37.593  34.144  33.059  1.00  0.00     0.031 C 
ATOM     40  C   UNL A   1      37.586  30.802  29.295  1.00  0.00     0.029 A 
ATOM     41  N   UNL A   1      39.155  30.579  30.873  1.00  0.00    -0.354 N 
ATOM     42  C   UNL A   1      39.433  33.347  34.161  1.00  0.00     0.074 A 
ATOM     43  C   UNL A   1      38.424  34.379  34.064  1.00  0.00     0.031 C 
ATOM     44  C   UNL A   1      38.331  29.731  28.975  1.00  0.00     0.029 A 
ATOM     45  C   UNL A   1      39.387  29.571  29.969  1.00  0.00     0.049 A 
ATOM     46  H   UNL A   1      39.703  30.718  31.680  1.00  0.00     0.167 HD
ATOM     47  C   UNL A   1      40.345  33.266  35.160  1.00  0.00     0.031 A 
ATOM     48  C   UNL A   1      40.348  28.628  29.936  1.00  0.00     0.031 A 
ATOM     49  C   UNL A   1      41.353  32.243  35.256  1.00  0.00     0.049 A 
ATOM     50  C   UNL A   1      41.371  28.580  31.036  1.00  0.00     0.074 A 
ATOM     51  C   UNL A   1      42.294  32.052  36.254  1.00  0.00     0.029 A 
ATOM     52  N   UNL A   1      41.557  31.243  34.318  1.00  0.00    -0.354 N 
ATOM     53  N   UNL A   1      41.490  29.351  32.089  1.00  0.00    -0.248 NA
ATOM     54  C   UNL A   1      42.388  27.522  30.948  1.00  0.00     0.031 C 
ATOM     55  C   UNL A   1      43.107  30.974  35.887  1.00  0.00     0.029 A 
ATOM     56  C   UNL A   1      42.627  30.450  34.698  1.00  0.00     0.049 A 
ATOM     57  H   UNL A   1      41.021  31.116  33.503  1.00  0.00     0.167 HD
ATOM     58  C   UNL A   1      42.573  28.855  32.803  1.00  0.00     0.074 A 
ATOM     59  C   UNL A   1      43.065  27.705  32.073  1.00  0.00     0.031 C 
ATOM     60  C   UNL A   1      43.111  29.310  33.961  1.00  0.00     0.031 A 
BRANCH  47  61
ATOM     61  C   UNL A   1      40.299  34.327  36.227  1.00  0.00    -0.014 A 
ATOM     62  C   UNL A   1      39.493  34.181  37.367  1.00  0.00     0.009 A 
ATOM     63  C   UNL A   1      41.100  35.475  36.107  1.00  0.00     0.009 A 
ATOM     64  C   UNL A   1      39.455  35.181  38.342  1.00  0.00     0.001 A 
ATOM     65  C   UNL A   1      41.086  36.457  37.099  1.00  0.00     0.001 A 
ATOM     66  C   UNL A   1      40.256  36.315  38.210  1.00  0.00     0.000 A 
ENDBRANCH  47  61
BRANCH  48  67
ATOM     67  C   UNL A   1      40.387  27.645  28.820  1.00  0.00    -0.014 A 
ATOM     68  C   UNL A   1      41.118  27.917  27.652  1.00  0.00     0.009 A 
ATOM     69  C   UNL A   1      39.688  26.433  28.912  1.00  0.00     0.009 A 
ATOM     70  C   UNL A   1      41.123  27.008  26.591  1.00  0.00     0.001 A 
ATOM     71  C   UNL A   1      39.721  25.510  27.863  1.00  0.00     0.001 A 
ATOM     72  C   UNL A   1      40.428  25.805  26.700  1.00  0.00     0.000 A 
ENDBRANCH  48  67
BRANCH  60  73
ATOM     73  C   UNL A   1      44.270  28.541  34.534  1.00  0.00    -0.014 A 
ATOM     74  C   UNL A   1      44.074  27.454  35.399  1.00  0.00     0.009 A 
ATOM     75  C   UNL A   1      45.581  28.888  34.168  1.00  0.00     0.009 A 
ATOM     76  C   UNL A   1      45.168  26.754  35.915  1.00  0.00     0.001 A 
ATOM     77  C   UNL A   1      46.670  28.166  34.657  1.00  0.00     0.001 A 
ATOM     78  C   UNL A   1      46.463  27.107  35.538  1.00  0.00     0.000 A 
ENDBRANCH  60  73
ENDBRANCH  34  35
ENDBRANCH  26  29
ENDBRANCH  24  25
ENDBRANCH  23  24
ENDBRANCH  22  23
ENDBRANCH   1  22
TORSDOF 16
ENDMDL
MODEL 3
REMARK VINA RESULT:     -10.4      3.349      7.691
REMARK SMILES O=C(CC1(NS(=O)(=O)C[C@H]2CCCO2)CCC1)NCCCCNC(=O)c1ccc(-c2c3nc(c(-c4ccccc4)c4ccc([nH]4)c(-c4ccccc4)c4nc(c(-c5ccccc5)c5ccc2[nH]5)C=C4)C=C3)cc1
REMARK SMILES IDX 19 1 18 2 1 3 2 4 3 6 4 7 15 8 17 9 16 10 5 11 6 13 7 14
REMARK SMILES IDX 8 15 9 16 10 17 11 18 14 19 12 20 13 21 20 22 21 23 22 24
REMARK SMILES IDX 23 25 24 26 25 28 26 29 27 30 73 31 28 32 72 33 29 34 30 35
REMARK SMILES IDX 31 36 66 37 32 38 71 39 65 40 67 41 33 42 70 43 64 44 63 45
REMARK SMILES IDX 34 47 56 48 41 49 55 50 42 51 45 52 54 53 68 54 43 55 44 56
REMARK SMILES IDX 53 58 69 59 46 60 35 61 36 62 40 63 37 64 39 65 38 66 57 67
REMARK SMILES IDX 58 68 62 69 59 70 61 71 60 72 47 73 48 74 52 75 49 76 51 77
REMARK SMILES IDX 50 78
REMARK H PARENT 18 5 5 12 23 27 67 46 45 57
REMARK Flexibility Score: inf
ROOT
ATOM      1  C   UNL A   1      33.920  23.590  22.747  1.00  0.00     0.116 C 
ENDROOT
BRANCH   1   2
ATOM      2  N   UNL A   1      33.628  24.946  23.164  1.00  0.00    -0.356 N 
ATOM      3  O   UNL A   1      33.326  25.749  21.030  1.00  0.00    -0.275 OA
ATOM      4  C   UNL A   1      33.343  25.930  22.244  1.00  0.00     0.221 C 
ATOM      5  H   UNL A   1      33.634  25.169  24.124  1.00  0.00     0.163 HD
BRANCH   4   6
ATOM      6  C   UNL A   1      33.086  27.286  22.846  1.00  0.00     0.123 C 
BRANCH   6   7
ATOM      7  C   UNL A   1      31.689  27.513  23.437  1.00  0.00     0.042 C 
ATOM      8  C   UNL A   1      31.429  28.985  23.901  1.00  0.00     0.024 C 
ATOM      9  C   UNL A   1      30.537  27.768  22.393  1.00  0.00     0.024 C 
ATOM     10  C   UNL A   1      30.021  28.897  23.294  1.00  0.00     0.004 C 
BRANCH   7  11
ATOM     11  N   UNL A   1      31.367  26.428  24.443  1.00  0.00    -0.208 NA
ATOM     12  H   UNL A   1      31.696  25.571  23.998  1.00  0.00     0.141 HD
BRANCH  11  13
ATOM     13  S   UNL A   1      31.841  26.265  26.043  1.00  0.00     0.214 S 
ATOM     14  O   UNL A   1      30.726  26.666  26.870  1.00  0.00    -0.212 OA
ATOM     15  O   UNL A   1      32.384  24.926  26.156  1.00  0.00    -0.212 OA
BRANCH  13  16
ATOM     16  C   UNL A   1      33.154  27.438  26.313  1.00  0.00     0.185 C 
BRANCH  16  17
ATOM     17  C   UNL A   1      33.031  28.430  27.471  1.00  0.00     0.134 C 
ATOM     18  C   UNL A   1      34.326  29.172  27.772  1.00  0.00     0.035 C 
ATOM     19  O   UNL A   1      32.042  29.449  27.285  1.00  0.00    -0.377 OA
ATOM     20  C   UNL A   1      34.195  30.403  26.917  1.00  0.00     0.031 C 
ATOM     21  C   UNL A   1      32.710  30.690  26.989  1.00  0.00     0.160 C 
ENDBRANCH  16  17
ENDBRANCH  13  16
ENDBRANCH  11  13
ENDBRANCH   7  11
ENDBRANCH   6   7
ENDBRANCH   4   6
ENDBRANCH   1   2
BRANCH   1  22
ATOM     22  C   UNL A   1      34.977  22.926  23.624  1.00  0.00     0.023 C 
BRANCH  22  23
ATOM     23  C   UNL A   1      35.238  23.617  24.964  1.00  0.00     0.023 C 
BRANCH  23  24
ATOM     24  C   UNL A   1      36.683  24.037  25.216  1.00  0.00     0.116 C 
BRANCH  24  25
ATOM     25  N   UNL A   1      37.576  22.909  25.433  1.00  0.00    -0.352 N 
ATOM     26  C   UNL A   1      38.805  22.867  26.047  1.00  0.00     0.251 C 
ATOM     27  H   UNL A   1      37.251  22.047  25.089  1.00  0.00     0.163 HD
ATOM     28  O   UNL A   1      39.472  21.837  26.012  1.00  0.00    -0.269 OA
BRANCH  26  29
ATOM     29  C   UNL A   1      39.348  24.066  26.723  1.00  0.00     0.039 A 
ATOM     30  C   UNL A   1      40.108  24.972  25.978  1.00  0.00     0.014 A 
ATOM     31  C   UNL A   1      39.115  24.304  28.080  1.00  0.00     0.014 A 
ATOM     32  C   UNL A   1      40.569  26.149  26.573  1.00  0.00     0.010 A 
ATOM     33  C   UNL A   1      39.506  25.512  28.651  1.00  0.00     0.010 A 
ATOM     34  C   UNL A   1      40.234  26.450  27.904  1.00  0.00    -0.014 A 
BRANCH  34  35
ATOM     35  C   UNL A   1      40.625  27.745  28.522  1.00  0.00     0.031 A 
ATOM     36  C   UNL A   1      42.020  27.949  29.049  1.00  0.00     0.074 A 
ATOM     37  C   UNL A   1      39.706  28.719  28.665  1.00  0.00     0.049 A 
ATOM     38  N   UNL A   1      42.524  28.987  29.668  1.00  0.00    -0.248 NA
ATOM     39  C   UNL A   1      42.964  26.833  28.880  1.00  0.00     0.031 C 
ATOM     40  C   UNL A   1      38.309  28.638  28.231  1.00  0.00     0.029 A 
ATOM     41  N   UNL A   1      39.807  29.970  29.224  1.00  0.00    -0.354 N 
ATOM     42  C   UNL A   1      43.836  28.646  29.970  1.00  0.00     0.074 A 
ATOM     43  C   UNL A   1      44.033  27.285  29.518  1.00  0.00     0.031 C 
ATOM     44  C   UNL A   1      37.693  29.797  28.514  1.00  0.00     0.029 A 
ATOM     45  C   UNL A   1      38.633  30.684  29.191  1.00  0.00     0.049 A 
ATOM     46  H   UNL A   1      40.642  30.321  29.610  1.00  0.00     0.167 HD
ATOM     47  C   UNL A   1      44.799  29.401  30.551  1.00  0.00     0.031 A 
ATOM     48  C   UNL A   1      38.341  31.911  29.662  1.00  0.00     0.031 A 
ATOM     49  C   UNL A   1      44.605  30.753  31.006  1.00  0.00     0.049 A 
ATOM     50  C   UNL A   1      39.416  32.717  30.337  1.00  0.00     0.074 A 
ATOM     51  C   UNL A   1      45.532  31.614  31.568  1.00  0.00     0.029 A 
ATOM     52  N   UNL A   1      43.401  31.437  30.958  1.00  0.00    -0.354 N 
ATOM     53  N   UNL A   1      40.670  32.404  30.554  1.00  0.00    -0.248 NA
ATOM     54  C   UNL A   1      39.037  34.052  30.821  1.00  0.00     0.031 C 
ATOM     55  C   UNL A   1      44.873  32.798  31.917  1.00  0.00     0.029 A 
ATOM     56  C   UNL A   1      43.553  32.700  31.507  1.00  0.00     0.049 A 
ATOM     57  H   UNL A   1      42.561  31.080  30.589  1.00  0.00     0.167 HD
ATOM     58  C   UNL A   1      41.236  33.511  31.173  1.00  0.00     0.074 A 
ATOM     59  C   UNL A   1      40.194  34.511  31.278  1.00  0.00     0.031 C 
ATOM     60  C   UNL A   1      42.507  33.686  31.611  1.00  0.00     0.031 A 
BRANCH  47  61
ATOM     61  C   UNL A   1      46.153  28.771  30.740  1.00  0.00    -0.014 A 
ATOM     62  C   UNL A   1      46.483  28.090  31.923  1.00  0.00     0.009 A 
ATOM     63  C   UNL A   1      47.103  28.829  29.706  1.00  0.00     0.009 A 
ATOM     64  C   UNL A   1      47.748  27.519  32.084  1.00  0.00     0.001 A 
ATOM     65  C   UNL A   1      48.354  28.229  29.856  1.00  0.00     0.001 A 
ATOM     66  C   UNL A   1      48.680  27.585  31.049  1.00  0.00     0.000 A 
ENDBRANCH  47  61
BRANCH  48  67
ATOM     67  C   UNL A   1      36.966  32.459  29.511  1.00  0.00    -0.014 A 
ATOM     68  C   UNL A   1      35.999  32.251  30.507  1.00  0.00     0.009 A 
ATOM     69  C   UNL A   1      36.609  33.184  28.364  1.00  0.00     0.009 A 
ATOM     70  C   UNL A   1      34.698  32.734  30.344  1.00  0.00     0.001 A 
ATOM     71  C   UNL A   1      35.318  33.695  28.218  1.00  0.00     0.001 A 
ATOM     72  C   UNL A   1      34.361  33.460  29.203  1.00  0.00     0.000 A 
ENDBRANCH  48  67
BRANCH  60  73
ATOM     73  C   UNL A   1      42.854  35.021  32.212  1.00  0.00    -0.014 A 
ATOM     74  C   UNL A   1      43.466  36.030  31.453  1.00  0.00     0.009 A 
ATOM     75  C   UNL A   1      42.524  35.285  33.551  1.00  0.00     0.009 A 
ATOM     76  C   UNL A   1      43.775  37.263  32.034  1.00  0.00     0.001 A 
ATOM     77  C   UNL A   1      42.802  36.529  34.120  1.00  0.00     0.001 A 
ATOM     78  C   UNL A   1      43.437  37.512  33.364  1.00  0.00     0.000 A 
ENDBRANCH  60  73
ENDBRANCH  34  35
ENDBRANCH  26  29
ENDBRANCH  24  25
ENDBRANCH  23  24
ENDBRANCH  22  23
ENDBRANCH   1  22
TORSDOF 16
ENDMDL
