MODEL 1
REMARK VINA RESULT:     -11.8      0.000      0.000
REMARK SMILES O=C(NCCCCNC(=O)[C@H]1C=C[C@H](NC(=O)c2cc(F)c(Cl)cc2Cl)C1)c1ccc(-c2c3nc(c(-c4ccccc4)c4ccc([nH]4)c(-c4ccccc4)c4nc(c(-c5ccccc5)c5ccc2[nH]5)C=C4)C=C3)cc1
REMARK SMILES IDX 5 1 4 2 3 3 1 4 2 5 28 7 29 8 75 9 30 10 74 11 31 12 32 13
REMARK SMILES IDX 33 14 68 15 34 16 73 17 67 18 69 19 35 20 72 21 66 22 65 23
REMARK SMILES IDX 36 25 58 26 43 27 57 28 44 29 47 30 56 31 70 32 45 33 46 34
REMARK SMILES IDX 55 36 71 37 48 38 37 39 38 40 42 41 39 42 41 43 40 44 59 45
REMARK SMILES IDX 60 46 64 47 61 48 63 49 62 50 49 51 50 52 54 53 51 54 53 55
REMARK SMILES IDX 52 56 6 57 7 58 8 59 9 60 10 62 11 63 12 64 27 65 13 66
REMARK SMILES IDX 14 67 15 68 16 69 17 71 18 72 19 73 25 74 20 75 24 76 26 77
REMARK SMILES IDX 21 78 22 79 23 80
REMARK H PARENT 3 6 69 24 47 35 8 61 15 70
REMARK Flexibility Score: inf
ROOT
ATOM      1  C   UNL A   1      37.924  19.592  24.986  1.00  0.00     0.023 C 
ENDROOT
BRANCH   1   2
ATOM      2  C   UNL A   1      39.113  20.040  25.828  1.00  0.00     0.116 C 
BRANCH   2   3
ATOM      3  N   UNL A   1      40.202  19.076  25.827  1.00  0.00    -0.352 N 
ATOM      4  O   UNL A   1      42.341  18.367  25.896  1.00  0.00    -0.269 OA
ATOM      5  C   UNL A   1      41.536  19.275  26.078  1.00  0.00     0.251 C 
ATOM      6  H   UNL A   1      39.945  18.148  25.618  1.00  0.00     0.163 HD
BRANCH   5   7
ATOM      7  C   UNL A   1      42.007  20.596  26.540  1.00  0.00     0.039 A 
ATOM      8  C   UNL A   1      42.096  20.890  27.904  1.00  0.00     0.014 A 
ATOM      9  C   UNL A   1      42.366  21.551  25.586  1.00  0.00     0.014 A 
ATOM     10  C   UNL A   1      42.431  22.177  28.313  1.00  0.00     0.010 A 
ATOM     11  C   UNL A   1      42.771  22.820  26.001  1.00  0.00     0.010 A 
ATOM     12  C   UNL A   1      42.781  23.150  27.366  1.00  0.00    -0.014 A 
BRANCH  12  13
ATOM     13  C   UNL A   1      43.212  24.500  27.801  1.00  0.00     0.031 A 
ATOM     14  C   UNL A   1      42.201  25.545  28.171  1.00  0.00     0.074 A 
ATOM     15  C   UNL A   1      44.525  24.793  27.812  1.00  0.00     0.049 A 
ATOM     16  N   UNL A   1      42.390  26.805  28.473  1.00  0.00    -0.248 NA
ATOM     17  C   UNL A   1      40.793  25.124  28.195  1.00  0.00     0.031 C 
ATOM     18  C   UNL A   1      45.601  23.860  27.478  1.00  0.00     0.029 A 
ATOM     19  N   UNL A   1      45.175  25.966  28.100  1.00  0.00    -0.354 N 
ATOM     20  C   UNL A   1      41.126  27.335  28.694  1.00  0.00     0.074 A 
ATOM     21  C   UNL A   1      40.176  26.265  28.469  1.00  0.00     0.031 C 
ATOM     22  C   UNL A   1      46.778  24.494  27.581  1.00  0.00     0.029 A 
ATOM     23  C   UNL A   1      46.535  25.891  27.924  1.00  0.00     0.049 A 
ATOM     24  H   UNL A   1      44.714  26.782  28.402  1.00  0.00     0.167 HD
ATOM     25  C   UNL A   1      40.789  28.600  29.046  1.00  0.00     0.031 A 
ATOM     26  C   UNL A   1      47.481  26.844  27.987  1.00  0.00     0.031 A 
ATOM     27  C   UNL A   1      41.740  29.662  29.249  1.00  0.00     0.049 A 
ATOM     28  C   UNL A   1      47.083  28.251  28.325  1.00  0.00     0.074 A 
ATOM     29  C   UNL A   1      41.504  30.966  29.646  1.00  0.00     0.029 A 
ATOM     30  N   UNL A   1      43.109  29.544  29.055  1.00  0.00    -0.354 N 
ATOM     31  N   UNL A   1      45.888  28.731  28.571  1.00  0.00    -0.248 NA
ATOM     32  C   UNL A   1      48.161  29.246  28.396  1.00  0.00     0.031 C 
ATOM     33  C   UNL A   1      42.722  31.655  29.625  1.00  0.00     0.029 A 
ATOM     34  C   UNL A   1      43.726  30.761  29.288  1.00  0.00     0.049 A 
ATOM     35  H   UNL A   1      43.573  28.717  28.789  1.00  0.00     0.167 HD
ATOM     36  C   UNL A   1      46.072  30.076  28.857  1.00  0.00     0.074 A 
ATOM     37  C   UNL A   1      47.493  30.336  28.755  1.00  0.00     0.031 C 
ATOM     38  C   UNL A   1      45.143  31.007  29.184  1.00  0.00     0.031 A 
BRANCH  25  39
ATOM     39  C   UNL A   1      39.323  28.912  29.181  1.00  0.00    -0.014 A 
ATOM     40  C   UNL A   1      38.565  29.386  28.098  1.00  0.00     0.009 A 
ATOM     41  C   UNL A   1      38.686  28.721  30.418  1.00  0.00     0.009 A 
ATOM     42  C   UNL A   1      37.216  29.709  28.264  1.00  0.00     0.001 A 
ATOM     43  C   UNL A   1      37.330  29.013  30.573  1.00  0.00     0.001 A 
ATOM     44  C   UNL A   1      36.600  29.521  29.500  1.00  0.00     0.000 A 
ENDBRANCH  25  39
BRANCH  26  45
ATOM     45  C   UNL A   1      48.891  26.483  27.697  1.00  0.00    -0.014 A 
ATOM     46  C   UNL A   1      49.747  26.059  28.722  1.00  0.00     0.009 A 
ATOM     47  C   UNL A   1      49.369  26.500  26.375  1.00  0.00     0.009 A 
ATOM     48  C   UNL A   1      51.055  25.665  28.432  1.00  0.00     0.001 A 
ATOM     49  C   UNL A   1      50.667  26.079  26.085  1.00  0.00     0.001 A 
ATOM     50  C   UNL A   1      51.512  25.667  27.113  1.00  0.00     0.000 A 
ENDBRANCH  26  45
BRANCH  38  51
ATOM     51  C   UNL A   1      45.631  32.392  29.506  1.00  0.00    -0.014 A 
ATOM     52  C   UNL A   1      46.041  32.744  30.801  1.00  0.00     0.009 A 
ATOM     53  C   UNL A   1      45.753  33.335  28.473  1.00  0.00     0.009 A 
ATOM     54  C   UNL A   1      46.551  34.019  31.056  1.00  0.00     0.001 A 
ATOM     55  C   UNL A   1      46.290  34.598  28.725  1.00  0.00     0.001 A 
ATOM     56  C   UNL A   1      46.683  34.941  30.017  1.00  0.00     0.000 A 
ENDBRANCH  38  51
ENDBRANCH  12  13
ENDBRANCH   5   7
ENDBRANCH   2   3
ENDBRANCH   1   2
BRANCH   1  57
ATOM     57  C   UNL A   1      36.923  20.694  24.627  1.00  0.00     0.023 C 
BRANCH  57  58
ATOM     58  C   UNL A   1      36.694  21.737  25.719  1.00  0.00     0.116 C 
BRANCH  58  59
ATOM     59  N   UNL A   1      35.450  21.529  26.436  1.00  0.00    -0.356 N 
ATOM     60  C   UNL A   1      34.160  21.711  26.029  1.00  0.00     0.227 C 
ATOM     61  H   UNL A   1      35.552  21.206  27.361  1.00  0.00     0.163 HD
ATOM     62  O   UNL A   1      33.261  21.340  26.786  1.00  0.00    -0.274 OA
BRANCH  60  63
ATOM     63  C   UNL A   1      33.875  22.394  24.693  1.00  0.00     0.103 C 
ATOM     64  C   UNL A   1      32.586  21.995  24.048  1.00  0.00    -0.016 C 
ATOM     65  C   UNL A   1      33.676  23.893  24.920  1.00  0.00     0.047 C 
ATOM     66  C   UNL A   1      31.904  23.064  23.615  1.00  0.00    -0.006 C 
ATOM     67  C   UNL A   1      32.577  24.355  23.965  1.00  0.00     0.106 C 
BRANCH  67  68
ATOM     68  N   UNL A   1      33.111  24.971  22.764  1.00  0.00    -0.346 N 
ATOM     69  C   UNL A   1      33.341  26.306  22.513  1.00  0.00     0.253 C 
ATOM     70  H   UNL A   1      33.340  24.353  22.033  1.00  0.00     0.164 HD
ATOM     71  O   UNL A   1      33.792  26.680  21.437  1.00  0.00    -0.269 OA
BRANCH  69  72
ATOM     72  C   UNL A   1      32.952  27.317  23.513  1.00  0.00     0.061 A 
ATOM     73  C   UNL A   1      33.897  27.626  24.499  1.00  0.00     0.056 A 
ATOM     74  C   UNL A   1      31.684  27.910  23.557  1.00  0.00     0.055 A 
ATOM     75  C   UNL A   1      33.603  28.599  25.449  1.00  0.00     0.142 A 
ATOM     76  C   UNL A   1      31.431  28.950  24.458  1.00  0.00     0.045 A 
ATOM     77  Cl  UNL A   1      30.344  27.332  22.631  1.00  0.00    -0.083 Cl
ATOM     78  F   UNL A   1      34.500  28.852  26.412  1.00  0.00    -0.205 F 
ATOM     79  C   UNL A   1      32.395  29.295  25.403  1.00  0.00     0.078 A 
ATOM     80  Cl  UNL A   1      32.061  30.551  26.530  1.00  0.00    -0.081 Cl
ENDBRANCH  69  72
ENDBRANCH  67  68
ENDBRANCH  60  63
ENDBRANCH  58  59
ENDBRANCH  57  58
ENDBRANCH   1  57
TORSDOF 13
ENDMDL
MODEL 2
REMARK VINA RESULT:     -11.8      5.043     10.057
REMARK SMILES O=C(NCCCCNC(=O)[C@H]1C=C[C@H](NC(=O)c2cc(F)c(Cl)cc2Cl)C1)c1ccc(-c2c3nc(c(-c4ccccc4)c4ccc([nH]4)c(-c4ccccc4)c4nc(c(-c5ccccc5)c5ccc2[nH]5)C=C4)C=C3)cc1
REMARK SMILES IDX 5 1 4 2 3 3 1 4 2 5 28 7 29 8 75 9 30 10 74 11 31 12 32 13
REMARK SMILES IDX 33 14 68 15 34 16 73 17 67 18 69 19 35 20 72 21 66 22 65 23
REMARK SMILES IDX 36 25 58 26 43 27 57 28 44 29 47 30 56 31 70 32 45 33 46 34
REMARK SMILES IDX 55 36 71 37 48 38 37 39 38 40 42 41 39 42 41 43 40 44 59 45
REMARK SMILES IDX 60 46 64 47 61 48 63 49 62 50 49 51 50 52 54 53 51 54 53 55
REMARK SMILES IDX 52 56 6 57 7 58 8 59 9 60 10 62 11 63 12 64 27 65 13 66
REMARK SMILES IDX 14 67 15 68 16 69 17 71 18 72 19 73 25 74 20 75 24 76 26 77
REMARK SMILES IDX 21 78 22 79 23 80
REMARK H PARENT 3 6 69 24 47 35 8 61 15 70
REMARK Flexibility Score: inf
ROOT
ATOM      1  C   UNL A   1      31.384  32.090  26.531  1.00  0.00     0.023 C 
ENDROOT
BRANCH   1   2
ATOM      2  C   UNL A   1      32.599  32.742  27.181  1.00  0.00     0.116 C 
BRANCH   2   3
ATOM      3  N   UNL A   1      32.332  34.092  27.652  1.00  0.00    -0.352 N 
ATOM      4  O   UNL A   1      32.543  35.903  28.978  1.00  0.00    -0.269 OA
ATOM      5  C   UNL A   1      32.994  34.824  28.605  1.00  0.00     0.251 C 
ATOM      6  H   UNL A   1      31.568  34.545  27.226  1.00  0.00     0.163 HD
BRANCH   5   7
ATOM      7  C   UNL A   1      34.235  34.296  29.204  1.00  0.00     0.039 A 
ATOM      8  C   UNL A   1      35.483  34.585  28.643  1.00  0.00     0.014 A 
ATOM      9  C   UNL A   1      34.143  33.503  30.350  1.00  0.00     0.014 A 
ATOM     10  C   UNL A   1      36.628  33.983  29.155  1.00  0.00     0.010 A 
ATOM     11  C   UNL A   1      35.301  32.958  30.905  1.00  0.00     0.010 A 
ATOM     12  C   UNL A   1      36.548  33.173  30.297  1.00  0.00    -0.014 A 
BRANCH  12  13
ATOM     13  C   UNL A   1      37.776  32.591  30.892  1.00  0.00     0.031 A 
ATOM     14  C   UNL A   1      38.429  31.388  30.279  1.00  0.00     0.074 A 
ATOM     15  C   UNL A   1      38.270  33.128  32.022  1.00  0.00     0.049 A 
ATOM     16  N   UNL A   1      39.442  30.685  30.719  1.00  0.00    -0.248 NA
ATOM     17  C   UNL A   1      37.864  30.903  29.010  1.00  0.00     0.031 C 
ATOM     18  C   UNL A   1      37.725  34.300  32.709  1.00  0.00     0.029 A 
ATOM     19  N   UNL A   1      39.332  32.746  32.802  1.00  0.00    -0.354 N 
ATOM     20  C   UNL A   1      39.619  29.660  29.800  1.00  0.00     0.074 A 
ATOM     21  C   UNL A   1      38.593  29.819  28.789  1.00  0.00     0.031 C 
ATOM     22  C   UNL A   1      38.456  34.544  33.805  1.00  0.00     0.029 A 
ATOM     23  C   UNL A   1      39.477  33.510  33.933  1.00  0.00     0.049 A 
ATOM     24  H   UNL A   1      39.930  31.999  32.573  1.00  0.00     0.167 HD
ATOM     25  C   UNL A   1      40.547  28.673  29.802  1.00  0.00     0.031 A 
ATOM     26  C   UNL A   1      40.308  33.373  34.982  1.00  0.00     0.031 A 
ATOM     27  C   UNL A   1      41.552  28.512  30.822  1.00  0.00     0.049 A 
ATOM     28  C   UNL A   1      41.293  32.243  34.994  1.00  0.00     0.074 A 
ATOM     29  C   UNL A   1      42.563  27.570  30.896  1.00  0.00     0.029 A 
ATOM     30  N   UNL A   1      41.660  29.305  31.955  1.00  0.00    -0.354 N 
ATOM     31  N   UNL A   1      41.478  31.303  34.099  1.00  0.00    -0.248 NA
ATOM     32  C   UNL A   1      42.186  32.154  36.157  1.00  0.00     0.031 C 
ATOM     33  C   UNL A   1      43.239  27.751  32.107  1.00  0.00     0.029 A 
ATOM     34  C   UNL A   1      42.698  28.851  32.752  1.00  0.00     0.049 A 
ATOM     35  H   UNL A   1      41.083  30.076  32.164  1.00  0.00     0.167 HD
ATOM     36  C   UNL A   1      42.527  30.528  34.573  1.00  0.00     0.074 A 
ATOM     37  C   UNL A   1      42.940  31.109  35.834  1.00  0.00     0.031 C 
ATOM     38  C   UNL A   1      43.100  29.439  34.006  1.00  0.00     0.031 A 
BRANCH  25  39
ATOM     39  C   UNL A   1      40.483  27.659  28.691  1.00  0.00    -0.014 A 
ATOM     40  C   UNL A   1      41.172  27.845  27.481  1.00  0.00     0.009 A 
ATOM     41  C   UNL A   1      39.723  26.491  28.863  1.00  0.00     0.009 A 
ATOM     42  C   UNL A   1      41.059  26.908  26.451  1.00  0.00     0.001 A 
ATOM     43  C   UNL A   1      39.639  25.541  27.845  1.00  0.00     0.001 A 
ATOM     44  C   UNL A   1      40.295  25.757  26.634  1.00  0.00     0.000 A 
ENDBRANCH  25  39
BRANCH  26  45
ATOM     45  C   UNL A   1      40.210  34.333  36.111  1.00  0.00    -0.014 A 
ATOM     46  C   UNL A   1      40.902  35.551  36.077  1.00  0.00     0.009 A 
ATOM     47  C   UNL A   1      39.367  34.059  37.202  1.00  0.00     0.009 A 
ATOM     48  C   UNL A   1      40.759  36.473  37.116  1.00  0.00     0.001 A 
ATOM     49  C   UNL A   1      39.205  34.994  38.225  1.00  0.00     0.001 A 
ATOM     50  C   UNL A   1      39.904  36.198  38.184  1.00  0.00     0.000 A 
ENDBRANCH  26  45
BRANCH  38  51
ATOM     51  C   UNL A   1      44.273  28.822  34.715  1.00  0.00    -0.014 A 
ATOM     52  C   UNL A   1      45.583  29.276  34.499  1.00  0.00     0.009 A 
ATOM     53  C   UNL A   1      44.048  27.822  35.675  1.00  0.00     0.009 A 
ATOM     54  C   UNL A   1      46.646  28.727  35.220  1.00  0.00     0.001 A 
ATOM     55  C   UNL A   1      45.108  27.297  36.414  1.00  0.00     0.001 A 
ATOM     56  C   UNL A   1      46.406  27.746  36.183  1.00  0.00     0.000 A 
ENDBRANCH  38  51
ENDBRANCH  12  13
ENDBRANCH   5   7
ENDBRANCH   2   3
ENDBRANCH   1   2
BRANCH   1  57
ATOM     57  C   UNL A   1      31.478  30.573  26.340  1.00  0.00     0.023 C 
BRANCH  57  58
ATOM     58  C   UNL A   1      32.870  30.053  25.988  1.00  0.00     0.116 C 
BRANCH  58  59
ATOM     59  N   UNL A   1      32.990  29.682  24.591  1.00  0.00    -0.356 N 
ATOM     60  C   UNL A   1      32.474  28.612  23.919  1.00  0.00     0.227 C 
ATOM     61  H   UNL A   1      33.527  30.298  24.041  1.00  0.00     0.163 HD
ATOM     62  O   UNL A   1      32.611  28.582  22.694  1.00  0.00    -0.274 OA
BRANCH  60  63
ATOM     63  C   UNL A   1      31.795  27.485  24.693  1.00  0.00     0.103 C 
ATOM     64  C   UNL A   1      30.601  26.890  24.016  1.00  0.00    -0.016 C 
ATOM     65  C   UNL A   1      32.744  26.289  24.789  1.00  0.00     0.047 C 
ATOM     66  C   UNL A   1      30.640  25.551  24.042  1.00  0.00    -0.006 C 
ATOM     67  C   UNL A   1      31.897  25.025  24.664  1.00  0.00     0.106 C 
BRANCH  67  68
ATOM     68  N   UNL A   1      31.593  24.433  25.954  1.00  0.00    -0.346 N 
ATOM     69  C   UNL A   1      32.324  23.507  26.667  1.00  0.00     0.253 C 
ATOM     70  H   UNL A   1      30.756  24.733  26.376  1.00  0.00     0.164 HD
ATOM     71  O   UNL A   1      31.932  23.089  27.750  1.00  0.00    -0.269 OA
BRANCH  69  72
ATOM     72  C   UNL A   1      33.549  22.933  26.082  1.00  0.00     0.061 A 
ATOM     73  C   UNL A   1      34.749  23.601  26.350  1.00  0.00     0.056 A 
ATOM     74  C   UNL A   1      33.549  21.818  25.234  1.00  0.00     0.055 A 
ATOM     75  C   UNL A   1      35.945  23.087  25.856  1.00  0.00     0.142 A 
ATOM     76  C   UNL A   1      34.762  21.259  24.818  1.00  0.00     0.045 A 
ATOM     77  Cl  UNL A   1      32.106  21.157  24.550  1.00  0.00    -0.083 Cl
ATOM     78  F   UNL A   1      37.079  23.763  26.084  1.00  0.00    -0.205 F 
ATOM     79  C   UNL A   1      35.961  21.895  25.134  1.00  0.00     0.078 A 
ATOM     80  Cl  UNL A   1      37.446  21.218  24.588  1.00  0.00    -0.081 Cl
ENDBRANCH  69  72
ENDBRANCH  67  68
ENDBRANCH  60  63
ENDBRANCH  58  59
ENDBRANCH  57  58
ENDBRANCH   1  57
TORSDOF 13
ENDMDL
MODEL 3
REMARK VINA RESULT:     -11.7      2.963      7.153
REMARK SMILES O=C(NCCCCNC(=O)[C@H]1C=C[C@H](NC(=O)c2cc(F)c(Cl)cc2Cl)C1)c1ccc(-c2c3nc(c(-c4ccccc4)c4ccc([nH]4)c(-c4ccccc4)c4nc(c(-c5ccccc5)c5ccc2[nH]5)C=C4)C=C3)cc1
REMARK SMILES IDX 5 1 4 2 3 3 1 4 2 5 28 7 29 8 75 9 30 10 74 11 31 12 32 13
REMARK SMILES IDX 33 14 68 15 34 16 73 17 67 18 69 19 35 20 72 21 66 22 65 23
REMARK SMILES IDX 36 25 58 26 43 27 57 28 44 29 47 30 56 31 70 32 45 33 46 34
REMARK SMILES IDX 55 36 71 37 48 38 37 39 38 40 42 41 39 42 41 43 40 44 59 45
REMARK SMILES IDX 60 46 64 47 61 48 63 49 62 50 49 51 50 52 54 53 51 54 53 55
REMARK SMILES IDX 52 56 6 57 7 58 8 59 9 60 10 62 11 63 12 64 27 65 13 66
REMARK SMILES IDX 14 67 15 68 16 69 17 71 18 72 19 73 25 74 20 75 24 76 26 77
REMARK SMILES IDX 21 78 22 79 23 80
REMARK H PARENT 3 6 69 24 47 35 8 61 15 70
REMARK Flexibility Score: inf
ROOT
ATOM      1  C   UNL A   1      35.568  23.109  25.440  1.00  0.00     0.023 C 
ENDROOT
BRANCH   1   2
ATOM      2  C   UNL A   1      36.955  23.741  25.406  1.00  0.00     0.116 C 
BRANCH   2   3
ATOM      3  N   UNL A   1      38.020  22.782  25.652  1.00  0.00    -0.352 N 
ATOM      4  O   UNL A   1      40.080  22.078  26.242  1.00  0.00    -0.269 OA
ATOM      5  C   UNL A   1      39.244  22.977  26.241  1.00  0.00     0.251 C 
ATOM      6  H   UNL A   1      37.836  21.861  25.355  1.00  0.00     0.163 HD
BRANCH   5   7
ATOM      7  C   UNL A   1      39.565  24.283  26.849  1.00  0.00     0.039 A 
ATOM      8  C   UNL A   1      40.262  25.259  26.129  1.00  0.00     0.014 A 
ATOM      9  C   UNL A   1      39.155  24.531  28.162  1.00  0.00     0.014 A 
ATOM     10  C   UNL A   1      40.653  26.435  26.760  1.00  0.00     0.010 A 
ATOM     11  C   UNL A   1      39.488  25.742  28.770  1.00  0.00     0.010 A 
ATOM     12  C   UNL A   1      40.261  26.691  28.082  1.00  0.00    -0.014 A 
BRANCH  12  13
ATOM     13  C   UNL A   1      40.611  27.977  28.733  1.00  0.00     0.031 A 
ATOM     14  C   UNL A   1      41.948  28.165  29.388  1.00  0.00     0.074 A 
ATOM     15  C   UNL A   1      39.693  28.959  28.774  1.00  0.00     0.049 A 
ATOM     16  N   UNL A   1      42.386  29.178  30.092  1.00  0.00    -0.248 NA
ATOM     17  C   UNL A   1      42.916  27.068  29.243  1.00  0.00     0.031 C 
ATOM     18  C   UNL A   1      38.361  28.895  28.169  1.00  0.00     0.029 A 
ATOM     19  N   UNL A   1      39.734  30.196  29.364  1.00  0.00    -0.354 N 
ATOM     20  C   UNL A   1      43.667  28.831  30.498  1.00  0.00     0.074 A 
ATOM     21  C   UNL A   1      43.928  27.503  29.980  1.00  0.00     0.031 C 
ATOM     22  C   UNL A   1      37.712  30.041  28.417  1.00  0.00     0.029 A 
ATOM     23  C   UNL A   1      38.555  30.891  29.250  1.00  0.00     0.049 A 
ATOM     24  H   UNL A   1      40.529  30.551  29.823  1.00  0.00     0.167 HD
ATOM     25  C   UNL A   1      44.544  29.551  31.240  1.00  0.00     0.031 A 
ATOM     26  C   UNL A   1      38.174  32.062  29.790  1.00  0.00     0.031 A 
ATOM     27  C   UNL A   1      44.268  30.864  31.766  1.00  0.00     0.049 A 
ATOM     28  C   UNL A   1      39.138  32.821  30.654  1.00  0.00     0.074 A 
ATOM     29  C   UNL A   1      45.103  31.693  32.494  1.00  0.00     0.029 A 
ATOM     30  N   UNL A   1      43.059  31.530  31.632  1.00  0.00    -0.354 N 
ATOM     31  N   UNL A   1      40.362  32.501  30.997  1.00  0.00    -0.248 NA
ATOM     32  C   UNL A   1      38.672  34.101  31.201  1.00  0.00     0.031 C 
ATOM     33  C   UNL A   1      44.376  32.831  32.859  1.00  0.00     0.029 A 
ATOM     34  C   UNL A   1      43.113  32.744  32.296  1.00  0.00     0.049 A 
ATOM     35  H   UNL A   1      42.277  31.189  31.140  1.00  0.00     0.167 HD
ATOM     36  C   UNL A   1      40.825  33.552  31.776  1.00  0.00     0.074 A 
ATOM     37  C   UNL A   1      39.750  34.521  31.852  1.00  0.00     0.031 C 
ATOM     38  C   UNL A   1      42.036  33.701  32.364  1.00  0.00     0.031 A 
BRANCH  25  39
ATOM     39  C   UNL A   1      45.864  28.908  31.569  1.00  0.00    -0.014 A 
ATOM     40  C   UNL A   1      46.038  28.126  32.722  1.00  0.00     0.009 A 
ATOM     41  C   UNL A   1      46.954  29.082  30.700  1.00  0.00     0.009 A 
ATOM     42  C   UNL A   1      47.287  27.577  33.024  1.00  0.00     0.001 A 
ATOM     43  C   UNL A   1      48.191  28.504  30.987  1.00  0.00     0.001 A 
ATOM     44  C   UNL A   1      48.361  27.765  32.157  1.00  0.00     0.000 A 
ENDBRANCH  25  39
BRANCH  26  45
ATOM     45  C   UNL A   1      36.799  32.561  29.535  1.00  0.00    -0.014 A 
ATOM     46  C   UNL A   1      35.778  32.359  30.474  1.00  0.00     0.009 A 
ATOM     47  C   UNL A   1      36.519  33.303  28.375  1.00  0.00     0.009 A 
ATOM     48  C   UNL A   1      34.502  32.882  30.252  1.00  0.00     0.001 A 
ATOM     49  C   UNL A   1      35.251  33.848  28.170  1.00  0.00     0.001 A 
ATOM     50  C   UNL A   1      34.242  33.633  29.106  1.00  0.00     0.000 A 
ENDBRANCH  26  45
BRANCH  38  51
ATOM     51  C   UNL A   1      42.294  34.982  33.109  1.00  0.00    -0.014 A 
ATOM     52  C   UNL A   1      41.835  35.173  34.420  1.00  0.00     0.009 A 
ATOM     53  C   UNL A   1      43.080  35.979  32.509  1.00  0.00     0.009 A 
ATOM     54  C   UNL A   1      42.146  36.346  35.111  1.00  0.00     0.001 A 
ATOM     55  C   UNL A   1      43.412  37.138  33.211  1.00  0.00     0.001 A 
ATOM     56  C   UNL A   1      42.941  37.323  34.509  1.00  0.00     0.000 A 
ENDBRANCH  38  51
ENDBRANCH  12  13
ENDBRANCH   5   7
ENDBRANCH   2   3
ENDBRANCH   1   2
BRANCH   1  57
ATOM     57  C   UNL A   1      35.172  22.471  26.775  1.00  0.00     0.023 C 
BRANCH  57  58
ATOM     58  C   UNL A   1      33.917  21.602  26.726  1.00  0.00     0.116 C 
BRANCH  58  59
ATOM     59  N   UNL A   1      32.755  22.269  27.282  1.00  0.00    -0.356 N 
ATOM     60  C   UNL A   1      31.834  23.076  26.680  1.00  0.00     0.227 C 
ATOM     61  H   UNL A   1      32.607  22.115  28.243  1.00  0.00     0.163 HD
ATOM     62  O   UNL A   1      30.854  23.424  27.342  1.00  0.00    -0.274 OA
BRANCH  60  63
ATOM     63  C   UNL A   1      32.062  23.551  25.246  1.00  0.00     0.103 C 
ATOM     64  C   UNL A   1      31.036  23.088  24.262  1.00  0.00    -0.016 C 
ATOM     65  C   UNL A   1      31.911  25.072  25.184  1.00  0.00     0.047 C 
ATOM     66  C   UNL A   1      30.620  24.094  23.480  1.00  0.00    -0.006 C 
ATOM     67  C   UNL A   1      31.231  25.407  23.858  1.00  0.00     0.106 C 
BRANCH  67  68
ATOM     68  N   UNL A   1      32.179  25.817  22.838  1.00  0.00    -0.346 N 
ATOM     69  C   UNL A   1      33.014  26.913  22.833  1.00  0.00     0.253 C 
ATOM     70  H   UNL A   1      32.234  25.234  22.047  1.00  0.00     0.164 HD
ATOM     71  O   UNL A   1      33.760  27.136  21.888  1.00  0.00    -0.269 OA
BRANCH  69  72
ATOM     72  C   UNL A   1      32.945  27.892  23.934  1.00  0.00     0.061 A 
ATOM     73  C   UNL A   1      33.920  27.787  24.932  1.00  0.00     0.056 A 
ATOM     74  C   UNL A   1      31.929  28.848  24.052  1.00  0.00     0.055 A 
ATOM     75  C   UNL A   1      33.930  28.705  25.978  1.00  0.00     0.142 A 
ATOM     76  C   UNL A   1      32.000  29.820  25.056  1.00  0.00     0.045 A 
ATOM     77  Cl  UNL A   1      30.492  28.818  23.092  1.00  0.00    -0.083 Cl
ATOM     78  F   UNL A   1      34.844  28.565  26.949  1.00  0.00    -0.205 F 
ATOM     79  C   UNL A   1      33.006  29.748  26.018  1.00  0.00     0.078 A 
ATOM     80  Cl  UNL A   1      33.064  30.928  27.269  1.00  0.00    -0.081 Cl
ENDBRANCH  69  72
ENDBRANCH  67  68
ENDBRANCH  60  63
ENDBRANCH  58  59
ENDBRANCH  57  58
ENDBRANCH   1  57
TORSDOF 13
ENDMDL
