MODEL 1
REMARK VINA RESULT:     -10.0      0.000      0.000
REMARK SMILES CCOCCNc1cccc(F)c1C(=O)NCCCCNC(=O)c1ccc(-c2c3nc(c(-c4ccccc4)c4ccc([nH]4)c(-c4ccccc4)c4nc(c(-c5ccccc5)c5ccc2[nH]5)C=C4)C=C3)cc1
REMARK SMILES IDX 17 1 16 2 14 3 15 4 13 6 7 7 8 8 9 9 11 10 10 11 12 12 6 13
REMARK SMILES IDX 5 15 4 16 3 17 2 18 1 19 18 20 19 21 20 22 21 23 22 24 23 26
REMARK SMILES IDX 24 27 25 28 71 29 26 30 70 31 27 32 28 33 29 34 64 35 30 36
REMARK SMILES IDX 69 37 63 38 65 39 31 40 68 41 62 42 61 43 32 45 54 46 39 47
REMARK SMILES IDX 53 48 40 49 43 50 52 51 66 52 41 53 42 54 51 56 67 57 44 58
REMARK SMILES IDX 33 59 34 60 38 61 35 62 37 63 36 64 55 65 56 66 60 67 57 68
REMARK SMILES IDX 59 69 58 70 45 71 46 72 50 73 47 74 49 75 48 76
REMARK H PARENT 16 5 6 14 21 25 65 44 43 55
REMARK Flexibility Score: inf
ROOT
ATOM      1  C   UNL A   1      33.581  25.348  25.841  1.00  0.00     0.116 C 
ENDROOT
BRANCH   1   2
ATOM      2  N   UNL A   1      32.137  25.278  25.862  1.00  0.00    -0.352 N 
ATOM      3  C   UNL A   1      31.180  26.219  26.138  1.00  0.00     0.256 C 
ATOM      4  O   UNL A   1      30.037  25.789  26.328  1.00  0.00    -0.269 OA
ATOM      5  H   UNL A   1      31.774  24.391  25.637  1.00  0.00     0.163 HD
BRANCH   3   6
ATOM      6  C   UNL A   1      31.404  27.696  26.102  1.00  0.00     0.098 A 
ATOM      7  C   UNL A   1      31.153  28.374  24.871  1.00  0.00     0.050 A 
ATOM      8  C   UNL A   1      31.377  29.759  24.817  1.00  0.00     0.027 A 
ATOM      9  C   UNL A   1      31.804  30.473  25.939  1.00  0.00     0.005 A 
ATOM     10  C   UNL A   1      31.781  28.438  27.223  1.00  0.00     0.138 A 
ATOM     11  C   UNL A   1      32.002  29.811  27.142  1.00  0.00     0.040 A 
ATOM     12  F   UNL A   1      31.906  27.880  28.433  1.00  0.00    -0.206 F 
BRANCH   7  13
ATOM     13  N   UNL A   1      30.770  27.651  23.754  1.00  0.00    -0.382 N 
ATOM     14  H   UNL A   1      30.914  26.679  23.820  1.00  0.00     0.160 HD
BRANCH  13  15
ATOM     15  C   UNL A   1      30.188  28.098  22.502  1.00  0.00     0.141 C 
BRANCH  15  16
ATOM     16  C   UNL A   1      28.777  28.671  22.738  1.00  0.00     0.181 C 
BRANCH  16  17
ATOM     17  O   UNL A   1      28.290  29.560  21.730  1.00  0.00    -0.380 OA
BRANCH  17  18
ATOM     18  C   UNL A   1      28.139  30.934  22.076  1.00  0.00     0.157 C 
ATOM     19  C   UNL A   1      27.674  31.172  23.504  1.00  0.00     0.035 C 
ENDBRANCH  17  18
ENDBRANCH  16  17
ENDBRANCH  15  16
ENDBRANCH  13  15
ENDBRANCH   7  13
ENDBRANCH   3   6
ENDBRANCH   1   2
BRANCH   1  20
ATOM     20  C   UNL A   1      34.136  24.022  25.312  1.00  0.00     0.023 C 
BRANCH  20  21
ATOM     21  C   UNL A   1      35.340  23.491  26.098  1.00  0.00     0.023 C 
BRANCH  21  22
ATOM     22  C   UNL A   1      36.697  23.881  25.523  1.00  0.00     0.116 C 
BRANCH  22  23
ATOM     23  N   UNL A   1      37.680  22.815  25.618  1.00  0.00    -0.352 N 
ATOM     24  C   UNL A   1      38.949  22.853  26.142  1.00  0.00     0.251 C 
ATOM     25  H   UNL A   1      37.398  21.945  25.256  1.00  0.00     0.163 HD
ATOM     26  O   UNL A   1      39.689  21.883  26.044  1.00  0.00    -0.269 OA
BRANCH  24  27
ATOM     27  C   UNL A   1      39.427  24.088  26.794  1.00  0.00     0.039 A 
ATOM     28  C   UNL A   1      40.145  25.012  26.031  1.00  0.00     0.014 A 
ATOM     29  C   UNL A   1      39.161  24.337  28.143  1.00  0.00     0.014 A 
ATOM     30  C   UNL A   1      40.550  26.216  26.608  1.00  0.00     0.010 A 
ATOM     31  C   UNL A   1      39.507  25.565  28.697  1.00  0.00     0.010 A 
ATOM     32  C   UNL A   1      40.208  26.513  27.936  1.00  0.00    -0.014 A 
BRANCH  32  33
ATOM     33  C   UNL A   1      40.586  27.806  28.555  1.00  0.00     0.031 A 
ATOM     34  C   UNL A   1      41.985  28.015  29.061  1.00  0.00     0.074 A 
ATOM     35  C   UNL A   1      39.656  28.766  28.716  1.00  0.00     0.049 A 
ATOM     36  N   UNL A   1      42.492  29.048  29.684  1.00  0.00    -0.248 NA
ATOM     37  C   UNL A   1      42.933  26.906  28.863  1.00  0.00     0.031 C 
ATOM     38  C   UNL A   1      38.255  28.671  28.302  1.00  0.00     0.029 A 
ATOM     39  N   UNL A   1      39.753  30.013  29.279  1.00  0.00    -0.354 N 
ATOM     40  C   UNL A   1      43.807  28.706  29.971  1.00  0.00     0.074 A 
ATOM     41  C   UNL A   1      44.007  27.354  29.498  1.00  0.00     0.031 C 
ATOM     42  C   UNL A   1      37.631  29.822  28.599  1.00  0.00     0.029 A 
ATOM     43  C   UNL A   1      38.575  30.720  29.254  1.00  0.00     0.049 A 
ATOM     44  H   UNL A   1      40.586  30.368  29.663  1.00  0.00     0.167 HD
ATOM     45  C   UNL A   1      44.771  29.456  30.558  1.00  0.00     0.031 A 
ATOM     46  C   UNL A   1      38.290  31.954  29.710  1.00  0.00     0.031 A 
ATOM     47  C   UNL A   1      44.578  30.805  31.014  1.00  0.00     0.049 A 
ATOM     48  C   UNL A   1      39.377  32.768  30.355  1.00  0.00     0.074 A 
ATOM     49  C   UNL A   1      45.502  31.667  31.577  1.00  0.00     0.029 A 
ATOM     50  N   UNL A   1      43.374  31.492  30.955  1.00  0.00    -0.354 N 
ATOM     51  N   UNL A   1      40.631  32.451  30.567  1.00  0.00    -0.248 NA
ATOM     52  C   UNL A   1      39.009  34.116  30.810  1.00  0.00     0.031 C 
ATOM     53  C   UNL A   1      44.848  32.863  31.893  1.00  0.00     0.029 A 
ATOM     54  C   UNL A   1      43.529  32.761  31.481  1.00  0.00     0.049 A 
ATOM     55  H   UNL A   1      42.534  31.129  30.591  1.00  0.00     0.167 HD
ATOM     56  C   UNL A   1      41.209  33.571  31.150  1.00  0.00     0.074 A 
ATOM     57  C   UNL A   1      40.172  34.577  31.248  1.00  0.00     0.031 C 
ATOM     58  C   UNL A   1      42.487  33.751  31.564  1.00  0.00     0.031 A 
BRANCH  45  59
ATOM     59  C   UNL A   1      46.120  28.821  30.739  1.00  0.00    -0.014 A 
ATOM     60  C   UNL A   1      47.100  28.899  29.735  1.00  0.00     0.009 A 
ATOM     61  C   UNL A   1      46.423  28.149  31.932  1.00  0.00     0.009 A 
ATOM     62  C   UNL A   1      48.340  28.283  29.907  1.00  0.00     0.001 A 
ATOM     63  C   UNL A   1      47.675  27.557  32.113  1.00  0.00     0.001 A 
ATOM     64  C   UNL A   1      48.628  27.614  31.097  1.00  0.00     0.000 A 
ENDBRANCH  45  59
BRANCH  46  65
ATOM     65  C   UNL A   1      36.924  32.512  29.543  1.00  0.00    -0.014 A 
ATOM     66  C   UNL A   1      36.599  33.257  28.398  1.00  0.00     0.009 A 
ATOM     67  C   UNL A   1      35.941  32.310  30.523  1.00  0.00     0.009 A 
ATOM     68  C   UNL A   1      35.326  33.812  28.252  1.00  0.00     0.001 A 
ATOM     69  C   UNL A   1      34.661  32.844  30.362  1.00  0.00     0.001 A 
ATOM     70  C   UNL A   1      34.357  33.602  29.232  1.00  0.00     0.000 A 
ENDBRANCH  46  65
BRANCH  58  71
ATOM     71  C   UNL A   1      42.844  35.101  32.118  1.00  0.00    -0.014 A 
ATOM     72  C   UNL A   1      42.561  35.442  33.449  1.00  0.00     0.009 A 
ATOM     73  C   UNL A   1      43.507  36.030  31.301  1.00  0.00     0.009 A 
ATOM     74  C   UNL A   1      42.908  36.702  33.942  1.00  0.00     0.001 A 
ATOM     75  C   UNL A   1      43.876  37.277  31.804  1.00  0.00     0.001 A 
ATOM     76  C   UNL A   1      43.568  37.616  33.121  1.00  0.00     0.000 A 
ENDBRANCH  58  71
ENDBRANCH  32  33
ENDBRANCH  24  27
ENDBRANCH  22  23
ENDBRANCH  21  22
ENDBRANCH  20  21
ENDBRANCH   1  20
TORSDOF 16
ENDMDL
MODEL 2
REMARK VINA RESULT:      -9.8      1.705      2.610
REMARK SMILES CCOCCNc1cccc(F)c1C(=O)NCCCCNC(=O)c1ccc(-c2c3nc(c(-c4ccccc4)c4ccc([nH]4)c(-c4ccccc4)c4nc(c(-c5ccccc5)c5ccc2[nH]5)C=C4)C=C3)cc1
REMARK SMILES IDX 17 1 16 2 14 3 15 4 13 6 7 7 8 8 9 9 11 10 10 11 12 12 6 13
REMARK SMILES IDX 5 15 4 16 3 17 2 18 1 19 18 20 19 21 20 22 21 23 22 24 23 26
REMARK SMILES IDX 24 27 25 28 71 29 26 30 70 31 27 32 28 33 29 34 64 35 30 36
REMARK SMILES IDX 69 37 63 38 65 39 31 40 68 41 62 42 61 43 32 45 54 46 39 47
REMARK SMILES IDX 53 48 40 49 43 50 52 51 66 52 41 53 42 54 51 56 67 57 44 58
REMARK SMILES IDX 33 59 34 60 38 61 35 62 37 63 36 64 55 65 56 66 60 67 57 68
REMARK SMILES IDX 59 69 58 70 45 71 46 72 50 73 47 74 49 75 48 76
REMARK H PARENT 16 5 6 14 21 25 65 44 43 55
REMARK Flexibility Score: inf
ROOT
ATOM      1  C   UNL A   1      33.825  23.922  24.408  1.00  0.00     0.116 C 
ENDROOT
BRANCH   1   2
ATOM      2  N   UNL A   1      33.950  24.570  23.122  1.00  0.00    -0.352 N 
ATOM      3  C   UNL A   1      33.042  25.233  22.339  1.00  0.00     0.256 C 
ATOM      4  O   UNL A   1      33.388  25.451  21.174  1.00  0.00    -0.269 OA
ATOM      5  H   UNL A   1      34.855  24.526  22.736  1.00  0.00     0.163 HD
BRANCH   3   6
ATOM      6  C   UNL A   1      31.750  25.801  22.832  1.00  0.00     0.098 A 
ATOM      7  C   UNL A   1      31.604  27.222  22.823  1.00  0.00     0.050 A 
ATOM      8  C   UNL A   1      30.403  27.770  23.300  1.00  0.00     0.027 A 
ATOM      9  C   UNL A   1      29.358  26.959  23.745  1.00  0.00     0.005 A 
ATOM     10  C   UNL A   1      30.673  25.010  23.234  1.00  0.00     0.138 A 
ATOM     11  C   UNL A   1      29.493  25.578  23.708  1.00  0.00     0.040 A 
ATOM     12  F   UNL A   1      30.702  23.675  23.144  1.00  0.00    -0.206 F 
BRANCH   7  13
ATOM     13  N   UNL A   1      32.662  28.018  22.417  1.00  0.00    -0.382 N 
ATOM     14  H   UNL A   1      32.932  27.902  21.478  1.00  0.00     0.160 HD
BRANCH  13  15
ATOM     15  C   UNL A   1      33.436  28.997  23.158  1.00  0.00     0.141 C 
BRANCH  15  16
ATOM     16  C   UNL A   1      33.568  28.573  24.634  1.00  0.00     0.181 C 
BRANCH  16  17
ATOM     17  O   UNL A   1      33.361  29.607  25.599  1.00  0.00    -0.380 OA
BRANCH  17  18
ATOM     18  C   UNL A   1      32.216  29.504  26.442  1.00  0.00     0.157 C 
ATOM     19  C   UNL A   1      31.765  28.078  26.716  1.00  0.00     0.035 C 
ENDBRANCH  17  18
ENDBRANCH  16  17
ENDBRANCH  15  16
ENDBRANCH  13  15
ENDBRANCH   7  13
ENDBRANCH   3   6
ENDBRANCH   1   2
BRANCH   1  20
ATOM     20  C   UNL A   1      34.754  24.616  25.408  1.00  0.00     0.023 C 
BRANCH  20  21
ATOM     21  C   UNL A   1      35.917  23.742  25.891  1.00  0.00     0.023 C 
BRANCH  21  22
ATOM     22  C   UNL A   1      37.107  23.685  24.939  1.00  0.00     0.116 C 
BRANCH  22  23
ATOM     23  N   UNL A   1      38.097  22.695  25.330  1.00  0.00    -0.352 N 
ATOM     24  C   UNL A   1      39.211  22.851  26.118  1.00  0.00     0.251 C 
ATOM     25  H   UNL A   1      37.949  21.787  24.983  1.00  0.00     0.163 HD
ATOM     26  O   UNL A   1      40.004  21.929  26.260  1.00  0.00    -0.269 OA
BRANCH  24  27
ATOM     27  C   UNL A   1      39.466  24.154  26.763  1.00  0.00     0.039 A 
ATOM     28  C   UNL A   1      38.995  24.360  28.062  1.00  0.00     0.014 A 
ATOM     29  C   UNL A   1      40.174  25.159  26.098  1.00  0.00     0.014 A 
ATOM     30  C   UNL A   1      39.281  25.559  28.717  1.00  0.00     0.010 A 
ATOM     31  C   UNL A   1      40.515  26.324  26.776  1.00  0.00     0.010 A 
ATOM     32  C   UNL A   1      40.068  26.536  28.089  1.00  0.00    -0.014 A 
BRANCH  32  33
ATOM     33  C   UNL A   1      40.424  27.796  28.784  1.00  0.00     0.031 A 
ATOM     34  C   UNL A   1      41.773  27.941  29.431  1.00  0.00     0.074 A 
ATOM     35  C   UNL A   1      39.514  28.784  28.883  1.00  0.00     0.049 A 
ATOM     36  N   UNL A   1      42.249  28.937  30.134  1.00  0.00    -0.248 NA
ATOM     37  C   UNL A   1      42.699  26.806  29.292  1.00  0.00     0.031 C 
ATOM     38  C   UNL A   1      38.159  28.750  28.331  1.00  0.00     0.029 A 
ATOM     39  N   UNL A   1      39.596  30.010  29.493  1.00  0.00    -0.354 N 
ATOM     40  C   UNL A   1      43.516  28.540  30.538  1.00  0.00     0.074 A 
ATOM     41  C   UNL A   1      43.719  27.196  30.043  1.00  0.00     0.031 C 
ATOM     42  C   UNL A   1      37.546  29.914  28.602  1.00  0.00     0.029 A 
ATOM     43  C   UNL A   1      38.450  30.758  29.376  1.00  0.00     0.049 A 
ATOM     44  H   UNL A   1      40.398  30.324  29.969  1.00  0.00     0.167 HD
ATOM     45  C   UNL A   1      44.441  29.238  31.240  1.00  0.00     0.031 A 
ATOM     46  C   UNL A   1      38.162  31.988  29.841  1.00  0.00     0.031 A 
ATOM     47  C   UNL A   1      44.247  30.580  31.719  1.00  0.00     0.049 A 
ATOM     48  C   UNL A   1      39.204  32.744  30.616  1.00  0.00     0.074 A 
ATOM     49  C   UNL A   1      45.139  31.390  32.398  1.00  0.00     0.029 A 
ATOM     50  N   UNL A   1      43.079  31.309  31.564  1.00  0.00    -0.354 N 
ATOM     51  N   UNL A   1      40.420  32.376  30.940  1.00  0.00    -0.248 NA
ATOM     52  C   UNL A   1      38.837  34.090  31.076  1.00  0.00     0.031 C 
ATOM     53  C   UNL A   1      44.496  32.600  32.686  1.00  0.00     0.029 A 
ATOM     54  C   UNL A   1      43.222  32.557  32.144  1.00  0.00     0.049 A 
ATOM     55  H   UNL A   1      42.267  30.987  31.108  1.00  0.00     0.167 HD
ATOM     56  C   UNL A   1      40.974  33.458  31.613  1.00  0.00     0.074 A 
ATOM     57  C   UNL A   1      39.965  34.497  31.641  1.00  0.00     0.031 C 
ATOM     58  C   UNL A   1      42.209  33.580  32.157  1.00  0.00     0.031 A 
BRANCH  45  59
ATOM     59  C   UNL A   1      45.745  28.550  31.532  1.00  0.00    -0.014 A 
ATOM     60  C   UNL A   1      45.915  27.781  32.695  1.00  0.00     0.009 A 
ATOM     61  C   UNL A   1      46.811  28.659  30.628  1.00  0.00     0.009 A 
ATOM     62  C   UNL A   1      47.140  27.169  32.965  1.00  0.00     0.001 A 
ATOM     63  C   UNL A   1      48.027  28.022  30.887  1.00  0.00     0.001 A 
ATOM     64  C   UNL A   1      48.194  27.288  32.060  1.00  0.00     0.000 A 
ENDBRANCH  45  59
BRANCH  46  65
ATOM     65  C   UNL A   1      36.837  32.599  29.558  1.00  0.00    -0.014 A 
ATOM     66  C   UNL A   1      35.798  32.502  30.498  1.00  0.00     0.009 A 
ATOM     67  C   UNL A   1      36.602  33.275  28.352  1.00  0.00     0.009 A 
ATOM     68  C   UNL A   1      34.542  33.046  30.221  1.00  0.00     0.001 A 
ATOM     69  C   UNL A   1      35.352  33.841  28.090  1.00  0.00     0.001 A 
ATOM     70  C   UNL A   1      34.321  33.718  29.020  1.00  0.00     0.000 A 
ENDBRANCH  46  65
BRANCH  58  71
ATOM     71  C   UNL A   1      42.553  34.900  32.786  1.00  0.00    -0.014 A 
ATOM     72  C   UNL A   1      42.193  35.193  34.110  1.00  0.00     0.009 A 
ATOM     73  C   UNL A   1      43.281  35.848  32.050  1.00  0.00     0.009 A 
ATOM     74  C   UNL A   1      42.529  36.425  34.675  1.00  0.00     0.001 A 
ATOM     75  C   UNL A   1      43.638  37.067  32.626  1.00  0.00     0.001 A 
ATOM     76  C   UNL A   1      43.254  37.358  33.934  1.00  0.00     0.000 A 
ENDBRANCH  58  71
ENDBRANCH  32  33
ENDBRANCH  24  27
ENDBRANCH  22  23
ENDBRANCH  21  22
ENDBRANCH  20  21
ENDBRANCH   1  20
TORSDOF 16
ENDMDL
MODEL 3
REMARK VINA RESULT:      -9.8      3.824      5.925
REMARK SMILES CCOCCNc1cccc(F)c1C(=O)NCCCCNC(=O)c1ccc(-c2c3nc(c(-c4ccccc4)c4ccc([nH]4)c(-c4ccccc4)c4nc(c(-c5ccccc5)c5ccc2[nH]5)C=C4)C=C3)cc1
REMARK SMILES IDX 17 1 16 2 14 3 15 4 13 6 7 7 8 8 9 9 11 10 10 11 12 12 6 13
REMARK SMILES IDX 5 15 4 16 3 17 2 18 1 19 18 20 19 21 20 22 21 23 22 24 23 26
REMARK SMILES IDX 24 27 25 28 71 29 26 30 70 31 27 32 28 33 29 34 64 35 30 36
REMARK SMILES IDX 69 37 63 38 65 39 31 40 68 41 62 42 61 43 32 45 54 46 39 47
REMARK SMILES IDX 53 48 40 49 43 50 52 51 66 52 41 53 42 54 51 56 67 57 44 58
REMARK SMILES IDX 33 59 34 60 38 61 35 62 37 63 36 64 55 65 56 66 60 67 57 68
REMARK SMILES IDX 59 69 58 70 45 71 46 72 50 73 47 74 49 75 48 76
REMARK H PARENT 16 5 6 14 21 25 65 44 43 55
REMARK Flexibility Score: inf
ROOT
ATOM      1  C   UNL A   1      36.930  22.255  25.157  1.00  0.00     0.116 C 
ENDROOT
BRANCH   1   2
ATOM      2  N   UNL A   1      36.083  21.743  26.211  1.00  0.00    -0.352 N 
ATOM      3  C   UNL A   1      34.726  21.581  26.297  1.00  0.00     0.256 C 
ATOM      4  O   UNL A   1      34.277  21.362  27.427  1.00  0.00    -0.269 OA
ATOM      5  H   UNL A   1      36.573  21.460  27.018  1.00  0.00     0.163 HD
BRANCH   3   6
ATOM      6  C   UNL A   1      33.800  21.532  25.125  1.00  0.00     0.098 A 
ATOM      7  C   UNL A   1      33.483  20.249  24.585  1.00  0.00     0.050 A 
ATOM      8  C   UNL A   1      32.629  20.188  23.472  1.00  0.00     0.027 A 
ATOM      9  C   UNL A   1      32.071  21.342  22.918  1.00  0.00     0.005 A 
ATOM     10  C   UNL A   1      33.190  22.666  24.586  1.00  0.00     0.138 A 
ATOM     11  C   UNL A   1      32.350  22.581  23.479  1.00  0.00     0.040 A 
ATOM     12  F   UNL A   1      33.346  23.880  25.128  1.00  0.00    -0.206 F 
BRANCH   7  13
ATOM     13  N   UNL A   1      34.073  19.115  25.116  1.00  0.00    -0.382 N 
ATOM     14  H   UNL A   1      33.843  18.929  26.056  1.00  0.00     0.160 HD
BRANCH  13  15
ATOM     15  C   UNL A   1      34.977  18.156  24.508  1.00  0.00     0.141 C 
BRANCH  15  16
ATOM     16  C   UNL A   1      34.199  16.918  24.020  1.00  0.00     0.181 C 
BRANCH  16  17
ATOM     17  O   UNL A   1      34.430  15.710  24.750  1.00  0.00    -0.380 OA
BRANCH  17  18
ATOM     18  C   UNL A   1      33.301  15.066  25.334  1.00  0.00     0.157 C 
ATOM     19  C   UNL A   1      32.189  16.012  25.759  1.00  0.00     0.035 C 
ENDBRANCH  17  18
ENDBRANCH  16  17
ENDBRANCH  15  16
ENDBRANCH  13  15
ENDBRANCH   7  13
ENDBRANCH   3   6
ENDBRANCH   1   2
BRANCH   1  20
ATOM     20  C   UNL A   1      38.378  21.845  25.438  1.00  0.00     0.023 C 
BRANCH  20  21
ATOM     21  C   UNL A   1      38.691  20.383  25.101  1.00  0.00     0.023 C 
BRANCH  21  22
ATOM     22  C   UNL A   1      39.336  19.593  26.234  1.00  0.00     0.116 C 
BRANCH  22  23
ATOM     23  N   UNL A   1      40.621  19.021  25.866  1.00  0.00    -0.352 N 
ATOM     24  C   UNL A   1      41.864  19.603  25.885  1.00  0.00     0.251 C 
ATOM     25  H   UNL A   1      40.596  18.086  25.562  1.00  0.00     0.163 HD
ATOM     26  O   UNL A   1      42.835  19.007  25.437  1.00  0.00    -0.269 OA
BRANCH  24  27
ATOM     27  C   UNL A   1      42.016  20.971  26.418  1.00  0.00     0.039 A 
ATOM     28  C   UNL A   1      41.909  21.168  27.796  1.00  0.00     0.014 A 
ATOM     29  C   UNL A   1      42.272  22.049  25.566  1.00  0.00     0.014 A 
ATOM     30  C   UNL A   1      42.115  22.441  28.329  1.00  0.00     0.010 A 
ATOM     31  C   UNL A   1      42.542  23.302  26.103  1.00  0.00     0.010 A 
ATOM     32  C   UNL A   1      42.462  23.510  27.489  1.00  0.00    -0.014 A 
BRANCH  32  33
ATOM     33  C   UNL A   1      42.732  24.861  28.038  1.00  0.00     0.031 A 
ATOM     34  C   UNL A   1      44.122  25.230  28.472  1.00  0.00     0.074 A 
ATOM     35  C   UNL A   1      41.716  25.730  28.202  1.00  0.00     0.049 A 
ATOM     36  N   UNL A   1      44.546  26.336  29.030  1.00  0.00    -0.248 NA
ATOM     37  C   UNL A   1      45.169  24.214  28.277  1.00  0.00     0.031 C 
ATOM     38  C   UNL A   1      40.317  25.478  27.855  1.00  0.00     0.029 A 
ATOM     39  N   UNL A   1      41.709  27.004  28.709  1.00  0.00    -0.354 N 
ATOM     40  C   UNL A   1      45.899  26.139  29.272  1.00  0.00     0.074 A 
ATOM     41  C   UNL A   1      46.216  24.794  28.845  1.00  0.00     0.031 C 
ATOM     42  C   UNL A   1      39.592  26.573  28.133  1.00  0.00     0.029 A 
ATOM     43  C   UNL A   1      40.466  27.588  28.708  1.00  0.00     0.049 A 
ATOM     44  H   UNL A   1      42.517  27.457  29.041  1.00  0.00     0.167 HD
ATOM     45  C   UNL A   1      46.805  27.006  29.784  1.00  0.00     0.031 A 
ATOM     46  C   UNL A   1      40.076  28.807  29.126  1.00  0.00     0.031 A 
ATOM     47  C   UNL A   1      46.495  28.349  30.194  1.00  0.00     0.049 A 
ATOM     48  C   UNL A   1      41.100  29.753  29.689  1.00  0.00     0.074 A 
ATOM     49  C   UNL A   1      47.350  29.322  30.681  1.00  0.00     0.029 A 
ATOM     50  N   UNL A   1      45.226  28.909  30.161  1.00  0.00    -0.354 N 
ATOM     51  N   UNL A   1      42.387  29.572  29.858  1.00  0.00    -0.248 NA
ATOM     52  C   UNL A   1      40.616  31.077  30.106  1.00  0.00     0.031 C 
ATOM     53  C   UNL A   1      46.591  30.460  30.977  1.00  0.00     0.029 A 
ATOM     54  C   UNL A   1      45.273  30.210  30.629  1.00  0.00     0.049 A 
ATOM     55  H   UNL A   1      44.413  28.448  29.851  1.00  0.00     0.167 HD
ATOM     56  C   UNL A   1      42.872  30.769  30.369  1.00  0.00     0.074 A 
ATOM     57  C   UNL A   1      41.742  31.670  30.473  1.00  0.00     0.031 C 
ATOM     58  C   UNL A   1      44.140  31.093  30.719  1.00  0.00     0.031 A 
BRANCH  45  59
ATOM     59  C   UNL A   1      48.218  26.518  29.930  1.00  0.00    -0.014 A 
ATOM     60  C   UNL A   1      49.167  26.727  28.917  1.00  0.00     0.009 A 
ATOM     61  C   UNL A   1      48.611  25.853  31.101  1.00  0.00     0.009 A 
ATOM     62  C   UNL A   1      50.469  26.245  29.056  1.00  0.00     0.001 A 
ATOM     63  C   UNL A   1      49.923  25.396  31.250  1.00  0.00     0.001 A 
ATOM     64  C   UNL A   1      50.847  25.582  30.223  1.00  0.00     0.000 A 
ENDBRANCH  45  59
BRANCH  46  65
ATOM     65  C   UNL A   1      38.655  29.219  28.998  1.00  0.00    -0.014 A 
ATOM     66  C   UNL A   1      37.784  29.110  30.094  1.00  0.00     0.009 A 
ATOM     67  C   UNL A   1      38.159  29.716  27.783  1.00  0.00     0.009 A 
ATOM     68  C   UNL A   1      36.439  29.464  29.967  1.00  0.00     0.001 A 
ATOM     69  C   UNL A   1      36.819  30.094  27.668  1.00  0.00     0.001 A 
ATOM     70  C   UNL A   1      35.959  29.959  28.757  1.00  0.00     0.000 A 
ENDBRANCH  46  65
BRANCH  58  71
ATOM     71  C   UNL A   1      44.380  32.496  31.201  1.00  0.00    -0.014 A 
ATOM     72  C   UNL A   1      44.318  32.819  32.565  1.00  0.00     0.009 A 
ATOM     73  C   UNL A   1      44.712  33.498  30.276  1.00  0.00     0.009 A 
ATOM     74  C   UNL A   1      44.551  34.129  32.989  1.00  0.00     0.001 A 
ATOM     75  C   UNL A   1      44.970  34.800  30.706  1.00  0.00     0.001 A 
ATOM     76  C   UNL A   1      44.880  35.116  32.060  1.00  0.00     0.000 A 
ENDBRANCH  58  71
ENDBRANCH  32  33
ENDBRANCH  24  27
ENDBRANCH  22  23
ENDBRANCH  21  22
ENDBRANCH  20  21
ENDBRANCH   1  20
TORSDOF 16
ENDMDL
