MODEL 1
REMARK VINA RESULT:     -11.8      0.000      0.000
REMARK SMILES CC1(C)CN(C(=O)NC[C@H]2CC[C@@H](C(=O)NCCCCNC(=O)c3ccc(-c4c5nc(c(-c6ccccc6)c6ccc([nH]6)c(-c6ccccc6)c6nc(c(-c7ccccc7)c7ccc4[nH]7)C=C6)C=C5)cc3)CC2)CCO1
REMARK SMILES IDX 18 1 17 2 16 3 14 4 15 5 13 7 10 8 11 9 73 10 12 11 72 12
REMARK SMILES IDX 9 13 8 14 6 15 7 16 5 18 1 19 2 20 3 21 4 22 76 23 75 24
REMARK SMILES IDX 74 25 19 26 20 27 21 28 22 29 23 31 24 32 25 33 71 34 26 35
REMARK SMILES IDX 70 36 27 37 28 38 29 39 64 40 30 41 69 42 63 43 65 44 31 45
REMARK SMILES IDX 68 46 62 47 61 48 32 50 54 51 39 52 53 53 40 54 43 55 52 56
REMARK SMILES IDX 66 57 41 58 42 59 51 61 67 62 44 63 33 64 34 65 38 66 35 67
REMARK SMILES IDX 37 68 36 69 55 70 56 71 60 72 57 73 59 74 58 75 45 76 46 77
REMARK SMILES IDX 50 78 47 79 49 80 48 81
REMARK H PARENT 16 6 8 17 21 30 65 49 43 60
REMARK Flexibility Score: inf
ROOT
ATOM      1  C   UNL A   1      31.803  30.417  26.880  1.00  0.00     0.023 C 
ENDROOT
BRANCH   1   2
ATOM      2  C   UNL A   1      33.251  29.937  26.798  1.00  0.00     0.116 C 
BRANCH   2   3
ATOM      3  N   UNL A   1      33.696  29.736  25.437  1.00  0.00    -0.356 N 
ATOM      4  C   UNL A   1      33.117  29.049  24.415  1.00  0.00     0.223 C 
ATOM      5  O   UNL A   1      33.688  29.082  23.320  1.00  0.00    -0.275 OA
ATOM      6  H   UNL A   1      34.554  30.165  25.213  1.00  0.00     0.163 HD
BRANCH   4   7
ATOM      7  C   UNL A   1      31.801  28.281  24.568  1.00  0.00     0.078 C 
ATOM      8  C   UNL A   1      29.810  26.053  24.440  1.00  0.00     0.008 C 
ATOM      9  C   UNL A   1      30.584  26.386  25.722  1.00  0.00     0.006 C 
ATOM     10  C   UNL A   1      29.777  27.234  23.453  1.00  0.00     0.006 C 
ATOM     11  C   UNL A   1      31.925  27.077  25.504  1.00  0.00     0.014 C 
ATOM     12  C   UNL A   1      31.117  27.937  23.243  1.00  0.00     0.014 C 
BRANCH   8  13
ATOM     13  C   UNL A   1      30.155  24.685  23.811  1.00  0.00     0.121 C 
BRANCH  13  14
ATOM     14  N   UNL A   1      30.517  23.608  24.709  1.00  0.00    -0.338 N 
ATOM     15  C   UNL A   1      31.484  22.699  24.875  1.00  0.00     0.317 C 
ATOM     16  O   UNL A   1      31.332  21.973  25.867  1.00  0.00    -0.249 OA
ATOM     17  H   UNL A   1      29.841  23.516  25.418  1.00  0.00     0.165 HD
BRANCH  15  18
ATOM     18  N   UNL A   1      32.512  22.491  24.014  1.00  0.00    -0.320 N 
ATOM     19  C   UNL A   1      34.383  24.967  24.171  1.00  0.00     0.044 C 
ATOM     20  C   UNL A   1      34.786  23.520  23.854  1.00  0.00     0.080 C 
ATOM     21  C   UNL A   1      36.231  23.300  24.319  1.00  0.00     0.044 C 
ATOM     22  C   UNL A   1      33.873  22.504  24.564  1.00  0.00     0.156 C 
ATOM     23  O   UNL A   1      34.775  23.271  22.431  1.00  0.00    -0.372 OA
ATOM     24  C   UNL A   1      33.456  23.264  21.867  1.00  0.00     0.182 C 
ATOM     25  C   UNL A   1      32.514  22.276  22.570  1.00  0.00     0.150 C 
ENDBRANCH  15  18
ENDBRANCH  13  14
ENDBRANCH   8  13
ENDBRANCH   4   7
ENDBRANCH   2   3
ENDBRANCH   1   2
BRANCH   1  26
ATOM     26  C   UNL A   1      31.621  31.927  26.747  1.00  0.00     0.023 C 
BRANCH  26  27
ATOM     27  C   UNL A   1      32.723  32.794  27.356  1.00  0.00     0.116 C 
BRANCH  27  28
ATOM     28  N   UNL A   1      32.332  34.156  27.685  1.00  0.00    -0.352 N 
ATOM     29  C   UNL A   1      32.950  35.040  28.543  1.00  0.00     0.251 C 
ATOM     30  H   UNL A   1      31.521  34.488  27.238  1.00  0.00     0.163 HD
ATOM     31  O   UNL A   1      32.477  36.155  28.743  1.00  0.00    -0.269 OA
BRANCH  29  32
ATOM     32  C   UNL A   1      34.173  34.634  29.279  1.00  0.00     0.039 A 
ATOM     33  C   UNL A   1      34.028  34.118  30.570  1.00  0.00     0.014 A 
ATOM     34  C   UNL A   1      35.443  34.724  28.704  1.00  0.00     0.014 A 
ATOM     35  C   UNL A   1      35.137  33.592  31.236  1.00  0.00     0.010 A 
ATOM     36  C   UNL A   1      36.536  34.139  29.339  1.00  0.00     0.010 A 
ATOM     37  C   UNL A   1      36.388  33.545  30.600  1.00  0.00    -0.014 A 
BRANCH  37  38
ATOM     38  C   UNL A   1      37.522  32.807  31.209  1.00  0.00     0.031 A 
ATOM     39  C   UNL A   1      38.104  33.228  32.527  1.00  0.00     0.074 A 
ATOM     40  C   UNL A   1      38.078  31.788  30.523  1.00  0.00     0.049 A 
ATOM     41  N   UNL A   1      39.099  32.699  33.193  1.00  0.00    -0.248 NA
ATOM     42  C   UNL A   1      37.508  34.410  33.168  1.00  0.00     0.031 C 
ATOM     43  C   UNL A   1      37.650  31.324  29.199  1.00  0.00     0.029 A 
ATOM     44  N   UNL A   1      39.126  30.961  30.840  1.00  0.00    -0.354 N 
ATOM     45  C   UNL A   1      39.256  33.487  34.326  1.00  0.00     0.074 A 
ATOM     46  C   UNL A   1      38.284  34.556  34.234  1.00  0.00     0.031 C 
ATOM     47  C   UNL A   1      38.408  30.277  28.835  1.00  0.00     0.029 A 
ATOM     48  C   UNL A   1      39.389  30.013  29.881  1.00  0.00     0.049 A 
ATOM     49  H   UNL A   1      39.641  31.040  31.675  1.00  0.00     0.167 HD
ATOM     50  C   UNL A   1      40.119  33.326  35.357  1.00  0.00     0.031 A 
ATOM     51  C   UNL A   1      40.313  29.036  29.848  1.00  0.00     0.031 A 
ATOM     52  C   UNL A   1      41.083  32.262  35.452  1.00  0.00     0.049 A 
ATOM     53  C   UNL A   1      41.242  28.864  31.015  1.00  0.00     0.074 A 
ATOM     54  C   UNL A   1      41.959  31.979  36.486  1.00  0.00     0.029 A 
ATOM     55  N   UNL A   1      41.300  31.306  34.472  1.00  0.00    -0.354 N 
ATOM     56  N   UNL A   1      41.319  29.567  32.118  1.00  0.00    -0.248 NA
ATOM     57  C   UNL A   1      42.200  27.753  30.937  1.00  0.00     0.031 C 
ATOM     58  C   UNL A   1      42.733  30.874  36.115  1.00  0.00     0.029 A 
ATOM     59  C   UNL A   1      42.308  30.442  34.869  1.00  0.00     0.049 A 
ATOM     60  H   UNL A   1      40.810  31.247  33.620  1.00  0.00     0.167 HD
ATOM     61  C   UNL A   1      42.316  28.968  32.877  1.00  0.00     0.074 A 
ATOM     62  C   UNL A   1      42.803  27.836  32.114  1.00  0.00     0.031 C 
ATOM     63  C   UNL A   1      42.784  29.324  34.097  1.00  0.00     0.031 A 
BRANCH  50  64
ATOM     64  C   UNL A   1      40.056  34.335  36.470  1.00  0.00    -0.014 A 
ATOM     65  C   UNL A   1      40.801  35.524  36.412  1.00  0.00     0.009 A 
ATOM     66  C   UNL A   1      39.222  34.108  37.575  1.00  0.00     0.009 A 
ATOM     67  C   UNL A   1      40.741  36.448  37.457  1.00  0.00     0.001 A 
ATOM     68  C   UNL A   1      39.145  35.046  38.607  1.00  0.00     0.001 A 
ATOM     69  C   UNL A   1      39.911  36.210  38.552  1.00  0.00     0.000 A 
ENDBRANCH  50  64
BRANCH  51  70
ATOM     70  C   UNL A   1      40.378  28.116  28.684  1.00  0.00    -0.014 A 
ATOM     71  C   UNL A   1      39.673  26.903  28.700  1.00  0.00     0.009 A 
ATOM     72  C   UNL A   1      41.139  28.445  27.553  1.00  0.00     0.009 A 
ATOM     73  C   UNL A   1      39.749  26.026  27.616  1.00  0.00     0.001 A 
ATOM     74  C   UNL A   1      41.195  27.578  26.460  1.00  0.00     0.001 A 
ATOM     75  C   UNL A   1      40.506  26.366  26.496  1.00  0.00     0.000 A 
ENDBRANCH  51  70
BRANCH  63  76
ATOM     76  C   UNL A   1      43.860  28.462  34.691  1.00  0.00    -0.014 A 
ATOM     77  C   UNL A   1      43.544  27.352  35.489  1.00  0.00     0.009 A 
ATOM     78  C   UNL A   1      45.208  28.752  34.428  1.00  0.00     0.009 A 
ATOM     79  C   UNL A   1      44.560  26.570  36.042  1.00  0.00     0.001 A 
ATOM     80  C   UNL A   1      46.220  27.954  34.961  1.00  0.00     0.001 A 
ATOM     81  C   UNL A   1      45.896  26.869  35.776  1.00  0.00     0.000 A 
ENDBRANCH  63  76
ENDBRANCH  37  38
ENDBRANCH  29  32
ENDBRANCH  27  28
ENDBRANCH  26  27
ENDBRANCH   1  26
TORSDOF 14
ENDMDL
MODEL 2
REMARK VINA RESULT:     -11.6      1.876      6.395
REMARK SMILES CC1(C)CN(C(=O)NC[C@H]2CC[C@@H](C(=O)NCCCCNC(=O)c3ccc(-c4c5nc(c(-c6ccccc6)c6ccc([nH]6)c(-c6ccccc6)c6nc(c(-c7ccccc7)c7ccc4[nH]7)C=C6)C=C5)cc3)CC2)CCO1
REMARK SMILES IDX 18 1 17 2 16 3 14 4 15 5 13 7 10 8 11 9 73 10 12 11 72 12
REMARK SMILES IDX 9 13 8 14 6 15 7 16 5 18 1 19 2 20 3 21 4 22 76 23 75 24
REMARK SMILES IDX 74 25 19 26 20 27 21 28 22 29 23 31 24 32 25 33 71 34 26 35
REMARK SMILES IDX 70 36 27 37 28 38 29 39 64 40 30 41 69 42 63 43 65 44 31 45
REMARK SMILES IDX 68 46 62 47 61 48 32 50 54 51 39 52 53 53 40 54 43 55 52 56
REMARK SMILES IDX 66 57 41 58 42 59 51 61 67 62 44 63 33 64 34 65 38 66 35 67
REMARK SMILES IDX 37 68 36 69 55 70 56 71 60 72 57 73 59 74 58 75 45 76 46 77
REMARK SMILES IDX 50 78 47 79 49 80 48 81
REMARK H PARENT 16 6 8 17 21 30 65 49 43 60
REMARK Flexibility Score: inf
ROOT
ATOM      1  C   UNL A   1      34.198  32.549  28.735  1.00  0.00     0.023 C 
ENDROOT
BRANCH   1   2
ATOM      2  C   UNL A   1      34.223  31.567  27.565  1.00  0.00     0.116 C 
BRANCH   2   3
ATOM      3  N   UNL A   1      33.777  30.243  27.938  1.00  0.00    -0.356 N 
ATOM      4  C   UNL A   1      33.190  29.270  27.190  1.00  0.00     0.223 C 
ATOM      5  O   UNL A   1      32.956  28.194  27.749  1.00  0.00    -0.275 OA
ATOM      6  H   UNL A   1      33.921  30.008  28.883  1.00  0.00     0.163 HD
BRANCH   4   7
ATOM      7  C   UNL A   1      32.846  29.452  25.709  1.00  0.00     0.078 C 
ATOM      8  C   UNL A   1      31.880  28.836  22.946  1.00  0.00     0.008 C 
ATOM      9  C   UNL A   1      31.016  29.588  23.967  1.00  0.00     0.006 C 
ATOM     10  C   UNL A   1      33.379  28.898  23.290  1.00  0.00     0.006 C 
ATOM     11  C   UNL A   1      31.350  29.304  25.426  1.00  0.00     0.014 C 
ATOM     12  C   UNL A   1      33.716  28.628  24.757  1.00  0.00     0.014 C 
BRANCH   8  13
ATOM     13  C   UNL A   1      31.356  27.435  22.558  1.00  0.00     0.121 C 
BRANCH  13  14
ATOM     14  N   UNL A   1      32.016  26.754  21.463  1.00  0.00    -0.338 N 
ATOM     15  C   UNL A   1      32.784  25.681  21.243  1.00  0.00     0.317 C 
ATOM     16  O   UNL A   1      33.089  25.512  20.054  1.00  0.00    -0.249 OA
ATOM     17  H   UNL A   1      31.846  27.228  20.617  1.00  0.00     0.165 HD
BRANCH  15  18
ATOM     18  N   UNL A   1      33.284  24.872  22.210  1.00  0.00    -0.320 N 
ATOM     19  C   UNL A   1      30.888  23.393  23.526  1.00  0.00     0.044 C 
ATOM     20  C   UNL A   1      32.325  22.875  23.372  1.00  0.00     0.080 C 
ATOM     21  C   UNL A   1      32.287  21.343  23.279  1.00  0.00     0.044 C 
ATOM     22  C   UNL A   1      33.001  23.434  22.107  1.00  0.00     0.156 C 
ATOM     23  O   UNL A   1      33.127  23.190  24.531  1.00  0.00    -0.372 OA
ATOM     24  C   UNL A   1      33.407  24.592  24.660  1.00  0.00     0.182 C 
ATOM     25  C   UNL A   1      34.062  25.186  23.404  1.00  0.00     0.150 C 
ENDBRANCH  15  18
ENDBRANCH  13  14
ENDBRANCH   8  13
ENDBRANCH   4   7
ENDBRANCH   2   3
ENDBRANCH   1   2
BRANCH   1  26
ATOM     26  C   UNL A   1      33.443  33.848  28.464  1.00  0.00     0.023 C 
BRANCH  26  27
ATOM     27  C   UNL A   1      33.786  35.028  29.373  1.00  0.00     0.116 C 
BRANCH  27  28
ATOM     28  N   UNL A   1      32.776  35.363  30.365  1.00  0.00    -0.352 N 
ATOM     29  C   UNL A   1      32.845  35.227  31.735  1.00  0.00     0.251 C 
ATOM     30  H   UNL A   1      31.935  35.733  30.011  1.00  0.00     0.163 HD
ATOM     31  O   UNL A   1      31.888  35.527  32.443  1.00  0.00    -0.269 OA
BRANCH  29  32
ATOM     32  C   UNL A   1      34.062  34.666  32.369  1.00  0.00     0.039 A 
ATOM     33  C   UNL A   1      34.033  33.336  32.799  1.00  0.00     0.014 A 
ATOM     34  C   UNL A   1      35.232  35.417  32.512  1.00  0.00     0.014 A 
ATOM     35  C   UNL A   1      35.201  32.730  33.267  1.00  0.00     0.010 A 
ATOM     36  C   UNL A   1      36.412  34.796  32.914  1.00  0.00     0.010 A 
ATOM     37  C   UNL A   1      36.413  33.441  33.271  1.00  0.00    -0.014 A 
BRANCH  37  38
ATOM     38  C   UNL A   1      37.694  32.753  33.567  1.00  0.00     0.031 A 
ATOM     39  C   UNL A   1      38.281  31.759  32.607  1.00  0.00     0.074 A 
ATOM     40  C   UNL A   1      38.293  32.977  34.754  1.00  0.00     0.049 A 
ATOM     41  N   UNL A   1      39.386  31.065  32.716  1.00  0.00    -0.248 NA
ATOM     42  C   UNL A   1      37.519  31.493  31.379  1.00  0.00     0.031 C 
ATOM     43  C   UNL A   1      37.788  33.868  35.803  1.00  0.00     0.029 A 
ATOM     44  N   UNL A   1      39.455  32.472  35.280  1.00  0.00    -0.354 N 
ATOM     45  C   UNL A   1      39.447  30.273  31.577  1.00  0.00     0.074 A 
ATOM     46  C   UNL A   1      38.246  30.539  30.813  1.00  0.00     0.031 C 
ATOM     47  C   UNL A   1      38.651  33.869  36.831  1.00  0.00     0.029 A 
ATOM     48  C   UNL A   1      39.753  32.962  36.528  1.00  0.00     0.049 A 
ATOM     49  H   UNL A   1      40.021  31.820  34.808  1.00  0.00     0.167 HD
ATOM     50  C   UNL A   1      40.421  29.414  31.193  1.00  0.00     0.031 A 
ATOM     51  C   UNL A   1      40.799  32.716  37.337  1.00  0.00     0.031 A 
ATOM     52  C   UNL A   1      41.617  29.151  31.950  1.00  0.00     0.049 A 
ATOM     53  C   UNL A   1      41.877  31.778  36.879  1.00  0.00     0.074 A 
ATOM     54  C   UNL A   1      42.691  28.344  31.616  1.00  0.00     0.029 A 
ATOM     55  N   UNL A   1      41.894  29.688  33.197  1.00  0.00    -0.354 N 
ATOM     56  N   UNL A   1      41.962  31.103  35.759  1.00  0.00    -0.248 NA
ATOM     57  C   UNL A   1      43.014  31.584  37.790  1.00  0.00     0.031 C 
ATOM     58  C   UNL A   1      43.602  28.363  32.678  1.00  0.00     0.029 A 
ATOM     59  C   UNL A   1      43.115  29.217  33.655  1.00  0.00     0.049 A 
ATOM     60  H   UNL A   1      41.312  30.313  33.686  1.00  0.00     0.167 HD
ATOM     61  C   UNL A   1      43.170  30.422  35.819  1.00  0.00     0.074 A 
ATOM     62  C   UNL A   1      43.791  30.780  37.079  1.00  0.00     0.031 C 
ATOM     63  C   UNL A   1      43.716  29.578  34.911  1.00  0.00     0.031 A 
BRANCH  50  64
ATOM     64  C   UNL A   1      40.228  28.693  29.889  1.00  0.00    -0.014 A 
ATOM     65  C   UNL A   1      40.622  29.275  28.674  1.00  0.00     0.009 A 
ATOM     66  C   UNL A   1      39.669  27.406  29.876  1.00  0.00     0.009 A 
ATOM     67  C   UNL A   1      40.427  28.599  27.468  1.00  0.00     0.001 A 
ATOM     68  C   UNL A   1      39.498  26.721  28.671  1.00  0.00     0.001 A 
ATOM     69  C   UNL A   1      39.868  27.322  27.468  1.00  0.00     0.000 A 
ENDBRANCH  50  64
BRANCH  51  70
ATOM     70  C   UNL A   1      40.897  33.401  38.651  1.00  0.00    -0.014 A 
ATOM     71  C   UNL A   1      40.346  32.814  39.800  1.00  0.00     0.009 A 
ATOM     72  C   UNL A   1      41.543  34.641  38.765  1.00  0.00     0.009 A 
ATOM     73  C   UNL A   1      40.418  33.466  41.033  1.00  0.00     0.001 A 
ATOM     74  C   UNL A   1      41.636  35.280  40.003  1.00  0.00     0.001 A 
ATOM     75  C   UNL A   1      41.066  34.696  41.134  1.00  0.00     0.000 A 
ENDBRANCH  51  70
BRANCH  63  76
ATOM     76  C   UNL A   1      45.065  29.007  35.240  1.00  0.00    -0.014 A 
ATOM     77  C   UNL A   1      45.194  27.854  36.030  1.00  0.00     0.009 A 
ATOM     78  C   UNL A   1      46.222  29.619  34.732  1.00  0.00     0.009 A 
ATOM     79  C   UNL A   1      46.458  27.346  36.335  1.00  0.00     0.001 A 
ATOM     80  C   UNL A   1      47.483  29.094  35.017  1.00  0.00     0.001 A 
ATOM     81  C   UNL A   1      47.600  27.964  35.826  1.00  0.00     0.000 A 
ENDBRANCH  63  76
ENDBRANCH  37  38
ENDBRANCH  29  32
ENDBRANCH  27  28
ENDBRANCH  26  27
ENDBRANCH   1  26
TORSDOF 14
ENDMDL
MODEL 3
REMARK VINA RESULT:     -11.6      3.445      4.943
REMARK SMILES CC1(C)CN(C(=O)NC[C@H]2CC[C@@H](C(=O)NCCCCNC(=O)c3ccc(-c4c5nc(c(-c6ccccc6)c6ccc([nH]6)c(-c6ccccc6)c6nc(c(-c7ccccc7)c7ccc4[nH]7)C=C6)C=C5)cc3)CC2)CCO1
REMARK SMILES IDX 18 1 17 2 16 3 14 4 15 5 13 7 10 8 11 9 73 10 12 11 72 12
REMARK SMILES IDX 9 13 8 14 6 15 7 16 5 18 1 19 2 20 3 21 4 22 76 23 75 24
REMARK SMILES IDX 74 25 19 26 20 27 21 28 22 29 23 31 24 32 25 33 71 34 26 35
REMARK SMILES IDX 70 36 27 37 28 38 29 39 64 40 30 41 69 42 63 43 65 44 31 45
REMARK SMILES IDX 68 46 62 47 61 48 32 50 54 51 39 52 53 53 40 54 43 55 52 56
REMARK SMILES IDX 66 57 41 58 42 59 51 61 67 62 44 63 33 64 34 65 38 66 35 67
REMARK SMILES IDX 37 68 36 69 55 70 56 71 60 72 57 73 59 74 58 75 45 76 46 77
REMARK SMILES IDX 50 78 47 79 49 80 48 81
REMARK H PARENT 16 6 8 17 21 30 65 49 43 60
REMARK Flexibility Score: inf
ROOT
ATOM      1  C   UNL A   1      31.629  30.005  25.526  1.00  0.00     0.023 C 
ENDROOT
BRANCH   1   2
ATOM      2  C   UNL A   1      31.027  29.435  24.244  1.00  0.00     0.116 C 
BRANCH   2   3
ATOM      3  N   UNL A   1      32.000  28.739  23.432  1.00  0.00    -0.356 N 
ATOM      4  C   UNL A   1      32.191  27.405  23.239  1.00  0.00     0.223 C 
ATOM      5  O   UNL A   1      33.071  27.073  22.439  1.00  0.00    -0.275 OA
ATOM      6  H   UNL A   1      32.622  29.321  22.940  1.00  0.00     0.163 HD
BRANCH   4   7
ATOM      7  C   UNL A   1      31.353  26.334  23.943  1.00  0.00     0.078 C 
ATOM      8  C   UNL A   1      30.655  23.940  25.594  1.00  0.00     0.008 C 
ATOM      9  C   UNL A   1      30.582  25.368  26.150  1.00  0.00     0.006 C 
ATOM     10  C   UNL A   1      30.615  23.908  24.056  1.00  0.00     0.006 C 
ATOM     11  C   UNL A   1      31.498  26.374  25.464  1.00  0.00     0.014 C 
ATOM     12  C   UNL A   1      31.523  24.926  23.365  1.00  0.00     0.014 C 
BRANCH   8  13
ATOM     13  C   UNL A   1      31.740  23.048  26.238  1.00  0.00     0.121 C 
BRANCH  13  14
ATOM     14  N   UNL A   1      31.743  21.642  25.890  1.00  0.00    -0.338 N 
ATOM     15  C   UNL A   1      32.457  20.770  25.169  1.00  0.00     0.317 C 
ATOM     16  O   UNL A   1      32.029  19.608  25.211  1.00  0.00    -0.249 OA
ATOM     17  H   UNL A   1      30.983  21.186  26.318  1.00  0.00     0.165 HD
BRANCH  15  18
ATOM     18  N   UNL A   1      33.507  21.095  24.375  1.00  0.00    -0.320 N 
ATOM     19  C   UNL A   1      35.618  22.527  26.151  1.00  0.00     0.044 C 
ATOM     20  C   UNL A   1      35.884  21.668  24.907  1.00  0.00     0.080 C 
ATOM     21  C   UNL A   1      37.266  21.017  25.046  1.00  0.00     0.044 C 
ATOM     22  C   UNL A   1      34.826  20.561  24.740  1.00  0.00     0.156 C 
ATOM     23  O   UNL A   1      35.935  22.475  23.711  1.00  0.00    -0.372 OA
ATOM     24  C   UNL A   1      34.660  23.018  23.339  1.00  0.00     0.182 C 
ATOM     25  C   UNL A   1      33.576  21.940  23.186  1.00  0.00     0.150 C 
ENDBRANCH  15  18
ENDBRANCH  13  14
ENDBRANCH   8  13
ENDBRANCH   4   7
ENDBRANCH   2   3
ENDBRANCH   1   2
BRANCH   1  26
ATOM     26  C   UNL A   1      33.112  29.700  25.728  1.00  0.00     0.023 C 
BRANCH  26  27
ATOM     27  C   UNL A   1      33.577  29.545  27.176  1.00  0.00     0.116 C 
BRANCH  27  28
ATOM     28  N   UNL A   1      33.645  30.780  27.942  1.00  0.00    -0.352 N 
ATOM     29  C   UNL A   1      34.697  31.265  28.689  1.00  0.00     0.251 C 
ATOM     30  H   UNL A   1      32.835  31.339  27.925  1.00  0.00     0.163 HD
ATOM     31  O   UNL A   1      34.590  32.318  29.311  1.00  0.00    -0.269 OA
BRANCH  29  32
ATOM     32  C   UNL A   1      35.958  30.493  28.791  1.00  0.00     0.039 A 
ATOM     33  C   UNL A   1      36.828  30.497  27.697  1.00  0.00     0.014 A 
ATOM     34  C   UNL A   1      36.306  29.800  29.953  1.00  0.00     0.014 A 
ATOM     35  C   UNL A   1      38.088  29.904  27.807  1.00  0.00     0.010 A 
ATOM     36  C   UNL A   1      37.586  29.267  30.088  1.00  0.00     0.010 A 
ATOM     37  C   UNL A   1      38.498  29.337  29.025  1.00  0.00    -0.014 A 
BRANCH  37  38
ATOM     38  C   UNL A   1      39.899  28.890  29.220  1.00  0.00     0.031 A 
ATOM     39  C   UNL A   1      40.931  29.809  29.808  1.00  0.00     0.074 A 
ATOM     40  C   UNL A   1      40.257  27.663  28.791  1.00  0.00     0.049 A 
ATOM     41  N   UNL A   1      42.200  29.580  30.038  1.00  0.00    -0.248 NA
ATOM     42  C   UNL A   1      40.489  31.166  30.160  1.00  0.00     0.031 C 
ATOM     43  C   UNL A   1      39.364  26.700  28.140  1.00  0.00     0.029 A 
ATOM     44  N   UNL A   1      41.466  27.017  28.833  1.00  0.00    -0.354 N 
ATOM     45  C   UNL A   1      42.710  30.765  30.552  1.00  0.00     0.074 A 
ATOM     46  C   UNL A   1      41.625  31.724  30.557  1.00  0.00     0.031 C 
ATOM     47  C   UNL A   1      40.049  25.576  27.874  1.00  0.00     0.029 A 
ATOM     48  C   UNL A   1      41.430  25.748  28.308  1.00  0.00     0.049 A 
ATOM     49  H   UNL A   1      42.282  27.424  29.205  1.00  0.00     0.167 HD
ATOM     50  C   UNL A   1      43.963  31.027  30.995  1.00  0.00     0.031 A 
ATOM     51  C   UNL A   1      42.399  24.821  28.194  1.00  0.00     0.031 A 
ATOM     52  C   UNL A   1      45.041  30.074  30.993  1.00  0.00     0.049 A 
ATOM     53  C   UNL A   1      43.774  25.128  28.714  1.00  0.00     0.074 A 
ATOM     54  C   UNL A   1      46.329  30.226  31.477  1.00  0.00     0.029 A 
ATOM     55  N   UNL A   1      44.957  28.790  30.478  1.00  0.00    -0.354 N 
ATOM     56  N   UNL A   1      44.216  26.225  29.277  1.00  0.00    -0.248 NA
ATOM     57  C   UNL A   1      44.776  24.060  28.599  1.00  0.00     0.031 C 
ATOM     58  C   UNL A   1      47.037  29.046  31.220  1.00  0.00     0.029 A 
ATOM     59  C   UNL A   1      46.176  28.145  30.616  1.00  0.00     0.049 A 
ATOM     60  H   UNL A   1      44.151  28.394  30.074  1.00  0.00     0.167 HD
ATOM     61  C   UNL A   1      45.541  25.972  29.605  1.00  0.00     0.074 A 
ATOM     62  C   UNL A   1      45.824  24.612  29.193  1.00  0.00     0.031 C 
ATOM     63  C   UNL A   1      46.442  26.794  30.197  1.00  0.00     0.031 A 
BRANCH  50  64
ATOM     64  C   UNL A   1      44.231  32.410  31.518  1.00  0.00    -0.014 A 
ATOM     65  C   UNL A   1      44.653  33.439  30.661  1.00  0.00     0.009 A 
ATOM     66  C   UNL A   1      44.034  32.695  32.877  1.00  0.00     0.009 A 
ATOM     67  C   UNL A   1      44.909  34.717  31.163  1.00  0.00     0.001 A 
ATOM     68  C   UNL A   1      44.267  33.981  33.372  1.00  0.00     0.001 A 
ATOM     69  C   UNL A   1      44.713  34.987  32.516  1.00  0.00     0.000 A 
ENDBRANCH  50  64
BRANCH  51  70
ATOM     70  C   UNL A   1      42.092  23.497  27.596  1.00  0.00    -0.014 A 
ATOM     71  C   UNL A   1      41.613  22.451  28.399  1.00  0.00     0.009 A 
ATOM     72  C   UNL A   1      42.273  23.273  26.223  1.00  0.00     0.009 A 
ATOM     73  C   UNL A   1      41.343  21.199  27.843  1.00  0.00     0.001 A 
ATOM     74  C   UNL A   1      41.980  22.027  25.665  1.00  0.00     0.001 A 
ATOM     75  C   UNL A   1      41.523  20.989  26.477  1.00  0.00     0.000 A 
ENDBRANCH  51  70
BRANCH  63  76
ATOM     76  C   UNL A   1      47.809  26.229  30.455  1.00  0.00    -0.014 A 
ATOM     77  C   UNL A   1      48.167  25.740  31.721  1.00  0.00     0.009 A 
ATOM     78  C   UNL A   1      48.744  26.166  29.410  1.00  0.00     0.009 A 
ATOM     79  C   UNL A   1      49.447  25.232  31.944  1.00  0.00     0.001 A 
ATOM     80  C   UNL A   1      50.015  25.634  29.630  1.00  0.00     0.001 A 
ATOM     81  C   UNL A   1      50.369  25.176  30.898  1.00  0.00     0.000 A 
ENDBRANCH  63  76
ENDBRANCH  37  38
ENDBRANCH  29  32
ENDBRANCH  27  28
ENDBRANCH  26  27
ENDBRANCH   1  26
TORSDOF 14
ENDMDL
