MODEL 1
REMARK VINA RESULT:     -10.3      0.000      0.000
REMARK SMILES CC[C@H]1CC[C@](CC(C)(C)O)(C(=O)NCCCCNC(=O)c2ccc(-c3c4nc(c(-c5ccccc5)c5ccc([nH]5)c(-c5ccccc5)c5nc(c(-c6ccccc6)c6ccc3[nH]6)C=C5)C=C4)cc2)C1
REMARK SMILES IDX 16 1 15 2 14 3 12 4 13 5 6 7 3 8 4 9 70 10 5 11 2 12 1 13
REMARK SMILES IDX 7 14 8 15 9 16 10 17 11 18 17 20 18 21 19 22 20 23 21 25
REMARK SMILES IDX 22 26 23 27 69 28 24 29 68 30 25 31 26 32 27 33 62 34 28 35
REMARK SMILES IDX 67 36 61 37 63 38 29 39 66 40 60 41 59 42 30 44 52 45 37 46
REMARK SMILES IDX 51 47 38 48 41 49 50 50 64 51 39 52 40 53 49 55 65 56 42 57
REMARK SMILES IDX 31 58 32 59 36 60 33 61 35 62 34 63 53 64 54 65 58 66 55 67
REMARK SMILES IDX 57 68 56 69 43 70 44 71 48 72 45 73 47 74 46 75
REMARK H PARENT 14 6 11 19 19 24 63 43 41 54
REMARK Flexibility Score: inf
ROOT
ATOM      1  C   UNL A   1      37.160  21.356  24.618  1.00  0.00     0.023 C 
ENDROOT
BRANCH   1   2
ATOM      2  C   UNL A   1      36.648  22.168  25.809  1.00  0.00     0.116 C 
BRANCH   2   3
ATOM      3  N   UNL A   1      35.501  21.546  26.442  1.00  0.00    -0.356 N 
ATOM      4  C   UNL A   1      34.159  21.655  26.294  1.00  0.00     0.226 C 
ATOM      5  O   UNL A   1      33.510  20.924  27.054  1.00  0.00    -0.274 OA
ATOM      6  H   UNL A   1      35.755  20.898  27.137  1.00  0.00     0.163 HD
BRANCH   4   7
ATOM      7  C   UNL A   1      33.423  22.669  25.381  1.00  0.00     0.052 C 
ATOM      8  C   UNL A   1      33.645  23.428  23.002  1.00  0.00    -0.010 C 
ATOM      9  C   UNL A   1      34.314  24.478  23.882  1.00  0.00     0.005 C 
ATOM     10  C   UNL A   1      33.735  22.200  23.908  1.00  0.00     0.020 C 
ATOM     11  C   UNL A   1      34.001  24.103  25.344  1.00  0.00     0.017 C 
BRANCH   8  12
ATOM     12  C   UNL A   1      32.207  23.794  22.596  1.00  0.00     0.000 C 
ATOM     13  C   UNL A   1      32.035  25.270  22.274  1.00  0.00     0.004 C 
ENDBRANCH   8  12
BRANCH   7  14
ATOM     14  C   UNL A   1      31.861  22.600  25.545  1.00  0.00     0.051 C 
BRANCH  14  15
ATOM     15  C   UNL A   1      31.032  23.489  26.491  1.00  0.00     0.060 C 
ATOM     16  C   UNL A   1      30.520  24.779  25.850  1.00  0.00     0.042 C 
ATOM     17  C   UNL A   1      29.785  22.716  26.956  1.00  0.00     0.042 C 
BRANCH  15  18
ATOM     18  O   UNL A   1      31.735  23.748  27.698  1.00  0.00    -0.390 OA
ATOM     19  H   UNL A   1      32.665  23.933  27.498  1.00  0.00     0.211 HD
ENDBRANCH  15  18
ENDBRANCH  14  15
ENDBRANCH   7  14
ENDBRANCH   4   7
ENDBRANCH   2   3
ENDBRANCH   1   2
BRANCH   1  20
ATOM     20  C   UNL A   1      37.977  20.128  24.976  1.00  0.00     0.023 C 
BRANCH  20  21
ATOM     21  C   UNL A   1      39.134  20.447  25.900  1.00  0.00     0.116 C 
BRANCH  21  22
ATOM     22  N   UNL A   1      40.182  19.429  25.865  1.00  0.00    -0.352 N 
ATOM     23  C   UNL A   1      41.533  19.565  26.084  1.00  0.00     0.251 C 
ATOM     24  H   UNL A   1      39.878  18.517  25.656  1.00  0.00     0.163 HD
ATOM     25  O   UNL A   1      42.305  18.645  25.870  1.00  0.00    -0.269 OA
BRANCH  23  26
ATOM     26  C   UNL A   1      42.027  20.868  26.563  1.00  0.00     0.039 A 
ATOM     27  C   UNL A   1      42.392  21.846  25.639  1.00  0.00     0.014 A 
ATOM     28  C   UNL A   1      42.023  21.136  27.933  1.00  0.00     0.014 A 
ATOM     29  C   UNL A   1      42.680  23.131  26.094  1.00  0.00     0.010 A 
ATOM     30  C   UNL A   1      42.178  22.439  28.365  1.00  0.00     0.010 A 
ATOM     31  C   UNL A   1      42.532  23.445  27.455  1.00  0.00    -0.014 A 
BRANCH  31  32
ATOM     32  C   UNL A   1      42.780  24.807  27.976  1.00  0.00     0.031 A 
ATOM     33  C   UNL A   1      44.175  25.185  28.395  1.00  0.00     0.074 A 
ATOM     34  C   UNL A   1      41.752  25.655  28.164  1.00  0.00     0.049 A 
ATOM     35  N   UNL A   1      44.594  26.272  28.988  1.00  0.00    -0.248 NA
ATOM     36  C   UNL A   1      45.233  24.183  28.164  1.00  0.00     0.031 C 
ATOM     37  C   UNL A   1      40.345  25.375  27.861  1.00  0.00     0.029 A 
ATOM     38  N   UNL A   1      41.733  26.931  28.667  1.00  0.00    -0.354 N 
ATOM     39  C   UNL A   1      45.945  26.062  29.239  1.00  0.00     0.074 A 
ATOM     40  C   UNL A   1      46.261  24.724  28.795  1.00  0.00     0.031 C 
ATOM     41  C   UNL A   1      39.609  26.461  28.148  1.00  0.00     0.029 A 
ATOM     42  C   UNL A   1      40.481  27.496  28.690  1.00  0.00     0.049 A 
ATOM     43  H   UNL A   1      42.541  27.398  28.981  1.00  0.00     0.167 HD
ATOM     44  C   UNL A   1      46.851  26.919  29.762  1.00  0.00     0.031 A 
ATOM     45  C   UNL A   1      40.087  28.714  29.103  1.00  0.00     0.031 A 
ATOM     46  C   UNL A   1      46.540  28.266  30.146  1.00  0.00     0.049 A 
ATOM     47  C   UNL A   1      41.121  29.668  29.633  1.00  0.00     0.074 A 
ATOM     48  C   UNL A   1      47.395  29.253  30.600  1.00  0.00     0.029 A 
ATOM     49  N   UNL A   1      45.269  28.819  30.105  1.00  0.00    -0.354 N 
ATOM     50  N   UNL A   1      42.411  29.485  29.790  1.00  0.00    -0.248 NA
ATOM     51  C   UNL A   1      40.648  31.002  30.029  1.00  0.00     0.031 C 
ATOM     52  C   UNL A   1      46.634  30.394  30.871  1.00  0.00     0.029 A 
ATOM     53  C   UNL A   1      45.313  30.130  30.541  1.00  0.00     0.049 A 
ATOM     54  H   UNL A   1      44.457  28.347  29.810  1.00  0.00     0.167 HD
ATOM     55  C   UNL A   1      42.907  30.686  30.279  1.00  0.00     0.074 A 
ATOM     56  C   UNL A   1      41.782  31.595  30.375  1.00  0.00     0.031 C 
ATOM     57  C   UNL A   1      44.177  31.011  30.620  1.00  0.00     0.031 A 
BRANCH  44  58
ATOM     58  C   UNL A   1      48.257  26.419  29.934  1.00  0.00    -0.014 A 
ATOM     59  C   UNL A   1      48.669  25.795  31.123  1.00  0.00     0.009 A 
ATOM     60  C   UNL A   1      49.182  26.568  28.891  1.00  0.00     0.009 A 
ATOM     61  C   UNL A   1      49.990  25.369  31.280  1.00  0.00     0.001 A 
ATOM     62  C   UNL A   1      50.494  26.113  29.038  1.00  0.00     0.001 A 
ATOM     63  C   UNL A   1      50.900  25.525  30.235  1.00  0.00     0.000 A 
ENDBRANCH  44  58
BRANCH  45  64
ATOM     64  C   UNL A   1      38.660  29.114  29.001  1.00  0.00    -0.014 A 
ATOM     65  C   UNL A   1      38.142  29.589  27.786  1.00  0.00     0.009 A 
ATOM     66  C   UNL A   1      37.807  29.025  30.113  1.00  0.00     0.009 A 
ATOM     67  C   UNL A   1      36.809  29.995  27.693  1.00  0.00     0.001 A 
ATOM     68  C   UNL A   1      36.466  29.406  30.010  1.00  0.00     0.001 A 
ATOM     69  C   UNL A   1      35.972  29.899  28.804  1.00  0.00     0.000 A 
ENDBRANCH  45  64
BRANCH  57  70
ATOM     70  C   UNL A   1      44.420  32.413  31.095  1.00  0.00    -0.014 A 
ATOM     71  C   UNL A   1      44.362  32.736  32.460  1.00  0.00     0.009 A 
ATOM     72  C   UNL A   1      44.764  33.409  30.169  1.00  0.00     0.009 A 
ATOM     73  C   UNL A   1      44.614  34.041  32.882  1.00  0.00     0.001 A 
ATOM     74  C   UNL A   1      45.042  34.706  30.599  1.00  0.00     0.001 A 
ATOM     75  C   UNL A   1      44.959  35.023  31.953  1.00  0.00     0.000 A 
ENDBRANCH  57  70
ENDBRANCH  31  32
ENDBRANCH  23  26
ENDBRANCH  21  22
ENDBRANCH  20  21
ENDBRANCH   1  20
TORSDOF 15
ENDMDL
MODEL 2
REMARK VINA RESULT:     -10.2      2.804      4.301
REMARK SMILES CC[C@H]1CC[C@](CC(C)(C)O)(C(=O)NCCCCNC(=O)c2ccc(-c3c4nc(c(-c5ccccc5)c5ccc([nH]5)c(-c5ccccc5)c5nc(c(-c6ccccc6)c6ccc3[nH]6)C=C5)C=C4)cc2)C1
REMARK SMILES IDX 16 1 15 2 14 3 12 4 13 5 6 7 3 8 4 9 70 10 5 11 2 12 1 13
REMARK SMILES IDX 7 14 8 15 9 16 10 17 11 18 17 20 18 21 19 22 20 23 21 25
REMARK SMILES IDX 22 26 23 27 69 28 24 29 68 30 25 31 26 32 27 33 62 34 28 35
REMARK SMILES IDX 67 36 61 37 63 38 29 39 66 40 60 41 59 42 30 44 52 45 37 46
REMARK SMILES IDX 51 47 38 48 41 49 50 50 64 51 39 52 40 53 49 55 65 56 42 57
REMARK SMILES IDX 31 58 32 59 36 60 33 61 35 62 34 63 53 64 54 65 58 66 55 67
REMARK SMILES IDX 57 68 56 69 43 70 44 71 48 72 45 73 47 74 46 75
REMARK H PARENT 14 6 11 19 19 24 63 43 41 54
REMARK Flexibility Score: inf
ROOT
ATOM      1  C   UNL A   1      35.122  23.621  24.005  1.00  0.00     0.023 C 
ENDROOT
BRANCH   1   2
ATOM      2  C   UNL A   1      33.737  23.904  23.419  1.00  0.00     0.116 C 
BRANCH   2   3
ATOM      3  N   UNL A   1      33.751  25.028  22.502  1.00  0.00    -0.356 N 
ATOM      4  C   UNL A   1      33.480  26.350  22.615  1.00  0.00     0.226 C 
ATOM      5  O   UNL A   1      33.619  26.981  21.559  1.00  0.00    -0.274 OA
ATOM      6  H   UNL A   1      34.018  24.771  21.590  1.00  0.00     0.163 HD
BRANCH   4   7
ATOM      7  C   UNL A   1      32.915  27.059  23.872  1.00  0.00     0.052 C 
ATOM      8  C   UNL A   1      33.551  27.190  26.294  1.00  0.00    -0.010 C 
ATOM      9  C   UNL A   1      32.418  26.178  26.172  1.00  0.00     0.005 C 
ATOM     10  C   UNL A   1      34.126  27.142  24.878  1.00  0.00     0.020 C 
ATOM     11  C   UNL A   1      31.905  26.250  24.720  1.00  0.00     0.017 C 
BRANCH   8  12
ATOM     12  C   UNL A   1      33.078  28.590  26.723  1.00  0.00     0.000 C 
ATOM     13  C   UNL A   1      34.226  29.552  26.986  1.00  0.00     0.004 C 
ENDBRANCH   8  12
BRANCH   7  14
ATOM     14  C   UNL A   1      32.480  28.541  23.580  1.00  0.00     0.051 C 
BRANCH  14  15
ATOM     15  C   UNL A   1      31.146  28.960  22.933  1.00  0.00     0.060 C 
ATOM     16  C   UNL A   1      30.254  27.788  22.522  1.00  0.00     0.042 C 
ATOM     17  C   UNL A   1      30.329  29.789  23.940  1.00  0.00     0.042 C 
BRANCH  15  18
ATOM     18  O   UNL A   1      31.359  29.858  21.853  1.00  0.00    -0.390 OA
ATOM     19  H   UNL A   1      30.811  30.648  21.977  1.00  0.00     0.211 HD
ENDBRANCH  15  18
ENDBRANCH  14  15
ENDBRANCH   7  14
ENDBRANCH   4   7
ENDBRANCH   2   3
ENDBRANCH   1   2
BRANCH   1  20
ATOM     20  C   UNL A   1      35.192  23.611  25.521  1.00  0.00     0.023 C 
BRANCH  20  21
ATOM     21  C   UNL A   1      36.568  23.968  26.043  1.00  0.00     0.116 C 
BRANCH  21  22
ATOM     22  N   UNL A   1      37.499  22.842  25.997  1.00  0.00    -0.352 N 
ATOM     23  C   UNL A   1      38.846  22.816  26.277  1.00  0.00     0.251 C 
ATOM     24  H   UNL A   1      37.107  21.981  25.728  1.00  0.00     0.163 HD
ATOM     25  O   UNL A   1      39.521  21.828  26.046  1.00  0.00    -0.269 OA
BRANCH  23  26
ATOM     26  C   UNL A   1      39.456  24.032  26.844  1.00  0.00     0.039 A 
ATOM     27  C   UNL A   1      40.078  24.948  25.996  1.00  0.00     0.014 A 
ATOM     28  C   UNL A   1      39.310  24.295  28.207  1.00  0.00     0.014 A 
ATOM     29  C   UNL A   1      40.487  26.176  26.512  1.00  0.00     0.010 A 
ATOM     30  C   UNL A   1      39.595  25.560  28.683  1.00  0.00     0.010 A 
ATOM     31  C   UNL A   1      40.208  26.505  27.848  1.00  0.00    -0.014 A 
BRANCH  31  32
ATOM     32  C   UNL A   1      40.581  27.815  28.427  1.00  0.00     0.031 A 
ATOM     33  C   UNL A   1      41.991  28.026  28.905  1.00  0.00     0.074 A 
ATOM     34  C   UNL A   1      39.642  28.763  28.610  1.00  0.00     0.049 A 
ATOM     35  N   UNL A   1      42.501  29.042  29.551  1.00  0.00    -0.248 NA
ATOM     36  C   UNL A   1      42.944  26.925  28.674  1.00  0.00     0.031 C 
ATOM     37  C   UNL A   1      38.226  28.645  28.250  1.00  0.00     0.029 A 
ATOM     38  N   UNL A   1      39.741  30.016  29.158  1.00  0.00    -0.354 N 
ATOM     39  C   UNL A   1      43.812  28.680  29.839  1.00  0.00     0.074 A 
ATOM     40  C   UNL A   1      44.000  27.331  29.359  1.00  0.00     0.031 C 
ATOM     41  C   UNL A   1      37.599  29.795  28.551  1.00  0.00     0.029 A 
ATOM     42  C   UNL A   1      38.557  30.711  29.159  1.00  0.00     0.049 A 
ATOM     43  H   UNL A   1      40.582  30.383  29.516  1.00  0.00     0.167 HD
ATOM     44  C   UNL A   1      44.784  29.416  30.423  1.00  0.00     0.031 A 
ATOM     45  C   UNL A   1      38.280  31.951  29.602  1.00  0.00     0.031 A 
ATOM     46  C   UNL A   1      44.604  30.777  30.845  1.00  0.00     0.049 A 
ATOM     47  C   UNL A   1      39.389  32.771  30.201  1.00  0.00     0.074 A 
ATOM     48  C   UNL A   1      45.542  31.650  31.362  1.00  0.00     0.029 A 
ATOM     49  N   UNL A   1      43.402  31.464  30.781  1.00  0.00    -0.354 N 
ATOM     50  N   UNL A   1      40.645  32.445  30.394  1.00  0.00    -0.248 NA
ATOM     51  C   UNL A   1      39.046  34.135  30.628  1.00  0.00     0.031 C 
ATOM     52  C   UNL A   1      44.897  32.857  31.649  1.00  0.00     0.029 A 
ATOM     53  C   UNL A   1      43.569  32.748  31.265  1.00  0.00     0.049 A 
ATOM     54  H   UNL A   1      42.555  31.093  30.442  1.00  0.00     0.167 HD
ATOM     55  C   UNL A   1      41.248  33.569  30.942  1.00  0.00     0.074 A 
ATOM     56  C   UNL A   1      40.223  34.590  31.033  1.00  0.00     0.031 C 
ATOM     57  C   UNL A   1      42.531  33.744  31.337  1.00  0.00     0.031 A 
BRANCH  44  58
ATOM     58  C   UNL A   1      46.121  28.763  30.624  1.00  0.00    -0.014 A 
ATOM     59  C   UNL A   1      46.425  28.072  31.809  1.00  0.00     0.009 A 
ATOM     60  C   UNL A   1      47.090  28.832  29.613  1.00  0.00     0.009 A 
ATOM     61  C   UNL A   1      47.686  27.502  31.995  1.00  0.00     0.001 A 
ATOM     62  C   UNL A   1      48.339  28.233  29.787  1.00  0.00     0.001 A 
ATOM     63  C   UNL A   1      48.641  27.580  30.981  1.00  0.00     0.000 A 
ENDBRANCH  44  58
BRANCH  45  64
ATOM     64  C   UNL A   1      36.907  32.506  29.467  1.00  0.00    -0.014 A 
ATOM     65  C   UNL A   1      35.983  32.374  30.514  1.00  0.00     0.009 A 
ATOM     66  C   UNL A   1      36.513  33.168  28.293  1.00  0.00     0.009 A 
ATOM     67  C   UNL A   1      34.683  32.867  30.379  1.00  0.00     0.001 A 
ATOM     68  C   UNL A   1      35.220  33.684  28.172  1.00  0.00     0.001 A 
ATOM     69  C   UNL A   1      34.304  33.525  29.210  1.00  0.00     0.000 A 
ENDBRANCH  45  64
BRANCH  57  70
ATOM     70  C   UNL A   1      42.905  35.095  31.871  1.00  0.00    -0.014 A 
ATOM     71  C   UNL A   1      42.730  35.413  33.226  1.00  0.00     0.009 A 
ATOM     72  C   UNL A   1      43.489  36.041  31.014  1.00  0.00     0.009 A 
ATOM     73  C   UNL A   1      43.105  36.668  33.706  1.00  0.00     0.001 A 
ATOM     74  C   UNL A   1      43.888  37.284  31.504  1.00  0.00     0.001 A 
ATOM     75  C   UNL A   1      43.688  37.600  32.847  1.00  0.00     0.000 A 
ENDBRANCH  57  70
ENDBRANCH  31  32
ENDBRANCH  23  26
ENDBRANCH  21  22
ENDBRANCH  20  21
ENDBRANCH   1  20
TORSDOF 15
ENDMDL
MODEL 3
REMARK VINA RESULT:     -10.1      4.534      9.523
REMARK SMILES CC[C@H]1CC[C@](CC(C)(C)O)(C(=O)NCCCCNC(=O)c2ccc(-c3c4nc(c(-c5ccccc5)c5ccc([nH]5)c(-c5ccccc5)c5nc(c(-c6ccccc6)c6ccc3[nH]6)C=C5)C=C4)cc2)C1
REMARK SMILES IDX 16 1 15 2 14 3 12 4 13 5 6 7 3 8 4 9 70 10 5 11 2 12 1 13
REMARK SMILES IDX 7 14 8 15 9 16 10 17 11 18 17 20 18 21 19 22 20 23 21 25
REMARK SMILES IDX 22 26 23 27 69 28 24 29 68 30 25 31 26 32 27 33 62 34 28 35
REMARK SMILES IDX 67 36 61 37 63 38 29 39 66 40 60 41 59 42 30 44 52 45 37 46
REMARK SMILES IDX 51 47 38 48 41 49 50 50 64 51 39 52 40 53 49 55 65 56 42 57
REMARK SMILES IDX 31 58 32 59 36 60 33 61 35 62 34 63 53 64 54 65 58 66 55 67
REMARK SMILES IDX 57 68 56 69 43 70 44 71 48 72 45 73 47 74 46 75
REMARK H PARENT 14 6 11 19 19 24 63 43 41 54
REMARK Flexibility Score: inf
ROOT
ATOM      1  C   UNL A   1      31.784  30.483  26.715  1.00  0.00     0.023 C 
ENDROOT
BRANCH   1   2
ATOM      2  C   UNL A   1      32.302  29.990  25.363  1.00  0.00     0.116 C 
BRANCH   2   3
ATOM      3  N   UNL A   1      31.251  29.922  24.366  1.00  0.00    -0.356 N 
ATOM      4  C   UNL A   1      30.632  28.915  23.703  1.00  0.00     0.226 C 
ATOM      5  O   UNL A   1      29.760  29.297  22.913  1.00  0.00    -0.274 OA
ATOM      6  H   UNL A   1      30.908  30.809  24.114  1.00  0.00     0.163 HD
BRANCH   4   7
ATOM      7  C   UNL A   1      31.013  27.414  23.770  1.00  0.00     0.052 C 
ATOM      8  C   UNL A   1      29.954  25.336  24.691  1.00  0.00    -0.010 C 
ATOM      9  C   UNL A   1      31.003  25.800  25.695  1.00  0.00     0.005 C 
ATOM     10  C   UNL A   1      29.648  26.651  23.974  1.00  0.00     0.020 C 
ATOM     11  C   UNL A   1      31.779  26.955  25.033  1.00  0.00     0.017 C 
BRANCH   8  12
ATOM     12  C   UNL A   1      30.453  24.222  23.753  1.00  0.00     0.000 C 
ATOM     13  C   UNL A   1      31.323  23.194  24.459  1.00  0.00     0.004 C 
ENDBRANCH   8  12
BRANCH   7  14
ATOM     14  C   UNL A   1      31.614  26.888  22.416  1.00  0.00     0.051 C 
BRANCH  14  15
ATOM     15  C   UNL A   1      33.116  26.842  22.075  1.00  0.00     0.060 C 
ATOM     16  C   UNL A   1      33.892  28.091  22.495  1.00  0.00     0.042 C 
ATOM     17  C   UNL A   1      33.771  25.661  22.812  1.00  0.00     0.042 C 
BRANCH  15  18
ATOM     18  O   UNL A   1      33.320  26.536  20.703  1.00  0.00    -0.390 OA
ATOM     19  H   UNL A   1      33.906  27.200  20.307  1.00  0.00     0.211 HD
ENDBRANCH  15  18
ENDBRANCH  14  15
ENDBRANCH   7  14
ENDBRANCH   4   7
ENDBRANCH   2   3
ENDBRANCH   1   2
BRANCH   1  20
ATOM     20  C   UNL A   1      31.539  31.978  26.807  1.00  0.00     0.023 C 
BRANCH  20  21
ATOM     21  C   UNL A   1      32.759  32.741  27.277  1.00  0.00     0.116 C 
BRANCH  21  22
ATOM     22  N   UNL A   1      32.455  34.124  27.643  1.00  0.00    -0.352 N 
ATOM     23  C   UNL A   1      33.031  34.914  28.610  1.00  0.00     0.251 C 
ATOM     24  H   UNL A   1      31.737  34.549  27.123  1.00  0.00     0.163 HD
ATOM     25  O   UNL A   1      32.564  36.002  28.899  1.00  0.00    -0.269 OA
BRANCH  23  26
ATOM     26  C   UNL A   1      34.220  34.393  29.308  1.00  0.00     0.039 A 
ATOM     27  C   UNL A   1      34.060  33.663  30.485  1.00  0.00     0.014 A 
ATOM     28  C   UNL A   1      35.477  34.552  28.723  1.00  0.00     0.014 A 
ATOM     29  C   UNL A   1      35.167  33.020  31.036  1.00  0.00     0.010 A 
ATOM     30  C   UNL A   1      36.540  33.806  29.197  1.00  0.00     0.010 A 
ATOM     31  C   UNL A   1      36.403  33.052  30.371  1.00  0.00    -0.014 A 
BRANCH  31  32
ATOM     32  C   UNL A   1      37.593  32.346  30.893  1.00  0.00     0.031 A 
ATOM     33  C   UNL A   1      38.272  32.874  32.127  1.00  0.00     0.074 A 
ATOM     34  C   UNL A   1      38.114  31.307  30.213  1.00  0.00     0.049 A 
ATOM     35  N   UNL A   1      39.391  32.489  32.684  1.00  0.00    -0.248 NA
ATOM     36  C   UNL A   1      37.636  34.025  32.795  1.00  0.00     0.031 C 
ATOM     37  C   UNL A   1      37.583  30.750  28.965  1.00  0.00     0.029 A 
ATOM     38  N   UNL A   1      39.218  30.537  30.474  1.00  0.00    -0.354 N 
ATOM     39  C   UNL A   1      39.609  33.376  33.731  1.00  0.00     0.074 A 
ATOM     40  C   UNL A   1      38.549  34.356  33.694  1.00  0.00     0.031 C 
ATOM     41  C   UNL A   1      38.339  29.704  28.594  1.00  0.00     0.029 A 
ATOM     42  C   UNL A   1      39.428  29.543  29.551  1.00  0.00     0.049 A 
ATOM     43  H   UNL A   1      39.804  30.684  31.252  1.00  0.00     0.167 HD
ATOM     44  C   UNL A   1      40.590  33.360  34.663  1.00  0.00     0.031 A 
ATOM     45  C   UNL A   1      40.392  28.607  29.488  1.00  0.00     0.031 A 
ATOM     46  C   UNL A   1      41.606  32.348  34.727  1.00  0.00     0.049 A 
ATOM     47  C   UNL A   1      41.441  28.576  30.565  1.00  0.00     0.074 A 
ATOM     48  C   UNL A   1      42.593  32.177  35.681  1.00  0.00     0.029 A 
ATOM     49  N   UNL A   1      41.754  31.326  33.803  1.00  0.00    -0.354 N 
ATOM     50  N   UNL A   1      41.590  29.372  31.596  1.00  0.00    -0.248 NA
ATOM     51  C   UNL A   1      42.446  27.507  30.477  1.00  0.00     0.031 C 
ATOM     52  C   UNL A   1      43.364  31.071  35.310  1.00  0.00     0.029 A 
ATOM     53  C   UNL A   1      42.827  30.527  34.153  1.00  0.00     0.049 A 
ATOM     54  H   UNL A   1      41.181  31.190  33.014  1.00  0.00     0.167 HD
ATOM     55  C   UNL A   1      42.689  28.888  32.293  1.00  0.00     0.074 A 
ATOM     56  C   UNL A   1      43.156  27.719  31.576  1.00  0.00     0.031 C 
ATOM     57  C   UNL A   1      43.263  29.366  33.423  1.00  0.00     0.031 A 
BRANCH  44  58
ATOM     58  C   UNL A   1      40.592  34.461  35.684  1.00  0.00    -0.014 A 
ATOM     59  C   UNL A   1      41.396  35.602  35.525  1.00  0.00     0.009 A 
ATOM     60  C   UNL A   1      39.775  34.360  36.820  1.00  0.00     0.009 A 
ATOM     61  C   UNL A   1      41.414  36.599  36.503  1.00  0.00     0.001 A 
ATOM     62  C   UNL A   1      39.771  35.373  37.781  1.00  0.00     0.001 A 
ATOM     63  C   UNL A   1      40.598  36.485  37.628  1.00  0.00     0.000 A 
ENDBRANCH  44  58
BRANCH  45  64
ATOM     64  C   UNL A   1      40.393  27.604  28.392  1.00  0.00    -0.014 A 
ATOM     65  C   UNL A   1      41.096  27.854  27.203  1.00  0.00     0.009 A 
ATOM     66  C   UNL A   1      39.692  26.395  28.523  1.00  0.00     0.009 A 
ATOM     67  C   UNL A   1      41.074  26.928  26.158  1.00  0.00     0.001 A 
ATOM     68  C   UNL A   1      39.695  25.458  27.487  1.00  0.00     0.001 A 
ATOM     69  C   UNL A   1      40.377  25.729  26.302  1.00  0.00     0.000 A 
ENDBRANCH  45  64
BRANCH  57  70
ATOM     70  C   UNL A   1      44.436  28.606  33.968  1.00  0.00    -0.014 A 
ATOM     71  C   UNL A   1      45.749  28.936  33.600  1.00  0.00     0.009 A 
ATOM     72  C   UNL A   1      44.223  27.582  34.903  1.00  0.00     0.009 A 
ATOM     73  C   UNL A   1      46.826  28.231  34.137  1.00  0.00     0.001 A 
ATOM     74  C   UNL A   1      45.304  26.898  35.458  1.00  0.00     0.001 A 
ATOM     75  C   UNL A   1      46.604  27.217  35.069  1.00  0.00     0.000 A 
ENDBRANCH  57  70
ENDBRANCH  31  32
ENDBRANCH  23  26
ENDBRANCH  21  22
ENDBRANCH  20  21
ENDBRANCH   1  20
TORSDOF 15
ENDMDL
