MODEL 1
REMARK VINA RESULT:     -11.7      0.000      0.000
REMARK SMILES O=C(Cc1cccn1-c1ccc2c(c1)OCCO2)NCCCCNC(=O)c1ccc(-c2c3nc(c(-c4ccccc4)c4ccc([nH]4)c(-c4ccccc4)c4nc(c(-c5ccccc5)c5ccc2[nH]5)C=C4)C=C3)cc1
REMARK SMILES IDX 21 1 20 2 19 3 1 4 2 5 3 7 4 8 5 9 8 10 6 11 7 12 9 13 10 14
REMARK SMILES IDX 14 15 11 16 13 17 12 18 15 19 18 20 16 21 17 22 22 23 23 24
REMARK SMILES IDX 24 25 25 26 26 28 27 29 28 30 74 31 29 32 73 33 30 34 31 35
REMARK SMILES IDX 32 36 67 37 33 38 72 39 66 40 68 41 34 42 71 43 65 44 64 45
REMARK SMILES IDX 35 47 57 48 42 49 56 50 43 51 46 52 55 53 69 54 44 55 45 56
REMARK SMILES IDX 54 58 70 59 47 60 36 61 37 62 41 63 38 64 40 65 39 66 58 67
REMARK SMILES IDX 59 68 63 69 60 70 62 71 61 72 48 73 49 74 53 75 50 76 52 77
REMARK SMILES IDX 51 78
REMARK H PARENT 19 6 24 27 68 46 46 57
REMARK Flexibility Score: inf
ROOT
ATOM      1  C   UNL A   1      46.034  20.646  37.256  1.00  0.00     0.023 C 
ENDROOT
BRANCH   1   2
ATOM      2  C   UNL A   1      45.993  19.145  36.967  1.00  0.00     0.116 C 
BRANCH   2   3
ATOM      3  N   UNL A   1      46.193  18.363  38.168  1.00  0.00    -0.356 N 
ATOM      4  O   UNL A   1      44.132  17.354  38.177  1.00  0.00    -0.275 OA
ATOM      5  C   UNL A   1      45.234  17.520  38.690  1.00  0.00     0.225 C 
ATOM      6  H   UNL A   1      47.056  18.438  38.636  1.00  0.00     0.163 HD
BRANCH   5   7
ATOM      7  C   UNL A   1      45.635  16.859  40.001  1.00  0.00     0.154 C 
BRANCH   7   8
ATOM      8  C   UNL A   1      45.165  17.643  41.197  1.00  0.00     0.032 A 
ATOM      9  C   UNL A   1      45.564  18.910  41.601  1.00  0.00     0.024 A 
ATOM     10  N   UNL A   1      44.097  17.266  42.005  1.00  0.00    -0.320 N 
ATOM     11  C   UNL A   1      44.733  19.318  42.662  1.00  0.00     0.020 A 
ATOM     12  C   UNL A   1      43.817  18.313  42.861  1.00  0.00     0.091 A 
BRANCH  10  13
ATOM     13  C   UNL A   1      43.352  16.062  41.965  1.00  0.00     0.049 A 
ATOM     14  C   UNL A   1      42.538  15.799  40.855  1.00  0.00     0.031 A 
ATOM     15  C   UNL A   1      43.412  15.158  43.029  1.00  0.00     0.077 A 
ATOM     16  C   UNL A   1      41.813  14.607  40.794  1.00  0.00     0.052 A 
ATOM     17  C   UNL A   1      42.662  13.984  42.973  1.00  0.00     0.163 A 
ATOM     18  C   UNL A   1      41.863  13.710  41.859  1.00  0.00     0.161 A 
ATOM     19  O   UNL A   1      42.740  13.155  44.064  1.00  0.00    -0.486 OA
ATOM     20  O   UNL A   1      41.098  12.577  41.743  1.00  0.00    -0.486 OA
ATOM     21  C   UNL A   1      42.222  11.854  43.774  1.00  0.00     0.271 C 
ATOM     22  C   UNL A   1      40.909  11.947  43.015  1.00  0.00     0.271 C 
ENDBRANCH  10  13
ENDBRANCH   7   8
ENDBRANCH   5   7
ENDBRANCH   2   3
ENDBRANCH   1   2
BRANCH   1  23
ATOM     23  C   UNL A   1      46.189  21.547  36.020  1.00  0.00     0.023 C 
BRANCH  23  24
ATOM     24  C   UNL A   1      44.889  22.192  35.545  1.00  0.00     0.116 C 
BRANCH  24  25
ATOM     25  N   UNL A   1      44.630  23.438  36.244  1.00  0.00    -0.352 N 
ATOM     26  C   UNL A   1      44.837  24.730  35.826  1.00  0.00     0.251 C 
ATOM     27  H   UNL A   1      44.251  23.344  37.147  1.00  0.00     0.163 HD
ATOM     28  O   UNL A   1      44.956  25.620  36.656  1.00  0.00    -0.269 OA
BRANCH  26  29
ATOM     29  C   UNL A   1      44.902  25.067  34.387  1.00  0.00     0.039 A 
ATOM     30  C   UNL A   1      46.089  24.792  33.692  1.00  0.00     0.014 A 
ATOM     31  C   UNL A   1      43.860  25.755  33.757  1.00  0.00     0.014 A 
ATOM     32  C   UNL A   1      46.213  25.171  32.360  1.00  0.00     0.010 A 
ATOM     33  C   UNL A   1      43.964  26.105  32.420  1.00  0.00     0.010 A 
ATOM     34  C   UNL A   1      45.139  25.809  31.726  1.00  0.00    -0.014 A 
BRANCH  34  35
ATOM     35  C   UNL A   1      45.172  26.008  30.265  1.00  0.00     0.031 A 
ATOM     36  C   UNL A   1      44.635  24.745  29.536  1.00  0.00     0.074 A 
ATOM     37  C   UNL A   1      45.647  27.224  29.839  1.00  0.00     0.049 A 
ATOM     38  N   UNL A   1      44.804  24.355  28.314  1.00  0.00    -0.248 NA
ATOM     39  C   UNL A   1      43.810  23.744  30.283  1.00  0.00     0.031 C 
ATOM     40  C   UNL A   1      46.052  28.343  30.733  1.00  0.00     0.029 A 
ATOM     41  N   UNL A   1      45.886  27.792  28.604  1.00  0.00    -0.354 N 
ATOM     42  C   UNL A   1      44.008  23.203  28.092  1.00  0.00     0.074 A 
ATOM     43  C   UNL A   1      43.475  22.832  29.365  1.00  0.00     0.031 C 
ATOM     44  C   UNL A   1      46.564  29.378  30.029  1.00  0.00     0.029 A 
ATOM     45  C   UNL A   1      46.543  29.057  28.617  1.00  0.00     0.049 A 
ATOM     46  H   UNL A   1      45.620  27.350  27.765  1.00  0.00     0.167 HD
ATOM     47  C   UNL A   1      43.756  22.711  26.840  1.00  0.00     0.031 A 
ATOM     48  C   UNL A   1      47.080  29.760  27.568  1.00  0.00     0.031 A 
ATOM     49  C   UNL A   1      44.516  23.441  25.885  1.00  0.00     0.049 A 
ATOM     50  C   UNL A   1      46.673  29.016  26.371  1.00  0.00     0.074 A 
ATOM     51  C   UNL A   1      45.859  23.465  25.619  1.00  0.00     0.029 A 
ATOM     52  N   UNL A   1      43.924  24.571  25.377  1.00  0.00    -0.354 N 
ATOM     53  N   UNL A   1      45.472  29.002  25.886  1.00  0.00    -0.248 NA
ATOM     54  C   UNL A   1      47.651  28.139  25.719  1.00  0.00     0.031 C 
ATOM     55  C   UNL A   1      46.109  24.845  25.484  1.00  0.00     0.029 A 
ATOM     56  C   UNL A   1      44.897  25.536  25.354  1.00  0.00     0.049 A 
ATOM     57  H   UNL A   1      42.988  24.669  25.089  1.00  0.00     0.167 HD
ATOM     58  C   UNL A   1      45.469  27.830  25.176  1.00  0.00     0.074 A 
ATOM     59  C   UNL A   1      46.850  27.552  24.833  1.00  0.00     0.031 C 
ATOM     60  C   UNL A   1      44.489  26.915  25.397  1.00  0.00     0.031 A 
BRANCH  47  61
ATOM     61  C   UNL A   1      42.717  21.776  26.282  1.00  0.00    -0.014 A 
ATOM     62  C   UNL A   1      41.359  22.090  26.556  1.00  0.00     0.009 A 
ATOM     63  C   UNL A   1      42.998  20.475  25.861  1.00  0.00     0.009 A 
ATOM     64  C   UNL A   1      40.360  21.117  26.572  1.00  0.00     0.001 A 
ATOM     65  C   UNL A   1      41.982  19.503  25.834  1.00  0.00     0.001 A 
ATOM     66  C   UNL A   1      40.680  19.812  26.232  1.00  0.00     0.000 A 
ENDBRANCH  47  61
BRANCH  48  67
ATOM     67  C   UNL A   1      47.994  30.936  27.307  1.00  0.00    -0.014 A 
ATOM     68  C   UNL A   1      49.390  30.923  27.292  1.00  0.00     0.009 A 
ATOM     69  C   UNL A   1      47.399  32.184  26.954  1.00  0.00     0.009 A 
ATOM     70  C   UNL A   1      50.123  32.048  26.840  1.00  0.00     0.001 A 
ATOM     71  C   UNL A   1      48.111  33.278  26.455  1.00  0.00     0.001 A 
ATOM     72  C   UNL A   1      49.485  33.202  26.380  1.00  0.00     0.000 A 
ENDBRANCH  48  67
BRANCH  60  73
ATOM     73  C   UNL A   1      43.217  27.453  26.053  1.00  0.00    -0.014 A 
ATOM     74  C   UNL A   1      42.833  26.981  27.321  1.00  0.00     0.009 A 
ATOM     75  C   UNL A   1      42.314  28.317  25.404  1.00  0.00     0.009 A 
ATOM     76  C   UNL A   1      41.597  27.320  27.892  1.00  0.00     0.001 A 
ATOM     77  C   UNL A   1      41.075  28.662  25.974  1.00  0.00     0.001 A 
ATOM     78  C   UNL A   1      40.715  28.157  27.218  1.00  0.00     0.000 A 
ENDBRANCH  60  73
ENDBRANCH  34  35
ENDBRANCH  26  29
ENDBRANCH  24  25
ENDBRANCH  23  24
ENDBRANCH   1  23
TORSDOF 13
ENDMDL
MODEL 2
REMARK VINA RESULT:     -11.7     10.041     16.188
REMARK SMILES O=C(Cc1cccn1-c1ccc2c(c1)OCCO2)NCCCCNC(=O)c1ccc(-c2c3nc(c(-c4ccccc4)c4ccc([nH]4)c(-c4ccccc4)c4nc(c(-c5ccccc5)c5ccc2[nH]5)C=C4)C=C3)cc1
REMARK SMILES IDX 21 1 20 2 19 3 1 4 2 5 3 7 4 8 5 9 8 10 6 11 7 12 9 13 10 14
REMARK SMILES IDX 14 15 11 16 13 17 12 18 15 19 18 20 16 21 17 22 22 23 23 24
REMARK SMILES IDX 24 25 25 26 26 28 27 29 28 30 74 31 29 32 73 33 30 34 31 35
REMARK SMILES IDX 32 36 67 37 33 38 72 39 66 40 68 41 34 42 71 43 65 44 64 45
REMARK SMILES IDX 35 47 57 48 42 49 56 50 43 51 46 52 55 53 69 54 44 55 45 56
REMARK SMILES IDX 54 58 70 59 47 60 36 61 37 62 41 63 38 64 40 65 39 66 58 67
REMARK SMILES IDX 59 68 63 69 60 70 62 71 61 72 48 73 49 74 53 75 50 76 52 77
REMARK SMILES IDX 51 78
REMARK H PARENT 19 6 24 27 68 46 46 57
REMARK Flexibility Score: inf
ROOT
ATOM      1  C   UNL A   1      31.328  30.796  26.102  1.00  0.00     0.023 C 
ENDROOT
BRANCH   1   2
ATOM      2  C   UNL A   1      32.266  29.886  26.895  1.00  0.00     0.116 C 
BRANCH   2   3
ATOM      3  N   UNL A   1      31.987  28.488  26.652  1.00  0.00    -0.356 N 
ATOM      4  O   UNL A   1      34.171  27.794  26.537  1.00  0.00    -0.275 OA
ATOM      5  C   UNL A   1      32.972  27.537  26.486  1.00  0.00     0.225 C 
ATOM      6  H   UNL A   1      31.046  28.200  26.602  1.00  0.00     0.163 HD
BRANCH   5   7
ATOM      7  C   UNL A   1      32.447  26.146  26.165  1.00  0.00     0.154 C 
BRANCH   7   8
ATOM      8  C   UNL A   1      32.928  25.654  24.827  1.00  0.00     0.032 A 
ATOM      9  C   UNL A   1      33.975  24.781  24.560  1.00  0.00     0.024 A 
ATOM     10  N   UNL A   1      32.260  25.878  23.628  1.00  0.00    -0.320 N 
ATOM     11  C   UNL A   1      33.948  24.462  23.190  1.00  0.00     0.020 A 
ATOM     12  C   UNL A   1      32.863  25.111  22.650  1.00  0.00     0.091 A 
BRANCH  10  13
ATOM     13  C   UNL A   1      31.121  26.689  23.399  1.00  0.00     0.049 A 
ATOM     14  C   UNL A   1      29.868  26.249  23.847  1.00  0.00     0.031 A 
ATOM     15  C   UNL A   1      31.244  27.903  22.717  1.00  0.00     0.077 A 
ATOM     16  C   UNL A   1      28.740  27.048  23.645  1.00  0.00     0.052 A 
ATOM     17  C   UNL A   1      30.108  28.681  22.495  1.00  0.00     0.163 A 
ATOM     18  C   UNL A   1      28.859  28.252  22.955  1.00  0.00     0.161 A 
ATOM     19  O   UNL A   1      30.291  29.844  21.792  1.00  0.00    -0.486 OA
ATOM     20  O   UNL A   1      27.702  28.967  22.766  1.00  0.00    -0.486 OA
ATOM     21  C   UNL A   1      29.161  30.713  21.909  1.00  0.00     0.271 C 
ATOM     22  C   UNL A   1      27.862  29.945  21.733  1.00  0.00     0.271 C 
ENDBRANCH  10  13
ENDBRANCH   7   8
ENDBRANCH   5   7
ENDBRANCH   2   3
ENDBRANCH   1   2
BRANCH   1  23
ATOM     23  C   UNL A   1      31.331  32.273  26.530  1.00  0.00     0.023 C 
BRANCH  23  24
ATOM     24  C   UNL A   1      32.658  32.757  27.110  1.00  0.00     0.116 C 
BRANCH  24  25
ATOM     25  N   UNL A   1      32.526  34.074  27.706  1.00  0.00    -0.352 N 
ATOM     26  C   UNL A   1      33.111  34.579  28.842  1.00  0.00     0.251 C 
ATOM     27  H   UNL A   1      31.931  34.696  27.228  1.00  0.00     0.163 HD
ATOM     28  O   UNL A   1      32.593  35.525  29.417  1.00  0.00    -0.269 OA
BRANCH  26  29
ATOM     29  C   UNL A   1      34.369  34.007  29.372  1.00  0.00     0.039 A 
ATOM     30  C   UNL A   1      35.573  34.347  28.739  1.00  0.00     0.014 A 
ATOM     31  C   UNL A   1      34.356  33.056  30.397  1.00  0.00     0.014 A 
ATOM     32  C   UNL A   1      36.763  33.765  29.159  1.00  0.00     0.010 A 
ATOM     33  C   UNL A   1      35.543  32.497  30.843  1.00  0.00     0.010 A 
ATOM     34  C   UNL A   1      36.742  32.855  30.225  1.00  0.00    -0.014 A 
BRANCH  34  35
ATOM     35  C   UNL A   1      38.013  32.409  30.824  1.00  0.00     0.031 A 
ATOM     36  C   UNL A   1      38.568  31.175  30.060  1.00  0.00     0.074 A 
ATOM     37  C   UNL A   1      38.454  33.141  31.900  1.00  0.00     0.049 A 
ATOM     38  N   UNL A   1      39.426  30.282  30.434  1.00  0.00    -0.248 NA
ATOM     39  C   UNL A   1      38.073  30.865  28.681  1.00  0.00     0.031 C 
ATOM     40  C   UNL A   1      37.786  34.358  32.436  1.00  0.00     0.029 A 
ATOM     41  N   UNL A   1      39.529  33.046  32.760  1.00  0.00    -0.354 N 
ATOM     42  C   UNL A   1      39.701  29.429  29.335  1.00  0.00     0.074 A 
ATOM     43  C   UNL A   1      38.781  29.795  28.304  1.00  0.00     0.031 C 
ATOM     44  C   UNL A   1      38.399  34.807  33.555  1.00  0.00     0.029 A 
ATOM     45  C   UNL A   1      39.524  33.949  33.864  1.00  0.00     0.049 A 
ATOM     46  H   UNL A   1      40.254  32.395  32.622  1.00  0.00     0.167 HD
ATOM     47  C   UNL A   1      40.756  28.559  29.322  1.00  0.00     0.031 A 
ATOM     48  C   UNL A   1      40.336  33.962  34.970  1.00  0.00     0.031 A 
ATOM     49  C   UNL A   1      41.389  28.568  30.596  1.00  0.00     0.049 A 
ATOM     50  C   UNL A   1      41.355  32.942  34.699  1.00  0.00     0.074 A 
ATOM     51  C   UNL A   1      40.990  28.086  31.813  1.00  0.00     0.029 A 
ATOM     52  N   UNL A   1      42.380  29.504  30.771  1.00  0.00    -0.354 N 
ATOM     53  N   UNL A   1      42.327  33.079  33.854  1.00  0.00    -0.248 NA
ATOM     54  C   UNL A   1      41.229  31.630  35.342  1.00  0.00     0.031 C 
ATOM     55  C   UNL A   1      41.330  29.146  32.677  1.00  0.00     0.029 A 
ATOM     56  C   UNL A   1      42.183  30.040  32.016  1.00  0.00     0.049 A 
ATOM     57  H   UNL A   1      43.088  29.741  30.131  1.00  0.00     0.167 HD
ATOM     58  C   UNL A   1      42.637  31.775  33.568  1.00  0.00     0.074 A 
ATOM     59  C   UNL A   1      42.209  30.990  34.709  1.00  0.00     0.031 C 
ATOM     60  C   UNL A   1      42.682  31.366  32.273  1.00  0.00     0.031 A 
BRANCH  47  61
ATOM     61  C   UNL A   1      41.484  27.825  28.228  1.00  0.00    -0.014 A 
ATOM     62  C   UNL A   1      41.743  28.549  27.033  1.00  0.00     0.009 A 
ATOM     63  C   UNL A   1      41.576  26.433  28.163  1.00  0.00     0.009 A 
ATOM     64  C   UNL A   1      41.919  27.914  25.804  1.00  0.00     0.001 A 
ATOM     65  C   UNL A   1      41.798  25.793  26.931  1.00  0.00     0.001 A 
ATOM     66  C   UNL A   1      41.922  26.529  25.751  1.00  0.00     0.000 A 
ENDBRANCH  47  61
BRANCH  48  67
ATOM     67  C   UNL A   1      40.420  34.600  36.339  1.00  0.00    -0.014 A 
ATOM     68  C   UNL A   1      41.222  35.681  36.709  1.00  0.00     0.009 A 
ATOM     69  C   UNL A   1      39.541  34.124  37.357  1.00  0.00     0.009 A 
ATOM     70  C   UNL A   1      41.061  36.307  37.970  1.00  0.00     0.001 A 
ATOM     71  C   UNL A   1      39.338  34.769  38.580  1.00  0.00     0.001 A 
ATOM     72  C   UNL A   1      40.092  35.882  38.881  1.00  0.00     0.000 A 
ENDBRANCH  48  67
BRANCH  60  73
ATOM     73  C   UNL A   1      42.859  32.473  31.234  1.00  0.00    -0.014 A 
ATOM     74  C   UNL A   1      44.096  33.131  31.119  1.00  0.00     0.009 A 
ATOM     75  C   UNL A   1      41.804  32.978  30.450  1.00  0.00     0.009 A 
ATOM     76  C   UNL A   1      44.261  34.256  30.298  1.00  0.00     0.001 A 
ATOM     77  C   UNL A   1      41.965  34.104  29.623  1.00  0.00     0.001 A 
ATOM     78  C   UNL A   1      43.196  34.747  29.553  1.00  0.00     0.000 A 
ENDBRANCH  60  73
ENDBRANCH  34  35
ENDBRANCH  26  29
ENDBRANCH  24  25
ENDBRANCH  23  24
ENDBRANCH   1  23
TORSDOF 13
ENDMDL
MODEL 3
REMARK VINA RESULT:     -11.7      8.200     12.841
REMARK SMILES O=C(Cc1cccn1-c1ccc2c(c1)OCCO2)NCCCCNC(=O)c1ccc(-c2c3nc(c(-c4ccccc4)c4ccc([nH]4)c(-c4ccccc4)c4nc(c(-c5ccccc5)c5ccc2[nH]5)C=C4)C=C3)cc1
REMARK SMILES IDX 21 1 20 2 19 3 1 4 2 5 3 7 4 8 5 9 8 10 6 11 7 12 9 13 10 14
REMARK SMILES IDX 14 15 11 16 13 17 12 18 15 19 18 20 16 21 17 22 22 23 23 24
REMARK SMILES IDX 24 25 25 26 26 28 27 29 28 30 74 31 29 32 73 33 30 34 31 35
REMARK SMILES IDX 32 36 67 37 33 38 72 39 66 40 68 41 34 42 71 43 65 44 64 45
REMARK SMILES IDX 35 47 57 48 42 49 56 50 43 51 46 52 55 53 69 54 44 55 45 56
REMARK SMILES IDX 54 58 70 59 47 60 36 61 37 62 41 63 38 64 40 65 39 66 58 67
REMARK SMILES IDX 59 68 63 69 60 70 62 71 61 72 48 73 49 74 53 75 50 76 52 77
REMARK SMILES IDX 51 78
REMARK H PARENT 19 6 24 27 68 46 46 57
REMARK Flexibility Score: inf
ROOT
ATOM      1  C   UNL A   1      34.410  28.729  24.170  1.00  0.00     0.023 C 
ENDROOT
BRANCH   1   2
ATOM      2  C   UNL A   1      33.320  28.726  23.097  1.00  0.00     0.116 C 
BRANCH   2   3
ATOM      3  N   UNL A   1      32.502  27.536  23.171  1.00  0.00    -0.356 N 
ATOM      4  O   UNL A   1      33.651  26.323  21.598  1.00  0.00    -0.275 OA
ATOM      5  C   UNL A   1      32.730  26.412  22.404  1.00  0.00     0.225 C 
ATOM      6  H   UNL A   1      31.743  27.527  23.799  1.00  0.00     0.163 HD
BRANCH   5   7
ATOM      7  C   UNL A   1      31.698  25.311  22.591  1.00  0.00     0.154 C 
BRANCH   7   8
ATOM      8  C   UNL A   1      31.157  25.274  23.995  1.00  0.00     0.032 A 
ATOM      9  C   UNL A   1      29.895  25.649  24.438  1.00  0.00     0.024 A 
ATOM     10  N   UNL A   1      31.812  24.677  25.067  1.00  0.00    -0.320 N 
ATOM     11  C   UNL A   1      29.771  25.276  25.789  1.00  0.00     0.020 A 
ATOM     12  C   UNL A   1      30.940  24.644  26.138  1.00  0.00     0.091 A 
BRANCH  10  13
ATOM     13  C   UNL A   1      33.117  24.128  25.099  1.00  0.00     0.049 A 
ATOM     14  C   UNL A   1      34.209  24.975  25.336  1.00  0.00     0.031 A 
ATOM     15  C   UNL A   1      33.315  22.763  24.875  1.00  0.00     0.077 A 
ATOM     16  C   UNL A   1      35.500  24.443  25.389  1.00  0.00     0.052 A 
ATOM     17  C   UNL A   1      34.610  22.246  24.901  1.00  0.00     0.163 A 
ATOM     18  C   UNL A   1      35.700  23.085  25.155  1.00  0.00     0.161 A 
ATOM     19  O   UNL A   1      34.739  20.905  24.642  1.00  0.00    -0.486 OA
ATOM     20  O   UNL A   1      36.998  22.641  25.190  1.00  0.00    -0.486 OA
ATOM     21  C   UNL A   1      36.030  20.417  25.019  1.00  0.00     0.271 C 
ATOM     22  C   UNL A   1      37.125  21.363  24.557  1.00  0.00     0.271 C 
ENDBRANCH  10  13
ENDBRANCH   7   8
ENDBRANCH   5   7
ENDBRANCH   2   3
ENDBRANCH   1   2
BRANCH   1  23
ATOM     23  C   UNL A   1      33.901  28.712  25.621  1.00  0.00     0.023 C 
BRANCH  23  24
ATOM     24  C   UNL A   1      35.005  28.728  26.675  1.00  0.00     0.116 C 
BRANCH  24  25
ATOM     25  N   UNL A   1      35.305  30.082  27.107  1.00  0.00    -0.352 N 
ATOM     26  C   UNL A   1      36.305  30.531  27.936  1.00  0.00     0.251 C 
ATOM     27  H   UNL A   1      34.706  30.780  26.755  1.00  0.00     0.163 HD
ATOM     28  O   UNL A   1      36.173  31.601  28.513  1.00  0.00    -0.269 OA
BRANCH  26  29
ATOM     29  C   UNL A   1      37.545  29.749  28.129  1.00  0.00     0.039 A 
ATOM     30  C   UNL A   1      38.469  29.695  27.075  1.00  0.00     0.014 A 
ATOM     31  C   UNL A   1      37.744  28.980  29.280  1.00  0.00     0.014 A 
ATOM     32  C   UNL A   1      39.606  28.904  27.193  1.00  0.00     0.010 A 
ATOM     33  C   UNL A   1      38.892  28.216  29.418  1.00  0.00     0.010 A 
ATOM     34  C   UNL A   1      39.820  28.183  28.374  1.00  0.00    -0.014 A 
BRANCH  34  35
ATOM     35  C   UNL A   1      41.121  27.528  28.600  1.00  0.00     0.031 A 
ATOM     36  C   UNL A   1      41.028  26.012  28.272  1.00  0.00     0.074 A 
ATOM     37  C   UNL A   1      42.134  28.347  29.036  1.00  0.00     0.049 A 
ATOM     38  N   UNL A   1      41.787  25.032  28.644  1.00  0.00    -0.248 NA
ATOM     39  C   UNL A   1      39.904  25.497  27.428  1.00  0.00     0.031 C 
ATOM     40  C   UNL A   1      42.020  29.820  29.222  1.00  0.00     0.029 A 
ATOM     41  N   UNL A   1      43.449  28.150  29.406  1.00  0.00    -0.354 N 
ATOM     42  C   UNL A   1      41.363  23.854  27.979  1.00  0.00     0.074 A 
ATOM     43  C   UNL A   1      40.152  24.190  27.300  1.00  0.00     0.031 C 
ATOM     44  C   UNL A   1      43.152  30.341  29.748  1.00  0.00     0.029 A 
ATOM     45  C   UNL A   1      44.118  29.283  29.955  1.00  0.00     0.049 A 
ATOM     46  H   UNL A   1      43.898  27.280  29.297  1.00  0.00     0.167 HD
ATOM     47  C   UNL A   1      42.118  22.713  27.947  1.00  0.00     0.031 A 
ATOM     48  C   UNL A   1      45.338  29.343  30.580  1.00  0.00     0.031 A 
ATOM     49  C   UNL A   1      43.260  22.880  28.778  1.00  0.00     0.049 A 
ATOM     50  C   UNL A   1      45.914  28.006  30.407  1.00  0.00     0.074 A 
ATOM     51  C   UNL A   1      43.393  22.945  30.139  1.00  0.00     0.029 A 
ATOM     52  N   UNL A   1      44.367  23.429  28.179  1.00  0.00    -0.354 N 
ATOM     53  N   UNL A   1      46.390  27.547  29.293  1.00  0.00    -0.248 NA
ATOM     54  C   UNL A   1      45.870  27.067  31.533  1.00  0.00     0.031 C 
ATOM     55  C   UNL A   1      44.278  24.030  30.299  1.00  0.00     0.029 A 
ATOM     56  C   UNL A   1      44.870  24.342  29.068  1.00  0.00     0.049 A 
ATOM     57  H   UNL A   1      44.727  23.211  27.289  1.00  0.00     0.167 HD
ATOM     58  C   UNL A   1      46.294  26.194  29.482  1.00  0.00     0.074 A 
ATOM     59  C   UNL A   1      46.313  25.975  30.915  1.00  0.00     0.031 C 
ATOM     60  C   UNL A   1      45.659  25.431  28.553  1.00  0.00     0.031 A 
BRANCH  47  61
ATOM     61  C   UNL A   1      42.111  21.487  27.074  1.00  0.00    -0.014 A 
ATOM     62  C   UNL A   1      41.534  20.311  27.624  1.00  0.00     0.009 A 
ATOM     63  C   UNL A   1      42.939  21.330  25.960  1.00  0.00     0.009 A 
ATOM     64  C   UNL A   1      41.895  19.035  27.193  1.00  0.00     0.001 A 
ATOM     65  C   UNL A   1      43.268  20.044  25.496  1.00  0.00     0.001 A 
ATOM     66  C   UNL A   1      42.785  18.902  26.139  1.00  0.00     0.000 A 
ENDBRANCH  47  61
BRANCH  48  67
ATOM     67  C   UNL A   1      46.161  30.287  31.429  1.00  0.00    -0.014 A 
ATOM     68  C   UNL A   1      45.992  30.549  32.790  1.00  0.00     0.009 A 
ATOM     69  C   UNL A   1      47.285  30.926  30.826  1.00  0.00     0.009 A 
ATOM     70  C   UNL A   1      46.953  31.303  33.509  1.00  0.00     0.001 A 
ATOM     71  C   UNL A   1      48.264  31.623  31.538  1.00  0.00     0.001 A 
ATOM     72  C   UNL A   1      48.106  31.797  32.896  1.00  0.00     0.000 A 
ENDBRANCH  48  67
BRANCH  60  73
ATOM     73  C   UNL A   1      45.527  26.052  27.163  1.00  0.00    -0.014 A 
ATOM     74  C   UNL A   1      46.651  26.124  26.322  1.00  0.00     0.009 A 
ATOM     75  C   UNL A   1      44.358  26.688  26.704  1.00  0.00     0.009 A 
ATOM     76  C   UNL A   1      46.623  26.826  25.108  1.00  0.00     0.001 A 
ATOM     77  C   UNL A   1      44.322  27.391  25.486  1.00  0.00     0.001 A 
ATOM     78  C   UNL A   1      45.460  27.465  24.690  1.00  0.00     0.000 A 
ENDBRANCH  60  73
ENDBRANCH  34  35
ENDBRANCH  26  29
ENDBRANCH  24  25
ENDBRANCH  23  24
ENDBRANCH   1  23
TORSDOF 13
ENDMDL
