MODEL 1
REMARK VINA RESULT:     -11.9      0.000      0.000
REMARK SMILES COc1ccc(S(=O)(=O)N2CCC[C@H](C(=O)N3CCC[C@H](C(=O)NCCCCNC(=O)c4ccc(-c5c6nc(c(-c7ccccc7)c7ccc([nH]7)c(-c7ccccc7)c7nc(c(-c8ccccc8)c8ccc5[nH]8)C=C7)C=C6)cc4)C3)C2)cc1
REMARK SMILES IDX 25 1 24 2 22 3 23 4 21 6 17 7 18 8 80 9 19 10 20 11 15 12
REMARK SMILES IDX 16 13 14 14 10 15 11 16 81 17 12 18 13 19 7 20 8 21 9 22
REMARK SMILES IDX 6 23 3 24 4 25 83 26 5 27 82 28 2 29 1 30 26 31 27 32 28 33
REMARK SMILES IDX 29 34 30 35 31 37 32 38 33 39 79 40 34 41 78 42 35 43 36 44
REMARK SMILES IDX 37 45 72 46 38 47 77 48 71 49 73 50 39 51 76 52 70 53 69 54
REMARK SMILES IDX 40 56 62 57 47 58 61 59 48 60 51 61 60 62 74 63 49 64 50 65
REMARK SMILES IDX 59 67 75 68 52 69 41 70 42 71 46 72 43 73 45 74 44 75 63 76
REMARK SMILES IDX 64 77 68 78 65 79 67 80 66 81 53 82 54 83 58 84 55 85 57 86
REMARK SMILES IDX 56 87
REMARK H PARENT 24 5 29 36 73 55 51 66
REMARK Flexibility Score: inf
ROOT
ATOM      1  C   UNL A   1      37.047  23.439  25.709  1.00  0.00     0.116 C 
ENDROOT
BRANCH   1   2
ATOM      2  N   UNL A   1      35.986  22.901  26.521  1.00  0.00    -0.356 N 
ATOM      3  C   UNL A   1      35.112  21.899  26.245  1.00  0.00     0.224 C 
ATOM      4  O   UNL A   1      34.442  21.476  27.194  1.00  0.00    -0.275 OA
ATOM      5  H   UNL A   1      35.879  23.322  27.405  1.00  0.00     0.163 HD
BRANCH   3   6
ATOM      6  C   UNL A   1      34.925  21.280  24.854  1.00  0.00     0.098 C 
ATOM      7  N   UNL A   1      33.051  22.212  23.460  1.00  0.00    -0.342 N 
ATOM      8  C   UNL A   1      32.472  20.889  23.250  1.00  0.00     0.119 C 
ATOM      9  C   UNL A   1      34.471  22.263  23.771  1.00  0.00     0.133 C 
ATOM     10  C   UNL A   1      32.770  19.912  24.380  1.00  0.00     0.022 C 
ATOM     11  C   UNL A   1      34.231  19.914  24.819  1.00  0.00     0.017 C 
BRANCH   7  12
ATOM     12  C   UNL A   1      32.209  23.304  23.528  1.00  0.00     0.227 C 
ATOM     13  O   UNL A   1      32.524  24.376  22.998  1.00  0.00    -0.275 OA
BRANCH  12  14
ATOM     14  C   UNL A   1      31.005  23.287  24.470  1.00  0.00     0.094 C 
ATOM     15  N   UNL A   1      31.726  25.195  25.851  1.00  0.00    -0.197 NA
ATOM     16  C   UNL A   1      32.070  24.358  27.013  1.00  0.00     0.102 C 
ATOM     17  C   UNL A   1      30.726  24.728  24.875  1.00  0.00     0.116 C 
ATOM     18  C   UNL A   1      31.669  22.888  26.933  1.00  0.00     0.018 C 
ATOM     19  C   UNL A   1      30.931  22.394  25.695  1.00  0.00     0.016 C 
BRANCH  15  20
ATOM     20  S   UNL A   1      31.939  26.874  26.026  1.00  0.00     0.243 S 
ATOM     21  O   UNL A   1      33.350  27.165  25.979  1.00  0.00    -0.207 OA
ATOM     22  O   UNL A   1      31.117  27.286  27.151  1.00  0.00    -0.207 OA
BRANCH  20  23
ATOM     23  C   UNL A   1      31.211  27.621  24.582  1.00  0.00     0.082 A 
ATOM     24  C   UNL A   1      30.151  28.985  22.385  1.00  0.00     0.118 A 
ATOM     25  C   UNL A   1      31.520  29.042  22.651  1.00  0.00     0.048 A 
ATOM     26  C   UNL A   1      29.323  28.201  23.186  1.00  0.00     0.048 A 
ATOM     27  C   UNL A   1      32.053  28.371  23.755  1.00  0.00     0.025 A 
ATOM     28  C   UNL A   1      29.850  27.524  24.286  1.00  0.00     0.025 A 
BRANCH  24  29
ATOM     29  O   UNL A   1      29.716  29.710  21.310  1.00  0.00    -0.497 OA
ATOM     30  C   UNL A   1      28.893  30.825  21.641  1.00  0.00     0.278 C 
ENDBRANCH  24  29
ENDBRANCH  20  23
ENDBRANCH  15  20
ENDBRANCH  12  14
ENDBRANCH   7  12
ENDBRANCH   3   6
ENDBRANCH   1   2
BRANCH   1  31
ATOM     31  C   UNL A   1      38.437  22.959  26.101  1.00  0.00     0.023 C 
BRANCH  31  32
ATOM     32  C   UNL A   1      38.792  21.577  25.569  1.00  0.00     0.023 C 
BRANCH  32  33
ATOM     33  C   UNL A   1      39.447  20.636  26.576  1.00  0.00     0.116 C 
BRANCH  33  34
ATOM     34  N   UNL A   1      40.406  19.698  26.007  1.00  0.00    -0.352 N 
ATOM     35  C   UNL A   1      41.768  19.864  25.879  1.00  0.00     0.251 C 
ATOM     36  H   UNL A   1      40.038  18.847  25.675  1.00  0.00     0.163 HD
ATOM     37  O   UNL A   1      42.475  19.038  25.315  1.00  0.00    -0.269 OA
BRANCH  35  38
ATOM     38  C   UNL A   1      42.366  21.107  26.411  1.00  0.00     0.039 A 
ATOM     39  C   UNL A   1      42.710  22.128  25.525  1.00  0.00     0.014 A 
ATOM     40  C   UNL A   1      42.446  21.297  27.792  1.00  0.00     0.014 A 
ATOM     41  C   UNL A   1      43.040  23.387  26.033  1.00  0.00     0.010 A 
ATOM     42  C   UNL A   1      42.691  22.570  28.289  1.00  0.00     0.010 A 
ATOM     43  C   UNL A   1      42.977  23.631  27.415  1.00  0.00    -0.014 A 
BRANCH  43  44
ATOM     44  C   UNL A   1      43.179  24.993  27.970  1.00  0.00     0.031 A 
ATOM     45  C   UNL A   1      44.546  25.425  28.419  1.00  0.00     0.074 A 
ATOM     46  C   UNL A   1      42.120  25.807  28.155  1.00  0.00     0.049 A 
ATOM     47  N   UNL A   1      44.909  26.539  29.005  1.00  0.00    -0.248 NA
ATOM     48  C   UNL A   1      45.644  24.467  28.213  1.00  0.00     0.031 C 
ATOM     49  C   UNL A   1      40.730  25.487  27.819  1.00  0.00     0.029 A 
ATOM     50  N   UNL A   1      42.050  27.073  28.680  1.00  0.00    -0.354 N 
ATOM     51  C   UNL A   1      46.267  26.402  29.260  1.00  0.00     0.074 A 
ATOM     52  C   UNL A   1      46.653  25.082  28.813  1.00  0.00     0.031 C 
ATOM     53  C   UNL A   1      39.952  26.541  28.117  1.00  0.00     0.029 A 
ATOM     54  C   UNL A   1      40.779  27.594  28.697  1.00  0.00     0.049 A 
ATOM     55  H   UNL A   1      42.836  27.562  29.014  1.00  0.00     0.167 HD
ATOM     56  C   UNL A   1      47.124  27.303  29.797  1.00  0.00     0.031 A 
ATOM     57  C   UNL A   1      40.328  28.786  29.130  1.00  0.00     0.031 A 
ATOM     58  C   UNL A   1      46.751  28.626  30.216  1.00  0.00     0.049 A 
ATOM     59  C   UNL A   1      41.302  29.778  29.701  1.00  0.00     0.074 A 
ATOM     60  C   UNL A   1      47.559  29.634  30.709  1.00  0.00     0.029 A 
ATOM     61  N   UNL A   1      45.458  29.125  30.185  1.00  0.00    -0.354 N 
ATOM     62  N   UNL A   1      42.597  29.660  29.872  1.00  0.00    -0.248 NA
ATOM     63  C   UNL A   1      40.754  31.074  30.129  1.00  0.00     0.031 C 
ATOM     64  C   UNL A   1      46.749  30.734  31.010  1.00  0.00     0.029 A 
ATOM     65  C   UNL A   1      45.445  30.424  30.664  1.00  0.00     0.049 A 
ATOM     66  H   UNL A   1      44.668  28.630  29.869  1.00  0.00     0.167 HD
ATOM     67  C   UNL A   1      43.021  30.870  30.401  1.00  0.00     0.074 A 
ATOM     68  C   UNL A   1      41.850  31.716  30.511  1.00  0.00     0.031 C 
ATOM     69  C   UNL A   1      44.271  31.250  30.763  1.00  0.00     0.031 A 
BRANCH  56  70
ATOM     70  C   UNL A   1      48.556  26.875  29.953  1.00  0.00    -0.014 A 
ATOM     71  C   UNL A   1      49.507  27.151  28.957  1.00  0.00     0.009 A 
ATOM     72  C   UNL A   1      48.961  26.204  31.116  1.00  0.00     0.009 A 
ATOM     73  C   UNL A   1      50.828  26.725  29.105  1.00  0.00     0.001 A 
ATOM     74  C   UNL A   1      50.290  25.803  31.273  1.00  0.00     0.001 A 
ATOM     75  C   UNL A   1      51.219  26.054  30.264  1.00  0.00     0.000 A 
ENDBRANCH  56  70
BRANCH  57  76
ATOM     76  C   UNL A   1      38.887  29.127  29.015  1.00  0.00    -0.014 A 
ATOM     77  C   UNL A   1      38.035  28.983  30.120  1.00  0.00     0.009 A 
ATOM     78  C   UNL A   1      38.353  29.588  27.802  1.00  0.00     0.009 A 
ATOM     79  C   UNL A   1      36.673  29.270  30.007  1.00  0.00     0.001 A 
ATOM     80  C   UNL A   1      36.995  29.897  27.699  1.00  0.00     0.001 A 
ATOM     81  C   UNL A   1      36.155  29.730  28.798  1.00  0.00     0.000 A 
ENDBRANCH  57  76
BRANCH  69  82
ATOM     82  C   UNL A   1      44.440  32.649  31.280  1.00  0.00    -0.014 A 
ATOM     83  C   UNL A   1      44.356  32.932  32.651  1.00  0.00     0.009 A 
ATOM     84  C   UNL A   1      44.732  33.689  30.383  1.00  0.00     0.009 A 
ATOM     85  C   UNL A   1      44.534  34.238  33.112  1.00  0.00     0.001 A 
ATOM     86  C   UNL A   1      44.933  34.988  30.851  1.00  0.00     0.001 A 
ATOM     87  C   UNL A   1      44.826  35.262  32.213  1.00  0.00     0.000 A 
ENDBRANCH  69  82
ENDBRANCH  43  44
ENDBRANCH  35  38
ENDBRANCH  33  34
ENDBRANCH  32  33
ENDBRANCH  31  32
ENDBRANCH   1  31
TORSDOF 16
ENDMDL
MODEL 2
REMARK VINA RESULT:     -11.7      4.817     10.135
REMARK SMILES COc1ccc(S(=O)(=O)N2CCC[C@H](C(=O)N3CCC[C@H](C(=O)NCCCCNC(=O)c4ccc(-c5c6nc(c(-c7ccccc7)c7ccc([nH]7)c(-c7ccccc7)c7nc(c(-c8ccccc8)c8ccc5[nH]8)C=C7)C=C6)cc4)C3)C2)cc1
REMARK SMILES IDX 25 1 24 2 22 3 23 4 21 6 17 7 18 8 80 9 19 10 20 11 15 12
REMARK SMILES IDX 16 13 14 14 10 15 11 16 81 17 12 18 13 19 7 20 8 21 9 22
REMARK SMILES IDX 6 23 3 24 4 25 83 26 5 27 82 28 2 29 1 30 26 31 27 32 28 33
REMARK SMILES IDX 29 34 30 35 31 37 32 38 33 39 79 40 34 41 78 42 35 43 36 44
REMARK SMILES IDX 37 45 72 46 38 47 77 48 71 49 73 50 39 51 76 52 70 53 69 54
REMARK SMILES IDX 40 56 62 57 47 58 61 59 48 60 51 61 60 62 74 63 49 64 50 65
REMARK SMILES IDX 59 67 75 68 52 69 41 70 42 71 46 72 43 73 45 74 44 75 63 76
REMARK SMILES IDX 64 77 68 78 65 79 67 80 66 81 53 82 54 83 58 84 55 85 57 86
REMARK SMILES IDX 56 87
REMARK H PARENT 24 5 29 36 73 55 51 66
REMARK Flexibility Score: inf
ROOT
ATOM      1  C   UNL A   1      34.409  31.894  28.948  1.00  0.00     0.116 C 
ENDROOT
BRANCH   1   2
ATOM      2  N   UNL A   1      34.971  30.813  28.178  1.00  0.00    -0.356 N 
ATOM      3  C   UNL A   1      34.347  29.900  27.391  1.00  0.00     0.224 C 
ATOM      4  O   UNL A   1      35.072  29.215  26.661  1.00  0.00    -0.275 OA
ATOM      5  H   UNL A   1      35.950  30.726  28.230  1.00  0.00     0.163 HD
BRANCH   3   6
ATOM      6  C   UNL A   1      32.828  29.684  27.362  1.00  0.00     0.098 C 
ATOM      7  N   UNL A   1      31.956  28.119  25.599  1.00  0.00    -0.342 N 
ATOM      8  C   UNL A   1      31.021  29.117  25.092  1.00  0.00     0.119 C 
ATOM      9  C   UNL A   1      32.389  28.268  26.979  1.00  0.00     0.133 C 
ATOM     10  C   UNL A   1      31.487  30.550  25.315  1.00  0.00     0.022 C 
ATOM     11  C   UNL A   1      32.006  30.810  26.726  1.00  0.00     0.017 C 
BRANCH   7  12
ATOM     12  C   UNL A   1      32.505  27.212  24.714  1.00  0.00     0.227 C 
ATOM     13  O   UNL A   1      33.655  27.367  24.285  1.00  0.00    -0.275 OA
BRANCH  12  14
ATOM     14  C   UNL A   1      31.621  26.153  24.053  1.00  0.00     0.094 C 
ATOM     15  N   UNL A   1      33.454  24.620  23.453  1.00  0.00    -0.197 NA
ATOM     16  C   UNL A   1      33.377  24.925  22.014  1.00  0.00     0.102 C 
ATOM     17  C   UNL A   1      32.268  24.798  24.309  1.00  0.00     0.116 C 
ATOM     18  C   UNL A   1      32.197  25.783  21.564  1.00  0.00     0.018 C 
ATOM     19  C   UNL A   1      31.180  26.237  22.604  1.00  0.00     0.016 C 
BRANCH  15  20
ATOM     20  S   UNL A   1      34.611  23.469  23.931  1.00  0.00     0.243 S 
ATOM     21  O   UNL A   1      35.114  23.837  25.231  1.00  0.00    -0.207 OA
ATOM     22  O   UNL A   1      35.502  23.275  22.800  1.00  0.00    -0.207 OA
BRANCH  20  23
ATOM     23  C   UNL A   1      33.732  21.934  24.136  1.00  0.00     0.082 A 
ATOM     24  C   UNL A   1      32.545  19.425  24.466  1.00  0.00     0.118 A 
ATOM     25  C   UNL A   1      33.471  19.890  25.402  1.00  0.00     0.048 A 
ATOM     26  C   UNL A   1      32.173  20.238  23.397  1.00  0.00     0.048 A 
ATOM     27  C   UNL A   1      34.075  21.139  25.235  1.00  0.00     0.025 A 
ATOM     28  C   UNL A   1      32.768  21.488  23.229  1.00  0.00     0.025 A 
BRANCH  24  29
ATOM     29  O   UNL A   1      32.042  18.173  24.690  1.00  0.00    -0.497 OA
ATOM     30  C   UNL A   1      32.758  17.411  25.657  1.00  0.00     0.278 C 
ENDBRANCH  24  29
ENDBRANCH  20  23
ENDBRANCH  15  20
ENDBRANCH  12  14
ENDBRANCH   7  12
ENDBRANCH   3   6
ENDBRANCH   1   2
BRANCH   1  31
ATOM     31  C   UNL A   1      34.498  33.254  28.270  1.00  0.00     0.023 C 
BRANCH  31  32
ATOM     32  C   UNL A   1      33.374  34.211  28.643  1.00  0.00     0.023 C 
BRANCH  32  33
ATOM     33  C   UNL A   1      33.783  35.392  29.520  1.00  0.00     0.116 C 
BRANCH  33  34
ATOM     34  N   UNL A   1      32.748  35.871  30.427  1.00  0.00    -0.352 N 
ATOM     35  C   UNL A   1      32.699  35.727  31.797  1.00  0.00     0.251 C 
ATOM     36  H   UNL A   1      31.996  36.353  30.012  1.00  0.00     0.163 HD
ATOM     37  O   UNL A   1      31.741  36.107  32.458  1.00  0.00    -0.269 OA
BRANCH  35  38
ATOM     38  C   UNL A   1      33.834  35.053  32.461  1.00  0.00     0.039 A 
ATOM     39  C   UNL A   1      33.688  33.731  32.880  1.00  0.00     0.014 A 
ATOM     40  C   UNL A   1      35.072  35.697  32.533  1.00  0.00     0.014 A 
ATOM     41  C   UNL A   1      34.818  33.014  33.279  1.00  0.00     0.010 A 
ATOM     42  C   UNL A   1      36.204  34.957  32.848  1.00  0.00     0.010 A 
ATOM     43  C   UNL A   1      36.092  33.605  33.211  1.00  0.00    -0.014 A 
BRANCH  43  44
ATOM     44  C   UNL A   1      37.323  32.824  33.489  1.00  0.00     0.031 A 
ATOM     45  C   UNL A   1      38.087  33.054  34.761  1.00  0.00     0.074 A 
ATOM     46  C   UNL A   1      37.804  31.975  32.558  1.00  0.00     0.049 A 
ATOM     47  N   UNL A   1      39.226  32.534  35.146  1.00  0.00    -0.248 NA
ATOM     48  C   UNL A   1      37.515  34.021  35.712  1.00  0.00     0.031 C 
ATOM     49  C   UNL A   1      37.192  31.704  31.254  1.00  0.00     0.029 A 
ATOM     50  N   UNL A   1      38.927  31.187  32.566  1.00  0.00    -0.354 N 
ATOM     51  C   UNL A   1      39.516  33.131  36.366  1.00  0.00     0.074 A 
ATOM     52  C   UNL A   1      38.464  34.085  36.634  1.00  0.00     0.031 C 
ATOM     53  C   UNL A   1      37.930  30.790  30.604  1.00  0.00     0.029 A 
ATOM     54  C   UNL A   1      39.083  30.437  31.425  1.00  0.00     0.049 A 
ATOM     55  H   UNL A   1      39.561  31.161  33.317  1.00  0.00     0.167 HD
ATOM     56  C   UNL A   1      40.553  32.889  37.203  1.00  0.00     0.031 A 
ATOM     57  C   UNL A   1      40.046  29.563  31.078  1.00  0.00     0.031 A 
ATOM     58  C   UNL A   1      41.585  31.921  36.955  1.00  0.00     0.049 A 
ATOM     59  C   UNL A   1      41.175  29.295  32.033  1.00  0.00     0.074 A 
ATOM     60  C   UNL A   1      42.640  31.556  37.772  1.00  0.00     0.029 A 
ATOM     61  N   UNL A   1      41.688  31.159  35.801  1.00  0.00    -0.354 N 
ATOM     62  N   UNL A   1      41.398  29.816  33.216  1.00  0.00    -0.248 NA
ATOM     63  C   UNL A   1      42.180  28.307  31.611  1.00  0.00     0.031 C 
ATOM     64  C   UNL A   1      43.402  30.597  37.098  1.00  0.00     0.029 A 
ATOM     65  C   UNL A   1      42.797  30.334  35.880  1.00  0.00     0.049 A 
ATOM     66  H   UNL A   1      41.064  31.198  35.040  1.00  0.00     0.167 HD
ATOM     67  C   UNL A   1      42.550  29.203  33.688  1.00  0.00     0.074 A 
ATOM     68  C   UNL A   1      42.974  28.261  32.672  1.00  0.00     0.031 C 
ATOM     69  C   UNL A   1      43.200  29.402  34.861  1.00  0.00     0.031 A 
BRANCH  56  70
ATOM     70  C   UNL A   1      40.609  33.692  38.472  1.00  0.00    -0.014 A 
ATOM     71  C   UNL A   1      41.299  34.914  38.524  1.00  0.00     0.009 A 
ATOM     72  C   UNL A   1      39.953  33.229  39.622  1.00  0.00     0.009 A 
ATOM     73  C   UNL A   1      41.364  35.637  39.717  1.00  0.00     0.001 A 
ATOM     74  C   UNL A   1      39.998  33.969  40.806  1.00  0.00     0.001 A 
ATOM     75  C   UNL A   1      40.711  35.165  40.855  1.00  0.00     0.000 A 
ENDBRANCH  56  70
BRANCH  57  76
ATOM     76  C   UNL A   1      39.975  28.850  29.777  1.00  0.00    -0.014 A 
ATOM     77  C   UNL A   1      40.445  29.464  28.607  1.00  0.00     0.009 A 
ATOM     78  C   UNL A   1      39.431  27.559  29.695  1.00  0.00     0.009 A 
ATOM     79  C   UNL A   1      40.349  28.810  27.376  1.00  0.00     0.001 A 
ATOM     80  C   UNL A   1      39.359  26.899  28.467  1.00  0.00     0.001 A 
ATOM     81  C   UNL A   1      39.809  27.527  27.307  1.00  0.00     0.000 A 
ENDBRANCH  57  76
BRANCH  69  82
ATOM     82  C   UNL A   1      44.417  28.562  35.121  1.00  0.00    -0.014 A 
ATOM     83  C   UNL A   1      44.316  27.305  35.735  1.00  0.00     0.009 A 
ATOM     84  C   UNL A   1      45.677  29.020  34.703  1.00  0.00     0.009 A 
ATOM     85  C   UNL A   1      45.459  26.534  35.951  1.00  0.00     0.001 A 
ATOM     86  C   UNL A   1      46.814  28.235  34.900  1.00  0.00     0.001 A 
ATOM     87  C   UNL A   1      46.705  26.997  35.529  1.00  0.00     0.000 A 
ENDBRANCH  69  82
ENDBRANCH  43  44
ENDBRANCH  35  38
ENDBRANCH  33  34
ENDBRANCH  32  33
ENDBRANCH  31  32
ENDBRANCH   1  31
TORSDOF 16
ENDMDL
MODEL 3
REMARK VINA RESULT:     -11.7      1.649      2.530
REMARK SMILES COc1ccc(S(=O)(=O)N2CCC[C@H](C(=O)N3CCC[C@H](C(=O)NCCCCNC(=O)c4ccc(-c5c6nc(c(-c7ccccc7)c7ccc([nH]7)c(-c7ccccc7)c7nc(c(-c8ccccc8)c8ccc5[nH]8)C=C7)C=C6)cc4)C3)C2)cc1
REMARK SMILES IDX 25 1 24 2 22 3 23 4 21 6 17 7 18 8 80 9 19 10 20 11 15 12
REMARK SMILES IDX 16 13 14 14 10 15 11 16 81 17 12 18 13 19 7 20 8 21 9 22
REMARK SMILES IDX 6 23 3 24 4 25 83 26 5 27 82 28 2 29 1 30 26 31 27 32 28 33
REMARK SMILES IDX 29 34 30 35 31 37 32 38 33 39 79 40 34 41 78 42 35 43 36 44
REMARK SMILES IDX 37 45 72 46 38 47 77 48 71 49 73 50 39 51 76 52 70 53 69 54
REMARK SMILES IDX 40 56 62 57 47 58 61 59 48 60 51 61 60 62 74 63 49 64 50 65
REMARK SMILES IDX 59 67 75 68 52 69 41 70 42 71 46 72 43 73 45 74 44 75 63 76
REMARK SMILES IDX 64 77 68 78 65 79 67 80 66 81 53 82 54 83 58 84 55 85 57 86
REMARK SMILES IDX 56 87
REMARK H PARENT 24 5 29 36 73 55 51 66
REMARK Flexibility Score: inf
ROOT
ATOM      1  C   UNL A   1      37.366  23.508  25.606  1.00  0.00     0.116 C 
ENDROOT
BRANCH   1   2
ATOM      2  N   UNL A   1      36.192  23.286  26.410  1.00  0.00    -0.356 N 
ATOM      3  C   UNL A   1      35.179  22.400  26.232  1.00  0.00     0.224 C 
ATOM      4  O   UNL A   1      34.402  22.252  27.182  1.00  0.00    -0.275 OA
ATOM      5  H   UNL A   1      36.113  23.861  27.205  1.00  0.00     0.163 HD
BRANCH   3   6
ATOM      6  C   UNL A   1      34.960  21.592  24.946  1.00  0.00     0.098 C 
ATOM      7  N   UNL A   1      33.177  22.434  23.387  1.00  0.00    -0.342 N 
ATOM      8  C   UNL A   1      32.502  21.142  23.366  1.00  0.00     0.119 C 
ATOM      9  C   UNL A   1      34.593  22.428  23.717  1.00  0.00     0.133 C 
ATOM     10  C   UNL A   1      32.712  20.329  24.637  1.00  0.00     0.022 C 
ATOM     11  C   UNL A   1      34.165  20.290  25.103  1.00  0.00     0.017 C 
BRANCH   7  12
ATOM     12  C   UNL A   1      32.420  23.583  23.270  1.00  0.00     0.227 C 
ATOM     13  O   UNL A   1      32.838  24.551  22.623  1.00  0.00    -0.275 OA
BRANCH  12  14
ATOM     14  C   UNL A   1      31.179  23.776  24.144  1.00  0.00     0.094 C 
ATOM     15  N   UNL A   1      31.567  26.161  24.625  1.00  0.00    -0.197 NA
ATOM     16  C   UNL A   1      31.956  25.922  26.025  1.00  0.00     0.102 C 
ATOM     17  C   UNL A   1      30.691  25.203  23.929  1.00  0.00     0.116 C 
ATOM     18  C   UNL A   1      31.758  24.503  26.552  1.00  0.00     0.018 C 
ATOM     19  C   UNL A   1      31.159  23.453  25.626  1.00  0.00     0.016 C 
BRANCH  15  20
ATOM     20  S   UNL A   1      31.546  27.779  24.100  1.00  0.00     0.243 S 
ATOM     21  O   UNL A   1      30.179  28.236  24.077  1.00  0.00    -0.207 OA
ATOM     22  O   UNL A   1      32.389  27.848  22.919  1.00  0.00    -0.207 OA
BRANCH  20  23
ATOM     23  C   UNL A   1      32.382  28.722  25.360  1.00  0.00     0.082 A 
ATOM     24  C   UNL A   1      33.643  30.380  27.223  1.00  0.00     0.118 A 
ATOM     25  C   UNL A   1      32.299  30.579  26.905  1.00  0.00     0.048 A 
ATOM     26  C   UNL A   1      34.340  29.317  26.650  1.00  0.00     0.048 A 
ATOM     27  C   UNL A   1      31.667  29.760  25.965  1.00  0.00     0.025 A 
ATOM     28  C   UNL A   1      33.713  28.492  25.716  1.00  0.00     0.025 A 
BRANCH  24  29
ATOM     29  O   UNL A   1      34.186  31.260  28.119  1.00  0.00    -0.497 OA
ATOM     30  C   UNL A   1      33.797  32.617  27.926  1.00  0.00     0.278 C 
ENDBRANCH  24  29
ENDBRANCH  20  23
ENDBRANCH  15  20
ENDBRANCH  12  14
ENDBRANCH   7  12
ENDBRANCH   3   6
ENDBRANCH   1   2
BRANCH   1  31
ATOM     31  C   UNL A   1      38.653  22.981  26.224  1.00  0.00     0.023 C 
BRANCH  31  32
ATOM     32  C   UNL A   1      39.049  21.590  25.750  1.00  0.00     0.023 C 
BRANCH  32  33
ATOM     33  C   UNL A   1      39.870  20.769  26.741  1.00  0.00     0.116 C 
BRANCH  33  34
ATOM     34  N   UNL A   1      40.805  19.830  26.134  1.00  0.00    -0.352 N 
ATOM     35  C   UNL A   1      42.130  20.049  25.820  1.00  0.00     0.251 C 
ATOM     36  H   UNL A   1      40.450  18.936  25.925  1.00  0.00     0.163 HD
ATOM     37  O   UNL A   1      42.809  19.209  25.242  1.00  0.00    -0.269 OA
BRANCH  35  38
ATOM     38  C   UNL A   1      42.714  21.362  26.165  1.00  0.00     0.039 A 
ATOM     39  C   UNL A   1      42.830  22.335  25.172  1.00  0.00     0.014 A 
ATOM     40  C   UNL A   1      43.007  21.657  27.498  1.00  0.00     0.014 A 
ATOM     41  C   UNL A   1      43.146  23.646  25.538  1.00  0.00     0.010 A 
ATOM     42  C   UNL A   1      43.237  22.976  27.867  1.00  0.00     0.010 A 
ATOM     43  C   UNL A   1      43.295  23.986  26.893  1.00  0.00    -0.014 A 
BRANCH  43  44
ATOM     44  C   UNL A   1      43.486  25.394  27.320  1.00  0.00     0.031 A 
ATOM     45  C   UNL A   1      44.854  26.014  27.278  1.00  0.00     0.074 A 
ATOM     46  C   UNL A   1      42.448  26.088  27.832  1.00  0.00     0.049 A 
ATOM     47  N   UNL A   1      45.238  27.197  27.686  1.00  0.00    -0.248 NA
ATOM     48  C   UNL A   1      45.940  25.181  26.737  1.00  0.00     0.031 C 
ATOM     49  C   UNL A   1      41.080  25.585  27.986  1.00  0.00     0.029 A 
ATOM     50  N   UNL A   1      42.387  27.367  28.325  1.00  0.00    -0.354 N 
ATOM     51  C   UNL A   1      46.610  27.238  27.477  1.00  0.00     0.074 A 
ATOM     52  C   UNL A   1      46.999  25.948  26.953  1.00  0.00     0.031 C 
ATOM     53  C   UNL A   1      40.310  26.555  28.505  1.00  0.00     0.029 A 
ATOM     54  C   UNL A   1      41.134  27.734  28.754  1.00  0.00     0.049 A 
ATOM     55  H   UNL A   1      43.166  27.966  28.367  1.00  0.00     0.167 HD
ATOM     56  C   UNL A   1      47.468  28.267  27.677  1.00  0.00     0.031 A 
ATOM     57  C   UNL A   1      40.696  28.889  29.288  1.00  0.00     0.031 A 
ATOM     58  C   UNL A   1      47.081  29.560  28.170  1.00  0.00     0.049 A 
ATOM     59  C   UNL A   1      41.663  30.024  29.481  1.00  0.00     0.074 A 
ATOM     60  C   UNL A   1      47.865  30.686  28.344  1.00  0.00     0.029 A 
ATOM     61  N   UNL A   1      45.796  29.900  28.562  1.00  0.00    -0.354 N 
ATOM     62  N   UNL A   1      42.946  30.070  29.212  1.00  0.00    -0.248 NA
ATOM     63  C   UNL A   1      41.119  31.270  30.041  1.00  0.00     0.031 C 
ATOM     64  C   UNL A   1      47.060  31.699  28.876  1.00  0.00     0.029 A 
ATOM     65  C   UNL A   1      45.768  31.215  28.991  1.00  0.00     0.049 A 
ATOM     66  H   UNL A   1      45.018  29.296  28.539  1.00  0.00     0.167 HD
ATOM     67  C   UNL A   1      43.355  31.354  29.544  1.00  0.00     0.074 A 
ATOM     68  C   UNL A   1      42.184  32.060  30.022  1.00  0.00     0.031 C 
ATOM     69  C   UNL A   1      44.593  31.902  29.460  1.00  0.00     0.031 A 
BRANCH  56  70
ATOM     70  C   UNL A   1      48.915  28.023  27.355  1.00  0.00    -0.014 A 
ATOM     71  C   UNL A   1      49.808  27.564  28.338  1.00  0.00     0.009 A 
ATOM     72  C   UNL A   1      49.386  28.238  26.052  1.00  0.00     0.009 A 
ATOM     73  C   UNL A   1      51.155  27.366  28.030  1.00  0.00     0.001 A 
ATOM     74  C   UNL A   1      50.730  28.012  25.741  1.00  0.00     0.001 A 
ATOM     75  C   UNL A   1      51.613  27.588  26.732  1.00  0.00     0.000 A 
ENDBRANCH  56  70
BRANCH  57  76
ATOM     76  C   UNL A   1      39.266  29.049  29.654  1.00  0.00    -0.014 A 
ATOM     77  C   UNL A   1      38.335  29.481  28.697  1.00  0.00     0.009 A 
ATOM     78  C   UNL A   1      38.824  28.780  30.958  1.00  0.00     0.009 A 
ATOM     79  C   UNL A   1      36.994  29.664  29.046  1.00  0.00     0.001 A 
ATOM     80  C   UNL A   1      37.479  28.941  31.296  1.00  0.00     0.001 A 
ATOM     81  C   UNL A   1      36.567  29.391  30.343  1.00  0.00     0.000 A 
ENDBRANCH  57  76
BRANCH  69  82
ATOM     82  C   UNL A   1      44.735  33.340  29.862  1.00  0.00    -0.014 A 
ATOM     83  C   UNL A   1      44.532  34.377  28.939  1.00  0.00     0.009 A 
ATOM     84  C   UNL A   1      45.033  33.661  31.197  1.00  0.00     0.009 A 
ATOM     85  C   UNL A   1      44.652  35.709  29.340  1.00  0.00     0.001 A 
ATOM     86  C   UNL A   1      45.128  34.994  31.598  1.00  0.00     0.001 A 
ATOM     87  C   UNL A   1      44.945  36.015  30.668  1.00  0.00     0.000 A 
ENDBRANCH  69  82
ENDBRANCH  43  44
ENDBRANCH  35  38
ENDBRANCH  33  34
ENDBRANCH  32  33
ENDBRANCH  31  32
ENDBRANCH   1  31
TORSDOF 16
ENDMDL
