MODEL 1
REMARK VINA RESULT:     -11.5      0.000      0.000
REMARK SMILES O=C(NCCCCNC(=O)c1ccc(S(=O)(=O)Cc2ncccn2)c(F)c1)c1ccc(-c2c3nc(c(-c4ccccc4)c4ccc([nH]4)c(-c4ccccc4)c4nc(c(-c5ccccc5)c5ccc2[nH]5)C=C4)C=C3)cc1
REMARK SMILES IDX 6 1 5 2 4 3 3 4 1 5 2 6 28 8 29 9 75 10 30 11 74 12 31 13
REMARK SMILES IDX 32 14 33 15 68 16 34 17 73 18 67 19 69 20 35 21 72 22 66 23
REMARK SMILES IDX 65 24 36 26 58 27 43 28 57 29 44 30 47 31 56 32 70 33 45 34
REMARK SMILES IDX 46 35 55 37 71 38 48 39 37 40 38 41 42 42 39 43 41 44 40 45
REMARK SMILES IDX 59 46 60 47 64 48 61 49 63 50 62 51 49 52 50 53 54 54 51 55
REMARK SMILES IDX 53 56 52 57 7 58 8 59 9 60 10 62 11 63 12 64 27 65 13 66
REMARK SMILES IDX 25 67 14 68 26 69 15 70 16 71 17 72 18 73 19 74 20 75 24 76
REMARK SMILES IDX 21 77 23 78 22 79
REMARK H PARENT 3 7 69 25 47 36 8 61
REMARK Flexibility Score: inf
ROOT
ATOM      1  C   UNL A   1      36.653  20.687  24.773  1.00  0.00     0.023 C 
ENDROOT
BRANCH   1   2
ATOM      2  C   UNL A   1      37.799  19.693  24.963  1.00  0.00     0.023 C 
BRANCH   2   3
ATOM      3  C   UNL A   1      39.004  20.223  25.732  1.00  0.00     0.116 C 
BRANCH   3   4
ATOM      4  N   UNL A   1      40.142  19.318  25.705  1.00  0.00    -0.352 N 
ATOM      5  O   UNL A   1      42.310  18.710  25.842  1.00  0.00    -0.269 OA
ATOM      6  C   UNL A   1      41.452  19.565  26.037  1.00  0.00     0.251 C 
ATOM      7  H   UNL A   1      39.946  18.400  25.407  1.00  0.00     0.163 HD
BRANCH   6   8
ATOM      8  C   UNL A   1      41.832  20.877  26.599  1.00  0.00     0.039 A 
ATOM      9  C   UNL A   1      41.751  21.118  27.973  1.00  0.00     0.014 A 
ATOM     10  C   UNL A   1      42.278  21.882  25.735  1.00  0.00     0.014 A 
ATOM     11  C   UNL A   1      41.984  22.398  28.464  1.00  0.00     0.010 A 
ATOM     12  C   UNL A   1      42.585  23.147  26.240  1.00  0.00     0.010 A 
ATOM     13  C   UNL A   1      42.410  23.424  27.604  1.00  0.00    -0.014 A 
BRANCH  13  14
ATOM     14  C   UNL A   1      42.725  24.760  28.167  1.00  0.00     0.031 A 
ATOM     15  C   UNL A   1      44.133  25.143  28.526  1.00  0.00     0.074 A 
ATOM     16  C   UNL A   1      41.721  25.644  28.327  1.00  0.00     0.049 A 
ATOM     17  N   UNL A   1      44.578  26.280  29.001  1.00  0.00    -0.248 NA
ATOM     18  C   UNL A   1      45.176  24.124  28.334  1.00  0.00     0.031 C 
ATOM     19  C   UNL A   1      40.312  25.386  28.022  1.00  0.00     0.029 A 
ATOM     20  N   UNL A   1      41.734  26.942  28.766  1.00  0.00    -0.354 N 
ATOM     21  C   UNL A   1      45.944  26.109  29.182  1.00  0.00     0.074 A 
ATOM     22  C   UNL A   1      46.255  24.752  28.784  1.00  0.00     0.031 C 
ATOM     23  C   UNL A   1      39.604  26.504  28.237  1.00  0.00     0.029 A 
ATOM     24  C   UNL A   1      40.498  27.538  28.746  1.00  0.00     0.049 A 
ATOM     25  H   UNL A   1      42.551  27.404  29.067  1.00  0.00     0.167 HD
ATOM     26  C   UNL A   1      46.855  27.001  29.637  1.00  0.00     0.031 A 
ATOM     27  C   UNL A   1      40.117  28.776  29.109  1.00  0.00     0.031 A 
ATOM     28  C   UNL A   1      46.549  28.353  30.026  1.00  0.00     0.049 A 
ATOM     29  C   UNL A   1      41.146  29.737  29.625  1.00  0.00     0.074 A 
ATOM     30  C   UNL A   1      47.414  29.341  30.468  1.00  0.00     0.029 A 
ATOM     31  N   UNL A   1      45.278  28.907  30.021  1.00  0.00    -0.354 N 
ATOM     32  N   UNL A   1      42.438  29.566  29.760  1.00  0.00    -0.248 NA
ATOM     33  C   UNL A   1      40.662  31.060  30.038  1.00  0.00     0.031 C 
ATOM     34  C   UNL A   1      46.659  30.480  30.769  1.00  0.00     0.029 A 
ATOM     35  C   UNL A   1      45.333  30.215  30.473  1.00  0.00     0.049 A 
ATOM     36  H   UNL A   1      44.460  28.440  29.739  1.00  0.00     0.167 HD
ATOM     37  C   UNL A   1      42.925  30.762  30.265  1.00  0.00     0.074 A 
ATOM     38  C   UNL A   1      41.793  31.658  30.389  1.00  0.00     0.031 C 
ATOM     39  C   UNL A   1      44.196  31.089  30.598  1.00  0.00     0.031 A 
BRANCH  26  40
ATOM     40  C   UNL A   1      48.281  26.541  29.761  1.00  0.00    -0.014 A 
ATOM     41  C   UNL A   1      48.753  25.946  30.939  1.00  0.00     0.009 A 
ATOM     42  C   UNL A   1      49.144  26.649  28.659  1.00  0.00     0.009 A 
ATOM     43  C   UNL A   1      50.071  25.485  31.019  1.00  0.00     0.001 A 
ATOM     44  C   UNL A   1      50.453  26.169  28.734  1.00  0.00     0.001 A 
ATOM     45  C   UNL A   1      50.917  25.593  29.916  1.00  0.00     0.000 A 
ENDBRANCH  26  40
BRANCH  27  46
ATOM     46  C   UNL A   1      38.689  29.168  29.003  1.00  0.00    -0.014 A 
ATOM     47  C   UNL A   1      37.833  29.046  30.107  1.00  0.00     0.009 A 
ATOM     48  C   UNL A   1      38.181  29.682  27.800  1.00  0.00     0.009 A 
ATOM     49  C   UNL A   1      36.490  29.414  30.001  1.00  0.00     0.001 A 
ATOM     50  C   UNL A   1      36.847  30.075  27.705  1.00  0.00     0.001 A 
ATOM     51  C   UNL A   1      36.000  29.933  28.803  1.00  0.00     0.000 A 
ENDBRANCH  27  46
BRANCH  39  52
ATOM     52  C   UNL A   1      44.426  32.480  31.112  1.00  0.00    -0.014 A 
ATOM     53  C   UNL A   1      44.445  32.747  32.490  1.00  0.00     0.009 A 
ATOM     54  C   UNL A   1      44.646  33.529  30.208  1.00  0.00     0.009 A 
ATOM     55  C   UNL A   1      44.649  34.048  32.950  1.00  0.00     0.001 A 
ATOM     56  C   UNL A   1      44.873  34.825  30.673  1.00  0.00     0.001 A 
ATOM     57  C   UNL A   1      44.865  35.084  32.043  1.00  0.00     0.000 A 
ENDBRANCH  39  52
ENDBRANCH  13  14
ENDBRANCH   6   8
ENDBRANCH   3   4
ENDBRANCH   2   3
ENDBRANCH   1   2
BRANCH   1  58
ATOM     58  C   UNL A   1      36.731  21.936  25.648  1.00  0.00     0.116 C 
BRANCH  58  59
ATOM     59  N   UNL A   1      35.668  21.976  26.640  1.00  0.00    -0.352 N 
ATOM     60  C   UNL A   1      34.510  22.707  26.615  1.00  0.00     0.251 C 
ATOM     61  H   UNL A   1      35.796  21.403  27.430  1.00  0.00     0.163 HD
ATOM     62  O   UNL A   1      33.748  22.738  27.574  1.00  0.00    -0.269 OA
BRANCH  60  63
ATOM     63  C   UNL A   1      34.194  23.477  25.404  1.00  0.00     0.042 A 
ATOM     64  C   UNL A   1      34.546  24.829  25.329  1.00  0.00     0.015 A 
ATOM     65  C   UNL A   1      33.510  22.847  24.365  1.00  0.00     0.054 A 
ATOM     66  C   UNL A   1      34.187  25.568  24.203  1.00  0.00     0.024 A 
ATOM     67  C   UNL A   1      33.138  23.598  23.256  1.00  0.00     0.142 A 
ATOM     68  C   UNL A   1      33.479  24.944  23.167  1.00  0.00     0.103 A 
ATOM     69  F   UNL A   1      32.432  22.993  22.293  1.00  0.00    -0.206 F 
BRANCH  68  70
ATOM     70  S   UNL A   1      33.014  25.898  21.756  1.00  0.00     0.188 S 
ATOM     71  O   UNL A   1      33.715  27.162  21.925  1.00  0.00    -0.223 OA
ATOM     72  O   UNL A   1      33.306  25.088  20.583  1.00  0.00    -0.223 OA
BRANCH  70  73
ATOM     73  C   UNL A   1      31.290  26.249  21.775  1.00  0.00     0.219 C 
BRANCH  73  74
ATOM     74  C   UNL A   1      31.011  27.531  22.486  1.00  0.00     0.143 A 
ATOM     75  N   UNL A   1      31.310  27.565  23.801  1.00  0.00    -0.240 NA
ATOM     76  N   UNL A   1      30.320  28.500  21.858  1.00  0.00    -0.240 NA
ATOM     77  C   UNL A   1      30.924  28.657  24.489  1.00  0.00     0.115 A 
ATOM     78  C   UNL A   1      29.964  29.575  22.588  1.00  0.00     0.115 A 
ATOM     79  C   UNL A   1      30.240  29.705  23.926  1.00  0.00     0.040 A 
ENDBRANCH  73  74
ENDBRANCH  70  73
ENDBRANCH  68  70
ENDBRANCH  60  63
ENDBRANCH  58  59
ENDBRANCH   1  58
TORSDOF 14
ENDMDL
MODEL 2
REMARK VINA RESULT:     -11.5      3.458      9.059
REMARK SMILES O=C(NCCCCNC(=O)c1ccc(S(=O)(=O)Cc2ncccn2)c(F)c1)c1ccc(-c2c3nc(c(-c4ccccc4)c4ccc([nH]4)c(-c4ccccc4)c4nc(c(-c5ccccc5)c5ccc2[nH]5)C=C4)C=C3)cc1
REMARK SMILES IDX 6 1 5 2 4 3 3 4 1 5 2 6 28 8 29 9 75 10 30 11 74 12 31 13
REMARK SMILES IDX 32 14 33 15 68 16 34 17 73 18 67 19 69 20 35 21 72 22 66 23
REMARK SMILES IDX 65 24 36 26 58 27 43 28 57 29 44 30 47 31 56 32 70 33 45 34
REMARK SMILES IDX 46 35 55 37 71 38 48 39 37 40 38 41 42 42 39 43 41 44 40 45
REMARK SMILES IDX 59 46 60 47 64 48 61 49 63 50 62 51 49 52 50 53 54 54 51 55
REMARK SMILES IDX 53 56 52 57 7 58 8 59 9 60 10 62 11 63 12 64 27 65 13 66
REMARK SMILES IDX 25 67 14 68 26 69 15 70 16 71 17 72 18 73 19 74 20 75 24 76
REMARK SMILES IDX 21 77 23 78 22 79
REMARK H PARENT 3 7 69 25 47 36 8 61
REMARK Flexibility Score: inf
ROOT
ATOM      1  C   UNL A   1      31.538  30.518  25.988  1.00  0.00     0.023 C 
ENDROOT
BRANCH   1   2
ATOM      2  C   UNL A   1      31.359  31.812  26.782  1.00  0.00     0.023 C 
BRANCH   2   3
ATOM      3  C   UNL A   1      32.647  32.552  27.126  1.00  0.00     0.116 C 
BRANCH   3   4
ATOM      4  N   UNL A   1      32.414  33.866  27.703  1.00  0.00    -0.352 N 
ATOM      5  O   UNL A   1      32.745  35.602  29.106  1.00  0.00    -0.269 OA
ATOM      6  C   UNL A   1      33.155  34.542  28.643  1.00  0.00     0.251 C 
ATOM      7  H   UNL A   1      31.615  34.337  27.375  1.00  0.00     0.163 HD
BRANCH   6   8
ATOM      8  C   UNL A   1      34.432  33.972  29.120  1.00  0.00     0.039 A 
ATOM      9  C   UNL A   1      35.639  34.300  28.497  1.00  0.00     0.014 A 
ATOM     10  C   UNL A   1      34.418  33.096  30.210  1.00  0.00     0.014 A 
ATOM     11  C   UNL A   1      36.808  33.649  28.875  1.00  0.00     0.010 A 
ATOM     12  C   UNL A   1      35.607  32.501  30.638  1.00  0.00     0.010 A 
ATOM     13  C   UNL A   1      36.806  32.750  29.954  1.00  0.00    -0.014 A 
BRANCH  13  14
ATOM     14  C   UNL A   1      38.083  32.128  30.385  1.00  0.00     0.031 A 
ATOM     15  C   UNL A   1      38.924  32.743  31.468  1.00  0.00     0.074 A 
ATOM     16  C   UNL A   1      38.468  30.976  29.801  1.00  0.00     0.049 A 
ATOM     17  N   UNL A   1      40.049  32.309  31.979  1.00  0.00    -0.248 NA
ATOM     18  C   UNL A   1      38.447  34.006  32.052  1.00  0.00     0.031 C 
ATOM     19  C   UNL A   1      37.740  30.288  28.733  1.00  0.00     0.029 A 
ATOM     20  N   UNL A   1      39.553  30.173  30.038  1.00  0.00    -0.354 N 
ATOM     21  C   UNL A   1      40.425  33.252  32.927  1.00  0.00     0.074 A 
ATOM     22  C   UNL A   1      39.418  34.291  32.910  1.00  0.00     0.031 C 
ATOM     23  C   UNL A   1      38.372  29.142  28.439  1.00  0.00     0.029 A 
ATOM     24  C   UNL A   1      39.575  29.043  29.258  1.00  0.00     0.049 A 
ATOM     25  H   UNL A   1      40.248  30.384  30.702  1.00  0.00     0.167 HD
ATOM     26  C   UNL A   1      41.509  33.249  33.738  1.00  0.00     0.031 A 
ATOM     27  C   UNL A   1      40.471  28.041  29.196  1.00  0.00     0.031 A 
ATOM     28  C   UNL A   1      42.508  32.212  33.761  1.00  0.00     0.049 A 
ATOM     29  C   UNL A   1      41.670  28.074  30.094  1.00  0.00     0.074 A 
ATOM     30  C   UNL A   1      43.625  32.108  34.573  1.00  0.00     0.029 A 
ATOM     31  N   UNL A   1      42.511  31.101  32.933  1.00  0.00    -0.354 N 
ATOM     32  N   UNL A   1      41.992  28.958  31.006  1.00  0.00    -0.248 NA
ATOM     33  C   UNL A   1      42.629  26.971  29.954  1.00  0.00     0.031 C 
ATOM     34  C   UNL A   1      44.325  30.953  34.208  1.00  0.00     0.029 A 
ATOM     35  C   UNL A   1      43.621  30.317  33.199  1.00  0.00     0.049 A 
ATOM     36  H   UNL A   1      41.826  30.899  32.255  1.00  0.00     0.167 HD
ATOM     37  C   UNL A   1      43.185  28.514  31.556  1.00  0.00     0.074 A 
ATOM     38  C   UNL A   1      43.517  27.270  30.891  1.00  0.00     0.031 C 
ATOM     39  C   UNL A   1      43.940  29.088  32.523  1.00  0.00     0.031 A 
BRANCH  26  40
ATOM     40  C   UNL A   1      41.691  34.419  34.664  1.00  0.00    -0.014 A 
ATOM     41  C   UNL A   1      42.368  35.575  34.252  1.00  0.00     0.009 A 
ATOM     42  C   UNL A   1      41.120  34.385  35.947  1.00  0.00     0.009 A 
ATOM     43  C   UNL A   1      42.488  36.669  35.114  1.00  0.00     0.001 A 
ATOM     44  C   UNL A   1      41.223  35.486  36.798  1.00  0.00     0.001 A 
ATOM     45  C   UNL A   1      41.912  36.625  36.384  1.00  0.00     0.000 A 
ENDBRANCH  26  40
BRANCH  27  46
ATOM     46  C   UNL A   1      40.265  26.928  28.235  1.00  0.00    -0.014 A 
ATOM     47  C   UNL A   1      40.816  26.987  26.947  1.00  0.00     0.009 A 
ATOM     48  C   UNL A   1      39.528  25.794  28.611  1.00  0.00     0.009 A 
ATOM     49  C   UNL A   1      40.617  25.938  26.048  1.00  0.00     0.001 A 
ATOM     50  C   UNL A   1      39.354  24.736  27.719  1.00  0.00     0.001 A 
ATOM     51  C   UNL A   1      39.891  24.812  26.435  1.00  0.00     0.000 A 
ENDBRANCH  27  46
BRANCH  39  52
ATOM     52  C   UNL A   1      45.189  28.360  32.928  1.00  0.00    -0.014 A 
ATOM     53  C   UNL A   1      46.413  28.617  32.291  1.00  0.00     0.009 A 
ATOM     54  C   UNL A   1      45.142  27.424  33.971  1.00  0.00     0.009 A 
ATOM     55  C   UNL A   1      47.562  27.924  32.674  1.00  0.00     0.001 A 
ATOM     56  C   UNL A   1      46.299  26.750  34.366  1.00  0.00     0.001 A 
ATOM     57  C   UNL A   1      47.505  26.994  33.711  1.00  0.00     0.000 A 
ENDBRANCH  39  52
ENDBRANCH  13  14
ENDBRANCH   6   8
ENDBRANCH   3   4
ENDBRANCH   2   3
ENDBRANCH   1   2
BRANCH   1  58
ATOM     58  C   UNL A   1      32.961  29.964  25.971  1.00  0.00     0.116 C 
BRANCH  58  59
ATOM     59  N   UNL A   1      33.416  29.670  24.621  1.00  0.00    -0.352 N 
ATOM     60  C   UNL A   1      33.477  28.456  23.990  1.00  0.00     0.251 C 
ATOM     61  H   UNL A   1      33.719  30.444  24.092  1.00  0.00     0.163 HD
ATOM     62  O   UNL A   1      33.992  28.331  22.885  1.00  0.00    -0.269 OA
BRANCH  60  63
ATOM     63  C   UNL A   1      32.915  27.283  24.673  1.00  0.00     0.042 A 
ATOM     64  C   UNL A   1      33.718  26.533  25.538  1.00  0.00     0.015 A 
ATOM     65  C   UNL A   1      31.595  26.919  24.409  1.00  0.00     0.054 A 
ATOM     66  C   UNL A   1      33.196  25.386  26.133  1.00  0.00     0.024 A 
ATOM     67  C   UNL A   1      31.091  25.761  24.990  1.00  0.00     0.142 A 
ATOM     68  C   UNL A   1      31.877  25.004  25.853  1.00  0.00     0.103 A 
ATOM     69  F   UNL A   1      29.841  25.394  24.683  1.00  0.00    -0.206 F 
BRANCH  68  70
ATOM     70  S   UNL A   1      31.236  23.537  26.598  1.00  0.00     0.188 S 
ATOM     71  O   UNL A   1      32.290  23.098  27.502  1.00  0.00    -0.223 OA
ATOM     72  O   UNL A   1      29.936  23.879  27.154  1.00  0.00    -0.223 OA
BRANCH  70  73
ATOM     73  C   UNL A   1      31.013  22.269  25.400  1.00  0.00     0.219 C 
BRANCH  73  74
ATOM     74  C   UNL A   1      32.234  21.418  25.284  1.00  0.00     0.143 A 
ATOM     75  N   UNL A   1      33.372  22.048  24.929  1.00  0.00    -0.240 NA
ATOM     76  N   UNL A   1      32.116  20.079  25.349  1.00  0.00    -0.240 NA
ATOM     77  C   UNL A   1      34.446  21.274  24.671  1.00  0.00     0.115 A 
ATOM     78  C   UNL A   1      33.220  19.350  25.090  1.00  0.00     0.115 A 
ATOM     79  C   UNL A   1      34.426  19.904  24.738  1.00  0.00     0.040 A 
ENDBRANCH  73  74
ENDBRANCH  70  73
ENDBRANCH  68  70
ENDBRANCH  60  63
ENDBRANCH  58  59
ENDBRANCH   1  58
TORSDOF 14
ENDMDL
MODEL 3
REMARK VINA RESULT:     -11.4      1.770      7.784
REMARK SMILES O=C(NCCCCNC(=O)c1ccc(S(=O)(=O)Cc2ncccn2)c(F)c1)c1ccc(-c2c3nc(c(-c4ccccc4)c4ccc([nH]4)c(-c4ccccc4)c4nc(c(-c5ccccc5)c5ccc2[nH]5)C=C4)C=C3)cc1
REMARK SMILES IDX 6 1 5 2 4 3 3 4 1 5 2 6 28 8 29 9 75 10 30 11 74 12 31 13
REMARK SMILES IDX 32 14 33 15 68 16 34 17 73 18 67 19 69 20 35 21 72 22 66 23
REMARK SMILES IDX 65 24 36 26 58 27 43 28 57 29 44 30 47 31 56 32 70 33 45 34
REMARK SMILES IDX 46 35 55 37 71 38 48 39 37 40 38 41 42 42 39 43 41 44 40 45
REMARK SMILES IDX 59 46 60 47 64 48 61 49 63 50 62 51 49 52 50 53 54 54 51 55
REMARK SMILES IDX 53 56 52 57 7 58 8 59 9 60 10 62 11 63 12 64 27 65 13 66
REMARK SMILES IDX 25 67 14 68 26 69 15 70 16 71 17 72 18 73 19 74 20 75 24 76
REMARK SMILES IDX 21 77 23 78 22 79
REMARK H PARENT 3 7 69 25 47 36 8 61
REMARK Flexibility Score: inf
ROOT
ATOM      1  C   UNL A   1      31.624  29.080  26.008  1.00  0.00     0.023 C 
ENDROOT
BRANCH   1   2
ATOM      2  C   UNL A   1      32.470  28.070  26.784  1.00  0.00     0.023 C 
BRANCH   2   3
ATOM      3  C   UNL A   1      33.800  28.596  27.309  1.00  0.00     0.116 C 
BRANCH   3   4
ATOM      4  N   UNL A   1      33.724  29.969  27.782  1.00  0.00    -0.352 N 
ATOM      5  O   UNL A   1      34.414  31.837  28.843  1.00  0.00    -0.269 OA
ATOM      6  C   UNL A   1      34.690  30.726  28.402  1.00  0.00     0.251 C 
ATOM      7  H   UNL A   1      32.861  30.420  27.639  1.00  0.00     0.163 HD
BRANCH   6   8
ATOM      8  C   UNL A   1      36.054  30.184  28.567  1.00  0.00     0.039 A 
ATOM      9  C   UNL A   1      36.451  29.599  29.772  1.00  0.00     0.014 A 
ATOM     10  C   UNL A   1      36.949  30.263  27.495  1.00  0.00     0.014 A 
ATOM     11  C   UNL A   1      37.777  29.219  29.950  1.00  0.00     0.010 A 
ATOM     12  C   UNL A   1      38.261  29.811  27.652  1.00  0.00     0.010 A 
ATOM     13  C   UNL A   1      38.694  29.314  28.890  1.00  0.00    -0.014 A 
BRANCH  13  14
ATOM     14  C   UNL A   1      40.083  28.830  29.085  1.00  0.00     0.031 A 
ATOM     15  C   UNL A   1      40.497  27.452  28.652  1.00  0.00     0.074 A 
ATOM     16  C   UNL A   1      40.984  29.665  29.638  1.00  0.00     0.049 A 
ATOM     17  N   UNL A   1      41.678  26.890  28.725  1.00  0.00    -0.248 NA
ATOM     18  C   UNL A   1      39.458  26.592  28.065  1.00  0.00     0.031 C 
ATOM     19  C   UNL A   1      40.700  31.023  30.106  1.00  0.00     0.029 A 
ATOM     20  N   UNL A   1      42.323  29.502  29.881  1.00  0.00    -0.354 N 
ATOM     21  C   UNL A   1      41.521  25.607  28.214  1.00  0.00     0.074 A 
ATOM     22  C   UNL A   1      40.127  25.467  27.850  1.00  0.00     0.031 C 
ATOM     23  C   UNL A   1      41.838  31.587  30.536  1.00  0.00     0.029 A 
ATOM     24  C   UNL A   1      42.918  30.614  30.424  1.00  0.00     0.049 A 
ATOM     25  H   UNL A   1      42.811  28.670  29.685  1.00  0.00     0.167 HD
ATOM     26  C   UNL A   1      42.455  24.639  28.061  1.00  0.00     0.031 A 
ATOM     27  C   UNL A   1      44.191  30.827  30.804  1.00  0.00     0.031 A 
ATOM     28  C   UNL A   1      43.842  24.780  28.416  1.00  0.00     0.049 A 
ATOM     29  C   UNL A   1      45.198  29.729  30.639  1.00  0.00     0.074 A 
ATOM     30  C   UNL A   1      44.869  23.862  28.266  1.00  0.00     0.029 A 
ATOM     31  N   UNL A   1      44.398  25.911  28.993  1.00  0.00    -0.354 N 
ATOM     32  N   UNL A   1      45.037  28.534  30.125  1.00  0.00    -0.248 NA
ATOM     33  C   UNL A   1      46.562  30.010  31.105  1.00  0.00     0.031 C 
ATOM     34  C   UNL A   1      46.038  24.424  28.790  1.00  0.00     0.029 A 
ATOM     35  C   UNL A   1      45.748  25.706  29.226  1.00  0.00     0.049 A 
ATOM     36  H   UNL A   1      43.906  26.736  29.206  1.00  0.00     0.167 HD
ATOM     37  C   UNL A   1      46.280  27.923  30.197  1.00  0.00     0.074 A 
ATOM     38  C   UNL A   1      47.189  28.887  30.783  1.00  0.00     0.031 C 
ATOM     39  C   UNL A   1      46.636  26.673  29.816  1.00  0.00     0.031 A 
BRANCH  26  40
ATOM     40  C   UNL A   1      42.004  23.319  27.500  1.00  0.00    -0.014 A 
ATOM     41  C   UNL A   1      42.180  23.007  26.144  1.00  0.00     0.009 A 
ATOM     42  C   UNL A   1      41.453  22.351  28.356  1.00  0.00     0.009 A 
ATOM     43  C   UNL A   1      41.793  21.758  25.651  1.00  0.00     0.001 A 
ATOM     44  C   UNL A   1      41.087  21.097  27.864  1.00  0.00     0.001 A 
ATOM     45  C   UNL A   1      41.251  20.803  26.512  1.00  0.00     0.000 A 
ENDBRANCH  26  40
BRANCH  27  46
ATOM     46  C   UNL A   1      44.575  32.135  31.390  1.00  0.00    -0.014 A 
ATOM     47  C   UNL A   1      44.460  32.362  32.769  1.00  0.00     0.009 A 
ATOM     48  C   UNL A   1      45.075  33.160  30.570  1.00  0.00     0.009 A 
ATOM     49  C   UNL A   1      44.821  33.595  33.313  1.00  0.00     0.001 A 
ATOM     50  C   UNL A   1      45.461  34.382  31.121  1.00  0.00     0.001 A 
ATOM     51  C   UNL A   1      45.326  34.602  32.491  1.00  0.00     0.000 A 
ENDBRANCH  27  46
BRANCH  39  52
ATOM     52  C   UNL A   1      48.074  26.290  30.005  1.00  0.00    -0.014 A 
ATOM     53  C   UNL A   1      49.014  26.486  28.982  1.00  0.00     0.009 A 
ATOM     54  C   UNL A   1      48.496  25.747  31.228  1.00  0.00     0.009 A 
ATOM     55  C   UNL A   1      50.346  26.114  29.171  1.00  0.00     0.001 A 
ATOM     56  C   UNL A   1      49.833  25.398  31.420  1.00  0.00     0.001 A 
ATOM     57  C   UNL A   1      50.754  25.573  30.389  1.00  0.00     0.000 A 
ENDBRANCH  39  52
ENDBRANCH  13  14
ENDBRANCH   6   8
ENDBRANCH   3   4
ENDBRANCH   2   3
ENDBRANCH   1   2
BRANCH   1  58
ATOM     58  C   UNL A   1      32.180  29.469  24.640  1.00  0.00     0.116 C 
BRANCH  58  59
ATOM     59  N   UNL A   1      31.158  29.434  23.606  1.00  0.00    -0.352 N 
ATOM     60  C   UNL A   1      30.881  28.427  22.718  1.00  0.00     0.251 C 
ATOM     61  H   UNL A   1      30.592  30.236  23.534  1.00  0.00     0.163 HD
ATOM     62  O   UNL A   1      30.065  28.572  21.816  1.00  0.00    -0.269 OA
BRANCH  60  63
ATOM     63  C   UNL A   1      31.598  27.153  22.861  1.00  0.00     0.042 A 
ATOM     64  C   UNL A   1      32.864  27.001  22.285  1.00  0.00     0.015 A 
ATOM     65  C   UNL A   1      30.978  26.103  23.536  1.00  0.00     0.054 A 
ATOM     66  C   UNL A   1      33.510  25.769  22.370  1.00  0.00     0.024 A 
ATOM     67  C   UNL A   1      31.620  24.872  23.597  1.00  0.00     0.142 A 
ATOM     68  C   UNL A   1      32.879  24.705  23.029  1.00  0.00     0.103 A 
ATOM     69  F   UNL A   1      30.987  23.859  24.200  1.00  0.00    -0.206 F 
BRANCH  68  70
ATOM     70  S   UNL A   1      33.702  23.144  23.111  1.00  0.00     0.188 S 
ATOM     71  O   UNL A   1      32.728  22.193  22.596  1.00  0.00    -0.223 OA
ATOM     72  O   UNL A   1      34.968  23.296  22.412  1.00  0.00    -0.223 OA
BRANCH  70  73
ATOM     73  C   UNL A   1      34.037  22.697  24.779  1.00  0.00     0.219 C 
BRANCH  73  74
ATOM     74  C   UNL A   1      35.498  22.771  25.072  1.00  0.00     0.143 A 
ATOM     75  N   UNL A   1      36.184  21.612  24.993  1.00  0.00    -0.240 NA
ATOM     76  N   UNL A   1      36.018  23.907  25.571  1.00  0.00    -0.240 NA
ATOM     77  C   UNL A   1      37.468  21.631  25.402  1.00  0.00     0.115 A 
ATOM     78  C   UNL A   1      37.308  23.877  25.958  1.00  0.00     0.115 A 
ATOM     79  C   UNL A   1      38.089  22.749  25.899  1.00  0.00     0.040 A 
ENDBRANCH  73  74
ENDBRANCH  70  73
ENDBRANCH  68  70
ENDBRANCH  60  63
ENDBRANCH  58  59
ENDBRANCH   1  58
TORSDOF 14
ENDMDL
