MODEL 1
REMARK VINA RESULT:     -12.4      0.000      0.000
REMARK SMILES CC1=Nc2ncnn2[C@H](c2ccc(F)cc2)[C@@H]1C(=O)NCCCCNC(=O)c1ccc(-c2c3nc(c(-c4ccccc4)c4ccc([nH]4)c(-c4ccccc4)c4nc(c(-c5ccccc5)c5ccc2[nH]5)C=C4)C=C3)cc1
REMARK SMILES IDX 23 1 22 2 21 3 20 4 18 5 19 6 17 8 1 9 2 10 3 11 4 12 9 13
REMARK SMILES IDX 5 14 8 15 6 16 7 17 10 18 11 19 16 20 12 21 15 22 13 23
REMARK SMILES IDX 14 24 24 25 25 26 26 27 27 29 28 30 29 31 75 32 30 33 74 34
REMARK SMILES IDX 31 35 32 36 33 37 68 38 34 39 73 40 67 41 69 42 35 43 72 44
REMARK SMILES IDX 66 45 65 46 36 48 58 49 43 50 57 51 44 52 47 53 56 54 70 55
REMARK SMILES IDX 45 56 46 57 55 59 71 60 48 61 37 62 38 63 42 64 39 65 41 66
REMARK SMILES IDX 40 67 59 68 60 69 64 70 61 71 63 72 62 73 49 74 50 75 54 76
REMARK SMILES IDX 51 77 53 78 52 79
REMARK H PARENT 20 7 25 28 69 47 47 58
REMARK Flexibility Score: inf
ROOT
ATOM      1  C   UNL A   1      33.671  28.834  27.096  1.00  0.00     0.023 C 
ENDROOT
BRANCH   1   2
ATOM      2  C   UNL A   1      33.388  28.639  25.595  1.00  0.00     0.023 C 
BRANCH   2   3
ATOM      3  C   UNL A   1      33.858  27.305  24.995  1.00  0.00     0.116 C 
BRANCH   3   4
ATOM      4  N   UNL A   1      33.690  27.310  23.551  1.00  0.00    -0.355 N 
ATOM      5  C   UNL A   1      33.277  26.295  22.744  1.00  0.00     0.231 C 
ATOM      6  O   UNL A   1      33.824  26.186  21.645  1.00  0.00    -0.274 OA
ATOM      7  H   UNL A   1      33.901  28.158  23.099  1.00  0.00     0.163 HD
BRANCH   5   8
ATOM      8  C   UNL A   1      32.178  25.352  23.175  1.00  0.00     0.152 C 
ATOM      9  C   UNL A   1      30.549  27.378  22.977  1.00  0.00     0.063 C 
ATOM     10  C   UNL A   1      31.024  26.168  23.758  1.00  0.00     0.034 C 
ATOM     11  N   UNL A   1      30.392  25.913  24.856  1.00  0.00    -0.220 NA
ATOM     12  C   UNL A   1      30.737  24.824  25.568  1.00  0.00     0.248 A 
ATOM     13  C   UNL A   1      32.645  24.157  24.068  1.00  0.00     0.159 C 
ATOM     14  N   UNL A   1      30.108  24.302  26.599  1.00  0.00    -0.198 NA
ATOM     15  N   UNL A   1      31.807  24.021  25.265  1.00  0.00    -0.221 N 
ATOM     16  C   UNL A   1      30.776  23.142  26.840  1.00  0.00     0.248 A 
ATOM     17  N   UNL A   1      31.794  22.894  26.017  1.00  0.00    -0.157 NA
BRANCH  13  18
ATOM     18  C   UNL A   1      34.124  23.812  24.372  1.00  0.00    -0.022 A 
ATOM     19  C   UNL A   1      34.859  23.096  23.392  1.00  0.00     0.009 A 
ATOM     20  C   UNL A   1      34.816  24.116  25.554  1.00  0.00     0.009 A 
ATOM     21  C   UNL A   1      36.199  22.735  23.575  1.00  0.00     0.039 A 
ATOM     22  C   UNL A   1      36.177  23.814  25.716  1.00  0.00     0.039 A 
ATOM     23  C   UNL A   1      36.856  23.122  24.729  1.00  0.00     0.123 A 
ATOM     24  F   UNL A   1      38.147  22.813  24.899  1.00  0.00    -0.207 F 
ENDBRANCH  13  18
ENDBRANCH   5   8
ENDBRANCH   3   4
ENDBRANCH   2   3
ENDBRANCH   1   2
BRANCH   1  25
ATOM     25  C   UNL A   1      35.136  29.076  27.427  1.00  0.00     0.116 C 
BRANCH  25  26
ATOM     26  N   UNL A   1      35.307  29.933  28.595  1.00  0.00    -0.352 N 
ATOM     27  C   UNL A   1      36.347  29.924  29.506  1.00  0.00     0.251 C 
ATOM     28  H   UNL A   1      34.597  30.596  28.755  1.00  0.00     0.163 HD
ATOM     29  O   UNL A   1      36.217  30.413  30.615  1.00  0.00    -0.269 OA
BRANCH  27  30
ATOM     30  C   UNL A   1      37.623  29.303  29.107  1.00  0.00     0.039 A 
ATOM     31  C   UNL A   1      38.281  29.707  27.943  1.00  0.00     0.014 A 
ATOM     32  C   UNL A   1      38.170  28.325  29.935  1.00  0.00     0.014 A 
ATOM     33  C   UNL A   1      39.537  29.175  27.664  1.00  0.00     0.010 A 
ATOM     34  C   UNL A   1      39.460  27.900  29.729  1.00  0.00     0.010 A 
ATOM     35  C   UNL A   1      40.135  28.287  28.575  1.00  0.00    -0.014 A 
BRANCH  35  36
ATOM     36  C   UNL A   1      41.518  27.858  28.382  1.00  0.00     0.031 A 
ATOM     37  C   UNL A   1      41.682  26.540  27.707  1.00  0.00     0.074 A 
ATOM     38  C   UNL A   1      42.586  28.657  28.594  1.00  0.00     0.049 A 
ATOM     39  N   UNL A   1      42.200  25.463  28.196  1.00  0.00    -0.248 NA
ATOM     40  C   UNL A   1      41.110  26.370  26.360  1.00  0.00     0.031 C 
ATOM     41  C   UNL A   1      42.607  30.078  28.959  1.00  0.00     0.029 A 
ATOM     42  N   UNL A   1      43.906  28.381  28.404  1.00  0.00    -0.354 N 
ATOM     43  C   UNL A   1      42.186  24.525  27.169  1.00  0.00     0.074 A 
ATOM     44  C   UNL A   1      41.377  25.086  26.116  1.00  0.00     0.031 C 
ATOM     45  C   UNL A   1      43.835  30.590  28.719  1.00  0.00     0.029 A 
ATOM     46  C   UNL A   1      44.727  29.501  28.369  1.00  0.00     0.049 A 
ATOM     47  H   UNL A   1      44.250  27.463  28.300  1.00  0.00     0.167 HD
ATOM     48  C   UNL A   1      43.028  23.454  27.167  1.00  0.00     0.031 A 
ATOM     49  C   UNL A   1      46.043  29.537  28.056  1.00  0.00     0.031 A 
ATOM     50  C   UNL A   1      43.608  23.224  28.465  1.00  0.00     0.049 A 
ATOM     51  C   UNL A   1      46.578  28.169  28.233  1.00  0.00     0.074 A 
ATOM     52  C   UNL A   1      43.105  22.950  29.721  1.00  0.00     0.029 A 
ATOM     53  N   UNL A   1      44.894  23.666  28.665  1.00  0.00    -0.354 N 
ATOM     54  N   UNL A   1      46.675  27.584  29.392  1.00  0.00    -0.248 NA
ATOM     55  C   UNL A   1      46.602  27.285  27.082  1.00  0.00     0.031 C 
ATOM     56  C   UNL A   1      43.916  23.711  30.612  1.00  0.00     0.029 A 
ATOM     57  C   UNL A   1      44.911  24.339  29.859  1.00  0.00     0.049 A 
ATOM     58  H   UNL A   1      45.661  23.524  28.065  1.00  0.00     0.167 HD
ATOM     59  C   UNL A   1      46.317  26.267  29.149  1.00  0.00     0.074 A 
ATOM     60  C   UNL A   1      46.395  26.117  27.696  1.00  0.00     0.031 C 
ATOM     61  C   UNL A   1      45.721  25.510  30.118  1.00  0.00     0.031 A 
BRANCH  48  62
ATOM     62  C   UNL A   1      43.624  22.872  25.911  1.00  0.00    -0.014 A 
ATOM     63  C   UNL A   1      43.667  21.475  25.755  1.00  0.00     0.009 A 
ATOM     64  C   UNL A   1      44.394  23.634  25.011  1.00  0.00     0.009 A 
ATOM     65  C   UNL A   1      44.483  20.875  24.787  1.00  0.00     0.001 A 
ATOM     66  C   UNL A   1      45.178  23.041  24.018  1.00  0.00     0.001 A 
ATOM     67  C   UNL A   1      45.241  21.659  23.923  1.00  0.00     0.000 A 
ENDBRANCH  48  62
BRANCH  49  68
ATOM     68  C   UNL A   1      46.813  30.599  27.379  1.00  0.00    -0.014 A 
ATOM     69  C   UNL A   1      46.164  31.714  26.825  1.00  0.00     0.009 A 
ATOM     70  C   UNL A   1      48.210  30.661  27.533  1.00  0.00     0.009 A 
ATOM     71  C   UNL A   1      46.882  32.867  26.481  1.00  0.00     0.001 A 
ATOM     72  C   UNL A   1      48.927  31.812  27.189  1.00  0.00     0.001 A 
ATOM     73  C   UNL A   1      48.260  32.921  26.678  1.00  0.00     0.000 A 
ENDBRANCH  49  68
BRANCH  61  74
ATOM     74  C   UNL A   1      45.681  26.064  31.523  1.00  0.00    -0.014 A 
ATOM     75  C   UNL A   1      44.661  26.912  31.991  1.00  0.00     0.009 A 
ATOM     76  C   UNL A   1      46.629  25.599  32.446  1.00  0.00     0.009 A 
ATOM     77  C   UNL A   1      44.614  27.309  33.333  1.00  0.00     0.001 A 
ATOM     78  C   UNL A   1      46.569  25.977  33.790  1.00  0.00     0.001 A 
ATOM     79  C   UNL A   1      45.567  26.836  34.233  1.00  0.00     0.000 A 
ENDBRANCH  61  74
ENDBRANCH  35  36
ENDBRANCH  27  30
ENDBRANCH  25  26
ENDBRANCH   1  25
TORSDOF 12
ENDMDL
MODEL 2
REMARK VINA RESULT:     -12.3      2.734      6.504
REMARK SMILES CC1=Nc2ncnn2[C@H](c2ccc(F)cc2)[C@@H]1C(=O)NCCCCNC(=O)c1ccc(-c2c3nc(c(-c4ccccc4)c4ccc([nH]4)c(-c4ccccc4)c4nc(c(-c5ccccc5)c5ccc2[nH]5)C=C4)C=C3)cc1
REMARK SMILES IDX 23 1 22 2 21 3 20 4 18 5 19 6 17 8 1 9 2 10 3 11 4 12 9 13
REMARK SMILES IDX 5 14 8 15 6 16 7 17 10 18 11 19 16 20 12 21 15 22 13 23
REMARK SMILES IDX 14 24 24 25 25 26 26 27 27 29 28 30 29 31 75 32 30 33 74 34
REMARK SMILES IDX 31 35 32 36 33 37 68 38 34 39 73 40 67 41 69 42 35 43 72 44
REMARK SMILES IDX 66 45 65 46 36 48 58 49 43 50 57 51 44 52 47 53 56 54 70 55
REMARK SMILES IDX 45 56 46 57 55 59 71 60 48 61 37 62 38 63 42 64 39 65 41 66
REMARK SMILES IDX 40 67 59 68 60 69 64 70 61 71 63 72 62 73 49 74 50 75 54 76
REMARK SMILES IDX 51 77 53 78 52 79
REMARK H PARENT 20 7 25 28 69 47 47 58
REMARK Flexibility Score: inf
ROOT
ATOM      1  C   UNL A   1      32.690  29.861  27.255  1.00  0.00     0.023 C 
ENDROOT
BRANCH   1   2
ATOM      2  C   UNL A   1      32.942  28.343  27.221  1.00  0.00     0.023 C 
BRANCH   2   3
ATOM      3  C   UNL A   1      32.191  27.565  26.129  1.00  0.00     0.116 C 
BRANCH   3   4
ATOM      4  N   UNL A   1      31.299  26.585  26.726  1.00  0.00    -0.355 N 
ATOM      5  C   UNL A   1      30.458  25.716  26.101  1.00  0.00     0.231 C 
ATOM      6  O   UNL A   1      29.363  25.509  26.627  1.00  0.00    -0.274 OA
ATOM      7  H   UNL A   1      31.304  26.544  27.709  1.00  0.00     0.163 HD
BRANCH   5   8
ATOM      8  C   UNL A   1      30.862  25.021  24.822  1.00  0.00     0.152 C 
ATOM      9  C   UNL A   1      32.742  23.861  26.208  1.00  0.00     0.063 C 
ATOM     10  C   UNL A   1      32.320  24.575  24.939  1.00  0.00     0.034 C 
ATOM     11  N   UNL A   1      33.236  24.734  24.041  1.00  0.00    -0.220 NA
ATOM     12  C   UNL A   1      32.910  25.319  22.873  1.00  0.00     0.248 A 
ATOM     13  C   UNL A   1      30.523  25.800  23.510  1.00  0.00     0.159 C 
ATOM     14  N   UNL A   1      33.642  25.407  21.784  1.00  0.00    -0.198 NA
ATOM     15  N   UNL A   1      31.682  25.873  22.613  1.00  0.00    -0.221 N 
ATOM     16  C   UNL A   1      32.798  25.944  20.863  1.00  0.00     0.248 A 
ATOM     17  N   UNL A   1      31.567  26.200  21.304  1.00  0.00    -0.157 NA
BRANCH  13  18
ATOM     18  C   UNL A   1      29.682  27.099  23.452  1.00  0.00    -0.022 A 
ATOM     19  C   UNL A   1      30.369  28.338  23.374  1.00  0.00     0.009 A 
ATOM     20  C   UNL A   1      28.282  27.179  23.501  1.00  0.00     0.009 A 
ATOM     21  C   UNL A   1      29.698  29.565  23.321  1.00  0.00     0.039 A 
ATOM     22  C   UNL A   1      27.603  28.401  23.383  1.00  0.00     0.039 A 
ATOM     23  C   UNL A   1      28.315  29.584  23.299  1.00  0.00     0.123 A 
ATOM     24  F   UNL A   1      27.663  30.750  23.213  1.00  0.00    -0.207 F 
ENDBRANCH  13  18
ENDBRANCH   5   8
ENDBRANCH   3   4
ENDBRANCH   2   3
ENDBRANCH   1   2
BRANCH   1  25
ATOM     25  C   UNL A   1      33.956  30.703  27.248  1.00  0.00     0.116 C 
BRANCH  25  26
ATOM     26  N   UNL A   1      33.963  31.705  28.307  1.00  0.00    -0.352 N 
ATOM     27  C   UNL A   1      34.857  31.824  29.355  1.00  0.00     0.251 C 
ATOM     28  H   UNL A   1      33.245  32.378  28.272  1.00  0.00     0.163 HD
ATOM     29  O   UNL A   1      34.570  32.452  30.359  1.00  0.00    -0.269 OA
BRANCH  27  30
ATOM     30  C   UNL A   1      36.171  31.167  29.234  1.00  0.00     0.039 A 
ATOM     31  C   UNL A   1      37.351  31.901  29.368  1.00  0.00     0.014 A 
ATOM     32  C   UNL A   1      36.205  29.793  29.009  1.00  0.00     0.014 A 
ATOM     33  C   UNL A   1      38.567  31.222  29.358  1.00  0.00     0.010 A 
ATOM     34  C   UNL A   1      37.392  29.111  29.129  1.00  0.00     0.010 A 
ATOM     35  C   UNL A   1      38.582  29.820  29.262  1.00  0.00    -0.014 A 
BRANCH  35  36
ATOM     36  C   UNL A   1      39.833  29.085  29.425  1.00  0.00     0.031 A 
ATOM     37  C   UNL A   1      40.171  28.716  30.828  1.00  0.00     0.074 A 
ATOM     38  C   UNL A   1      40.545  28.581  28.394  1.00  0.00     0.049 A 
ATOM     39  N   UNL A   1      41.180  29.115  31.527  1.00  0.00    -0.248 NA
ATOM     40  C   UNL A   1      39.216  27.882  31.579  1.00  0.00     0.031 C 
ATOM     41  C   UNL A   1      40.207  28.575  26.965  1.00  0.00     0.029 A 
ATOM     42  N   UNL A   1      41.690  27.845  28.430  1.00  0.00    -0.354 N 
ATOM     43  C   UNL A   1      41.095  28.450  32.746  1.00  0.00     0.074 A 
ATOM     44  C   UNL A   1      39.798  27.822  32.778  1.00  0.00     0.031 C 
ATOM     45  C   UNL A   1      40.979  27.671  26.321  1.00  0.00     0.029 A 
ATOM     46  C   UNL A   1      41.983  27.180  27.246  1.00  0.00     0.049 A 
ATOM     47  H   UNL A   1      42.264  27.789  29.229  1.00  0.00     0.167 HD
ATOM     48  C   UNL A   1      42.186  28.276  33.543  1.00  0.00     0.031 A 
ATOM     49  C   UNL A   1      42.968  26.275  27.042  1.00  0.00     0.031 A 
ATOM     50  C   UNL A   1      43.268  29.150  33.173  1.00  0.00     0.049 A 
ATOM     51  C   UNL A   1      43.972  26.463  28.111  1.00  0.00     0.074 A 
ATOM     52  C   UNL A   1      43.427  30.519  33.089  1.00  0.00     0.029 A 
ATOM     53  N   UNL A   1      44.286  28.608  32.425  1.00  0.00    -0.354 N 
ATOM     54  N   UNL A   1      44.712  27.527  28.217  1.00  0.00    -0.248 NA
ATOM     55  C   UNL A   1      43.851  25.662  29.318  1.00  0.00     0.031 C 
ATOM     56  C   UNL A   1      44.200  30.724  31.908  1.00  0.00     0.029 A 
ATOM     57  C   UNL A   1      44.532  29.470  31.388  1.00  0.00     0.049 A 
ATOM     58  H   UNL A   1      44.753  27.760  32.601  1.00  0.00     0.167 HD
ATOM     59  C   UNL A   1      44.774  27.777  29.579  1.00  0.00     0.074 A 
ATOM     60  C   UNL A   1      44.325  26.536  30.210  1.00  0.00     0.031 C 
ATOM     61  C   UNL A   1      44.912  29.049  30.057  1.00  0.00     0.031 A 
BRANCH  48  62
ATOM     62  C   UNL A   1      42.405  27.046  34.387  1.00  0.00    -0.014 A 
ATOM     63  C   UNL A   1      43.314  26.066  33.949  1.00  0.00     0.009 A 
ATOM     64  C   UNL A   1      41.548  26.687  35.445  1.00  0.00     0.009 A 
ATOM     65  C   UNL A   1      43.322  24.780  34.503  1.00  0.00     0.001 A 
ATOM     66  C   UNL A   1      41.581  25.417  36.029  1.00  0.00     0.001 A 
ATOM     67  C   UNL A   1      42.451  24.456  35.539  1.00  0.00     0.000 A 
ENDBRANCH  48  62
BRANCH  49  68
ATOM     68  C   UNL A   1      42.985  25.101  26.146  1.00  0.00    -0.014 A 
ATOM     69  C   UNL A   1      44.037  24.907  25.236  1.00  0.00     0.009 A 
ATOM     70  C   UNL A   1      42.117  24.020  26.388  1.00  0.00     0.009 A 
ATOM     71  C   UNL A   1      44.240  23.662  24.627  1.00  0.00     0.001 A 
ATOM     72  C   UNL A   1      42.320  22.777  25.779  1.00  0.00     0.001 A 
ATOM     73  C   UNL A   1      43.392  22.594  24.911  1.00  0.00     0.000 A 
ENDBRANCH  49  68
BRANCH  61  74
ATOM     74  C   UNL A   1      45.234  30.145  29.066  1.00  0.00    -0.014 A 
ATOM     75  C   UNL A   1      46.545  30.564  28.775  1.00  0.00     0.009 A 
ATOM     76  C   UNL A   1      44.186  30.671  28.297  1.00  0.00     0.009 A 
ATOM     77  C   UNL A   1      46.793  31.506  27.770  1.00  0.00     0.001 A 
ATOM     78  C   UNL A   1      44.436  31.595  27.279  1.00  0.00     0.001 A 
ATOM     79  C   UNL A   1      45.737  32.018  27.020  1.00  0.00     0.000 A 
ENDBRANCH  61  74
ENDBRANCH  35  36
ENDBRANCH  27  30
ENDBRANCH  25  26
ENDBRANCH   1  25
TORSDOF 12
ENDMDL
MODEL 3
REMARK VINA RESULT:     -12.2      3.239      7.201
REMARK SMILES CC1=Nc2ncnn2[C@H](c2ccc(F)cc2)[C@@H]1C(=O)NCCCCNC(=O)c1ccc(-c2c3nc(c(-c4ccccc4)c4ccc([nH]4)c(-c4ccccc4)c4nc(c(-c5ccccc5)c5ccc2[nH]5)C=C4)C=C3)cc1
REMARK SMILES IDX 23 1 22 2 21 3 20 4 18 5 19 6 17 8 1 9 2 10 3 11 4 12 9 13
REMARK SMILES IDX 5 14 8 15 6 16 7 17 10 18 11 19 16 20 12 21 15 22 13 23
REMARK SMILES IDX 14 24 24 25 25 26 26 27 27 29 28 30 29 31 75 32 30 33 74 34
REMARK SMILES IDX 31 35 32 36 33 37 68 38 34 39 73 40 67 41 69 42 35 43 72 44
REMARK SMILES IDX 66 45 65 46 36 48 58 49 43 50 57 51 44 52 47 53 56 54 70 55
REMARK SMILES IDX 45 56 46 57 55 59 71 60 48 61 37 62 38 63 42 64 39 65 41 66
REMARK SMILES IDX 40 67 59 68 60 69 64 70 61 71 63 72 62 73 49 74 50 75 54 76
REMARK SMILES IDX 51 77 53 78 52 79
REMARK H PARENT 20 7 25 28 69 47 47 58
REMARK Flexibility Score: inf
ROOT
ATOM      1  C   UNL A   1      37.643  21.740  24.985  1.00  0.00     0.023 C 
ENDROOT
BRANCH   1   2
ATOM      2  C   UNL A   1      36.210  21.420  25.448  1.00  0.00     0.023 C 
BRANCH   2   3
ATOM      3  C   UNL A   1      35.218  22.592  25.408  1.00  0.00     0.116 C 
BRANCH   3   4
ATOM      4  N   UNL A   1      35.220  23.215  24.095  1.00  0.00    -0.355 N 
ATOM      5  C   UNL A   1      34.171  23.416  23.252  1.00  0.00     0.231 C 
ATOM      6  O   UNL A   1      34.376  23.271  22.046  1.00  0.00    -0.274 OA
ATOM      7  H   UNL A   1      36.094  23.534  23.774  1.00  0.00     0.163 HD
BRANCH   5   8
ATOM      8  C   UNL A   1      32.813  23.819  23.778  1.00  0.00     0.152 C 
ATOM      9  C   UNL A   1      33.933  26.032  24.582  1.00  0.00     0.063 C 
ATOM     10  C   UNL A   1      32.996  24.875  24.869  1.00  0.00     0.034 C 
ATOM     11  N   UNL A   1      32.408  24.887  26.020  1.00  0.00    -0.220 NA
ATOM     12  C   UNL A   1      31.529  23.911  26.312  1.00  0.00     0.248 A 
ATOM     13  C   UNL A   1      31.878  22.631  24.173  1.00  0.00     0.159 C 
ATOM     14  N   UNL A   1      30.707  23.846  27.338  1.00  0.00    -0.198 NA
ATOM     15  N   UNL A   1      31.299  22.823  25.508  1.00  0.00    -0.221 N 
ATOM     16  C   UNL A   1      29.942  22.753  27.079  1.00  0.00     0.248 A 
ATOM     17  N   UNL A   1      30.226  22.119  25.942  1.00  0.00    -0.157 NA
BRANCH  13  18
ATOM     18  C   UNL A   1      32.192  21.138  23.904  1.00  0.00    -0.022 A 
ATOM     19  C   UNL A   1      32.650  20.345  24.987  1.00  0.00     0.009 A 
ATOM     20  C   UNL A   1      32.096  20.485  22.666  1.00  0.00     0.009 A 
ATOM     21  C   UNL A   1      32.963  18.988  24.844  1.00  0.00     0.039 A 
ATOM     22  C   UNL A   1      32.345  19.111  22.530  1.00  0.00     0.039 A 
ATOM     23  C   UNL A   1      32.782  18.375  23.617  1.00  0.00     0.123 A 
ATOM     24  F   UNL A   1      33.045  17.070  23.477  1.00  0.00    -0.207 F 
ENDBRANCH  13  18
ENDBRANCH   5   8
ENDBRANCH   3   4
ENDBRANCH   2   3
ENDBRANCH   1   2
BRANCH   1  25
ATOM     25  C   UNL A   1      38.561  22.232  26.093  1.00  0.00     0.116 C 
BRANCH  25  26
ATOM     26  N   UNL A   1      39.953  21.859  25.868  1.00  0.00    -0.352 N 
ATOM     27  C   UNL A   1      41.077  22.647  26.029  1.00  0.00     0.251 C 
ATOM     28  H   UNL A   1      40.111  20.936  25.565  1.00  0.00     0.163 HD
ATOM     29  O   UNL A   1      42.128  22.364  25.481  1.00  0.00    -0.269 OA
BRANCH  27  30
ATOM     30  C   UNL A   1      40.977  23.847  26.881  1.00  0.00     0.039 A 
ATOM     31  C   UNL A   1      41.852  24.038  27.951  1.00  0.00     0.014 A 
ATOM     32  C   UNL A   1      40.005  24.796  26.572  1.00  0.00     0.014 A 
ATOM     33  C   UNL A   1      41.794  25.236  28.658  1.00  0.00     0.010 A 
ATOM     34  C   UNL A   1      40.035  26.026  27.184  1.00  0.00     0.010 A 
ATOM     35  C   UNL A   1      40.897  26.241  28.255  1.00  0.00    -0.014 A 
BRANCH  35  36
ATOM     36  C   UNL A   1      40.946  27.562  28.875  1.00  0.00     0.031 A 
ATOM     37  C   UNL A   1      41.897  28.521  28.244  1.00  0.00     0.074 A 
ATOM     38  C   UNL A   1      40.067  27.985  29.809  1.00  0.00     0.049 A 
ATOM     39  N   UNL A   1      42.947  29.053  28.774  1.00  0.00    -0.248 NA
ATOM     40  C   UNL A   1      41.715  28.848  26.819  1.00  0.00     0.031 C 
ATOM     41  C   UNL A   1      38.878  27.294  30.324  1.00  0.00     0.029 A 
ATOM     42  N   UNL A   1      39.989  29.202  30.415  1.00  0.00    -0.354 N 
ATOM     43  C   UNL A   1      43.466  29.921  27.819  1.00  0.00     0.074 A 
ATOM     44  C   UNL A   1      42.759  29.647  26.593  1.00  0.00     0.031 C 
ATOM     45  C   UNL A   1      38.079  28.181  30.958  1.00  0.00     0.029 A 
ATOM     46  C   UNL A   1      38.781  29.446  31.056  1.00  0.00     0.049 A 
ATOM     47  H   UNL A   1      40.727  29.853  30.401  1.00  0.00     0.167 HD
ATOM     48  C   UNL A   1      44.280  30.958  28.162  1.00  0.00     0.031 A 
ATOM     49  C   UNL A   1      38.376  30.612  31.613  1.00  0.00     0.031 A 
ATOM     50  C   UNL A   1      44.811  30.808  29.491  1.00  0.00     0.049 A 
ATOM     51  C   UNL A   1      39.585  31.426  31.865  1.00  0.00     0.074 A 
ATOM     52  C   UNL A   1      45.588  29.860  30.127  1.00  0.00     0.029 A 
ATOM     53  N   UNL A   1      44.212  31.533  30.494  1.00  0.00    -0.354 N 
ATOM     54  N   UNL A   1      40.493  31.105  32.739  1.00  0.00    -0.248 NA
ATOM     55  C   UNL A   1      40.005  32.369  30.843  1.00  0.00     0.031 C 
ATOM     56  C   UNL A   1      45.025  29.742  31.431  1.00  0.00     0.029 A 
ATOM     57  C   UNL A   1      43.992  30.676  31.540  1.00  0.00     0.049 A 
ATOM     58  H   UNL A   1      43.984  32.490  30.466  1.00  0.00     0.167 HD
ATOM     59  C   UNL A   1      41.695  31.433  32.131  1.00  0.00     0.074 A 
ATOM     60  C   UNL A   1      41.327  32.310  31.020  1.00  0.00     0.031 C 
ATOM     61  C   UNL A   1      42.838  30.740  32.412  1.00  0.00     0.031 A 
BRANCH  48  62
ATOM     62  C   UNL A   1      44.270  32.287  27.451  1.00  0.00    -0.014 A 
ATOM     63  C   UNL A   1      43.756  33.416  28.114  1.00  0.00     0.009 A 
ATOM     64  C   UNL A   1      44.484  32.410  26.065  1.00  0.00     0.009 A 
ATOM     65  C   UNL A   1      43.422  34.582  27.415  1.00  0.00     0.001 A 
ATOM     66  C   UNL A   1      44.190  33.586  25.370  1.00  0.00     0.001 A 
ATOM     67  C   UNL A   1      43.634  34.664  26.042  1.00  0.00     0.000 A 
ENDBRANCH  48  62
BRANCH  49  68
ATOM     68  C   UNL A   1      37.015  31.175  31.712  1.00  0.00    -0.014 A 
ATOM     69  C   UNL A   1      36.546  31.711  32.922  1.00  0.00     0.009 A 
ATOM     70  C   UNL A   1      36.281  31.448  30.543  1.00  0.00     0.009 A 
ATOM     71  C   UNL A   1      35.410  32.531  32.952  1.00  0.00     0.001 A 
ATOM     72  C   UNL A   1      35.147  32.266  30.574  1.00  0.00     0.001 A 
ATOM     73  C   UNL A   1      34.721  32.821  31.777  1.00  0.00     0.000 A 
ENDBRANCH  49  68
BRANCH  61  74
ATOM     74  C   UNL A   1      42.811  29.771  33.572  1.00  0.00    -0.014 A 
ATOM     75  C   UNL A   1      42.348  28.447  33.462  1.00  0.00     0.009 A 
ATOM     76  C   UNL A   1      43.405  30.166  34.779  1.00  0.00     0.009 A 
ATOM     77  C   UNL A   1      42.446  27.560  34.540  1.00  0.00     0.001 A 
ATOM     78  C   UNL A   1      43.523  29.273  35.847  1.00  0.00     0.001 A 
ATOM     79  C   UNL A   1      43.038  27.973  35.731  1.00  0.00     0.000 A 
ENDBRANCH  61  74
ENDBRANCH  35  36
ENDBRANCH  27  30
ENDBRANCH  25  26
ENDBRANCH   1  25
TORSDOF 12
ENDMDL
