MODEL 1
REMARK VINA RESULT:     -11.5      0.000      0.000
REMARK SMILES C[C@H]1[C@H](C(=O)NCCCCNC(=O)c2ccc(-c3c4nc(c(-c5ccccc5)c5ccc([nH]5)c(-c5ccccc5)c5nc(c(-c6ccccc6)c6ccc3[nH]6)C=C5)C=C4)cc2)CCN1C(=O)[C@H]1CC[C@@H](C[NH3+])CC1
REMARK SMILES IDX 7 1 6 2 4 3 5 4 3 6 1 7 2 8 64 9 62 10 63 11 65 12 66 13
REMARK SMILES IDX 67 14 74 15 68 16 73 17 69 18 70 19 71 20 72 21 8 25 9 26
REMARK SMILES IDX 10 27 11 28 12 29 13 31 14 32 15 33 61 34 16 35 60 36 17 37
REMARK SMILES IDX 18 38 19 39 54 40 20 41 59 42 53 43 55 44 21 45 58 46 52 47
REMARK SMILES IDX 51 48 22 50 44 51 29 52 43 53 30 54 33 55 42 56 56 57 31 58
REMARK SMILES IDX 32 59 41 61 57 62 34 63 23 64 24 65 28 66 25 67 27 68 26 69
REMARK SMILES IDX 45 70 46 71 50 72 47 73 49 74 48 75 35 76 36 77 40 78 37 79
REMARK SMILES IDX 39 80 38 81
REMARK H PARENT 6 5 72 22 72 23 72 24 11 30 55 49 33 60
REMARK Flexibility Score: inf
ROOT
ATOM      1  C   UNL A   1      32.822  30.091  26.965  1.00  0.00     0.116 C 
ENDROOT
BRANCH   1   2
ATOM      2  N   UNL A   1      32.357  28.809  27.449  1.00  0.00    -0.356 N 
ATOM      3  C   UNL A   1      31.907  27.716  26.785  1.00  0.00     0.225 C 
ATOM      4  O   UNL A   1      31.495  26.778  27.475  1.00  0.00    -0.275 OA
ATOM      5  H   UNL A   1      32.370  28.714  28.428  1.00  0.00     0.163 HD
BRANCH   3   6
ATOM      6  C   UNL A   1      31.878  27.606  25.269  1.00  0.00     0.102 C 
ATOM      7  C   UNL A   1      33.588  28.495  23.700  1.00  0.00     0.032 C 
ATOM      8  C   UNL A   1      33.252  27.313  24.624  1.00  0.00     0.094 C 
ATOM      9  N   UNL A   1      33.059  26.065  23.866  1.00  0.00    -0.339 N 
ATOM     10  C   UNL A   1      30.896  26.585  24.696  1.00  0.00     0.037 C 
ATOM     11  C   UNL A   1      31.645  25.908  23.559  1.00  0.00     0.120 C 
BRANCH   9  12
ATOM     12  C   UNL A   1      33.942  25.104  23.407  1.00  0.00     0.225 C 
ATOM     13  O   UNL A   1      33.986  24.849  22.194  1.00  0.00    -0.275 OA
BRANCH  12  14
ATOM     14  C   UNL A   1      34.841  24.254  24.329  1.00  0.00     0.078 C 
ATOM     15  C   UNL A   1      34.228  23.897  25.679  1.00  0.00     0.014 C 
ATOM     16  C   UNL A   1      35.450  23.064  23.594  1.00  0.00     0.014 C 
ATOM     17  C   UNL A   1      35.111  22.967  26.515  1.00  0.00     0.010 C 
ATOM     18  C   UNL A   1      36.284  22.143  24.482  1.00  0.00     0.010 C 
ATOM     19  C   UNL A   1      35.523  21.701  25.741  1.00  0.00     0.044 C 
BRANCH  19  20
ATOM     20  C   UNL A   1      34.300  20.798  25.463  1.00  0.00     0.262 C 
BRANCH  20  21
ATOM     21  N   UNL A   1      33.457  20.594  26.636  1.00  0.00    -0.357 N 
ATOM     22  H   UNL A   1      32.979  21.464  26.867  1.00  0.00     0.344 HD
ATOM     23  H   UNL A   1      34.037  20.305  27.424  1.00  0.00     0.344 HD
ATOM     24  H   UNL A   1      32.768  19.870  26.437  1.00  0.00     0.344 HD
ENDBRANCH  20  21
ENDBRANCH  19  20
ENDBRANCH  12  14
ENDBRANCH   9  12
ENDBRANCH   3   6
ENDBRANCH   1   2
BRANCH   1  25
ATOM     25  C   UNL A   1      31.730  30.814  26.185  1.00  0.00     0.023 C 
BRANCH  25  26
ATOM     26  C   UNL A   1      31.445  32.248  26.601  1.00  0.00     0.023 C 
BRANCH  26  27
ATOM     27  C   UNL A   1      32.538  32.906  27.423  1.00  0.00     0.116 C 
BRANCH  27  28
ATOM     28  N   UNL A   1      32.266  34.300  27.742  1.00  0.00    -0.352 N 
ATOM     29  C   UNL A   1      32.915  35.132  28.626  1.00  0.00     0.251 C 
ATOM     30  H   UNL A   1      31.511  34.706  27.256  1.00  0.00     0.163 HD
ATOM     31  O   UNL A   1      32.489  36.256  28.850  1.00  0.00    -0.269 OA
BRANCH  29  32
ATOM     32  C   UNL A   1      34.108  34.632  29.339  1.00  0.00     0.039 A 
ATOM     33  C   UNL A   1      33.957  34.099  30.620  1.00  0.00     0.014 A 
ATOM     34  C   UNL A   1      35.357  34.628  28.714  1.00  0.00     0.014 A 
ATOM     35  C   UNL A   1      35.043  33.477  31.238  1.00  0.00     0.010 A 
ATOM     36  C   UNL A   1      36.406  33.922  29.284  1.00  0.00     0.010 A 
ATOM     37  C   UNL A   1      36.263  33.341  30.553  1.00  0.00    -0.014 A 
BRANCH  37  38
ATOM     38  C   UNL A   1      37.404  32.598  31.141  1.00  0.00     0.031 A 
ATOM     39  C   UNL A   1      37.996  33.049  32.447  1.00  0.00     0.074 A 
ATOM     40  C   UNL A   1      37.960  31.575  30.462  1.00  0.00     0.049 A 
ATOM     41  N   UNL A   1      39.043  32.587  33.081  1.00  0.00    -0.248 NA
ATOM     42  C   UNL A   1      37.346  34.190  33.112  1.00  0.00     0.031 C 
ATOM     43  C   UNL A   1      37.514  31.074  29.160  1.00  0.00     0.029 A 
ATOM     44  N   UNL A   1      39.029  30.774  30.777  1.00  0.00    -0.354 N 
ATOM     45  C   UNL A   1      39.192  33.397  34.199  1.00  0.00     0.074 A 
ATOM     46  C   UNL A   1      38.162  34.410  34.131  1.00  0.00     0.031 C 
ATOM     47  C   UNL A   1      38.283  30.031  28.803  1.00  0.00     0.029 A 
ATOM     48  C   UNL A   1      39.298  29.816  29.829  1.00  0.00     0.049 A 
ATOM     49  H   UNL A   1      39.554  30.877  31.603  1.00  0.00     0.167 HD
ATOM     50  C   UNL A   1      40.087  33.294  35.209  1.00  0.00     0.031 A 
ATOM     51  C   UNL A   1      40.255  28.872  29.792  1.00  0.00     0.031 A 
ATOM     52  C   UNL A   1      41.093  32.271  35.293  1.00  0.00     0.049 A 
ATOM     53  C   UNL A   1      41.232  28.770  30.929  1.00  0.00     0.074 A 
ATOM     54  C   UNL A   1      42.004  32.040  36.309  1.00  0.00     0.029 A 
ATOM     55  N   UNL A   1      41.316  31.305  34.325  1.00  0.00    -0.354 N 
ATOM     56  N   UNL A   1      41.314  29.501  32.015  1.00  0.00    -0.248 NA
ATOM     57  C   UNL A   1      42.241  27.704  30.840  1.00  0.00     0.031 C 
ATOM     58  C   UNL A   1      42.807  30.957  35.934  1.00  0.00     0.029 A 
ATOM     59  C   UNL A   1      42.363  30.487  34.709  1.00  0.00     0.049 A 
ATOM     60  H   UNL A   1      40.805  31.216  33.488  1.00  0.00     0.167 HD
ATOM     61  C   UNL A   1      42.365  28.967  32.749  1.00  0.00     0.074 A 
ATOM     62  C   UNL A   1      42.880  27.844  31.994  1.00  0.00     0.031 C 
ATOM     63  C   UNL A   1      42.860  29.373  33.944  1.00  0.00     0.031 A 
BRANCH  50  64
ATOM     64  C   UNL A   1      40.013  34.321  36.303  1.00  0.00    -0.014 A 
ATOM     65  C   UNL A   1      39.217  34.114  37.442  1.00  0.00     0.009 A 
ATOM     66  C   UNL A   1      40.764  35.502  36.205  1.00  0.00     0.009 A 
ATOM     67  C   UNL A   1      39.144  35.086  38.440  1.00  0.00     0.001 A 
ATOM     68  C   UNL A   1      40.710  36.460  37.219  1.00  0.00     0.001 A 
ATOM     69  C   UNL A   1      39.893  36.257  38.330  1.00  0.00     0.000 A 
ENDBRANCH  50  64
BRANCH  51  70
ATOM     70  C   UNL A   1      40.325  27.926  28.647  1.00  0.00    -0.014 A 
ATOM     71  C   UNL A   1      41.047  28.264  27.492  1.00  0.00     0.009 A 
ATOM     72  C   UNL A   1      39.668  26.688  28.699  1.00  0.00     0.009 A 
ATOM     73  C   UNL A   1      41.089  27.392  26.402  1.00  0.00     0.001 A 
ATOM     74  C   UNL A   1      39.733  25.806  27.617  1.00  0.00     0.001 A 
ATOM     75  C   UNL A   1      40.435  26.163  26.467  1.00  0.00     0.000 A 
ENDBRANCH  51  70
BRANCH  63  76
ATOM     76  C   UNL A   1      43.994  28.576  34.521  1.00  0.00    -0.014 A 
ATOM     77  C   UNL A   1      45.330  28.928  34.274  1.00  0.00     0.009 A 
ATOM     78  C   UNL A   1      43.719  27.484  35.359  1.00  0.00     0.009 A 
ATOM     79  C   UNL A   1      46.369  28.182  34.832  1.00  0.00     0.001 A 
ATOM     80  C   UNL A   1      44.760  26.756  35.935  1.00  0.00     0.001 A 
ATOM     81  C   UNL A   1      46.083  27.100  35.664  1.00  0.00     0.000 A 
ENDBRANCH  63  76
ENDBRANCH  37  38
ENDBRANCH  29  32
ENDBRANCH  27  28
ENDBRANCH  26  27
ENDBRANCH  25  26
ENDBRANCH   1  25
TORSDOF 15
ENDMDL
MODEL 2
REMARK VINA RESULT:     -11.2      4.141      9.527
REMARK SMILES C[C@H]1[C@H](C(=O)NCCCCNC(=O)c2ccc(-c3c4nc(c(-c5ccccc5)c5ccc([nH]5)c(-c5ccccc5)c5nc(c(-c6ccccc6)c6ccc3[nH]6)C=C5)C=C4)cc2)CCN1C(=O)[C@H]1CC[C@@H](C[NH3+])CC1
REMARK SMILES IDX 7 1 6 2 4 3 5 4 3 6 1 7 2 8 64 9 62 10 63 11 65 12 66 13
REMARK SMILES IDX 67 14 74 15 68 16 73 17 69 18 70 19 71 20 72 21 8 25 9 26
REMARK SMILES IDX 10 27 11 28 12 29 13 31 14 32 15 33 61 34 16 35 60 36 17 37
REMARK SMILES IDX 18 38 19 39 54 40 20 41 59 42 53 43 55 44 21 45 58 46 52 47
REMARK SMILES IDX 51 48 22 50 44 51 29 52 43 53 30 54 33 55 42 56 56 57 31 58
REMARK SMILES IDX 32 59 41 61 57 62 34 63 23 64 24 65 28 66 25 67 27 68 26 69
REMARK SMILES IDX 45 70 46 71 50 72 47 73 49 74 48 75 35 76 36 77 40 78 37 79
REMARK SMILES IDX 39 80 38 81
REMARK H PARENT 6 5 72 22 72 23 72 24 11 30 55 49 33 60
REMARK Flexibility Score: inf
ROOT
ATOM      1  C   UNL A   1      37.742  23.621  26.063  1.00  0.00     0.116 C 
ENDROOT
BRANCH   1   2
ATOM      2  N   UNL A   1      37.386  23.645  24.660  1.00  0.00    -0.356 N 
ATOM      3  C   UNL A   1      36.262  23.242  24.019  1.00  0.00     0.225 C 
ATOM      4  O   UNL A   1      36.271  23.311  22.786  1.00  0.00    -0.275 OA
ATOM      5  H   UNL A   1      38.079  24.019  24.070  1.00  0.00     0.163 HD
BRANCH   3   6
ATOM      6  C   UNL A   1      35.030  22.711  24.735  1.00  0.00     0.102 C 
ATOM      7  C   UNL A   1      34.695  22.604  27.195  1.00  0.00     0.032 C 
ATOM      8  C   UNL A   1      34.609  23.533  25.974  1.00  0.00     0.094 C 
ATOM      9  N   UNL A   1      33.223  23.950  25.703  1.00  0.00    -0.339 N 
ATOM     10  C   UNL A   1      33.780  22.545  23.871  1.00  0.00     0.037 C 
ATOM     11  C   UNL A   1      32.631  23.035  24.738  1.00  0.00     0.120 C 
BRANCH   9  12
ATOM     12  C   UNL A   1      32.440  24.977  26.201  1.00  0.00     0.225 C 
ATOM     13  O   UNL A   1      31.358  24.707  26.743  1.00  0.00    -0.275 OA
BRANCH  12  14
ATOM     14  C   UNL A   1      32.793  26.472  26.057  1.00  0.00     0.078 C 
ATOM     15  C   UNL A   1      33.441  26.858  24.732  1.00  0.00     0.014 C 
ATOM     16  C   UNL A   1      31.631  27.374  26.462  1.00  0.00     0.014 C 
ATOM     17  C   UNL A   1      33.675  28.364  24.591  1.00  0.00     0.010 C 
ATOM     18  C   UNL A   1      31.899  28.864  26.260  1.00  0.00     0.010 C 
ATOM     19  C   UNL A   1      32.393  29.181  24.841  1.00  0.00     0.044 C 
BRANCH  19  20
ATOM     20  C   UNL A   1      31.349  28.926  23.730  1.00  0.00     0.262 C 
BRANCH  20  21
ATOM     21  N   UNL A   1      31.813  29.318  22.404  1.00  0.00    -0.357 N 
ATOM     22  H   UNL A   1      31.444  28.670  21.708  1.00  0.00     0.344 HD
ATOM     23  H   UNL A   1      32.832  29.297  22.381  1.00  0.00     0.344 HD
ATOM     24  H   UNL A   1      31.487  30.262  22.195  1.00  0.00     0.344 HD
ENDBRANCH  20  21
ENDBRANCH  19  20
ENDBRANCH  12  14
ENDBRANCH   9  12
ENDBRANCH   3   6
ENDBRANCH   1   2
BRANCH   1  25
ATOM     25  C   UNL A   1      39.032  22.842  26.290  1.00  0.00     0.023 C 
BRANCH  25  26
ATOM     26  C   UNL A   1      39.065  21.423  25.746  1.00  0.00     0.023 C 
BRANCH  26  27
ATOM     27  C   UNL A   1      39.736  20.406  26.651  1.00  0.00     0.116 C 
BRANCH  27  28
ATOM     28  N   UNL A   1      40.847  19.709  26.019  1.00  0.00    -0.352 N 
ATOM     29  C   UNL A   1      42.132  20.147  25.793  1.00  0.00     0.251 C 
ATOM     30  H   UNL A   1      40.652  18.794  25.709  1.00  0.00     0.163 HD
ATOM     31  O   UNL A   1      42.919  19.465  25.152  1.00  0.00    -0.269 OA
BRANCH  29  32
ATOM     32  C   UNL A   1      42.537  21.476  26.295  1.00  0.00     0.039 A 
ATOM     33  C   UNL A   1      42.743  22.510  25.382  1.00  0.00     0.014 A 
ATOM     34  C   UNL A   1      42.643  21.711  27.668  1.00  0.00     0.014 A 
ATOM     35  C   UNL A   1      42.966  23.806  25.851  1.00  0.00     0.010 A 
ATOM     36  C   UNL A   1      42.762  23.014  28.132  1.00  0.00     0.010 A 
ATOM     37  C   UNL A   1      42.928  24.075  27.230  1.00  0.00    -0.014 A 
BRANCH  37  38
ATOM     38  C   UNL A   1      43.061  25.456  27.755  1.00  0.00     0.031 A 
ATOM     39  C   UNL A   1      44.414  25.982  28.142  1.00  0.00     0.074 A 
ATOM     40  C   UNL A   1      41.959  26.204  27.961  1.00  0.00     0.049 A 
ATOM     41  N   UNL A   1      44.728  27.126  28.696  1.00  0.00    -0.248 NA
ATOM     42  C   UNL A   1      45.564  25.092  27.908  1.00  0.00     0.031 C 
ATOM     43  C   UNL A   1      40.582  25.791  27.677  1.00  0.00     0.029 A 
ATOM     44  N   UNL A   1      41.826  27.474  28.465  1.00  0.00    -0.354 N 
ATOM     45  C   UNL A   1      46.101  27.078  28.900  1.00  0.00     0.074 A 
ATOM     46  C   UNL A   1      46.553  25.777  28.461  1.00  0.00     0.031 C 
ATOM     47  C   UNL A   1      39.748  26.800  27.982  1.00  0.00     0.029 A 
ATOM     48  C   UNL A   1      40.525  27.913  28.517  1.00  0.00     0.049 A 
ATOM     49  H   UNL A   1      42.590  28.018  28.762  1.00  0.00     0.167 HD
ATOM     50  C   UNL A   1      46.920  28.041  29.385  1.00  0.00     0.031 A 
ATOM     51  C   UNL A   1      40.016  29.081  28.949  1.00  0.00     0.031 A 
ATOM     52  C   UNL A   1      46.476  29.346  29.795  1.00  0.00     0.049 A 
ATOM     53  C   UNL A   1      40.945  30.139  29.473  1.00  0.00     0.074 A 
ATOM     54  C   UNL A   1      47.236  30.414  30.237  1.00  0.00     0.029 A 
ATOM     55  N   UNL A   1      45.154  29.758  29.809  1.00  0.00    -0.354 N 
ATOM     56  N   UNL A   1      42.251  30.104  29.594  1.00  0.00    -0.248 NA
ATOM     57  C   UNL A   1      40.331  31.401  29.909  1.00  0.00     0.031 C 
ATOM     58  C   UNL A   1      46.367  31.463  30.558  1.00  0.00     0.029 A 
ATOM     59  C   UNL A   1      45.072  31.061  30.269  1.00  0.00     0.049 A 
ATOM     60  H   UNL A   1      44.386  29.207  29.533  1.00  0.00     0.167 HD
ATOM     61  C   UNL A   1      42.615  31.347  30.095  1.00  0.00     0.074 A 
ATOM     62  C   UNL A   1      41.397  32.117  30.241  1.00  0.00     0.031 C 
ATOM     63  C   UNL A   1      43.851  31.810  30.407  1.00  0.00     0.031 A 
BRANCH  50  64
ATOM     64  C   UNL A   1      48.381  27.710  29.496  1.00  0.00    -0.014 A 
ATOM     65  C   UNL A   1      49.236  27.818  28.387  1.00  0.00     0.009 A 
ATOM     66  C   UNL A   1      48.914  27.306  30.730  1.00  0.00     0.009 A 
ATOM     67  C   UNL A   1      50.588  27.489  28.503  1.00  0.00     0.001 A 
ATOM     68  C   UNL A   1      50.273  27.005  30.848  1.00  0.00     0.001 A 
ATOM     69  C   UNL A   1      51.106  27.086  29.733  1.00  0.00     0.000 A 
ENDBRANCH  50  64
BRANCH  51  70
ATOM     70  C   UNL A   1      38.551  29.326  28.882  1.00  0.00    -0.014 A 
ATOM     71  C   UNL A   1      37.747  29.130  30.015  1.00  0.00     0.009 A 
ATOM     72  C   UNL A   1      37.949  29.749  27.687  1.00  0.00     0.009 A 
ATOM     73  C   UNL A   1      36.367  29.329  29.947  1.00  0.00     0.001 A 
ATOM     74  C   UNL A   1      36.571  29.973  27.629  1.00  0.00     0.001 A 
ATOM     75  C   UNL A   1      35.781  29.753  28.756  1.00  0.00     0.000 A 
ENDBRANCH  51  70
BRANCH  63  76
ATOM     76  C   UNL A   1      43.947  33.223  30.905  1.00  0.00    -0.014 A 
ATOM     77  C   UNL A   1      44.063  34.301  30.016  1.00  0.00     0.009 A 
ATOM     78  C   UNL A   1      43.876  33.478  32.284  1.00  0.00     0.009 A 
ATOM     79  C   UNL A   1      44.137  35.608  30.500  1.00  0.00     0.001 A 
ATOM     80  C   UNL A   1      43.925  34.788  32.763  1.00  0.00     0.001 A 
ATOM     81  C   UNL A   1      44.064  35.850  31.871  1.00  0.00     0.000 A 
ENDBRANCH  63  76
ENDBRANCH  37  38
ENDBRANCH  29  32
ENDBRANCH  27  28
ENDBRANCH  26  27
ENDBRANCH  25  26
ENDBRANCH   1  25
TORSDOF 15
ENDMDL
MODEL 3
REMARK VINA RESULT:     -11.1      4.950     10.304
REMARK SMILES C[C@H]1[C@H](C(=O)NCCCCNC(=O)c2ccc(-c3c4nc(c(-c5ccccc5)c5ccc([nH]5)c(-c5ccccc5)c5nc(c(-c6ccccc6)c6ccc3[nH]6)C=C5)C=C4)cc2)CCN1C(=O)[C@H]1CC[C@@H](C[NH3+])CC1
REMARK SMILES IDX 7 1 6 2 4 3 5 4 3 6 1 7 2 8 64 9 62 10 63 11 65 12 66 13
REMARK SMILES IDX 67 14 74 15 68 16 73 17 69 18 70 19 71 20 72 21 8 25 9 26
REMARK SMILES IDX 10 27 11 28 12 29 13 31 14 32 15 33 61 34 16 35 60 36 17 37
REMARK SMILES IDX 18 38 19 39 54 40 20 41 59 42 53 43 55 44 21 45 58 46 52 47
REMARK SMILES IDX 51 48 22 50 44 51 29 52 43 53 30 54 33 55 42 56 56 57 31 58
REMARK SMILES IDX 32 59 41 61 57 62 34 63 23 64 24 65 28 66 25 67 27 68 26 69
REMARK SMILES IDX 45 70 46 71 50 72 47 73 49 74 48 75 35 76 36 77 40 78 37 79
REMARK SMILES IDX 39 80 38 81
REMARK H PARENT 6 5 72 22 72 23 72 24 11 30 55 49 33 60
REMARK Flexibility Score: inf
ROOT
ATOM      1  C   UNL A   1      35.406  20.223  24.997  1.00  0.00     0.116 C 
ENDROOT
BRANCH   1   2
ATOM      2  N   UNL A   1      34.589  20.605  26.128  1.00  0.00    -0.356 N 
ATOM      3  C   UNL A   1      33.947  21.764  26.413  1.00  0.00     0.225 C 
ATOM      4  O   UNL A   1      33.383  21.831  27.510  1.00  0.00    -0.275 OA
ATOM      5  H   UNL A   1      34.482  19.902  26.809  1.00  0.00     0.163 HD
BRANCH   3   6
ATOM      6  C   UNL A   1      33.906  22.956  25.470  1.00  0.00     0.102 C 
ATOM      7  C   UNL A   1      32.432  23.205  23.484  1.00  0.00     0.032 C 
ATOM      8  C   UNL A   1      32.485  23.358  25.012  1.00  0.00     0.094 C 
ATOM      9  N   UNL A   1      32.335  24.764  25.426  1.00  0.00    -0.339 N 
ATOM     10  C   UNL A   1      34.581  24.229  25.979  1.00  0.00     0.037 C 
ATOM     11  C   UNL A   1      33.654  25.362  25.568  1.00  0.00     0.120 C 
BRANCH   9  12
ATOM     12  C   UNL A   1      31.225  25.558  25.656  1.00  0.00     0.225 C 
ATOM     13  O   UNL A   1      30.454  25.271  26.582  1.00  0.00    -0.275 OA
BRANCH  12  14
ATOM     14  C   UNL A   1      30.831  26.758  24.769  1.00  0.00     0.078 C 
ATOM     15  C   UNL A   1      31.338  28.113  25.253  1.00  0.00     0.014 C 
ATOM     16  C   UNL A   1      31.102  26.490  23.292  1.00  0.00     0.014 C 
ATOM     17  C   UNL A   1      31.014  29.257  24.289  1.00  0.00     0.010 C 
ATOM     18  C   UNL A   1      30.807  27.677  22.379  1.00  0.00     0.010 C 
ATOM     19  C   UNL A   1      31.494  28.965  22.855  1.00  0.00     0.044 C 
BRANCH  19  20
ATOM     20  C   UNL A   1      33.038  28.928  22.783  1.00  0.00     0.262 C 
BRANCH  20  21
ATOM     21  N   UNL A   1      33.542  28.155  21.654  1.00  0.00    -0.357 N 
ATOM     22  H   UNL A   1      33.859  28.789  20.922  1.00  0.00     0.344 HD
ATOM     23  H   UNL A   1      32.798  27.560  21.290  1.00  0.00     0.344 HD
ATOM     24  H   UNL A   1      34.322  27.574  21.962  1.00  0.00     0.344 HD
ENDBRANCH  20  21
ENDBRANCH  19  20
ENDBRANCH  12  14
ENDBRANCH   9  12
ENDBRANCH   3   6
ENDBRANCH   1   2
BRANCH   1  25
ATOM     25  C   UNL A   1      36.817  20.788  25.120  1.00  0.00     0.023 C 
BRANCH  25  26
ATOM     26  C   UNL A   1      37.954  19.785  25.014  1.00  0.00     0.023 C 
BRANCH  26  27
ATOM     27  C   UNL A   1      39.218  20.167  25.761  1.00  0.00     0.116 C 
BRANCH  27  28
ATOM     28  N   UNL A   1      40.206  19.100  25.816  1.00  0.00    -0.352 N 
ATOM     29  C   UNL A   1      41.558  19.179  26.064  1.00  0.00     0.251 C 
ATOM     30  H   UNL A   1      39.859  18.192  25.654  1.00  0.00     0.163 HD
ATOM     31  O   UNL A   1      42.267  18.187  25.971  1.00  0.00    -0.269 OA
BRANCH  29  32
ATOM     32  C   UNL A   1      42.152  20.490  26.397  1.00  0.00     0.039 A 
ATOM     33  C   UNL A   1      42.523  21.348  25.361  1.00  0.00     0.014 A 
ATOM     34  C   UNL A   1      42.274  20.893  27.728  1.00  0.00     0.014 A 
ATOM     35  C   UNL A   1      42.933  22.648  25.659  1.00  0.00     0.010 A 
ATOM     36  C   UNL A   1      42.582  22.215  28.018  1.00  0.00     0.010 A 
ATOM     37  C   UNL A   1      42.918  23.107  26.987  1.00  0.00    -0.014 A 
BRANCH  37  38
ATOM     38  C   UNL A   1      43.250  24.512  27.327  1.00  0.00     0.031 A 
ATOM     39  C   UNL A   1      44.683  24.965  27.315  1.00  0.00     0.074 A 
ATOM     40  C   UNL A   1      42.276  25.354  27.727  1.00  0.00     0.049 A 
ATOM     41  N   UNL A   1      45.185  26.124  27.660  1.00  0.00    -0.248 NA
ATOM     42  C   UNL A   1      45.688  23.977  26.890  1.00  0.00     0.031 C 
ATOM     43  C   UNL A   1      40.853  25.022  27.835  1.00  0.00     0.029 A 
ATOM     44  N   UNL A   1      42.342  26.666  28.123  1.00  0.00    -0.354 N 
ATOM     45  C   UNL A   1      46.561  25.992  27.522  1.00  0.00     0.074 A 
ATOM     46  C   UNL A   1      46.819  24.629  27.112  1.00  0.00     0.031 C 
ATOM     47  C   UNL A   1      40.177  26.111  28.237  1.00  0.00     0.029 A 
ATOM     48  C   UNL A   1      41.121  27.203  28.453  1.00  0.00     0.049 A 
ATOM     49  H   UNL A   1      43.183  27.174  28.168  1.00  0.00     0.167 HD
ATOM     50  C   UNL A   1      47.524  26.927  27.693  1.00  0.00     0.031 A 
ATOM     51  C   UNL A   1      40.798  28.437  28.883  1.00  0.00     0.031 A 
ATOM     52  C   UNL A   1      47.267  28.289  28.072  1.00  0.00     0.049 A 
ATOM     53  C   UNL A   1      41.883  29.462  29.056  1.00  0.00     0.074 A 
ATOM     54  C   UNL A   1      48.168  29.331  28.206  1.00  0.00     0.029 A 
ATOM     55  N   UNL A   1      46.014  28.799  28.373  1.00  0.00    -0.354 N 
ATOM     56  N   UNL A   1      43.173  29.340  28.852  1.00  0.00    -0.248 NA
ATOM     57  C   UNL A   1      41.465  30.797  29.507  1.00  0.00     0.031 C 
ATOM     58  C   UNL A   1      47.463  30.463  28.629  1.00  0.00     0.029 A 
ATOM     59  C   UNL A   1      46.119  30.136  28.711  1.00  0.00     0.049 A 
ATOM     60  H   UNL A   1      45.174  28.285  28.350  1.00  0.00     0.167 HD
ATOM     61  C   UNL A   1      43.716  30.589  29.125  1.00  0.00     0.074 A 
ATOM     62  C   UNL A   1      42.616  31.456  29.493  1.00  0.00     0.031 C 
ATOM     63  C   UNL A   1      45.012  30.982  29.074  1.00  0.00     0.031 A 
BRANCH  50  64
ATOM     64  C   UNL A   1      48.947  26.499  27.470  1.00  0.00    -0.014 A 
ATOM     65  C   UNL A   1      49.532  26.558  26.194  1.00  0.00     0.009 A 
ATOM     66  C   UNL A   1      49.719  26.050  28.552  1.00  0.00     0.009 A 
ATOM     67  C   UNL A   1      50.849  26.139  26.000  1.00  0.00     0.001 A 
ATOM     68  C   UNL A   1      51.046  25.658  28.359  1.00  0.00     0.001 A 
ATOM     69  C   UNL A   1      51.606  25.693  27.083  1.00  0.00     0.000 A 
ENDBRANCH  50  64
BRANCH  51  70
ATOM     70  C   UNL A   1      39.379  28.783  29.157  1.00  0.00    -0.014 A 
ATOM     71  C   UNL A   1      38.555  29.263  28.128  1.00  0.00     0.009 A 
ATOM     72  C   UNL A   1      38.843  28.643  30.446  1.00  0.00     0.009 A 
ATOM     73  C   UNL A   1      37.230  29.620  28.389  1.00  0.00     0.001 A 
ATOM     74  C   UNL A   1      37.510  28.975  30.700  1.00  0.00     0.001 A 
ATOM     75  C   UNL A   1      36.708  29.472  29.673  1.00  0.00     0.000 A 
ENDBRANCH  51  70
BRANCH  63  76
ATOM     76  C   UNL A   1      45.304  32.420  29.394  1.00  0.00    -0.014 A 
ATOM     77  C   UNL A   1      45.631  32.823  30.698  1.00  0.00     0.009 A 
ATOM     78  C   UNL A   1      45.293  33.375  28.366  1.00  0.00     0.009 A 
ATOM     79  C   UNL A   1      45.913  34.163  30.971  1.00  0.00     0.001 A 
ATOM     80  C   UNL A   1      45.600  34.709  28.637  1.00  0.00     0.001 A 
ATOM     81  C   UNL A   1      45.901  35.103  29.940  1.00  0.00     0.000 A 
ENDBRANCH  63  76
ENDBRANCH  37  38
ENDBRANCH  29  32
ENDBRANCH  27  28
ENDBRANCH  26  27
ENDBRANCH  25  26
ENDBRANCH   1  25
TORSDOF 15
ENDMDL
