MODEL 1
REMARK VINA RESULT:     -12.0      0.000      0.000
REMARK SMILES Cc1cccc(NC(=O)COc2ccc(N3C[C@@H](C(=O)NCCCCNC(=O)c4ccc(-c5c6nc(c(-c7ccccc7)c7ccc([nH]7)c(-c7ccccc7)c7nc(c(-c8ccccc8)c8ccc5[nH]8)C=C7)C=C6)cc4)CC3=O)cc2)c1
REMARK SMILES IDX 22 1 21 2 19 3 20 4 18 6 16 7 17 8 78 9 77 10 79 11 15 12
REMARK SMILES IDX 12 13 13 14 81 15 14 16 80 17 11 18 10 19 8 20 7 21 9 23
REMARK SMILES IDX 6 24 1 25 2 26 3 27 82 28 4 29 5 30 23 31 24 32 25 33 26 34
REMARK SMILES IDX 27 35 28 37 29 38 30 39 76 40 31 41 75 42 32 43 33 44 34 45
REMARK SMILES IDX 69 46 35 47 74 48 68 49 70 50 36 51 73 52 67 53 66 54 37 56
REMARK SMILES IDX 59 57 44 58 58 59 45 60 48 61 57 62 71 63 46 64 47 65 56 67
REMARK SMILES IDX 72 68 49 69 38 70 39 71 43 72 40 73 42 74 41 75 60 76 61 77
REMARK SMILES IDX 65 78 62 79 64 80 63 81 50 82 51 83 55 84 52 85 54 86 53 87
REMARK H PARENT 21 5 7 22 26 36 70 55 48 66
REMARK Flexibility Score: inf
ROOT
ATOM      1  C   UNL A   1      36.932  23.184  25.239  1.00  0.00     0.116 C 
ENDROOT
BRANCH   1   2
ATOM      2  N   UNL A   1      36.785  21.753  25.016  1.00  0.00    -0.356 N 
ATOM      3  C   UNL A   1      35.713  20.921  25.042  1.00  0.00     0.225 C 
ATOM      4  O   UNL A   1      35.921  19.734  24.771  1.00  0.00    -0.275 OA
ATOM      5  H   UNL A   1      37.632  21.297  24.804  1.00  0.00     0.163 HD
BRANCH   3   6
ATOM      6  C   UNL A   1      34.300  21.380  25.336  1.00  0.00     0.107 C 
ATOM      7  N   UNL A   1      33.375  23.395  26.134  1.00  0.00    -0.312 N 
ATOM      8  C   UNL A   1      34.094  22.845  25.012  1.00  0.00     0.139 C 
ATOM      9  C   UNL A   1      33.276  22.503  27.203  1.00  0.00     0.227 C 
ATOM     10  C   UNL A   1      33.821  21.169  26.759  1.00  0.00     0.116 C 
ATOM     11  O   UNL A   1      32.807  22.689  28.306  1.00  0.00    -0.274 OA
BRANCH   7  12
ATOM     12  C   UNL A   1      32.950  24.742  26.151  1.00  0.00     0.044 A 
ATOM     13  C   UNL A   1      32.138  27.437  26.249  1.00  0.00     0.120 A 
ATOM     14  C   UNL A   1      33.411  27.101  25.796  1.00  0.00     0.048 A 
ATOM     15  C   UNL A   1      31.257  26.425  26.618  1.00  0.00     0.048 A 
ATOM     16  C   UNL A   1      33.826  25.767  25.777  1.00  0.00     0.030 A 
ATOM     17  C   UNL A   1      31.655  25.085  26.548  1.00  0.00     0.030 A 
BRANCH  13  18
ATOM     18  O   UNL A   1      31.836  28.765  26.207  1.00  0.00    -0.484 OA
BRANCH  18  19
ATOM     19  C   UNL A   1      31.942  29.407  24.949  1.00  0.00     0.329 C 
BRANCH  19  20
ATOM     20  C   UNL A   1      30.797  29.301  23.944  1.00  0.00     0.262 C 
ATOM     21  N   UNL A   1      30.630  28.248  23.098  1.00  0.00    -0.323 N 
ATOM     22  H   UNL A   1      29.789  28.300  22.589  1.00  0.00     0.170 HD
ATOM     23  O   UNL A   1      29.949  30.204  23.890  1.00  0.00    -0.271 OA
BRANCH  21  24
ATOM     24  C   UNL A   1      31.383  27.103  22.788  1.00  0.00     0.041 A 
ATOM     25  C   UNL A   1      30.836  23.351  23.286  1.00  0.00     0.044 C 
ATOM     26  C   UNL A   1      31.462  24.658  22.899  1.00  0.00    -0.049 A 
ATOM     27  C   UNL A   1      32.703  24.676  22.261  1.00  0.00     0.003 A 
ATOM     28  C   UNL A   1      30.815  25.874  23.159  1.00  0.00     0.029 A 
ATOM     29  C   UNL A   1      33.269  25.887  21.873  1.00  0.00     0.002 A 
ATOM     30  C   UNL A   1      32.605  27.092  22.121  1.00  0.00     0.026 A 
ENDBRANCH  21  24
ENDBRANCH  19  20
ENDBRANCH  18  19
ENDBRANCH  13  18
ENDBRANCH   7  12
ENDBRANCH   3   6
ENDBRANCH   1   2
BRANCH   1  31
ATOM     31  C   UNL A   1      38.135  23.540  26.125  1.00  0.00     0.023 C 
BRANCH  31  32
ATOM     32  C   UNL A   1      39.092  22.391  26.443  1.00  0.00     0.023 C 
BRANCH  32  33
ATOM     33  C   UNL A   1      40.513  22.595  25.954  1.00  0.00     0.116 C 
BRANCH  33  34
ATOM     34  N   UNL A   1      41.283  21.373  25.775  1.00  0.00    -0.352 N 
ATOM     35  C   UNL A   1      42.591  21.084  26.128  1.00  0.00     0.251 C 
ATOM     36  H   UNL A   1      40.799  20.636  25.334  1.00  0.00     0.163 HD
ATOM     37  O   UNL A   1      43.089  20.017  25.776  1.00  0.00    -0.269 OA
BRANCH  35  38
ATOM     38  C   UNL A   1      43.325  21.953  27.088  1.00  0.00     0.039 A 
ATOM     39  C   UNL A   1      42.868  21.947  28.413  1.00  0.00     0.014 A 
ATOM     40  C   UNL A   1      44.129  22.991  26.640  1.00  0.00     0.014 A 
ATOM     41  C   UNL A   1      42.892  23.128  29.140  1.00  0.00     0.010 A 
ATOM     42  C   UNL A   1      44.023  24.197  27.279  1.00  0.00     0.010 A 
ATOM     43  C   UNL A   1      43.331  24.270  28.487  1.00  0.00    -0.014 A 
BRANCH  43  44
ATOM     44  C   UNL A   1      43.130  25.619  28.961  1.00  0.00     0.031 A 
ATOM     45  C   UNL A   1      41.942  26.329  28.483  1.00  0.00     0.074 A 
ATOM     46  C   UNL A   1      43.933  26.068  29.950  1.00  0.00     0.049 A 
ATOM     47  N   UNL A   1      41.784  27.599  28.547  1.00  0.00    -0.248 NA
ATOM     48  C   UNL A   1      40.832  25.640  27.825  1.00  0.00     0.031 C 
ATOM     49  C   UNL A   1      43.769  27.231  30.812  1.00  0.00     0.029 A 
ATOM     50  N   UNL A   1      45.222  25.620  30.228  1.00  0.00    -0.354 N 
ATOM     51  C   UNL A   1      40.465  27.855  28.253  1.00  0.00     0.074 A 
ATOM     52  C   UNL A   1      39.954  26.636  27.686  1.00  0.00     0.031 C 
ATOM     53  C   UNL A   1      44.973  27.574  31.310  1.00  0.00     0.029 A 
ATOM     54  C   UNL A   1      45.966  26.730  30.661  1.00  0.00     0.049 A 
ATOM     55  H   UNL A   1      45.551  24.696  30.138  1.00  0.00     0.167 HD
ATOM     56  C   UNL A   1      39.932  29.028  28.690  1.00  0.00     0.031 A 
ATOM     57  C   UNL A   1      46.977  27.196  29.864  1.00  0.00     0.031 A 
ATOM     58  C   UNL A   1      40.987  29.894  29.222  1.00  0.00     0.049 A 
ATOM     59  C   UNL A   1      46.646  28.547  29.257  1.00  0.00     0.074 A 
ATOM     60  C   UNL A   1      41.422  30.153  30.511  1.00  0.00     0.029 A 
ATOM     61  N   UNL A   1      42.011  30.296  28.369  1.00  0.00    -0.354 N 
ATOM     62  N   UNL A   1      45.431  29.016  29.126  1.00  0.00    -0.248 NA
ATOM     63  C   UNL A   1      47.657  29.487  28.781  1.00  0.00     0.031 C 
ATOM     64  C   UNL A   1      42.778  30.584  30.427  1.00  0.00     0.029 A 
ATOM     65  C   UNL A   1      43.142  30.635  29.091  1.00  0.00     0.049 A 
ATOM     66  H   UNL A   1      41.941  30.335  27.388  1.00  0.00     0.167 HD
ATOM     67  C   UNL A   1      45.479  30.282  28.609  1.00  0.00     0.074 A 
ATOM     68  C   UNL A   1      46.896  30.529  28.404  1.00  0.00     0.031 C 
ATOM     69  C   UNL A   1      44.361  31.040  28.397  1.00  0.00     0.031 A 
BRANCH  56  70
ATOM     70  C   UNL A   1      38.455  29.277  28.891  1.00  0.00    -0.014 A 
ATOM     71  C   UNL A   1      37.677  29.670  27.787  1.00  0.00     0.009 A 
ATOM     72  C   UNL A   1      37.784  29.240  30.126  1.00  0.00     0.009 A 
ATOM     73  C   UNL A   1      36.330  30.038  27.917  1.00  0.00     0.001 A 
ATOM     74  C   UNL A   1      36.438  29.605  30.267  1.00  0.00     0.001 A 
ATOM     75  C   UNL A   1      35.711  30.013  29.160  1.00  0.00     0.000 A 
ENDBRANCH  56  70
BRANCH  57  76
ATOM     76  C   UNL A   1      47.715  26.081  29.187  1.00  0.00    -0.014 A 
ATOM     77  C   UNL A   1      47.454  25.876  27.812  1.00  0.00     0.009 A 
ATOM     78  C   UNL A   1      48.916  25.583  29.712  1.00  0.00     0.009 A 
ATOM     79  C   UNL A   1      48.438  25.366  26.959  1.00  0.00     0.001 A 
ATOM     80  C   UNL A   1      49.886  25.040  28.854  1.00  0.00     0.001 A 
ATOM     81  C   UNL A   1      49.672  24.988  27.477  1.00  0.00     0.000 A 
ENDBRANCH  57  76
BRANCH  69  82
ATOM     82  C   UNL A   1      44.314  32.294  27.556  1.00  0.00    -0.014 A 
ATOM     83  C   UNL A   1      44.460  32.308  26.163  1.00  0.00     0.009 A 
ATOM     84  C   UNL A   1      43.958  33.517  28.167  1.00  0.00     0.009 A 
ATOM     85  C   UNL A   1      44.320  33.492  25.427  1.00  0.00     0.001 A 
ATOM     86  C   UNL A   1      43.754  34.686  27.431  1.00  0.00     0.001 A 
ATOM     87  C   UNL A   1      43.956  34.676  26.060  1.00  0.00     0.000 A 
ENDBRANCH  69  82
ENDBRANCH  43  44
ENDBRANCH  35  38
ENDBRANCH  33  34
ENDBRANCH  32  33
ENDBRANCH  31  32
ENDBRANCH   1  31
TORSDOF 16
ENDMDL
MODEL 2
REMARK VINA RESULT:     -11.8      2.767      8.452
REMARK SMILES Cc1cccc(NC(=O)COc2ccc(N3C[C@@H](C(=O)NCCCCNC(=O)c4ccc(-c5c6nc(c(-c7ccccc7)c7ccc([nH]7)c(-c7ccccc7)c7nc(c(-c8ccccc8)c8ccc5[nH]8)C=C7)C=C6)cc4)CC3=O)cc2)c1
REMARK SMILES IDX 22 1 21 2 19 3 20 4 18 6 16 7 17 8 78 9 77 10 79 11 15 12
REMARK SMILES IDX 12 13 13 14 81 15 14 16 80 17 11 18 10 19 8 20 7 21 9 23
REMARK SMILES IDX 6 24 1 25 2 26 3 27 82 28 4 29 5 30 23 31 24 32 25 33 26 34
REMARK SMILES IDX 27 35 28 37 29 38 30 39 76 40 31 41 75 42 32 43 33 44 34 45
REMARK SMILES IDX 69 46 35 47 74 48 68 49 70 50 36 51 73 52 67 53 66 54 37 56
REMARK SMILES IDX 59 57 44 58 58 59 45 60 48 61 57 62 71 63 46 64 47 65 56 67
REMARK SMILES IDX 72 68 49 69 38 70 39 71 43 72 40 73 42 74 41 75 60 76 61 77
REMARK SMILES IDX 65 78 62 79 64 80 63 81 50 82 51 83 55 84 52 85 54 86 53 87
REMARK H PARENT 21 5 7 22 26 36 70 55 48 66
REMARK Flexibility Score: inf
ROOT
ATOM      1  C   UNL A   1      31.514  30.486  26.567  1.00  0.00     0.116 C 
ENDROOT
BRANCH   1   2
ATOM      2  N   UNL A   1      31.411  30.268  25.132  1.00  0.00    -0.356 N 
ATOM      3  C   UNL A   1      31.376  29.145  24.370  1.00  0.00     0.225 C 
ATOM      4  O   UNL A   1      31.249  29.302  23.152  1.00  0.00    -0.275 OA
ATOM      5  H   UNL A   1      31.356  31.100  24.609  1.00  0.00     0.163 HD
BRANCH   3   6
ATOM      6  C   UNL A   1      31.437  27.743  24.937  1.00  0.00     0.107 C 
ATOM      7  N   UNL A   1      32.700  25.825  24.407  1.00  0.00    -0.312 N 
ATOM      8  C   UNL A   1      32.839  27.171  24.904  1.00  0.00     0.139 C 
ATOM      9  C   UNL A   1      31.413  25.549  23.944  1.00  0.00     0.227 C 
ATOM     10  C   UNL A   1      30.528  26.724  24.276  1.00  0.00     0.116 C 
ATOM     11  O   UNL A   1      31.001  24.547  23.399  1.00  0.00    -0.274 OA
BRANCH   7  12
ATOM     12  C   UNL A   1      33.810  24.959  24.301  1.00  0.00     0.044 A 
ATOM     13  C   UNL A   1      35.981  23.174  24.108  1.00  0.00     0.120 A 
ATOM     14  C   UNL A   1      35.075  23.298  23.057  1.00  0.00     0.048 A 
ATOM     15  C   UNL A   1      35.824  23.968  25.240  1.00  0.00     0.048 A 
ATOM     16  C   UNL A   1      33.981  24.159  23.164  1.00  0.00     0.030 A 
ATOM     17  C   UNL A   1      34.757  24.870  25.325  1.00  0.00     0.030 A 
BRANCH  13  18
ATOM     18  O   UNL A   1      37.018  22.319  23.886  1.00  0.00    -0.484 OA
BRANCH  18  19
ATOM     19  C   UNL A   1      37.394  21.474  24.958  1.00  0.00     0.329 C 
BRANCH  19  20
ATOM     20  C   UNL A   1      36.930  20.020  24.978  1.00  0.00     0.262 C 
ATOM     21  N   UNL A   1      35.622  19.644  25.000  1.00  0.00    -0.323 N 
ATOM     22  H   UNL A   1      35.505  18.671  24.913  1.00  0.00     0.170 HD
ATOM     23  O   UNL A   1      37.773  19.112  24.953  1.00  0.00    -0.271 OA
BRANCH  21  24
ATOM     24  C   UNL A   1      34.401  20.330  25.118  1.00  0.00     0.041 A 
ATOM     25  C   UNL A   1      32.888  22.616  27.786  1.00  0.00     0.044 C 
ATOM     26  C   UNL A   1      33.056  21.810  26.531  1.00  0.00    -0.049 A 
ATOM     27  C   UNL A   1      32.041  21.793  25.573  1.00  0.00     0.003 A 
ATOM     28  C   UNL A   1      34.226  21.075  26.295  1.00  0.00     0.029 A 
ATOM     29  C   UNL A   1      32.210  21.072  24.394  1.00  0.00     0.002 A 
ATOM     30  C   UNL A   1      33.390  20.357  24.161  1.00  0.00     0.026 A 
ENDBRANCH  21  24
ENDBRANCH  19  20
ENDBRANCH  18  19
ENDBRANCH  13  18
ENDBRANCH   7  12
ENDBRANCH   3   6
ENDBRANCH   1   2
BRANCH   1  31
ATOM     31  C   UNL A   1      32.313  29.393  27.293  1.00  0.00     0.023 C 
BRANCH  31  32
ATOM     32  C   UNL A   1      33.799  29.682  27.502  1.00  0.00     0.023 C 
BRANCH  32  33
ATOM     33  C   UNL A   1      34.234  31.081  27.107  1.00  0.00     0.116 C 
BRANCH  33  34
ATOM     34  N   UNL A   1      34.960  31.812  28.137  1.00  0.00    -0.352 N 
ATOM     35  C   UNL A   1      35.938  31.377  29.015  1.00  0.00     0.251 C 
ATOM     36  H   UNL A   1      34.717  32.763  28.221  1.00  0.00     0.163 HD
ATOM     37  O   UNL A   1      36.341  32.136  29.894  1.00  0.00    -0.269 OA
BRANCH  35  38
ATOM     38  C   UNL A   1      36.641  30.085  28.786  1.00  0.00     0.039 A 
ATOM     39  C   UNL A   1      36.759  29.233  29.893  1.00  0.00     0.014 A 
ATOM     40  C   UNL A   1      37.469  29.908  27.688  1.00  0.00     0.014 A 
ATOM     41  C   UNL A   1      37.918  28.488  30.050  1.00  0.00     0.010 A 
ATOM     42  C   UNL A   1      38.681  29.305  27.897  1.00  0.00     0.010 A 
ATOM     43  C   UNL A   1      38.925  28.669  29.113  1.00  0.00    -0.014 A 
BRANCH  43  44
ATOM     44  C   UNL A   1      40.293  28.239  29.280  1.00  0.00     0.031 A 
ATOM     45  C   UNL A   1      40.657  26.930  28.737  1.00  0.00     0.074 A 
ATOM     46  C   UNL A   1      41.185  29.137  29.751  1.00  0.00     0.049 A 
ATOM     47  N   UNL A   1      41.708  26.276  29.067  1.00  0.00    -0.248 NA
ATOM     48  C   UNL A   1      39.803  26.212  27.791  1.00  0.00     0.031 C 
ATOM     49  C   UNL A   1      42.641  29.086  29.730  1.00  0.00     0.029 A 
ATOM     50  N   UNL A   1      40.897  30.236  30.556  1.00  0.00    -0.354 N 
ATOM     51  C   UNL A   1      41.838  25.243  28.169  1.00  0.00     0.074 A 
ATOM     52  C   UNL A   1      40.573  25.165  27.487  1.00  0.00     0.031 C 
ATOM     53  C   UNL A   1      43.118  29.910  30.683  1.00  0.00     0.029 A 
ATOM     54  C   UNL A   1      41.975  30.399  31.442  1.00  0.00     0.049 A 
ATOM     55  H   UNL A   1      40.088  30.796  30.513  1.00  0.00     0.167 HD
ATOM     56  C   UNL A   1      43.072  24.694  28.004  1.00  0.00     0.031 A 
ATOM     57  C   UNL A   1      41.772  30.162  32.776  1.00  0.00     0.031 A 
ATOM     58  C   UNL A   1      43.992  25.209  29.020  1.00  0.00     0.049 A 
ATOM     59  C   UNL A   1      42.491  28.912  33.248  1.00  0.00     0.074 A 
ATOM     60  C   UNL A   1      44.949  26.211  28.993  1.00  0.00     0.029 A 
ATOM     61  N   UNL A   1      43.704  24.972  30.361  1.00  0.00    -0.354 N 
ATOM     62  N   UNL A   1      42.879  27.945  32.456  1.00  0.00    -0.248 NA
ATOM     63  C   UNL A   1      42.858  28.670  34.640  1.00  0.00     0.031 C 
ATOM     64  C   UNL A   1      45.126  26.670  30.331  1.00  0.00     0.029 A 
ATOM     65  C   UNL A   1      44.320  25.914  31.166  1.00  0.00     0.049 A 
ATOM     66  H   UNL A   1      43.141  24.236  30.691  1.00  0.00     0.167 HD
ATOM     67  C   UNL A   1      43.556  27.000  33.180  1.00  0.00     0.074 A 
ATOM     68  C   UNL A   1      43.510  27.497  34.544  1.00  0.00     0.031 C 
ATOM     69  C   UNL A   1      44.114  25.889  32.612  1.00  0.00     0.031 A 
BRANCH  56  70
ATOM     70  C   UNL A   1      43.511  23.923  26.781  1.00  0.00    -0.014 A 
ATOM     71  C   UNL A   1      43.654  22.526  26.874  1.00  0.00     0.009 A 
ATOM     72  C   UNL A   1      43.888  24.492  25.552  1.00  0.00     0.009 A 
ATOM     73  C   UNL A   1      44.174  21.758  25.823  1.00  0.00     0.001 A 
ATOM     74  C   UNL A   1      44.409  23.732  24.494  1.00  0.00     0.001 A 
ATOM     75  C   UNL A   1      44.559  22.362  24.633  1.00  0.00     0.000 A 
ENDBRANCH  56  70
BRANCH  57  76
ATOM     76  C   UNL A   1      40.420  30.627  33.227  1.00  0.00    -0.014 A 
ATOM     77  C   UNL A   1      40.041  31.944  32.877  1.00  0.00     0.009 A 
ATOM     78  C   UNL A   1      39.408  29.711  33.544  1.00  0.00     0.009 A 
ATOM     79  C   UNL A   1      38.699  32.275  32.664  1.00  0.00     0.001 A 
ATOM     80  C   UNL A   1      38.060  30.062  33.362  1.00  0.00     0.001 A 
ATOM     81  C   UNL A   1      37.711  31.318  32.866  1.00  0.00     0.000 A 
ENDBRANCH  57  76
BRANCH  69  82
ATOM     82  C   UNL A   1      44.591  24.676  33.375  1.00  0.00    -0.014 A 
ATOM     83  C   UNL A   1      43.776  23.584  33.697  1.00  0.00     0.009 A 
ATOM     84  C   UNL A   1      45.969  24.544  33.662  1.00  0.00     0.009 A 
ATOM     85  C   UNL A   1      44.296  22.447  34.330  1.00  0.00     0.001 A 
ATOM     86  C   UNL A   1      46.502  23.387  34.234  1.00  0.00     0.001 A 
ATOM     87  C   UNL A   1      45.659  22.345  34.587  1.00  0.00     0.000 A 
ENDBRANCH  69  82
ENDBRANCH  43  44
ENDBRANCH  35  38
ENDBRANCH  33  34
ENDBRANCH  32  33
ENDBRANCH  31  32
ENDBRANCH   1  31
TORSDOF 16
ENDMDL
MODEL 3
REMARK VINA RESULT:     -11.8      0.965      2.051
REMARK SMILES Cc1cccc(NC(=O)COc2ccc(N3C[C@@H](C(=O)NCCCCNC(=O)c4ccc(-c5c6nc(c(-c7ccccc7)c7ccc([nH]7)c(-c7ccccc7)c7nc(c(-c8ccccc8)c8ccc5[nH]8)C=C7)C=C6)cc4)CC3=O)cc2)c1
REMARK SMILES IDX 22 1 21 2 19 3 20 4 18 6 16 7 17 8 78 9 77 10 79 11 15 12
REMARK SMILES IDX 12 13 13 14 81 15 14 16 80 17 11 18 10 19 8 20 7 21 9 23
REMARK SMILES IDX 6 24 1 25 2 26 3 27 82 28 4 29 5 30 23 31 24 32 25 33 26 34
REMARK SMILES IDX 27 35 28 37 29 38 30 39 76 40 31 41 75 42 32 43 33 44 34 45
REMARK SMILES IDX 69 46 35 47 74 48 68 49 70 50 36 51 73 52 67 53 66 54 37 56
REMARK SMILES IDX 59 57 44 58 58 59 45 60 48 61 57 62 71 63 46 64 47 65 56 67
REMARK SMILES IDX 72 68 49 69 38 70 39 71 43 72 40 73 42 74 41 75 60 76 61 77
REMARK SMILES IDX 65 78 62 79 64 80 63 81 50 82 51 83 55 84 52 85 54 86 53 87
REMARK H PARENT 21 5 7 22 26 36 70 55 48 66
REMARK Flexibility Score: inf
ROOT
ATOM      1  C   UNL A   1      36.935  22.758  25.064  1.00  0.00     0.116 C 
ENDROOT
BRANCH   1   2
ATOM      2  N   UNL A   1      36.955  21.304  25.003  1.00  0.00    -0.356 N 
ATOM      3  C   UNL A   1      35.972  20.368  24.999  1.00  0.00     0.225 C 
ATOM      4  O   UNL A   1      36.325  19.188  24.906  1.00  0.00    -0.275 OA
ATOM      5  H   UNL A   1      37.861  20.923  24.956  1.00  0.00     0.163 HD
BRANCH   3   6
ATOM      6  C   UNL A   1      34.496  20.699  25.056  1.00  0.00     0.107 C 
ATOM      7  N   UNL A   1      33.247  22.653  24.638  1.00  0.00    -0.312 N 
ATOM      8  C   UNL A   1      34.086  21.683  23.980  1.00  0.00     0.139 C 
ATOM      9  C   UNL A   1      33.239  22.510  26.025  1.00  0.00     0.227 C 
ATOM     10  C   UNL A   1      33.995  21.254  26.376  1.00  0.00     0.116 C 
ATOM     11  O   UNL A   1      32.703  23.210  26.858  1.00  0.00    -0.274 OA
BRANCH   7  12
ATOM     12  C   UNL A   1      32.626  23.699  23.920  1.00  0.00     0.044 A 
ATOM     13  C   UNL A   1      31.355  25.735  22.445  1.00  0.00     0.120 A 
ATOM     14  C   UNL A   1      30.665  25.055  23.445  1.00  0.00     0.048 A 
ATOM     15  C   UNL A   1      32.690  25.425  22.206  1.00  0.00     0.048 A 
ATOM     16  C   UNL A   1      31.284  24.023  24.156  1.00  0.00     0.030 A 
ATOM     17  C   UNL A   1      33.326  24.428  22.955  1.00  0.00     0.030 A 
BRANCH  13  18
ATOM     18  O   UNL A   1      30.658  26.731  21.831  1.00  0.00    -0.484 OA
BRANCH  18  19
ATOM     19  C   UNL A   1      30.075  27.716  22.667  1.00  0.00     0.329 C 
BRANCH  19  20
ATOM     20  C   UNL A   1      30.572  29.158  22.602  1.00  0.00     0.262 C 
ATOM     21  N   UNL A   1      31.383  29.721  23.539  1.00  0.00    -0.323 N 
ATOM     22  H   UNL A   1      31.682  30.625  23.289  1.00  0.00     0.170 HD
ATOM     23  O   UNL A   1      30.248  29.870  21.641  1.00  0.00    -0.271 OA
BRANCH  21  24
ATOM     24  C   UNL A   1      31.891  29.304  24.781  1.00  0.00     0.041 A 
ATOM     25  C   UNL A   1      34.093  26.384  25.903  1.00  0.00     0.044 C 
ATOM     26  C   UNL A   1      33.245  27.622  25.936  1.00  0.00    -0.049 A 
ATOM     27  C   UNL A   1      33.023  28.283  27.145  1.00  0.00     0.003 A 
ATOM     28  C   UNL A   1      32.673  28.138  24.765  1.00  0.00     0.029 A 
ATOM     29  C   UNL A   1      32.264  29.450  27.171  1.00  0.00     0.002 A 
ATOM     30  C   UNL A   1      31.714  29.965  25.994  1.00  0.00     0.026 A 
ENDBRANCH  21  24
ENDBRANCH  19  20
ENDBRANCH  18  19
ENDBRANCH  13  18
ENDBRANCH   7  12
ENDBRANCH   3   6
ENDBRANCH   1   2
BRANCH   1  31
ATOM     31  C   UNL A   1      38.060  23.346  25.929  1.00  0.00     0.023 C 
BRANCH  31  32
ATOM     32  C   UNL A   1      39.094  22.345  26.446  1.00  0.00     0.023 C 
BRANCH  32  33
ATOM     33  C   UNL A   1      40.510  22.588  25.957  1.00  0.00     0.116 C 
BRANCH  33  34
ATOM     34  N   UNL A   1      41.302  21.384  25.747  1.00  0.00    -0.352 N 
ATOM     35  C   UNL A   1      42.612  21.107  26.102  1.00  0.00     0.251 C 
ATOM     36  H   UNL A   1      40.833  20.653  25.281  1.00  0.00     0.163 HD
ATOM     37  O   UNL A   1      43.131  20.060  25.723  1.00  0.00    -0.269 OA
BRANCH  35  38
ATOM     38  C   UNL A   1      43.324  21.959  27.093  1.00  0.00     0.039 A 
ATOM     39  C   UNL A   1      42.833  21.936  28.406  1.00  0.00     0.014 A 
ATOM     40  C   UNL A   1      44.142  23.001  26.681  1.00  0.00     0.014 A 
ATOM     41  C   UNL A   1      42.842  23.105  29.150  1.00  0.00     0.010 A 
ATOM     42  C   UNL A   1      44.023  24.198  27.335  1.00  0.00     0.010 A 
ATOM     43  C   UNL A   1      43.301  24.255  28.526  1.00  0.00    -0.014 A 
BRANCH  43  44
ATOM     44  C   UNL A   1      43.092  25.598  29.015  1.00  0.00     0.031 A 
ATOM     45  C   UNL A   1      41.926  26.324  28.508  1.00  0.00     0.074 A 
ATOM     46  C   UNL A   1      43.863  26.026  30.038  1.00  0.00     0.049 A 
ATOM     47  N   UNL A   1      41.774  27.594  28.587  1.00  0.00    -0.248 NA
ATOM     48  C   UNL A   1      40.835  25.653  27.800  1.00  0.00     0.031 C 
ATOM     49  C   UNL A   1      43.677  27.176  30.913  1.00  0.00     0.029 A 
ATOM     50  N   UNL A   1      45.139  25.565  30.353  1.00  0.00    -0.354 N 
ATOM     51  C   UNL A   1      40.468  27.864  28.252  1.00  0.00     0.074 A 
ATOM     52  C   UNL A   1      39.969  26.657  27.647  1.00  0.00     0.031 C 
ATOM     53  C   UNL A   1      44.864  27.503  31.458  1.00  0.00     0.029 A 
ATOM     54  C   UNL A   1      45.874  26.662  30.830  1.00  0.00     0.049 A 
ATOM     55  H   UNL A   1      45.465  24.640  30.259  1.00  0.00     0.167 HD
ATOM     56  C   UNL A   1      39.927  29.032  28.689  1.00  0.00     0.031 A 
ATOM     57  C   UNL A   1      46.915  27.135  30.076  1.00  0.00     0.031 A 
ATOM     58  C   UNL A   1      40.968  29.883  29.271  1.00  0.00     0.049 A 
ATOM     59  C   UNL A   1      46.614  28.497  29.479  1.00  0.00     0.074 A 
ATOM     60  C   UNL A   1      41.360  30.118  30.578  1.00  0.00     0.029 A 
ATOM     61  N   UNL A   1      42.024  30.292  28.461  1.00  0.00    -0.354 N 
ATOM     62  N   UNL A   1      45.407  28.976  29.314  1.00  0.00    -0.248 NA
ATOM     63  C   UNL A   1      47.647  29.437  29.054  1.00  0.00     0.031 C 
ATOM     64  C   UNL A   1      42.721  30.542  30.548  1.00  0.00     0.029 A 
ATOM     65  C   UNL A   1      43.131  30.612  29.227  1.00  0.00     0.049 A 
ATOM     66  H   UNL A   1      41.988  30.347  27.479  1.00  0.00     0.167 HD
ATOM     67  C   UNL A   1      45.481  30.250  28.820  1.00  0.00     0.074 A 
ATOM     68  C   UNL A   1      46.905  30.491  28.668  1.00  0.00     0.031 C 
ATOM     69  C   UNL A   1      44.376  31.019  28.581  1.00  0.00     0.031 A 
BRANCH  56  70
ATOM     70  C   UNL A   1      38.445  29.289  28.842  1.00  0.00    -0.014 A 
ATOM     71  C   UNL A   1      37.719  29.756  27.732  1.00  0.00     0.009 A 
ATOM     72  C   UNL A   1      37.723  29.188  30.044  1.00  0.00     0.009 A 
ATOM     73  C   UNL A   1      36.371  30.133  27.828  1.00  0.00     0.001 A 
ATOM     74  C   UNL A   1      36.375  29.561  30.150  1.00  0.00     0.001 A 
ATOM     75  C   UNL A   1      35.700  30.042  29.040  1.00  0.00     0.000 A 
ENDBRANCH  56  70
BRANCH  57  76
ATOM     76  C   UNL A   1      47.670  26.025  29.407  1.00  0.00    -0.014 A 
ATOM     77  C   UNL A   1      47.368  25.768  28.049  1.00  0.00     0.009 A 
ATOM     78  C   UNL A   1      48.905  25.587  29.903  1.00  0.00     0.009 A 
ATOM     79  C   UNL A   1      48.340  25.267  27.177  1.00  0.00     0.001 A 
ATOM     80  C   UNL A   1      49.864  25.051  29.028  1.00  0.00     0.001 A 
ATOM     81  C   UNL A   1      49.604  24.949  27.661  1.00  0.00     0.000 A 
ENDBRANCH  57  76
BRANCH  69  82
ATOM     82  C   UNL A   1      44.366  32.286  27.760  1.00  0.00    -0.014 A 
ATOM     83  C   UNL A   1      44.548  33.567  28.295  1.00  0.00     0.009 A 
ATOM     84  C   UNL A   1      44.322  32.190  26.350  1.00  0.00     0.009 A 
ATOM     85  C   UNL A   1      44.617  34.699  27.472  1.00  0.00     0.001 A 
ATOM     86  C   UNL A   1      44.455  33.307  25.523  1.00  0.00     0.001 A 
ATOM     87  C   UNL A   1      44.583  34.567  26.088  1.00  0.00     0.000 A 
ENDBRANCH  69  82
ENDBRANCH  43  44
ENDBRANCH  35  38
ENDBRANCH  33  34
ENDBRANCH  32  33
ENDBRANCH  31  32
ENDBRANCH   1  31
TORSDOF 16
ENDMDL
