MODEL 1
REMARK VINA RESULT:     -11.2      0.000      0.000
REMARK SMILES Cc1nc2ccccc2n1CCC(=O)N1CC[C@H](O)C[C@@H]1C(=O)NCCCCNC(=O)c1ccc(-c2c3nc(c(-c4ccccc4)c4ccc([nH]4)c(-c4ccccc4)c4nc(c(-c5ccccc5)c5ccc2[nH]5)C=C4)C=C3)cc1
REMARK SMILES IDX 25 1 24 2 22 3 23 4 21 6 15 7 16 8 17 9 20 10 18 11 13 12
REMARK SMILES IDX 14 13 12 14 11 15 10 16 1 17 2 18 3 19 4 20 9 21 5 22 8 23
REMARK SMILES IDX 6 24 7 25 19 26 26 28 27 29 28 30 29 31 30 32 31 34 32 35
REMARK SMILES IDX 33 36 79 37 34 38 78 39 35 40 36 41 37 42 72 43 38 44 77 45
REMARK SMILES IDX 71 46 73 47 39 48 76 49 70 50 69 51 40 53 62 54 47 55 61 56
REMARK SMILES IDX 48 57 51 58 60 59 74 60 49 61 50 62 59 64 75 65 52 66 41 67
REMARK SMILES IDX 42 68 46 69 43 70 45 71 44 72 63 73 64 74 68 75 65 76 67 77
REMARK SMILES IDX 66 78 53 79 54 80 58 81 55 82 57 83 56 84
REMARK H PARENT 24 5 19 27 29 33 73 52 51 63
REMARK Flexibility Score: inf
ROOT
ATOM      1  C   UNL A   1      33.531  28.153  24.954  1.00  0.00     0.116 C 
ENDROOT
BRANCH   1   2
ATOM      2  N   UNL A   1      33.765  27.480  23.694  1.00  0.00    -0.354 N 
ATOM      3  C   UNL A   1      33.690  26.148  23.388  1.00  0.00     0.242 C 
ATOM      4  O   UNL A   1      33.813  25.841  22.197  1.00  0.00    -0.273 OA
ATOM      5  H   UNL A   1      34.018  28.068  22.946  1.00  0.00     0.163 HD
BRANCH   3   6
ATOM      6  C   UNL A   1      33.402  25.070  24.479  1.00  0.00     0.176 C 
ATOM      7  N   UNL A   1      34.154  23.843  24.193  1.00  0.00    -0.330 N 
ATOM      8  C   UNL A   1      33.766  23.258  22.920  1.00  0.00     0.123 C 
ATOM      9  C   UNL A   1      32.319  22.788  22.967  1.00  0.00     0.053 C 
ATOM     10  C   UNL A   1      31.893  24.750  24.557  1.00  0.00     0.067 C 
ATOM     11  C   UNL A   1      31.380  23.932  23.355  1.00  0.00     0.118 C 
BRANCH   7  12
ATOM     12  C   UNL A   1      34.809  23.161  25.216  1.00  0.00     0.225 C 
ATOM     13  O   UNL A   1      34.281  22.190  25.766  1.00  0.00    -0.275 OA
BRANCH  12  14
ATOM     14  C   UNL A   1      36.048  23.799  25.873  1.00  0.00     0.122 C 
BRANCH  14  15
ATOM     15  C   UNL A   1      37.468  23.724  25.319  1.00  0.00     0.134 C 
BRANCH  15  16
ATOM     16  N   UNL A   1      38.460  23.113  26.175  1.00  0.00    -0.328 N 
ATOM     17  C   UNL A   1      38.171  20.804  25.207  1.00  0.00     0.088 C 
ATOM     18  C   UNL A   1      38.857  21.796  26.078  1.00  0.00     0.106 A 
ATOM     19  N   UNL A   1      40.000  21.615  26.710  1.00  0.00    -0.234 NA
ATOM     20  C   UNL A   1      40.306  22.821  27.298  1.00  0.00     0.089 A 
ATOM     21  C   UNL A   1      39.292  23.752  27.074  1.00  0.00     0.068 A 
ATOM     22  C   UNL A   1      41.466  23.208  27.987  1.00  0.00     0.030 A 
ATOM     23  C   UNL A   1      39.323  25.036  27.641  1.00  0.00     0.028 A 
ATOM     24  C   UNL A   1      41.533  24.498  28.525  1.00  0.00     0.002 A 
ATOM     25  C   UNL A   1      40.460  25.381  28.389  1.00  0.00     0.002 A 
ENDBRANCH  15  16
ENDBRANCH  14  15
ENDBRANCH  12  14
ENDBRANCH   7  12
BRANCH  11  26
ATOM     26  O   UNL A   1      31.138  24.733  22.200  1.00  0.00    -0.393 OA
ATOM     27  H   UNL A   1      30.926  25.639  22.473  1.00  0.00     0.210 HD
ENDBRANCH  11  26
ENDBRANCH   3   6
ENDBRANCH   1   2
BRANCH   1  28
ATOM     28  C   UNL A   1      32.286  29.053  24.946  1.00  0.00     0.023 C 
BRANCH  28  29
ATOM     29  C   UNL A   1      32.077  29.924  26.182  1.00  0.00     0.023 C 
BRANCH  29  30
ATOM     30  C   UNL A   1      33.302  29.965  27.096  1.00  0.00     0.116 C 
BRANCH  30  31
ATOM     31  N   UNL A   1      33.837  31.307  27.239  1.00  0.00    -0.352 N 
ATOM     32  C   UNL A   1      35.015  31.834  27.669  1.00  0.00     0.251 C 
ATOM     33  H   UNL A   1      33.197  32.000  26.956  1.00  0.00     0.163 HD
ATOM     34  O   UNL A   1      35.123  33.066  27.581  1.00  0.00    -0.269 OA
BRANCH  32  35
ATOM     35  C   UNL A   1      36.121  31.067  28.285  1.00  0.00     0.039 A 
ATOM     36  C   UNL A   1      36.988  31.564  29.259  1.00  0.00     0.014 A 
ATOM     37  C   UNL A   1      36.377  29.804  27.721  1.00  0.00     0.014 A 
ATOM     38  C   UNL A   1      38.152  30.879  29.564  1.00  0.00     0.010 A 
ATOM     39  C   UNL A   1      37.537  29.112  28.025  1.00  0.00     0.010 A 
ATOM     40  C   UNL A   1      38.454  29.696  28.889  1.00  0.00    -0.014 A 
BRANCH  40  41
ATOM     41  C   UNL A   1      39.775  29.132  29.098  1.00  0.00     0.031 A 
ATOM     42  C   UNL A   1      40.084  28.697  30.485  1.00  0.00     0.074 A 
ATOM     43  C   UNL A   1      40.663  29.014  28.094  1.00  0.00     0.049 A 
ATOM     44  N   UNL A   1      41.014  29.144  31.264  1.00  0.00    -0.248 NA
ATOM     45  C   UNL A   1      39.189  27.719  31.116  1.00  0.00     0.031 C 
ATOM     46  C   UNL A   1      40.465  29.183  26.652  1.00  0.00     0.029 A 
ATOM     47  N   UNL A   1      41.955  28.607  28.179  1.00  0.00    -0.354 N 
ATOM     48  C   UNL A   1      40.895  28.445  32.463  1.00  0.00     0.074 A 
ATOM     49  C   UNL A   1      39.707  27.634  32.342  1.00  0.00     0.031 C 
ATOM     50  C   UNL A   1      41.514  28.633  25.995  1.00  0.00     0.029 A 
ATOM     51  C   UNL A   1      42.512  28.229  26.970  1.00  0.00     0.049 A 
ATOM     52  H   UNL A   1      42.452  28.582  29.028  1.00  0.00     0.167 HD
ATOM     53  C   UNL A   1      41.839  28.503  33.443  1.00  0.00     0.031 A 
ATOM     54  C   UNL A   1      43.677  27.554  26.813  1.00  0.00     0.031 A 
ATOM     55  C   UNL A   1      42.737  29.609  33.261  1.00  0.00     0.049 A 
ATOM     56  C   UNL A   1      44.487  27.786  28.034  1.00  0.00     0.074 A 
ATOM     57  C   UNL A   1      42.593  30.980  33.335  1.00  0.00     0.029 A 
ATOM     58  N   UNL A   1      43.915  29.388  32.588  1.00  0.00    -0.354 N 
ATOM     59  N   UNL A   1      44.968  28.954  28.356  1.00  0.00    -0.248 NA
ATOM     60  C   UNL A   1      44.367  26.837  29.132  1.00  0.00     0.031 C 
ATOM     61  C   UNL A   1      43.404  31.486  32.280  1.00  0.00     0.029 A 
ATOM     62  C   UNL A   1      44.046  30.404  31.673  1.00  0.00     0.049 A 
ATOM     63  H   UNL A   1      44.542  28.644  32.733  1.00  0.00     0.167 HD
ATOM     64  C   UNL A   1      44.799  29.041  29.730  1.00  0.00     0.074 A 
ATOM     65  C   UNL A   1      44.513  27.673  30.164  1.00  0.00     0.031 C 
ATOM     66  C   UNL A   1      44.621  30.244  30.353  1.00  0.00     0.031 A 
BRANCH  53  67
ATOM     67  C   UNL A   1      42.090  27.424  34.456  1.00  0.00    -0.014 A 
ATOM     68  C   UNL A   1      42.819  26.258  34.161  1.00  0.00     0.009 A 
ATOM     69  C   UNL A   1      41.805  27.671  35.812  1.00  0.00     0.009 A 
ATOM     70  C   UNL A   1      43.245  25.381  35.163  1.00  0.00     0.001 A 
ATOM     71  C   UNL A   1      42.263  26.813  36.820  1.00  0.00     0.001 A 
ATOM     72  C   UNL A   1      42.986  25.670  36.495  1.00  0.00     0.000 A 
ENDBRANCH  53  67
BRANCH  54  73
ATOM     73  C   UNL A   1      43.894  26.392  25.923  1.00  0.00    -0.014 A 
ATOM     74  C   UNL A   1      42.807  25.584  25.533  1.00  0.00     0.009 A 
ATOM     75  C   UNL A   1      45.187  25.900  25.689  1.00  0.00     0.009 A 
ATOM     76  C   UNL A   1      43.001  24.319  24.974  1.00  0.00     0.001 A 
ATOM     77  C   UNL A   1      45.383  24.630  25.130  1.00  0.00     0.001 A 
ATOM     78  C   UNL A   1      44.291  23.834  24.789  1.00  0.00     0.000 A 
ENDBRANCH  54  73
BRANCH  66  79
ATOM     79  C   UNL A   1      44.743  31.509  29.529  1.00  0.00    -0.014 A 
ATOM     80  C   UNL A   1      43.740  31.802  28.592  1.00  0.00     0.009 A 
ATOM     81  C   UNL A   1      45.915  32.289  29.502  1.00  0.00     0.009 A 
ATOM     82  C   UNL A   1      43.908  32.822  27.651  1.00  0.00     0.001 A 
ATOM     83  C   UNL A   1      46.073  33.327  28.576  1.00  0.00     0.001 A 
ATOM     84  C   UNL A   1      45.073  33.584  27.643  1.00  0.00     0.000 A 
ENDBRANCH  66  79
ENDBRANCH  40  41
ENDBRANCH  32  35
ENDBRANCH  30  31
ENDBRANCH  29  30
ENDBRANCH  28  29
ENDBRANCH   1  28
TORSDOF 16
ENDMDL
MODEL 2
REMARK VINA RESULT:     -11.1      2.252      8.002
REMARK SMILES Cc1nc2ccccc2n1CCC(=O)N1CC[C@H](O)C[C@@H]1C(=O)NCCCCNC(=O)c1ccc(-c2c3nc(c(-c4ccccc4)c4ccc([nH]4)c(-c4ccccc4)c4nc(c(-c5ccccc5)c5ccc2[nH]5)C=C4)C=C3)cc1
REMARK SMILES IDX 25 1 24 2 22 3 23 4 21 6 15 7 16 8 17 9 20 10 18 11 13 12
REMARK SMILES IDX 14 13 12 14 11 15 10 16 1 17 2 18 3 19 4 20 9 21 5 22 8 23
REMARK SMILES IDX 6 24 7 25 19 26 26 28 27 29 28 30 29 31 30 32 31 34 32 35
REMARK SMILES IDX 33 36 79 37 34 38 78 39 35 40 36 41 37 42 72 43 38 44 77 45
REMARK SMILES IDX 71 46 73 47 39 48 76 49 70 50 69 51 40 53 62 54 47 55 61 56
REMARK SMILES IDX 48 57 51 58 60 59 74 60 49 61 50 62 59 64 75 65 52 66 41 67
REMARK SMILES IDX 42 68 46 69 43 70 45 71 44 72 63 73 64 74 68 75 65 76 67 77
REMARK SMILES IDX 66 78 53 79 54 80 58 81 55 82 57 83 56 84
REMARK H PARENT 24 5 19 27 29 33 73 52 51 63
REMARK Flexibility Score: inf
ROOT
ATOM      1  C   UNL A   1      36.910  22.616  25.418  1.00  0.00     0.116 C 
ENDROOT
BRANCH   1   2
ATOM      2  N   UNL A   1      36.289  21.309  25.431  1.00  0.00    -0.354 N 
ATOM      3  C   UNL A   1      35.123  20.890  24.850  1.00  0.00     0.242 C 
ATOM      4  O   UNL A   1      34.877  19.680  24.902  1.00  0.00    -0.273 OA
ATOM      5  H   UNL A   1      36.779  20.618  25.934  1.00  0.00     0.163 HD
BRANCH   3   6
ATOM      6  C   UNL A   1      34.176  21.881  24.103  1.00  0.00     0.176 C 
ATOM      7  N   UNL A   1      33.921  23.064  24.934  1.00  0.00    -0.330 N 
ATOM      8  C   UNL A   1      33.258  22.715  26.180  1.00  0.00     0.123 C 
ATOM      9  C   UNL A   1      31.866  22.162  25.907  1.00  0.00     0.053 C 
ATOM     10  C   UNL A   1      32.838  21.201  23.741  1.00  0.00     0.067 C 
ATOM     11  C   UNL A   1      31.925  20.962  24.960  1.00  0.00     0.118 C 
BRANCH   7  12
ATOM     12  C   UNL A   1      33.941  24.338  24.372  1.00  0.00     0.225 C 
ATOM     13  O   UNL A   1      34.230  24.498  23.182  1.00  0.00    -0.275 OA
BRANCH  12  14
ATOM     14  C   UNL A   1      33.908  25.570  25.297  1.00  0.00     0.122 C 
BRANCH  14  15
ATOM     15  C   UNL A   1      32.650  26.145  25.943  1.00  0.00     0.134 C 
BRANCH  15  16
ATOM     16  N   UNL A   1      32.317  27.508  25.596  1.00  0.00    -0.328 N 
ATOM     17  C   UNL A   1      30.539  26.867  23.929  1.00  0.00     0.088 C 
ATOM     18  C   UNL A   1      31.293  27.858  24.741  1.00  0.00     0.106 A 
ATOM     19  N   UNL A   1      30.985  29.132  24.895  1.00  0.00    -0.234 NA
ATOM     20  C   UNL A   1      31.884  29.635  25.806  1.00  0.00     0.089 A 
ATOM     21  C   UNL A   1      32.809  28.660  26.179  1.00  0.00     0.068 A 
ATOM     22  C   UNL A   1      31.928  30.902  26.409  1.00  0.00     0.030 A 
ATOM     23  C   UNL A   1      33.884  28.944  27.036  1.00  0.00     0.028 A 
ATOM     24  C   UNL A   1      32.969  31.191  27.299  1.00  0.00     0.002 A 
ATOM     25  C   UNL A   1      33.953  30.239  27.573  1.00  0.00     0.002 A 
ENDBRANCH  15  16
ENDBRANCH  14  15
ENDBRANCH  12  14
ENDBRANCH   7  12
BRANCH  11  26
ATOM     26  O   UNL A   1      32.293  19.807  25.713  1.00  0.00    -0.393 OA
ATOM     27  H   UNL A   1      32.228  19.019  25.151  1.00  0.00     0.210 HD
ENDBRANCH  11  26
ENDBRANCH   3   6
ENDBRANCH   1   2
BRANCH   1  28
ATOM     28  C   UNL A   1      38.271  22.656  26.128  1.00  0.00     0.023 C 
BRANCH  28  29
ATOM     29  C   UNL A   1      39.231  21.513  25.811  1.00  0.00     0.023 C 
BRANCH  29  30
ATOM     30  C   UNL A   1      40.516  21.567  26.637  1.00  0.00     0.116 C 
BRANCH  30  31
ATOM     31  N   UNL A   1      41.603  22.212  25.923  1.00  0.00    -0.352 N 
ATOM     32  C   UNL A   1      42.146  23.458  25.917  1.00  0.00     0.251 C 
ATOM     33  H   UNL A   1      42.054  21.602  25.295  1.00  0.00     0.163 HD
ATOM     34  O   UNL A   1      43.139  23.614  25.191  1.00  0.00    -0.269 OA
BRANCH  32  35
ATOM     35  C   UNL A   1      41.607  24.630  26.643  1.00  0.00     0.039 A 
ATOM     36  C   UNL A   1      40.675  25.529  26.124  1.00  0.00     0.014 A 
ATOM     37  C   UNL A   1      42.208  24.908  27.885  1.00  0.00     0.014 A 
ATOM     38  C   UNL A   1      40.449  26.738  26.760  1.00  0.00     0.010 A 
ATOM     39  C   UNL A   1      41.983  26.113  28.529  1.00  0.00     0.010 A 
ATOM     40  C   UNL A   1      41.162  27.051  27.918  1.00  0.00    -0.014 A 
BRANCH  40  41
ATOM     41  C   UNL A   1      41.039  28.406  28.426  1.00  0.00     0.031 A 
ATOM     42  C   UNL A   1      42.152  29.330  28.088  1.00  0.00     0.074 A 
ATOM     43  C   UNL A   1      39.981  28.795  29.162  1.00  0.00     0.049 A 
ATOM     44  N   UNL A   1      42.949  29.938  28.904  1.00  0.00    -0.248 NA
ATOM     45  C   UNL A   1      42.479  29.524  26.670  1.00  0.00     0.031 C 
ATOM     46  C   UNL A   1      38.713  28.102  29.407  1.00  0.00     0.029 A 
ATOM     47  N   UNL A   1      39.800  29.989  29.779  1.00  0.00    -0.354 N 
ATOM     48  C   UNL A   1      43.834  30.673  28.118  1.00  0.00     0.074 A 
ATOM     49  C   UNL A   1      43.546  30.321  26.748  1.00  0.00     0.031 C 
ATOM     50  C   UNL A   1      37.813  28.988  29.895  1.00  0.00     0.029 A 
ATOM     51  C   UNL A   1      38.490  30.250  30.141  1.00  0.00     0.049 A 
ATOM     52  H   UNL A   1      40.538  30.617  29.955  1.00  0.00     0.167 HD
ATOM     53  C   UNL A   1      44.682  31.601  28.641  1.00  0.00     0.031 A 
ATOM     54  C   UNL A   1      38.002  31.452  30.533  1.00  0.00     0.031 A 
ATOM     55  C   UNL A   1      44.818  31.466  30.064  1.00  0.00     0.049 A 
ATOM     56  C   UNL A   1      39.148  32.249  31.035  1.00  0.00     0.074 A 
ATOM     57  C   UNL A   1      45.380  30.508  30.885  1.00  0.00     0.029 A 
ATOM     58  N   UNL A   1      44.006  32.227  30.871  1.00  0.00    -0.354 N 
ATOM     59  N   UNL A   1      39.813  31.937  32.111  1.00  0.00    -0.248 NA
ATOM     60  C   UNL A   1      39.851  33.112  30.096  1.00  0.00     0.031 C 
ATOM     61  C   UNL A   1      44.499  30.427  32.001  1.00  0.00     0.029 A 
ATOM     62  C   UNL A   1      43.497  31.384  31.828  1.00  0.00     0.049 A 
ATOM     63  H   UNL A   1      43.825  33.189  30.779  1.00  0.00     0.167 HD
ATOM     64  C   UNL A   1      41.140  32.187  31.794  1.00  0.00     0.074 A 
ATOM     65  C   UNL A   1      41.092  32.997  30.576  1.00  0.00     0.031 C 
ATOM     66  C   UNL A   1      42.158  31.483  32.372  1.00  0.00     0.031 A 
BRANCH  53  67
ATOM     67  C   UNL A   1      45.227  32.782  27.892  1.00  0.00    -0.014 A 
ATOM     68  C   UNL A   1      46.515  32.798  27.328  1.00  0.00     0.009 A 
ATOM     69  C   UNL A   1      44.358  33.826  27.523  1.00  0.00     0.009 A 
ATOM     70  C   UNL A   1      46.920  33.798  26.440  1.00  0.00     0.001 A 
ATOM     71  C   UNL A   1      44.749  34.809  26.604  1.00  0.00     0.001 A 
ATOM     72  C   UNL A   1      46.029  34.792  26.061  1.00  0.00     0.000 A 
ENDBRANCH  53  67
BRANCH  54  73
ATOM     73  C   UNL A   1      36.745  32.075  30.059  1.00  0.00    -0.014 A 
ATOM     74  C   UNL A   1      36.663  32.601  28.755  1.00  0.00     0.009 A 
ATOM     75  C   UNL A   1      35.729  32.415  30.964  1.00  0.00     0.009 A 
ATOM     76  C   UNL A   1      35.633  33.468  28.381  1.00  0.00     0.001 A 
ATOM     77  C   UNL A   1      34.697  33.287  30.591  1.00  0.00     0.001 A 
ATOM     78  C   UNL A   1      34.658  33.825  29.306  1.00  0.00     0.000 A 
ENDBRANCH  54  73
BRANCH  66  79
ATOM     79  C   UNL A   1      41.821  30.502  33.477  1.00  0.00    -0.014 A 
ATOM     80  C   UNL A   1      42.071  30.873  34.807  1.00  0.00     0.009 A 
ATOM     81  C   UNL A   1      41.473  29.161  33.223  1.00  0.00     0.009 A 
ATOM     82  C   UNL A   1      41.997  29.937  35.843  1.00  0.00     0.001 A 
ATOM     83  C   UNL A   1      41.374  28.229  34.263  1.00  0.00     0.001 A 
ATOM     84  C   UNL A   1      41.648  28.616  35.571  1.00  0.00     0.000 A 
ENDBRANCH  66  79
ENDBRANCH  40  41
ENDBRANCH  32  35
ENDBRANCH  30  31
ENDBRANCH  29  30
ENDBRANCH  28  29
ENDBRANCH   1  28
TORSDOF 16
ENDMDL
MODEL 3
REMARK VINA RESULT:     -11.1      1.626      2.580
REMARK SMILES Cc1nc2ccccc2n1CCC(=O)N1CC[C@H](O)C[C@@H]1C(=O)NCCCCNC(=O)c1ccc(-c2c3nc(c(-c4ccccc4)c4ccc([nH]4)c(-c4ccccc4)c4nc(c(-c5ccccc5)c5ccc2[nH]5)C=C4)C=C3)cc1
REMARK SMILES IDX 25 1 24 2 22 3 23 4 21 6 15 7 16 8 17 9 20 10 18 11 13 12
REMARK SMILES IDX 14 13 12 14 11 15 10 16 1 17 2 18 3 19 4 20 9 21 5 22 8 23
REMARK SMILES IDX 6 24 7 25 19 26 26 28 27 29 28 30 29 31 30 32 31 34 32 35
REMARK SMILES IDX 33 36 79 37 34 38 78 39 35 40 36 41 37 42 72 43 38 44 77 45
REMARK SMILES IDX 71 46 73 47 39 48 76 49 70 50 69 51 40 53 62 54 47 55 61 56
REMARK SMILES IDX 48 57 51 58 60 59 74 60 49 61 50 62 59 64 75 65 52 66 41 67
REMARK SMILES IDX 42 68 46 69 43 70 45 71 44 72 63 73 64 74 68 75 65 76 67 77
REMARK SMILES IDX 66 78 53 79 54 80 58 81 55 82 57 83 56 84
REMARK H PARENT 24 5 19 27 29 33 73 52 51 63
REMARK Flexibility Score: inf
ROOT
ATOM      1  C   UNL A   1      33.046  28.064  26.437  1.00  0.00     0.116 C 
ENDROOT
BRANCH   1   2
ATOM      2  N   UNL A   1      33.176  28.469  25.054  1.00  0.00    -0.354 N 
ATOM      3  C   UNL A   1      32.630  27.918  23.927  1.00  0.00     0.242 C 
ATOM      4  O   UNL A   1      32.792  28.534  22.869  1.00  0.00    -0.273 OA
ATOM      5  H   UNL A   1      33.744  29.260  24.901  1.00  0.00     0.163 HD
BRANCH   3   6
ATOM      6  C   UNL A   1      31.790  26.603  23.982  1.00  0.00     0.176 C 
ATOM      7  N   UNL A   1      32.530  25.556  24.697  1.00  0.00    -0.330 N 
ATOM      8  C   UNL A   1      33.777  25.225  24.028  1.00  0.00     0.123 C 
ATOM      9  C   UNL A   1      33.503  24.602  22.665  1.00  0.00     0.053 C 
ATOM     10  C   UNL A   1      31.437  26.112  22.561  1.00  0.00     0.067 C 
ATOM     11  C   UNL A   1      32.643  25.525  21.800  1.00  0.00     0.118 C 
BRANCH   7  12
ATOM     12  C   UNL A   1      31.883  24.743  25.624  1.00  0.00     0.225 C 
ATOM     13  O   UNL A   1      31.629  25.158  26.759  1.00  0.00    -0.275 OA
BRANCH  12  14
ATOM     14  C   UNL A   1      31.759  23.233  25.344  1.00  0.00     0.122 C 
BRANCH  14  15
ATOM     15  C   UNL A   1      32.306  22.128  26.244  1.00  0.00     0.134 C 
BRANCH  15  16
ATOM     16  N   UNL A   1      33.566  21.542  25.847  1.00  0.00    -0.328 N 
ATOM     17  C   UNL A   1      32.541  19.391  25.025  1.00  0.00     0.088 C 
ATOM     18  C   UNL A   1      33.684  20.326  25.207  1.00  0.00     0.106 A 
ATOM     19  N   UNL A   1      34.874  20.217  24.649  1.00  0.00    -0.234 NA
ATOM     20  C   UNL A   1      35.569  21.349  25.007  1.00  0.00     0.089 A 
ATOM     21  C   UNL A   1      34.807  22.148  25.859  1.00  0.00     0.068 A 
ATOM     22  C   UNL A   1      36.834  21.788  24.587  1.00  0.00     0.030 A 
ATOM     23  C   UNL A   1      35.321  23.321  26.434  1.00  0.00     0.028 A 
ATOM     24  C   UNL A   1      37.347  22.977  25.118  1.00  0.00     0.002 A 
ATOM     25  C   UNL A   1      36.618  23.707  26.058  1.00  0.00     0.002 A 
ENDBRANCH  15  16
ENDBRANCH  14  15
ENDBRANCH  12  14
ENDBRANCH   7  12
BRANCH  11  26
ATOM     26  O   UNL A   1      33.484  26.528  21.232  1.00  0.00    -0.393 OA
ATOM     27  H   UNL A   1      34.403  26.217  21.230  1.00  0.00     0.210 HD
ENDBRANCH  11  26
ENDBRANCH   3   6
ENDBRANCH   1   2
BRANCH   1  28
ATOM     28  C   UNL A   1      32.055  28.921  27.238  1.00  0.00     0.023 C 
BRANCH  28  29
ATOM     29  C   UNL A   1      32.062  30.418  26.937  1.00  0.00     0.023 C 
BRANCH  29  30
ATOM     30  C   UNL A   1      33.459  31.034  27.012  1.00  0.00     0.116 C 
BRANCH  30  31
ATOM     31  N   UNL A   1      33.736  31.612  28.314  1.00  0.00    -0.352 N 
ATOM     32  C   UNL A   1      34.838  31.727  29.102  1.00  0.00     0.251 C 
ATOM     33  H   UNL A   1      32.938  32.018  28.723  1.00  0.00     0.163 HD
ATOM     34  O   UNL A   1      34.689  32.364  30.155  1.00  0.00    -0.269 OA
BRANCH  32  35
ATOM     35  C   UNL A   1      36.153  31.101  28.833  1.00  0.00     0.039 A 
ATOM     36  C   UNL A   1      36.333  29.843  28.257  1.00  0.00     0.014 A 
ATOM     37  C   UNL A   1      37.271  31.788  29.340  1.00  0.00     0.014 A 
ATOM     38  C   UNL A   1      37.573  29.230  28.306  1.00  0.00     0.010 A 
ATOM     39  C   UNL A   1      38.515  31.182  29.388  1.00  0.00     0.010 A 
ATOM     40  C   UNL A   1      38.636  29.874  28.938  1.00  0.00    -0.014 A 
BRANCH  40  41
ATOM     41  C   UNL A   1      39.851  29.106  29.142  1.00  0.00     0.031 A 
ATOM     42  C   UNL A   1      40.171  28.756  30.550  1.00  0.00     0.074 A 
ATOM     43  C   UNL A   1      40.639  28.737  28.114  1.00  0.00     0.049 A 
ATOM     44  N   UNL A   1      41.213  29.102  31.232  1.00  0.00    -0.248 NA
ATOM     45  C   UNL A   1      39.165  28.017  31.322  1.00  0.00     0.031 C 
ATOM     46  C   UNL A   1      40.378  28.801  26.673  1.00  0.00     0.029 A 
ATOM     47  N   UNL A   1      41.843  28.117  28.179  1.00  0.00    -0.354 N 
ATOM     48  C   UNL A   1      41.055  28.552  32.502  1.00  0.00     0.074 A 
ATOM     49  C   UNL A   1      39.740  27.958  32.524  1.00  0.00     0.031 C 
ATOM     50  C   UNL A   1      41.272  28.013  26.028  1.00  0.00     0.029 A 
ATOM     51  C   UNL A   1      42.247  27.532  26.991  1.00  0.00     0.049 A 
ATOM     52  H   UNL A   1      42.384  28.084  29.002  1.00  0.00     0.167 HD
ATOM     53  C   UNL A   1      42.057  28.534  33.424  1.00  0.00     0.031 A 
ATOM     54  C   UNL A   1      43.265  26.649  26.850  1.00  0.00     0.031 A 
ATOM     55  C   UNL A   1      43.118  29.441  33.085  1.00  0.00     0.049 A 
ATOM     56  C   UNL A   1      44.182  26.849  28.000  1.00  0.00     0.074 A 
ATOM     57  C   UNL A   1      43.217  30.816  33.022  1.00  0.00     0.029 A 
ATOM     58  N   UNL A   1      44.193  28.950  32.383  1.00  0.00    -0.354 N 
ATOM     59  N   UNL A   1      44.876  27.937  28.175  1.00  0.00    -0.248 NA
ATOM     60  C   UNL A   1      43.972  26.045  29.196  1.00  0.00     0.031 C 
ATOM     61  C   UNL A   1      44.032  31.068  31.882  1.00  0.00     0.029 A 
ATOM     62  C   UNL A   1      44.437  29.836  31.362  1.00  0.00     0.049 A 
ATOM     63  H   UNL A   1      44.692  28.124  32.575  1.00  0.00     0.167 HD
ATOM     64  C   UNL A   1      44.815  28.183  29.538  1.00  0.00     0.074 A 
ATOM     65  C   UNL A   1      44.327  26.935  30.127  1.00  0.00     0.031 C 
ATOM     66  C   UNL A   1      44.888  29.452  30.040  1.00  0.00     0.031 A 
BRANCH  53  67
ATOM     67  C   UNL A   1      42.184  27.529  34.532  1.00  0.00    -0.014 A 
ATOM     68  C   UNL A   1      41.789  27.799  35.854  1.00  0.00     0.009 A 
ATOM     69  C   UNL A   1      42.482  26.190  34.218  1.00  0.00     0.009 A 
ATOM     70  C   UNL A   1      41.692  26.790  36.817  1.00  0.00     0.001 A 
ATOM     71  C   UNL A   1      42.350  25.171  35.170  1.00  0.00     0.001 A 
ATOM     72  C   UNL A   1      41.951  25.471  36.468  1.00  0.00     0.000 A 
ENDBRANCH  53  67
BRANCH  54  73
ATOM     73  C   UNL A   1      43.220  25.388  26.077  1.00  0.00    -0.014 A 
ATOM     74  C   UNL A   1      42.333  24.359  26.451  1.00  0.00     0.009 A 
ATOM     75  C   UNL A   1      44.235  25.072  25.161  1.00  0.00     0.009 A 
ATOM     76  C   UNL A   1      42.479  23.057  25.965  1.00  0.00     0.001 A 
ATOM     77  C   UNL A   1      44.383  23.766  24.675  1.00  0.00     0.001 A 
ATOM     78  C   UNL A   1      43.517  22.757  25.090  1.00  0.00     0.000 A 
ENDBRANCH  54  73
BRANCH  66  79
ATOM     79  C   UNL A   1      45.172  30.591  29.083  1.00  0.00    -0.014 A 
ATOM     80  C   UNL A   1      44.187  30.947  28.148  1.00  0.00     0.009 A 
ATOM     81  C   UNL A   1      46.450  31.164  28.940  1.00  0.00     0.009 A 
ATOM     82  C   UNL A   1      44.472  31.826  27.100  1.00  0.00     0.001 A 
ATOM     83  C   UNL A   1      46.729  32.065  27.905  1.00  0.00     0.001 A 
ATOM     84  C   UNL A   1      45.742  32.385  26.978  1.00  0.00     0.000 A 
ENDBRANCH  66  79
ENDBRANCH  40  41
ENDBRANCH  32  35
ENDBRANCH  30  31
ENDBRANCH  29  30
ENDBRANCH  28  29
ENDBRANCH   1  28
TORSDOF 16
ENDMDL
