MODEL 1
REMARK VINA RESULT:     -11.1      0.000      0.000
REMARK SMILES COc1cc(/C=C2/SC(=O)N(c3ccc(O)cc3C)C2=O)ccc1OCC(=O)NCCCCNC(=O)c1ccc(-c2c3nc(c(-c4ccccc4)c4ccc([nH]4)c(-c4ccccc4)c4nc(c(-c5ccccc5)c5ccc2[nH]5)C=C4)C=C3)cc1
REMARK SMILES IDX 30 1 29 2 27 3 28 4 26 6 25 7 24 8 3 9 4 10 5 11 23 12 22 13
REMARK SMILES IDX 2 14 1 15 6 16 7 17 8 18 20 19 9 20 11 21 21 22 10 23 12 24
REMARK SMILES IDX 13 25 18 26 14 27 17 28 19 29 15 30 16 31 31 33 32 34 33 35
REMARK SMILES IDX 34 36 35 37 36 39 37 40 38 41 84 42 39 43 83 44 40 45 41 46
REMARK SMILES IDX 42 47 77 48 43 49 82 50 76 51 78 52 44 53 81 54 75 55 74 56
REMARK SMILES IDX 45 58 67 59 52 60 66 61 53 62 56 63 65 64 79 65 54 66 55 67
REMARK SMILES IDX 64 69 80 70 57 71 46 72 47 73 51 74 48 75 50 76 49 77 68 78
REMARK SMILES IDX 69 79 73 80 70 81 72 82 71 83 58 84 59 85 63 86 60 87 62 88
REMARK SMILES IDX 61 89
REMARK H PARENT 29 5 16 32 34 38 78 57 56 68
REMARK Flexibility Score: inf
ROOT
ATOM      1  C   UNL A   1      40.472  22.277  27.564  1.00  0.00     0.116 C 
ENDROOT
BRANCH   1   2
ATOM      2  N   UNL A   1      40.417  20.951  26.979  1.00  0.00    -0.353 N 
ATOM      3  C   UNL A   1      39.578  20.484  26.007  1.00  0.00     0.257 C 
ATOM      4  O   UNL A   1      39.804  19.366  25.539  1.00  0.00    -0.271 OA
ATOM      5  H   UNL A   1      41.069  20.302  27.330  1.00  0.00     0.163 HD
BRANCH   3   6
ATOM      6  C   UNL A   1      38.453  21.383  25.483  1.00  0.00     0.329 C 
BRANCH   6   7
ATOM      7  O   UNL A   1      37.279  20.721  25.047  1.00  0.00    -0.480 OA
BRANCH   7   8
ATOM      8  C   UNL A   1      36.236  21.440  24.538  1.00  0.00     0.161 A 
ATOM      9  C   UNL A   1      34.863  21.195  24.663  1.00  0.00     0.161 A 
ATOM     10  C   UNL A   1      33.947  21.979  23.944  1.00  0.00     0.058 A 
ATOM     11  C   UNL A   1      34.392  23.023  23.124  1.00  0.00    -0.020 A 
ATOM     12  C   UNL A   1      36.663  22.520  23.754  1.00  0.00     0.051 A 
ATOM     13  C   UNL A   1      35.754  23.327  23.073  1.00  0.00     0.012 A 
BRANCH   9  14
ATOM     14  O   UNL A   1      34.412  20.095  25.342  1.00  0.00    -0.493 OA
ATOM     15  C   UNL A   1      33.098  20.269  25.872  1.00  0.00     0.278 C 
ENDBRANCH   9  14
BRANCH  11  16
ATOM     16  C   UNL A   1      33.489  23.624  22.138  1.00  0.00     0.029 C 
ATOM     17  C   UNL A   1      32.904  24.815  22.353  1.00  0.00     0.083 C 
ATOM     18  S   UNL A   1      31.783  25.547  21.273  1.00  0.00    -0.022 SA
ATOM     19  C   UNL A   1      33.081  25.682  23.559  1.00  0.00     0.272 C 
ATOM     20  C   UNL A   1      31.506  26.923  22.345  1.00  0.00     0.298 C 
ATOM     21  N   UNL A   1      32.244  26.780  23.496  1.00  0.00    -0.236 N 
ATOM     22  O   UNL A   1      33.837  25.411  24.481  1.00  0.00    -0.268 OA
ATOM     23  O   UNL A   1      30.782  27.846  22.008  1.00  0.00    -0.260 OA
BRANCH  21  24
ATOM     24  C   UNL A   1      32.210  27.713  24.573  1.00  0.00     0.056 A 
ATOM     25  C   UNL A   1      33.023  28.864  24.480  1.00  0.00     0.031 A 
ATOM     26  C   UNL A   1      31.481  27.493  25.761  1.00  0.00    -0.023 A 
ATOM     27  C   UNL A   1      33.114  29.780  25.525  1.00  0.00     0.048 A 
ATOM     28  C   UNL A   1      31.572  28.441  26.804  1.00  0.00     0.051 A 
ATOM     29  C   UNL A   1      30.653  26.267  26.036  1.00  0.00     0.047 C 
ATOM     30  C   UNL A   1      32.392  29.559  26.683  1.00  0.00     0.115 A 
BRANCH  30  31
ATOM     31  O   UNL A   1      32.531  30.456  27.698  1.00  0.00    -0.508 OA
ATOM     32  H   UNL A   1      32.598  30.154  28.583  1.00  0.00     0.293 HD
ENDBRANCH  30  31
ENDBRANCH  21  24
ENDBRANCH  11  16
ENDBRANCH   7   8
ENDBRANCH   6   7
ENDBRANCH   3   6
ENDBRANCH   1   2
BRANCH   1  33
ATOM     33  C   UNL A   1      41.619  23.122  27.015  1.00  0.00     0.023 C 
BRANCH  33  34
ATOM     34  C   UNL A   1      42.296  22.585  25.754  1.00  0.00     0.023 C 
BRANCH  34  35
ATOM     35  C   UNL A   1      43.255  23.543  25.063  1.00  0.00     0.116 C 
BRANCH  35  36
ATOM     36  N   UNL A   1      44.654  23.211  25.276  1.00  0.00    -0.352 N 
ATOM     37  C   UNL A   1      45.511  23.647  26.256  1.00  0.00     0.251 C 
ATOM     38  H   UNL A   1      45.044  22.584  24.624  1.00  0.00     0.163 HD
ATOM     39  O   UNL A   1      46.694  23.322  26.231  1.00  0.00    -0.269 OA
BRANCH  37  40
ATOM     40  C   UNL A   1      45.015  24.545  27.320  1.00  0.00     0.039 A 
ATOM     41  C   UNL A   1      45.091  25.924  27.117  1.00  0.00     0.014 A 
ATOM     42  C   UNL A   1      44.461  24.034  28.497  1.00  0.00     0.014 A 
ATOM     43  C   UNL A   1      44.545  26.795  28.063  1.00  0.00     0.010 A 
ATOM     44  C   UNL A   1      43.854  24.898  29.403  1.00  0.00     0.010 A 
ATOM     45  C   UNL A   1      43.890  26.286  29.196  1.00  0.00    -0.014 A 
BRANCH  45  46
ATOM     46  C   UNL A   1      43.239  27.187  30.177  1.00  0.00     0.031 A 
ATOM     47  C   UNL A   1      43.837  27.368  31.545  1.00  0.00     0.074 A 
ATOM     48  C   UNL A   1      42.073  27.787  29.866  1.00  0.00     0.049 A 
ATOM     49  N   UNL A   1      43.373  28.042  32.566  1.00  0.00    -0.248 NA
ATOM     50  C   UNL A   1      45.111  26.679  31.806  1.00  0.00     0.031 C 
ATOM     51  C   UNL A   1      41.370  27.667  28.587  1.00  0.00     0.029 A 
ATOM     52  N   UNL A   1      41.268  28.612  30.612  1.00  0.00    -0.354 N 
ATOM     53  C   UNL A   1      44.285  27.840  33.595  1.00  0.00     0.074 A 
ATOM     54  C   UNL A   1      45.305  26.948  33.089  1.00  0.00     0.031 C 
ATOM     55  C   UNL A   1      40.251  28.409  28.629  1.00  0.00     0.029 A 
ATOM     56  C   UNL A   1      40.137  29.022  29.949  1.00  0.00     0.049 A 
ATOM     57  H   UNL A   1      41.481  28.883  31.534  1.00  0.00     0.167 HD
ATOM     58  C   UNL A   1      44.283  28.363  34.844  1.00  0.00     0.031 A 
ATOM     59  C   UNL A   1      39.118  29.800  30.359  1.00  0.00     0.031 A 
ATOM     60  C   UNL A   1      43.281  29.264  35.342  1.00  0.00     0.049 A 
ATOM     61  C   UNL A   1      39.136  30.363  31.752  1.00  0.00     0.074 A 
ATOM     62  C   UNL A   1      43.222  29.891  36.575  1.00  0.00     0.029 A 
ATOM     63  N   UNL A   1      42.161  29.669  34.634  1.00  0.00    -0.354 N 
ATOM     64  N   UNL A   1      40.036  30.210  32.693  1.00  0.00    -0.248 NA
ATOM     65  C   UNL A   1      38.003  31.217  32.135  1.00  0.00     0.031 C 
ATOM     66  C   UNL A   1      42.043  30.642  36.627  1.00  0.00     0.029 A 
ATOM     67  C   UNL A   1      41.395  30.522  35.409  1.00  0.00     0.049 A 
ATOM     68  H   UNL A   1      41.942  29.390  33.715  1.00  0.00     0.167 HD
ATOM     69  C   UNL A   1      39.593  30.970  33.768  1.00  0.00     0.074 A 
ATOM     70  C   UNL A   1      38.351  31.593  33.358  1.00  0.00     0.031 C 
ATOM     71  C   UNL A   1      40.166  31.139  34.984  1.00  0.00     0.031 A 
BRANCH  58  72
ATOM     72  C   UNL A   1      45.406  27.965  35.760  1.00  0.00    -0.014 A 
ATOM     73  C   UNL A   1      45.319  26.811  36.556  1.00  0.00     0.009 A 
ATOM     74  C   UNL A   1      46.577  28.736  35.806  1.00  0.00     0.009 A 
ATOM     75  C   UNL A   1      46.368  26.460  37.408  1.00  0.00     0.001 A 
ATOM     76  C   UNL A   1      47.636  28.366  36.636  1.00  0.00     0.001 A 
ATOM     77  C   UNL A   1      47.527  27.235  37.443  1.00  0.00     0.000 A 
ENDBRANCH  58  72
BRANCH  59  78
ATOM     78  C   UNL A   1      37.996  30.107  29.434  1.00  0.00    -0.014 A 
ATOM     79  C   UNL A   1      37.060  29.116  29.100  1.00  0.00     0.009 A 
ATOM     80  C   UNL A   1      37.859  31.388  28.876  1.00  0.00     0.009 A 
ATOM     81  C   UNL A   1      36.027  29.393  28.203  1.00  0.00     0.001 A 
ATOM     82  C   UNL A   1      36.808  31.669  28.000  1.00  0.00     0.001 A 
ATOM     83  C   UNL A   1      35.899  30.671  27.657  1.00  0.00     0.000 A 
ENDBRANCH  59  78
BRANCH  71  84
ATOM     84  C   UNL A   1      39.479  32.066  35.945  1.00  0.00    -0.014 A 
ATOM     85  C   UNL A   1      39.802  33.430  35.998  1.00  0.00     0.009 A 
ATOM     86  C   UNL A   1      38.460  31.573  36.775  1.00  0.00     0.009 A 
ATOM     87  C   UNL A   1      39.136  34.278  36.886  1.00  0.00     0.001 A 
ATOM     88  C   UNL A   1      37.778  32.428  37.641  1.00  0.00     0.001 A 
ATOM     89  C   UNL A   1      38.122  33.778  37.702  1.00  0.00     0.000 A 
ENDBRANCH  71  84
ENDBRANCH  45  46
ENDBRANCH  37  40
ENDBRANCH  35  36
ENDBRANCH  34  35
ENDBRANCH  33  34
ENDBRANCH   1  33
TORSDOF 17
ENDMDL
MODEL 2
REMARK VINA RESULT:     -10.9      4.734      9.121
REMARK SMILES COc1cc(/C=C2/SC(=O)N(c3ccc(O)cc3C)C2=O)ccc1OCC(=O)NCCCCNC(=O)c1ccc(-c2c3nc(c(-c4ccccc4)c4ccc([nH]4)c(-c4ccccc4)c4nc(c(-c5ccccc5)c5ccc2[nH]5)C=C4)C=C3)cc1
REMARK SMILES IDX 30 1 29 2 27 3 28 4 26 6 25 7 24 8 3 9 4 10 5 11 23 12 22 13
REMARK SMILES IDX 2 14 1 15 6 16 7 17 8 18 20 19 9 20 11 21 21 22 10 23 12 24
REMARK SMILES IDX 13 25 18 26 14 27 17 28 19 29 15 30 16 31 31 33 32 34 33 35
REMARK SMILES IDX 34 36 35 37 36 39 37 40 38 41 84 42 39 43 83 44 40 45 41 46
REMARK SMILES IDX 42 47 77 48 43 49 82 50 76 51 78 52 44 53 81 54 75 55 74 56
REMARK SMILES IDX 45 58 67 59 52 60 66 61 53 62 56 63 65 64 79 65 54 66 55 67
REMARK SMILES IDX 64 69 80 70 57 71 46 72 47 73 51 74 48 75 50 76 49 77 68 78
REMARK SMILES IDX 69 79 73 80 70 81 72 82 71 83 58 84 59 85 63 86 60 87 62 88
REMARK SMILES IDX 61 89
REMARK H PARENT 29 5 16 32 34 38 78 57 56 68
REMARK Flexibility Score: inf
ROOT
ATOM      1  C   UNL A   1      42.854  20.557  25.688  1.00  0.00     0.116 C 
ENDROOT
BRANCH   1   2
ATOM      2  N   UNL A   1      44.294  20.430  25.580  1.00  0.00    -0.353 N 
ATOM      3  C   UNL A   1      45.181  21.284  24.988  1.00  0.00     0.257 C 
ATOM      4  O   UNL A   1      46.384  21.066  25.146  1.00  0.00    -0.271 OA
ATOM      5  H   UNL A   1      44.683  19.621  25.985  1.00  0.00     0.163 HD
BRANCH   3   6
ATOM      6  C   UNL A   1      44.660  22.509  24.229  1.00  0.00     0.329 C 
BRANCH   6   7
ATOM      7  O   UNL A   1      44.863  23.762  24.855  1.00  0.00    -0.480 OA
BRANCH   7   8
ATOM      8  C   UNL A   1      44.859  23.856  26.218  1.00  0.00     0.161 A 
ATOM      9  C   UNL A   1      45.949  23.912  27.093  1.00  0.00     0.161 A 
ATOM     10  C   UNL A   1      45.734  23.868  28.480  1.00  0.00     0.058 A 
ATOM     11  C   UNL A   1      44.434  23.797  28.997  1.00  0.00    -0.020 A 
ATOM     12  C   UNL A   1      43.563  23.838  26.751  1.00  0.00     0.051 A 
ATOM     13  C   UNL A   1      43.343  23.838  28.127  1.00  0.00     0.012 A 
BRANCH   9  14
ATOM     14  O   UNL A   1      47.229  23.837  26.614  1.00  0.00    -0.493 OA
ATOM     15  C   UNL A   1      47.799  25.118  26.346  1.00  0.00     0.278 C 
ENDBRANCH   9  14
BRANCH  11  16
ATOM     16  C   UNL A   1      44.216  23.430  30.399  1.00  0.00     0.029 C 
ATOM     17  C   UNL A   1      44.402  24.313  31.396  1.00  0.00     0.083 C 
ATOM     18  S   UNL A   1      44.231  23.932  33.065  1.00  0.00    -0.022 SA
ATOM     19  C   UNL A   1      44.823  25.740  31.245  1.00  0.00     0.272 C 
ATOM     20  C   UNL A   1      44.721  25.549  33.579  1.00  0.00     0.298 C 
ATOM     21  N   UNL A   1      45.024  26.321  32.482  1.00  0.00    -0.236 N 
ATOM     22  O   UNL A   1      45.000  26.282  30.162  1.00  0.00    -0.268 OA
ATOM     23  O   UNL A   1      44.715  25.862  34.759  1.00  0.00    -0.260 OA
BRANCH  21  24
ATOM     24  C   UNL A   1      45.484  27.668  32.571  1.00  0.00     0.056 A 
ATOM     25  C   UNL A   1      46.836  27.888  32.912  1.00  0.00     0.031 A 
ATOM     26  C   UNL A   1      44.631  28.783  32.429  1.00  0.00    -0.023 A 
ATOM     27  C   UNL A   1      47.341  29.172  33.104  1.00  0.00     0.048 A 
ATOM     28  C   UNL A   1      45.164  30.078  32.610  1.00  0.00     0.051 A 
ATOM     29  C   UNL A   1      43.152  28.696  32.163  1.00  0.00     0.047 C 
ATOM     30  C   UNL A   1      46.500  30.258  32.957  1.00  0.00     0.115 A 
BRANCH  30  31
ATOM     31  O   UNL A   1      47.018  31.496  33.186  1.00  0.00    -0.508 OA
ATOM     32  H   UNL A   1      47.737  31.806  32.670  1.00  0.00     0.293 HD
ENDBRANCH  30  31
ENDBRANCH  21  24
ENDBRANCH  11  16
ENDBRANCH   7   8
ENDBRANCH   6   7
ENDBRANCH   3   6
ENDBRANCH   1   2
BRANCH   1  33
ATOM     33  C   UNL A   1      42.233  19.514  26.616  1.00  0.00     0.023 C 
BRANCH  33  34
ATOM     34  C   UNL A   1      41.000  19.970  27.396  1.00  0.00     0.023 C 
BRANCH  34  35
ATOM     35  C   UNL A   1      40.673  21.452  27.306  1.00  0.00     0.116 C 
BRANCH  35  36
ATOM     36  N   UNL A   1      39.462  21.730  26.551  1.00  0.00    -0.352 N 
ATOM     37  C   UNL A   1      38.831  22.929  26.331  1.00  0.00     0.251 C 
ATOM     38  H   UNL A   1      39.033  20.946  26.138  1.00  0.00     0.163 HD
ATOM     39  O   UNL A   1      37.761  22.963  25.732  1.00  0.00    -0.269 OA
BRANCH  37  40
ATOM     40  C   UNL A   1      39.422  24.178  26.856  1.00  0.00     0.039 A 
ATOM     41  C   UNL A   1      40.077  25.032  25.965  1.00  0.00     0.014 A 
ATOM     42  C   UNL A   1      39.314  24.518  28.207  1.00  0.00     0.014 A 
ATOM     43  C   UNL A   1      40.563  26.261  26.414  1.00  0.00     0.010 A 
ATOM     44  C   UNL A   1      39.734  25.772  28.637  1.00  0.00     0.010 A 
ATOM     45  C   UNL A   1      40.362  26.656  27.746  1.00  0.00    -0.014 A 
BRANCH  45  46
ATOM     46  C   UNL A   1      40.803  27.987  28.229  1.00  0.00     0.031 A 
ATOM     47  C   UNL A   1      42.264  28.342  28.226  1.00  0.00     0.074 A 
ATOM     48  C   UNL A   1      39.900  28.849  28.736  1.00  0.00     0.049 A 
ATOM     49  N   UNL A   1      42.853  29.417  28.685  1.00  0.00    -0.248 NA
ATOM     50  C   UNL A   1      43.186  27.347  27.656  1.00  0.00     0.031 C 
ATOM     51  C   UNL A   1      38.458  28.614  28.828  1.00  0.00     0.029 A 
ATOM     52  N   UNL A   1      40.068  30.099  29.280  1.00  0.00    -0.354 N 
ATOM     53  C   UNL A   1      44.213  29.217  28.480  1.00  0.00     0.074 A 
ATOM     54  C   UNL A   1      44.365  27.902  27.895  1.00  0.00     0.031 C 
ATOM     55  C   UNL A   1      37.871  29.691  29.374  1.00  0.00     0.029 A 
ATOM     56  C   UNL A   1      38.896  30.674  29.707  1.00  0.00     0.049 A 
ATOM     57  H   UNL A   1      40.945  30.539  29.357  1.00  0.00     0.167 HD
ATOM     58  C   UNL A   1      45.242  30.058  28.738  1.00  0.00     0.031 A 
ATOM     59  C   UNL A   1      38.673  31.859  30.306  1.00  0.00     0.031 A 
ATOM     60  C   UNL A   1      45.092  31.371  29.302  1.00  0.00     0.049 A 
ATOM     61  C   UNL A   1      39.833  32.772  30.588  1.00  0.00     0.074 A 
ATOM     62  C   UNL A   1      46.069  32.319  29.550  1.00  0.00     0.029 A 
ATOM     63  N   UNL A   1      43.886  31.924  29.705  1.00  0.00    -0.354 N 
ATOM     64  N   UNL A   1      41.106  32.592  30.335  1.00  0.00    -0.248 NA
ATOM     65  C   UNL A   1      39.522  34.057  31.231  1.00  0.00     0.031 C 
ATOM     66  C   UNL A   1      45.459  33.430  30.143  1.00  0.00     0.029 A 
ATOM     67  C   UNL A   1      44.097  33.192  30.216  1.00  0.00     0.049 A 
ATOM     68  H   UNL A   1      43.011  31.479  29.637  1.00  0.00     0.167 HD
ATOM     69  C   UNL A   1      41.744  33.750  30.758  1.00  0.00     0.074 A 
ATOM     70  C   UNL A   1      40.716  34.631  31.274  1.00  0.00     0.031 C 
ATOM     71  C   UNL A   1      43.063  34.058  30.720  1.00  0.00     0.031 A 
BRANCH  58  72
ATOM     72  C   UNL A   1      46.627  29.573  28.415  1.00  0.00    -0.014 A 
ATOM     73  C   UNL A   1      47.208  29.820  27.160  1.00  0.00     0.009 A 
ATOM     74  C   UNL A   1      47.372  28.888  29.385  1.00  0.00     0.009 A 
ATOM     75  C   UNL A   1      48.493  29.355  26.873  1.00  0.00     0.001 A 
ATOM     76  C   UNL A   1      48.668  28.451  29.106  1.00  0.00     0.001 A 
ATOM     77  C   UNL A   1      49.223  28.676  27.848  1.00  0.00     0.000 A 
ENDBRANCH  58  72
BRANCH  59  78
ATOM     78  C   UNL A   1      37.289  32.261  30.669  1.00  0.00    -0.014 A 
ATOM     79  C   UNL A   1      36.836  32.132  31.991  1.00  0.00     0.009 A 
ATOM     80  C   UNL A   1      36.413  32.767  29.696  1.00  0.00     0.009 A 
ATOM     81  C   UNL A   1      35.525  32.476  32.326  1.00  0.00     0.001 A 
ATOM     82  C   UNL A   1      35.110  33.136  30.040  1.00  0.00     0.001 A 
ATOM     83  C   UNL A   1      34.664  32.981  31.351  1.00  0.00     0.000 A 
ENDBRANCH  59  78
BRANCH  71  84
ATOM     84  C   UNL A   1      43.466  35.419  31.209  1.00  0.00    -0.014 A 
ATOM     85  C   UNL A   1      43.595  36.503  30.327  1.00  0.00     0.009 A 
ATOM     86  C   UNL A   1      43.673  35.628  32.582  1.00  0.00     0.009 A 
ATOM     87  C   UNL A   1      43.952  37.764  30.809  1.00  0.00     0.001 A 
ATOM     88  C   UNL A   1      44.003  36.896  33.062  1.00  0.00     0.001 A 
ATOM     89  C   UNL A   1      44.150  37.961  32.175  1.00  0.00     0.000 A 
ENDBRANCH  71  84
ENDBRANCH  45  46
ENDBRANCH  37  40
ENDBRANCH  35  36
ENDBRANCH  34  35
ENDBRANCH  33  34
ENDBRANCH   1  33
TORSDOF 17
ENDMDL
MODEL 3
REMARK VINA RESULT:     -10.6      0.887      5.668
REMARK SMILES COc1cc(/C=C2/SC(=O)N(c3ccc(O)cc3C)C2=O)ccc1OCC(=O)NCCCCNC(=O)c1ccc(-c2c3nc(c(-c4ccccc4)c4ccc([nH]4)c(-c4ccccc4)c4nc(c(-c5ccccc5)c5ccc2[nH]5)C=C4)C=C3)cc1
REMARK SMILES IDX 30 1 29 2 27 3 28 4 26 6 25 7 24 8 3 9 4 10 5 11 23 12 22 13
REMARK SMILES IDX 2 14 1 15 6 16 7 17 8 18 20 19 9 20 11 21 21 22 10 23 12 24
REMARK SMILES IDX 13 25 18 26 14 27 17 28 19 29 15 30 16 31 31 33 32 34 33 35
REMARK SMILES IDX 34 36 35 37 36 39 37 40 38 41 84 42 39 43 83 44 40 45 41 46
REMARK SMILES IDX 42 47 77 48 43 49 82 50 76 51 78 52 44 53 81 54 75 55 74 56
REMARK SMILES IDX 45 58 67 59 52 60 66 61 53 62 56 63 65 64 79 65 54 66 55 67
REMARK SMILES IDX 64 69 80 70 57 71 46 72 47 73 51 74 48 75 50 76 49 77 68 78
REMARK SMILES IDX 69 79 73 80 70 81 72 82 71 83 58 84 59 85 63 86 60 87 62 88
REMARK SMILES IDX 61 89
REMARK H PARENT 29 5 16 32 34 38 78 57 56 68
REMARK Flexibility Score: inf
ROOT
ATOM      1  C   UNL A   1      41.121  22.429  26.439  1.00  0.00     0.116 C 
ENDROOT
BRANCH   1   2
ATOM      2  N   UNL A   1      40.831  21.025  26.228  1.00  0.00    -0.353 N 
ATOM      3  C   UNL A   1      39.653  20.447  25.845  1.00  0.00     0.257 C 
ATOM      4  O   UNL A   1      39.663  19.245  25.569  1.00  0.00    -0.271 OA
ATOM      5  H   UNL A   1      41.581  20.405  26.382  1.00  0.00     0.163 HD
BRANCH   3   6
ATOM      6  C   UNL A   1      38.399  21.314  25.695  1.00  0.00     0.329 C 
BRANCH   6   7
ATOM      7  O   UNL A   1      37.265  20.678  25.134  1.00  0.00    -0.480 OA
BRANCH   7   8
ATOM      8  C   UNL A   1      36.250  21.425  24.608  1.00  0.00     0.161 A 
ATOM      9  C   UNL A   1      34.870  21.261  24.771  1.00  0.00     0.161 A 
ATOM     10  C   UNL A   1      33.980  22.055  24.030  1.00  0.00     0.058 A 
ATOM     11  C   UNL A   1      34.462  23.031  23.148  1.00  0.00    -0.020 A 
ATOM     12  C   UNL A   1      36.716  22.439  23.761  1.00  0.00     0.051 A 
ATOM     13  C   UNL A   1      35.837  23.258  23.056  1.00  0.00     0.012 A 
BRANCH   9  14
ATOM     14  O   UNL A   1      34.376  20.224  25.515  1.00  0.00    -0.493 OA
ATOM     15  C   UNL A   1      33.579  19.320  24.749  1.00  0.00     0.278 C 
ENDBRANCH   9  14
BRANCH  11  16
ATOM     16  C   UNL A   1      33.571  23.628  22.149  1.00  0.00     0.029 C 
ATOM     17  C   UNL A   1      32.972  24.813  22.359  1.00  0.00     0.083 C 
ATOM     18  S   UNL A   1      31.863  25.540  21.263  1.00  0.00    -0.022 SA
ATOM     19  C   UNL A   1      33.119  25.675  23.572  1.00  0.00     0.272 C 
ATOM     20  C   UNL A   1      31.555  26.908  22.336  1.00  0.00     0.298 C 
ATOM     21  N   UNL A   1      32.274  26.766  23.499  1.00  0.00    -0.236 N 
ATOM     22  O   UNL A   1      33.862  25.407  24.506  1.00  0.00    -0.268 OA
ATOM     23  O   UNL A   1      30.829  27.826  21.991  1.00  0.00    -0.260 OA
BRANCH  21  24
ATOM     24  C   UNL A   1      32.213  27.694  24.580  1.00  0.00     0.056 A 
ATOM     25  C   UNL A   1      33.011  28.856  24.503  1.00  0.00     0.031 A 
ATOM     26  C   UNL A   1      31.471  27.459  25.757  1.00  0.00    -0.023 A 
ATOM     27  C   UNL A   1      33.076  29.769  25.554  1.00  0.00     0.048 A 
ATOM     28  C   UNL A   1      31.535  28.403  26.805  1.00  0.00     0.051 A 
ATOM     29  C   UNL A   1      30.656  26.221  26.015  1.00  0.00     0.047 C 
ATOM     30  C   UNL A   1      32.341  29.533  26.700  1.00  0.00     0.115 A 
BRANCH  30  31
ATOM     31  O   UNL A   1      32.454  30.427  27.721  1.00  0.00    -0.508 OA
ATOM     32  H   UNL A   1      31.728  30.976  27.945  1.00  0.00     0.293 HD
ENDBRANCH  30  31
ENDBRANCH  21  24
ENDBRANCH  11  16
ENDBRANCH   7   8
ENDBRANCH   6   7
ENDBRANCH   3   6
ENDBRANCH   1   2
BRANCH   1  33
ATOM     33  C   UNL A   1      42.616  22.740  26.401  1.00  0.00     0.023 C 
BRANCH  33  34
ATOM     34  C   UNL A   1      43.144  23.301  25.081  1.00  0.00     0.023 C 
BRANCH  34  35
ATOM     35  C   UNL A   1      43.591  24.754  25.115  1.00  0.00     0.116 C 
BRANCH  35  36
ATOM     36  N   UNL A   1      45.036  24.914  25.080  1.00  0.00    -0.352 N 
ATOM     37  C   UNL A   1      45.856  25.596  25.944  1.00  0.00     0.251 C 
ATOM     38  H   UNL A   1      45.492  24.469  24.329  1.00  0.00     0.163 HD
ATOM     39  O   UNL A   1      47.057  25.693  25.709  1.00  0.00    -0.269 OA
BRANCH  37  40
ATOM     40  C   UNL A   1      45.283  26.252  27.138  1.00  0.00     0.039 A 
ATOM     41  C   UNL A   1      45.354  27.644  27.232  1.00  0.00     0.014 A 
ATOM     42  C   UNL A   1      44.662  25.507  28.144  1.00  0.00     0.014 A 
ATOM     43  C   UNL A   1      44.740  28.297  28.302  1.00  0.00     0.010 A 
ATOM     44  C   UNL A   1      43.989  26.163  29.170  1.00  0.00     0.010 A 
ATOM     45  C   UNL A   1      44.021  27.564  29.260  1.00  0.00    -0.014 A 
BRANCH  45  46
ATOM     46  C   UNL A   1      43.298  28.240  30.364  1.00  0.00     0.031 A 
ATOM     47  C   UNL A   1      41.913  28.780  30.136  1.00  0.00     0.074 A 
ATOM     48  C   UNL A   1      43.911  28.430  31.549  1.00  0.00     0.049 A 
ATOM     49  N   UNL A   1      41.155  29.474  30.946  1.00  0.00    -0.248 NA
ATOM     50  C   UNL A   1      41.314  28.531  28.816  1.00  0.00     0.031 C 
ATOM     51  C   UNL A   1      45.264  27.985  31.887  1.00  0.00     0.029 A 
ATOM     52  N   UNL A   1      43.474  29.061  32.687  1.00  0.00    -0.354 N 
ATOM     53  C   UNL A   1      40.001  29.761  30.227  1.00  0.00     0.074 A 
ATOM     54  C   UNL A   1      40.177  29.205  28.904  1.00  0.00     0.031 C 
ATOM     55  C   UNL A   1      45.538  28.337  33.154  1.00  0.00     0.029 A 
ATOM     56  C   UNL A   1      44.399  29.066  33.702  1.00  0.00     0.049 A 
ATOM     57  H   UNL A   1      42.582  29.471  32.768  1.00  0.00     0.167 HD
ATOM     58  C   UNL A   1      38.888  30.415  30.636  1.00  0.00     0.031 A 
ATOM     59  C   UNL A   1      44.340  29.604  34.935  1.00  0.00     0.031 A 
ATOM     60  C   UNL A   1      38.705  30.953  31.956  1.00  0.00     0.049 A 
ATOM     61  C   UNL A   1      43.096  30.330  35.363  1.00  0.00     0.074 A 
ATOM     62  C   UNL A   1      37.591  31.583  32.482  1.00  0.00     0.029 A 
ATOM     63  N   UNL A   1      39.659  30.922  32.961  1.00  0.00    -0.354 N 
ATOM     64  N   UNL A   1      41.991  30.543  34.690  1.00  0.00    -0.248 NA
ATOM     65  C   UNL A   1      43.087  30.882  36.725  1.00  0.00     0.031 C 
ATOM     66  C   UNL A   1      37.887  31.972  33.793  1.00  0.00     0.029 A 
ATOM     67  C   UNL A   1      39.167  31.538  34.098  1.00  0.00     0.049 A 
ATOM     68  H   UNL A   1      40.554  30.521  32.877  1.00  0.00     0.167 HD
ATOM     69  C   UNL A   1      41.146  31.225  35.555  1.00  0.00     0.074 A 
ATOM     70  C   UNL A   1      41.861  31.381  36.805  1.00  0.00     0.031 C 
ATOM     71  C   UNL A   1      39.889  31.680  35.335  1.00  0.00     0.031 A 
BRANCH  58  72
ATOM     72  C   UNL A   1      37.782  30.587  29.634  1.00  0.00    -0.014 A 
ATOM     73  C   UNL A   1      37.592  31.807  28.964  1.00  0.00     0.009 A 
ATOM     74  C   UNL A   1      36.938  29.509  29.333  1.00  0.00     0.009 A 
ATOM     75  C   UNL A   1      36.554  31.952  28.041  1.00  0.00     0.001 A 
ATOM     76  C   UNL A   1      35.920  29.647  28.389  1.00  0.00     0.001 A 
ATOM     77  C   UNL A   1      35.723  30.871  27.751  1.00  0.00     0.000 A 
ENDBRANCH  58  72
BRANCH  59  78
ATOM     78  C   UNL A   1      45.491  29.465  35.865  1.00  0.00    -0.014 A 
ATOM     79  C   UNL A   1      46.509  30.430  35.884  1.00  0.00     0.009 A 
ATOM     80  C   UNL A   1      45.582  28.364  36.730  1.00  0.00     0.009 A 
ATOM     81  C   UNL A   1      47.609  30.282  36.730  1.00  0.00     0.001 A 
ATOM     82  C   UNL A   1      46.670  28.232  37.596  1.00  0.00     0.001 A 
ATOM     83  C   UNL A   1      47.686  29.185  37.589  1.00  0.00     0.000 A 
ENDBRANCH  59  78
BRANCH  71  84
ATOM     84  C   UNL A   1      39.189  32.349  36.482  1.00  0.00    -0.014 A 
ATOM     85  C   UNL A   1      39.437  33.692  36.804  1.00  0.00     0.009 A 
ATOM     86  C   UNL A   1      38.230  31.636  37.220  1.00  0.00     0.009 A 
ATOM     87  C   UNL A   1      38.758  34.299  37.863  1.00  0.00     0.001 A 
ATOM     88  C   UNL A   1      37.536  32.253  38.260  1.00  0.00     0.001 A 
ATOM     89  C   UNL A   1      37.805  33.582  38.586  1.00  0.00     0.000 A 
ENDBRANCH  71  84
ENDBRANCH  45  46
ENDBRANCH  37  40
ENDBRANCH  35  36
ENDBRANCH  34  35
ENDBRANCH  33  34
ENDBRANCH   1  33
TORSDOF 17
ENDMDL
