MODEL 1
REMARK VINA RESULT:     -11.3      0.000      0.000
REMARK SMILES O=C(NCCCCNC(=O)c1c(-c2ccc(Cl)cc2)noc1CO[C@@H]1CCCCO1)c1ccc(-c2c3nc(c(-c4ccccc4)c4ccc([nH]4)c(-c4ccccc4)c4nc(c(-c5ccccc5)c5ccc2[nH]5)C=C4)C=C3)cc1
REMARK SMILES IDX 6 1 5 2 4 3 3 4 1 5 2 6 31 8 32 9 78 10 33 11 77 12 34 13
REMARK SMILES IDX 35 14 36 15 71 16 37 17 76 18 70 19 72 20 38 21 75 22 69 23
REMARK SMILES IDX 68 24 39 26 61 27 46 28 60 29 47 30 50 31 59 32 73 33 48 34
REMARK SMILES IDX 49 35 58 37 74 38 51 39 40 40 41 41 45 42 42 43 44 44 43 45
REMARK SMILES IDX 62 46 63 47 67 48 64 49 66 50 65 51 52 52 53 53 57 54 54 55
REMARK SMILES IDX 56 56 55 57 7 58 8 59 9 60 10 62 11 63 12 64 22 65 20 66
REMARK SMILES IDX 21 67 13 68 14 69 19 70 15 71 18 72 16 73 17 74 23 75 24 76
REMARK SMILES IDX 25 77 26 78 30 79 27 80 29 81 28 82
REMARK H PARENT 3 7 72 25 50 36 8 61
REMARK Flexibility Score: inf
ROOT
ATOM      1  C   UNL A   1      35.019  23.408  23.559  1.00  0.00     0.023 C 
ENDROOT
BRANCH   1   2
ATOM      2  C   UNL A   1      35.765  22.918  24.805  1.00  0.00     0.023 C 
BRANCH   2   3
ATOM      3  C   UNL A   1      37.084  23.616  25.131  1.00  0.00     0.116 C 
BRANCH   3   4
ATOM      4  N   UNL A   1      38.154  22.694  25.463  1.00  0.00    -0.352 N 
ATOM      5  O   UNL A   1      40.147  22.024  26.268  1.00  0.00    -0.269 OA
ATOM      6  C   UNL A   1      39.313  22.920  26.168  1.00  0.00     0.251 C 
ATOM      7  H   UNL A   1      38.032  21.773  25.138  1.00  0.00     0.163 HD
BRANCH   6   8
ATOM      8  C   UNL A   1      39.586  24.242  26.777  1.00  0.00     0.039 A 
ATOM      9  C   UNL A   1      40.246  25.252  26.073  1.00  0.00     0.014 A 
ATOM     10  C   UNL A   1      39.135  24.479  28.081  1.00  0.00     0.014 A 
ATOM     11  C   UNL A   1      40.549  26.459  26.708  1.00  0.00     0.010 A 
ATOM     12  C   UNL A   1      39.412  25.697  28.708  1.00  0.00     0.010 A 
ATOM     13  C   UNL A   1      40.151  26.681  28.036  1.00  0.00    -0.014 A 
BRANCH  13  14
ATOM     14  C   UNL A   1      40.537  27.941  28.714  1.00  0.00     0.031 A 
ATOM     15  C   UNL A   1      39.538  29.050  28.883  1.00  0.00     0.074 A 
ATOM     16  C   UNL A   1      41.776  28.077  29.220  1.00  0.00     0.049 A 
ATOM     17  N   UNL A   1      39.666  30.183  29.526  1.00  0.00    -0.248 NA
ATOM     18  C   UNL A   1      38.225  28.862  28.245  1.00  0.00     0.031 C 
ATOM     19  C   UNL A   1      42.850  27.089  29.111  1.00  0.00     0.029 A 
ATOM     20  N   UNL A   1      42.329  29.099  29.949  1.00  0.00    -0.354 N 
ATOM     21  C   UNL A   1      38.461  30.850  29.358  1.00  0.00     0.074 A 
ATOM     22  C   UNL A   1      37.611  29.997  28.553  1.00  0.00     0.031 C 
ATOM     23  C   UNL A   1      43.924  27.538  29.783  1.00  0.00     0.029 A 
ATOM     24  C   UNL A   1      43.610  28.841  30.365  1.00  0.00     0.049 A 
ATOM     25  H   UNL A   1      41.853  29.937  30.152  1.00  0.00     0.167 HD
ATOM     26  C   UNL A   1      38.088  32.063  29.831  1.00  0.00     0.031 A 
ATOM     27  C   UNL A   1      44.432  29.559  31.151  1.00  0.00     0.031 A 
ATOM     28  C   UNL A   1      38.905  32.914  30.651  1.00  0.00     0.049 A 
ATOM     29  C   UNL A   1      43.975  30.870  31.717  1.00  0.00     0.074 A 
ATOM     30  C   UNL A   1      38.600  34.157  31.182  1.00  0.00     0.029 A 
ATOM     31  N   UNL A   1      40.189  32.604  31.066  1.00  0.00    -0.354 N 
ATOM     32  N   UNL A   1      42.826  31.479  31.560  1.00  0.00    -0.248 NA
ATOM     33  C   UNL A   1      44.929  31.587  32.577  1.00  0.00     0.031 C 
ATOM     34  C   UNL A   1      39.703  34.597  31.926  1.00  0.00     0.029 A 
ATOM     35  C   UNL A   1      40.688  33.626  31.855  1.00  0.00     0.049 A 
ATOM     36  H   UNL A   1      40.674  31.780  30.835  1.00  0.00     0.167 HD
ATOM     37  C   UNL A   1      42.916  32.647  32.303  1.00  0.00     0.074 A 
ATOM     38  C   UNL A   1      44.230  32.662  32.914  1.00  0.00     0.031 C 
ATOM     39  C   UNL A   1      41.989  33.621  32.463  1.00  0.00     0.031 A 
BRANCH  26  40
ATOM     40  C   UNL A   1      36.718  32.539  29.463  1.00  0.00    -0.014 A 
ATOM     41  C   UNL A   1      35.625  32.281  30.304  1.00  0.00     0.009 A 
ATOM     42  C   UNL A   1      36.520  33.264  28.279  1.00  0.00     0.009 A 
ATOM     43  C   UNL A   1      34.350  32.729  29.954  1.00  0.00     0.001 A 
ATOM     44  C   UNL A   1      35.243  33.711  27.935  1.00  0.00     0.001 A 
ATOM     45  C   UNL A   1      34.160  33.443  28.771  1.00  0.00     0.000 A 
ENDBRANCH  26  40
BRANCH  27  46
ATOM     46  C   UNL A   1      45.770  29.025  31.490  1.00  0.00    -0.014 A 
ATOM     47  C   UNL A   1      45.934  28.217  32.625  1.00  0.00     0.009 A 
ATOM     48  C   UNL A   1      46.877  29.314  30.682  1.00  0.00     0.009 A 
ATOM     49  C   UNL A   1      47.194  27.712  32.950  1.00  0.00     0.001 A 
ATOM     50  C   UNL A   1      48.134  28.805  31.009  1.00  0.00     0.001 A 
ATOM     51  C   UNL A   1      48.293  28.006  32.142  1.00  0.00     0.000 A 
ENDBRANCH  27  46
BRANCH  39  52
ATOM     52  C   UNL A   1      42.366  34.775  33.339  1.00  0.00    -0.014 A 
ATOM     53  C   UNL A   1      42.072  34.749  34.710  1.00  0.00     0.009 A 
ATOM     54  C   UNL A   1      43.033  35.883  32.796  1.00  0.00     0.009 A 
ATOM     55  C   UNL A   1      42.430  35.826  35.523  1.00  0.00     0.001 A 
ATOM     56  C   UNL A   1      43.391  36.956  33.613  1.00  0.00     0.001 A 
ATOM     57  C   UNL A   1      43.088  36.928  34.975  1.00  0.00     0.000 A 
ENDBRANCH  39  52
ENDBRANCH  13  14
ENDBRANCH   6   8
ENDBRANCH   3   4
ENDBRANCH   2   3
ENDBRANCH   1   2
BRANCH   1  58
ATOM     58  C   UNL A   1      34.248  24.721  23.694  1.00  0.00     0.116 C 
BRANCH  58  59
ATOM     59  N   UNL A   1      32.904  24.656  23.151  1.00  0.00    -0.352 N 
ATOM     60  C   UNL A   1      31.717  24.295  23.737  1.00  0.00     0.257 C 
ATOM     61  H   UNL A   1      32.831  24.914  22.203  1.00  0.00     0.163 HD
ATOM     62  O   UNL A   1      30.715  24.252  23.027  1.00  0.00    -0.269 OA
BRANCH  60  63
ATOM     63  C   UNL A   1      31.672  23.972  25.141  1.00  0.00     0.113 A 
ATOM     64  C   UNL A   1      31.925  22.714  25.771  1.00  0.00     0.127 A 
ATOM     65  C   UNL A   1      31.202  24.770  26.165  1.00  0.00     0.175 A 
ATOM     66  N   UNL A   1      31.731  22.809  27.096  1.00  0.00    -0.079 NA
ATOM     67  O   UNL A   1      31.293  24.090  27.337  1.00  0.00    -0.357 OA
BRANCH  64  68
ATOM     68  C   UNL A   1      32.321  21.438  25.171  1.00  0.00     0.005 A 
ATOM     69  C   UNL A   1      32.062  21.150  23.824  1.00  0.00     0.012 A 
ATOM     70  C   UNL A   1      32.968  20.471  25.959  1.00  0.00     0.012 A 
ATOM     71  C   UNL A   1      32.425  19.912  23.282  1.00  0.00     0.021 A 
ATOM     72  C   UNL A   1      33.329  19.234  25.417  1.00  0.00     0.021 A 
ATOM     73  C   UNL A   1      33.053  18.959  24.080  1.00  0.00     0.041 A 
ATOM     74  Cl  UNL A   1      33.490  17.435  23.413  1.00  0.00    -0.084 Cl
ENDBRANCH  64  68
BRANCH  65  75
ATOM     75  C   UNL A   1      30.620  26.133  26.229  1.00  0.00     0.242 C 
BRANCH  75  76
ATOM     76  O   UNL A   1      31.515  27.007  26.886  1.00  0.00    -0.345 OA
BRANCH  76  77
ATOM     77  C   UNL A   1      32.285  27.927  26.119  1.00  0.00     0.250 C 
ATOM     78  C   UNL A   1      33.803  27.910  26.338  1.00  0.00     0.062 C 
ATOM     79  O   UNL A   1      31.710  29.230  26.042  1.00  0.00    -0.353 OA
ATOM     80  C   UNL A   1      34.289  28.951  27.337  1.00  0.00     0.008 C 
ATOM     81  C   UNL A   1      32.149  30.187  26.992  1.00  0.00     0.163 C 
ATOM     82  C   UNL A   1      33.663  30.302  27.037  1.00  0.00     0.029 C 
ENDBRANCH  76  77
ENDBRANCH  75  76
ENDBRANCH  65  75
ENDBRANCH  60  63
ENDBRANCH  58  59
ENDBRANCH   1  58
TORSDOF 15
ENDMDL
MODEL 2
REMARK VINA RESULT:     -11.3      2.794      7.376
REMARK SMILES O=C(NCCCCNC(=O)c1c(-c2ccc(Cl)cc2)noc1CO[C@@H]1CCCCO1)c1ccc(-c2c3nc(c(-c4ccccc4)c4ccc([nH]4)c(-c4ccccc4)c4nc(c(-c5ccccc5)c5ccc2[nH]5)C=C4)C=C3)cc1
REMARK SMILES IDX 6 1 5 2 4 3 3 4 1 5 2 6 31 8 32 9 78 10 33 11 77 12 34 13
REMARK SMILES IDX 35 14 36 15 71 16 37 17 76 18 70 19 72 20 38 21 75 22 69 23
REMARK SMILES IDX 68 24 39 26 61 27 46 28 60 29 47 30 50 31 59 32 73 33 48 34
REMARK SMILES IDX 49 35 58 37 74 38 51 39 40 40 41 41 45 42 42 43 44 44 43 45
REMARK SMILES IDX 62 46 63 47 67 48 64 49 66 50 65 51 52 52 53 53 57 54 54 55
REMARK SMILES IDX 56 56 55 57 7 58 8 59 9 60 10 62 11 63 12 64 22 65 20 66
REMARK SMILES IDX 21 67 13 68 14 69 19 70 15 71 18 72 16 73 17 74 23 75 24 76
REMARK SMILES IDX 25 77 26 78 30 79 27 80 29 81 28 82
REMARK H PARENT 3 7 72 25 50 36 8 61
REMARK Flexibility Score: inf
ROOT
ATOM      1  C   UNL A   1      31.500  30.533  25.667  1.00  0.00     0.023 C 
ENDROOT
BRANCH   1   2
ATOM      2  C   UNL A   1      31.410  31.614  26.749  1.00  0.00     0.023 C 
BRANCH   2   3
ATOM      3  C   UNL A   1      32.671  32.440  26.998  1.00  0.00     0.116 C 
BRANCH   3   4
ATOM      4  N   UNL A   1      32.400  33.736  27.592  1.00  0.00    -0.352 N 
ATOM      5  O   UNL A   1      32.694  35.496  28.963  1.00  0.00    -0.269 OA
ATOM      6  C   UNL A   1      33.140  34.448  28.507  1.00  0.00     0.251 C 
ATOM      7  H   UNL A   1      31.566  34.168  27.297  1.00  0.00     0.163 HD
BRANCH   6   8
ATOM      8  C   UNL A   1      34.451  33.946  28.978  1.00  0.00     0.039 A 
ATOM      9  C   UNL A   1      35.646  34.316  28.355  1.00  0.00     0.014 A 
ATOM     10  C   UNL A   1      34.478  33.104  30.097  1.00  0.00     0.014 A 
ATOM     11  C   UNL A   1      36.854  33.762  28.785  1.00  0.00     0.010 A 
ATOM     12  C   UNL A   1      35.690  32.573  30.545  1.00  0.00     0.010 A 
ATOM     13  C   UNL A   1      36.882  32.872  29.870  1.00  0.00    -0.014 A 
BRANCH  13  14
ATOM     14  C   UNL A   1      38.163  32.244  30.269  1.00  0.00     0.031 A 
ATOM     15  C   UNL A   1      38.977  32.828  31.389  1.00  0.00     0.074 A 
ATOM     16  C   UNL A   1      38.580  31.123  29.655  1.00  0.00     0.049 A 
ATOM     17  N   UNL A   1      40.074  32.367  31.937  1.00  0.00    -0.248 NA
ATOM     18  C   UNL A   1      38.498  34.094  31.968  1.00  0.00     0.031 C 
ATOM     19  C   UNL A   1      37.899  30.462  28.542  1.00  0.00     0.029 A 
ATOM     20  N   UNL A   1      39.671  30.330  29.904  1.00  0.00    -0.354 N 
ATOM     21  C   UNL A   1      40.425  33.290  32.911  1.00  0.00     0.074 A 
ATOM     22  C   UNL A   1      39.427  34.339  32.883  1.00  0.00     0.031 C 
ATOM     23  C   UNL A   1      38.569  29.340  28.226  1.00  0.00     0.029 A 
ATOM     24  C   UNL A   1      39.722  29.209  29.114  1.00  0.00     0.049 A 
ATOM     25  H   UNL A   1      40.353  30.544  30.582  1.00  0.00     0.167 HD
ATOM     26  C   UNL A   1      41.482  33.271  33.758  1.00  0.00     0.031 A 
ATOM     27  C   UNL A   1      40.584  28.177  29.121  1.00  0.00     0.031 A 
ATOM     28  C   UNL A   1      42.469  32.229  33.819  1.00  0.00     0.049 A 
ATOM     29  C   UNL A   1      41.710  28.144  30.111  1.00  0.00     0.074 A 
ATOM     30  C   UNL A   1      43.569  32.127  34.656  1.00  0.00     0.029 A 
ATOM     31  N   UNL A   1      42.471  31.103  33.015  1.00  0.00    -0.354 N 
ATOM     32  N   UNL A   1      42.019  29.020  31.035  1.00  0.00    -0.248 NA
ATOM     33  C   UNL A   1      42.600  26.975  30.060  1.00  0.00     0.031 C 
ATOM     34  C   UNL A   1      44.234  30.930  34.360  1.00  0.00     0.029 A 
ATOM     35  C   UNL A   1      43.545  30.293  33.341  1.00  0.00     0.049 A 
ATOM     36  H   UNL A   1      41.807  30.906  32.316  1.00  0.00     0.167 HD
ATOM     37  C   UNL A   1      43.134  28.506  31.680  1.00  0.00     0.074 A 
ATOM     38  C   UNL A   1      43.448  27.242  31.044  1.00  0.00     0.031 C 
ATOM     39  C   UNL A   1      43.837  29.037  32.708  1.00  0.00     0.031 A 
BRANCH  26  40
ATOM     40  C   UNL A   1      41.617  34.430  34.695  1.00  0.00    -0.014 A 
ATOM     41  C   UNL A   1      42.335  35.573  34.313  1.00  0.00     0.009 A 
ATOM     42  C   UNL A   1      41.010  34.387  35.958  1.00  0.00     0.009 A 
ATOM     43  C   UNL A   1      42.456  36.651  35.193  1.00  0.00     0.001 A 
ATOM     44  C   UNL A   1      41.132  35.469  36.832  1.00  0.00     0.001 A 
ATOM     45  C   UNL A   1      41.856  36.598  36.451  1.00  0.00     0.000 A 
ENDBRANCH  26  40
BRANCH  27  46
ATOM     46  C   UNL A   1      40.386  27.054  28.178  1.00  0.00    -0.014 A 
ATOM     47  C   UNL A   1      39.587  25.961  28.548  1.00  0.00     0.009 A 
ATOM     48  C   UNL A   1      40.985  27.074  26.912  1.00  0.00     0.009 A 
ATOM     49  C   UNL A   1      39.399  24.899  27.664  1.00  0.00     0.001 A 
ATOM     50  C   UNL A   1      40.791  26.009  26.030  1.00  0.00     0.001 A 
ATOM     51  C   UNL A   1      40.000  24.923  26.405  1.00  0.00     0.000 A 
ENDBRANCH  27  46
BRANCH  39  52
ATOM     52  C   UNL A   1      45.004  28.246  33.210  1.00  0.00    -0.014 A 
ATOM     53  C   UNL A   1      46.282  28.447  32.671  1.00  0.00     0.009 A 
ATOM     54  C   UNL A   1      44.828  27.309  34.240  1.00  0.00     0.009 A 
ATOM     55  C   UNL A   1      47.368  27.710  33.147  1.00  0.00     0.001 A 
ATOM     56  C   UNL A   1      45.917  26.576  34.714  1.00  0.00     0.001 A 
ATOM     57  C   UNL A   1      47.185  26.774  34.166  1.00  0.00     0.000 A 
ENDBRANCH  39  52
ENDBRANCH  13  14
ENDBRANCH   6   8
ENDBRANCH   3   4
ENDBRANCH   2   3
ENDBRANCH   1   2
BRANCH   1  58
ATOM     58  C   UNL A   1      32.718  29.610  25.719  1.00  0.00     0.116 C 
BRANCH  58  59
ATOM     59  N   UNL A   1      33.399  29.488  24.444  1.00  0.00    -0.352 N 
ATOM     60  C   UNL A   1      33.218  28.603  23.412  1.00  0.00     0.257 C 
ATOM     61  H   UNL A   1      34.111  30.152  24.294  1.00  0.00     0.163 HD
ATOM     62  O   UNL A   1      33.990  28.667  22.458  1.00  0.00    -0.269 OA
BRANCH  60  63
ATOM     63  C   UNL A   1      32.156  27.630  23.471  1.00  0.00     0.113 A 
ATOM     64  C   UNL A   1      32.250  26.226  23.724  1.00  0.00     0.127 A 
ATOM     65  C   UNL A   1      30.833  27.819  23.121  1.00  0.00     0.175 A 
ATOM     66  N   UNL A   1      31.037  25.656  23.644  1.00  0.00    -0.079 NA
ATOM     67  O   UNL A   1      30.160  26.651  23.281  1.00  0.00    -0.357 OA
BRANCH  64  68
ATOM     68  C   UNL A   1      33.432  25.413  24.016  1.00  0.00     0.005 A 
ATOM     69  C   UNL A   1      33.989  24.558  23.056  1.00  0.00     0.012 A 
ATOM     70  C   UNL A   1      34.023  25.479  25.289  1.00  0.00     0.012 A 
ATOM     71  C   UNL A   1      35.102  23.769  23.369  1.00  0.00     0.021 A 
ATOM     72  C   UNL A   1      35.134  24.690  25.602  1.00  0.00     0.021 A 
ATOM     73  C   UNL A   1      35.667  23.836  24.640  1.00  0.00     0.041 A 
ATOM     74  Cl  UNL A   1      37.029  22.859  25.025  1.00  0.00    -0.084 Cl
ENDBRANCH  64  68
BRANCH  65  75
ATOM     75  C   UNL A   1      30.057  28.971  22.602  1.00  0.00     0.242 C 
BRANCH  75  76
ATOM     76  O   UNL A   1      28.675  28.673  22.638  1.00  0.00    -0.345 OA
BRANCH  76  77
ATOM     77  C   UNL A   1      27.731  29.684  22.298  1.00  0.00     0.250 C 
ATOM     78  C   UNL A   1      28.052  30.544  21.068  1.00  0.00     0.062 C 
ATOM     79  O   UNL A   1      27.242  30.412  23.422  1.00  0.00    -0.353 OA
ATOM     80  C   UNL A   1      28.741  31.859  21.404  1.00  0.00     0.008 C 
ATOM     81  C   UNL A   1      27.905  31.624  23.744  1.00  0.00     0.163 C 
ATOM     82  C   UNL A   1      28.022  32.554  22.549  1.00  0.00     0.029 C 
ENDBRANCH  76  77
ENDBRANCH  75  76
ENDBRANCH  65  75
ENDBRANCH  60  63
ENDBRANCH  58  59
ENDBRANCH   1  58
TORSDOF 15
ENDMDL
MODEL 3
REMARK VINA RESULT:     -11.2      2.684      7.282
REMARK SMILES O=C(NCCCCNC(=O)c1c(-c2ccc(Cl)cc2)noc1CO[C@@H]1CCCCO1)c1ccc(-c2c3nc(c(-c4ccccc4)c4ccc([nH]4)c(-c4ccccc4)c4nc(c(-c5ccccc5)c5ccc2[nH]5)C=C4)C=C3)cc1
REMARK SMILES IDX 6 1 5 2 4 3 3 4 1 5 2 6 31 8 32 9 78 10 33 11 77 12 34 13
REMARK SMILES IDX 35 14 36 15 71 16 37 17 76 18 70 19 72 20 38 21 75 22 69 23
REMARK SMILES IDX 68 24 39 26 61 27 46 28 60 29 47 30 50 31 59 32 73 33 48 34
REMARK SMILES IDX 49 35 58 37 74 38 51 39 40 40 41 41 45 42 42 43 44 44 43 45
REMARK SMILES IDX 62 46 63 47 67 48 64 49 66 50 65 51 52 52 53 53 57 54 54 55
REMARK SMILES IDX 56 56 55 57 7 58 8 59 9 60 10 62 11 63 12 64 22 65 20 66
REMARK SMILES IDX 21 67 13 68 14 69 19 70 15 71 18 72 16 73 17 74 23 75 24 76
REMARK SMILES IDX 25 77 26 78 30 79 27 80 29 81 28 82
REMARK H PARENT 3 7 72 25 50 36 8 61
REMARK Flexibility Score: inf
ROOT
ATOM      1  C   UNL A   1      31.616  30.432  25.503  1.00  0.00     0.023 C 
ENDROOT
BRANCH   1   2
ATOM      2  C   UNL A   1      31.457  31.427  26.658  1.00  0.00     0.023 C 
BRANCH   2   3
ATOM      3  C   UNL A   1      32.715  32.172  27.098  1.00  0.00     0.116 C 
BRANCH   3   4
ATOM      4  N   UNL A   1      32.448  33.514  27.580  1.00  0.00    -0.352 N 
ATOM      5  O   UNL A   1      32.741  35.380  28.805  1.00  0.00    -0.269 OA
ATOM      6  C   UNL A   1      33.184  34.294  28.442  1.00  0.00     0.251 C 
ATOM      7  H   UNL A   1      31.622  33.927  27.241  1.00  0.00     0.163 HD
BRANCH   6   8
ATOM      8  C   UNL A   1      34.486  33.823  28.968  1.00  0.00     0.039 A 
ATOM      9  C   UNL A   1      35.690  34.132  28.330  1.00  0.00     0.014 A 
ATOM     10  C   UNL A   1      34.493  33.078  30.153  1.00  0.00     0.014 A 
ATOM     11  C   UNL A   1      36.889  33.607  28.818  1.00  0.00     0.010 A 
ATOM     12  C   UNL A   1      35.696  32.576  30.658  1.00  0.00     0.010 A 
ATOM     13  C   UNL A   1      36.897  32.810  29.974  1.00  0.00    -0.014 A 
BRANCH  13  14
ATOM     14  C   UNL A   1      38.169  32.208  30.439  1.00  0.00     0.031 A 
ATOM     15  C   UNL A   1      38.655  30.913  29.853  1.00  0.00     0.074 A 
ATOM     16  C   UNL A   1      38.914  32.845  31.359  1.00  0.00     0.049 A 
ATOM     17  N   UNL A   1      39.783  30.284  30.068  1.00  0.00    -0.248 NA
ATOM     18  C   UNL A   1      37.757  30.235  28.903  1.00  0.00     0.031 C 
ATOM     19  C   UNL A   1      38.553  34.097  32.024  1.00  0.00     0.029 A 
ATOM     20  N   UNL A   1      40.146  32.531  31.875  1.00  0.00    -0.354 N 
ATOM     21  C   UNL A   1      39.725  29.132  29.297  1.00  0.00     0.074 A 
ATOM     22  C   UNL A   1      38.452  29.146  28.606  1.00  0.00     0.031 C 
ATOM     23  C   UNL A   1      39.560  34.465  32.834  1.00  0.00     0.029 A 
ATOM     24  C   UNL A   1      40.631  33.475  32.743  1.00  0.00     0.049 A 
ATOM     25  H   UNL A   1      40.635  31.707  31.645  1.00  0.00     0.167 HD
ATOM     26  C   UNL A   1      40.647  28.148  29.169  1.00  0.00     0.031 A 
ATOM     27  C   UNL A   1      41.816  33.551  33.375  1.00  0.00     0.031 A 
ATOM     28  C   UNL A   1      41.925  28.126  29.824  1.00  0.00     0.049 A 
ATOM     29  C   UNL A   1      42.847  32.483  33.169  1.00  0.00     0.074 A 
ATOM     30  C   UNL A   1      42.924  27.170  29.742  1.00  0.00     0.029 A 
ATOM     31  N   UNL A   1      42.384  29.113  30.679  1.00  0.00    -0.354 N 
ATOM     32  N   UNL A   1      42.781  31.407  32.423  1.00  0.00    -0.248 NA
ATOM     33  C   UNL A   1      44.121  32.647  33.886  1.00  0.00     0.031 C 
ATOM     34  C   UNL A   1      43.993  27.585  30.546  1.00  0.00     0.029 A 
ATOM     35  C   UNL A   1      43.655  28.796  31.125  1.00  0.00     0.049 A 
ATOM     36  H   UNL A   1      41.880  29.920  30.933  1.00  0.00     0.167 HD
ATOM     37  C   UNL A   1      44.003  30.769  32.577  1.00  0.00     0.074 A 
ATOM     38  C   UNL A   1      44.793  31.577  33.484  1.00  0.00     0.031 C 
ATOM     39  C   UNL A   1      44.430  29.614  32.016  1.00  0.00     0.031 A 
BRANCH  26  40
ATOM     40  C   UNL A   1      40.292  27.003  28.272  1.00  0.00    -0.014 A 
ATOM     41  C   UNL A   1      40.742  26.975  26.943  1.00  0.00     0.009 A 
ATOM     42  C   UNL A   1      39.520  25.940  28.761  1.00  0.00     0.009 A 
ATOM     43  C   UNL A   1      40.407  25.904  26.113  1.00  0.00     0.001 A 
ATOM     44  C   UNL A   1      39.191  24.870  27.927  1.00  0.00     0.001 A 
ATOM     45  C   UNL A   1      39.633  24.853  26.605  1.00  0.00     0.000 A 
ENDBRANCH  26  40
BRANCH  27  46
ATOM     46  C   UNL A   1      42.110  34.717  34.237  1.00  0.00    -0.014 A 
ATOM     47  C   UNL A   1      42.708  35.861  33.687  1.00  0.00     0.009 A 
ATOM     48  C   UNL A   1      41.791  34.693  35.601  1.00  0.00     0.009 A 
ATOM     49  C   UNL A   1      42.989  36.963  34.496  1.00  0.00     0.001 A 
ATOM     50  C   UNL A   1      42.072  35.798  36.405  1.00  0.00     0.001 A 
ATOM     51  C   UNL A   1      42.671  36.931  35.854  1.00  0.00     0.000 A 
ENDBRANCH  27  46
BRANCH  39  52
ATOM     52  C   UNL A   1      45.816  29.166  32.362  1.00  0.00    -0.014 A 
ATOM     53  C   UNL A   1      46.908  29.570  31.582  1.00  0.00     0.009 A 
ATOM     54  C   UNL A   1      46.033  28.352  33.484  1.00  0.00     0.009 A 
ATOM     55  C   UNL A   1      48.198  29.153  31.913  1.00  0.00     0.001 A 
ATOM     56  C   UNL A   1      47.325  27.940  33.813  1.00  0.00     0.001 A 
ATOM     57  C   UNL A   1      48.407  28.338  33.026  1.00  0.00     0.000 A 
ENDBRANCH  39  52
ENDBRANCH  13  14
ENDBRANCH   6   8
ENDBRANCH   3   4
ENDBRANCH   2   3
ENDBRANCH   1   2
BRANCH   1  58
ATOM     58  C   UNL A   1      32.866  29.552  25.525  1.00  0.00     0.116 C 
BRANCH  58  59
ATOM     59  N   UNL A   1      33.469  29.380  24.216  1.00  0.00    -0.352 N 
ATOM     60  C   UNL A   1      33.217  28.464  23.226  1.00  0.00     0.257 C 
ATOM     61  H   UNL A   1      34.177  30.030  24.002  1.00  0.00     0.163 HD
ATOM     62  O   UNL A   1      33.930  28.487  22.226  1.00  0.00    -0.269 OA
BRANCH  60  63
ATOM     63  C   UNL A   1      32.150  27.507  23.382  1.00  0.00     0.113 A 
ATOM     64  C   UNL A   1      32.242  26.123  23.727  1.00  0.00     0.127 A 
ATOM     65  C   UNL A   1      30.819  27.682  23.056  1.00  0.00     0.175 A 
ATOM     66  N   UNL A   1      31.023  25.559  23.720  1.00  0.00    -0.079 NA
ATOM     67  O   UNL A   1      30.143  26.534  23.314  1.00  0.00    -0.357 OA
BRANCH  64  68
ATOM     68  C   UNL A   1      33.426  25.322  24.041  1.00  0.00     0.005 A 
ATOM     69  C   UNL A   1      34.015  24.479  23.088  1.00  0.00     0.012 A 
ATOM     70  C   UNL A   1      33.987  25.385  25.328  1.00  0.00     0.012 A 
ATOM     71  C   UNL A   1      35.129  23.700  23.422  1.00  0.00     0.021 A 
ATOM     72  C   UNL A   1      35.100  24.607  25.661  1.00  0.00     0.021 A 
ATOM     73  C   UNL A   1      35.664  23.766  24.707  1.00  0.00     0.041 A 
ATOM     74  Cl  UNL A   1      37.029  22.802  25.116  1.00  0.00    -0.084 Cl
ENDBRANCH  64  68
BRANCH  65  75
ATOM     75  C   UNL A   1      30.036  28.803  22.481  1.00  0.00     0.242 C 
BRANCH  75  76
ATOM     76  O   UNL A   1      28.659  28.607  22.738  1.00  0.00    -0.345 OA
BRANCH  76  77
ATOM     77  C   UNL A   1      27.726  29.616  22.364  1.00  0.00     0.250 C 
ATOM     78  C   UNL A   1      28.103  30.497  21.167  1.00  0.00     0.062 C 
ATOM     79  O   UNL A   1      27.174  30.323  23.474  1.00  0.00    -0.353 OA
ATOM     80  C   UNL A   1      28.763  31.812  21.558  1.00  0.00     0.008 C 
ATOM     81  C   UNL A   1      27.810  31.535  23.847  1.00  0.00     0.163 C 
ATOM     82  C   UNL A   1      27.980  32.483  22.674  1.00  0.00     0.029 C 
ENDBRANCH  76  77
ENDBRANCH  75  76
ENDBRANCH  65  75
ENDBRANCH  60  63
ENDBRANCH  58  59
ENDBRANCH   1  58
TORSDOF 15
ENDMDL
