MODEL 1
REMARK VINA RESULT:     -11.2      0.000      0.000
REMARK SMILES Cc1cscc1-c1nc(C)c(C(=O)NCCCCNC(=O)c2ccc(-c3c4nc(c(-c5ccccc5)c5ccc([nH]5)c(-c5ccccc5)c5nc(c(-c6ccccc6)c6ccc3[nH]6)C=C5)C=C4)cc2)c(C)n1
REMARK SMILES IDX 17 1 16 2 15 3 14 4 12 5 13 6 11 8 7 9 8 10 72 11 9 12 70 13
REMARK SMILES IDX 10 14 71 15 6 16 1 17 2 18 3 19 4 20 5 21 18 22 19 23 20 24
REMARK SMILES IDX 21 26 22 27 23 28 69 29 24 30 68 31 25 32 26 33 27 34 62 35
REMARK SMILES IDX 28 36 67 37 61 38 63 39 29 40 66 41 60 42 59 43 30 45 52 46
REMARK SMILES IDX 37 47 51 48 38 49 41 50 50 51 64 52 39 53 40 54 49 56 65 57
REMARK SMILES IDX 42 58 31 59 32 60 36 61 33 62 35 63 34 64 53 65 54 66 58 67
REMARK SMILES IDX 55 68 57 69 56 70 43 71 44 72 48 73 45 74 47 75 46 76
REMARK H PARENT 14 7 19 25 63 44 41 55
REMARK Flexibility Score: inf
ROOT
ATOM      1  C   UNL A   1      37.528  20.972  24.671  1.00  0.00     0.023 C 
ENDROOT
BRANCH   1   2
ATOM      2  C   UNL A   1      36.368  20.015  24.926  1.00  0.00     0.023 C 
BRANCH   2   3
ATOM      3  C   UNL A   1      34.979  20.663  24.914  1.00  0.00     0.116 C 
BRANCH   3   4
ATOM      4  N   UNL A   1      34.585  21.048  26.250  1.00  0.00    -0.352 N 
ATOM      5  C   UNL A   1      34.025  22.110  26.900  1.00  0.00     0.254 C 
ATOM      6  O   UNL A   1      34.015  21.911  28.121  1.00  0.00    -0.269 OA
ATOM      7  H   UNL A   1      34.782  20.325  26.886  1.00  0.00     0.163 HD
BRANCH   5   8
ATOM      8  C   UNL A   1      33.444  23.397  26.369  1.00  0.00     0.082 A 
ATOM      9  C   UNL A   1      32.666  25.807  25.256  1.00  0.00     0.160 A 
ATOM     10  N   UNL A   1      31.738  25.014  25.782  1.00  0.00    -0.232 NA
ATOM     11  N   UNL A   1      33.961  25.518  25.224  1.00  0.00    -0.232 NA
ATOM     12  C   UNL A   1      32.113  23.813  26.293  1.00  0.00     0.054 A 
ATOM     13  C   UNL A   1      34.341  24.338  25.796  1.00  0.00     0.054 A 
ATOM     14  C   UNL A   1      30.885  23.078  26.690  1.00  0.00     0.068 C 
ATOM     15  C   UNL A   1      35.838  24.168  25.744  1.00  0.00     0.068 C 
BRANCH   9  16
ATOM     16  C   UNL A   1      32.187  27.061  24.711  1.00  0.00     0.033 A 
ATOM     17  C   UNL A   1      31.862  28.339  26.950  1.00  0.00     0.046 C 
ATOM     18  C   UNL A   1      31.765  28.219  25.463  1.00  0.00    -0.029 A 
ATOM     19  C   UNL A   1      31.261  29.197  24.626  1.00  0.00     0.069 A 
ATOM     20  S   UNL A   1      31.306  28.745  22.978  1.00  0.00    -0.151 S 
ATOM     21  C   UNL A   1      31.998  27.228  23.353  1.00  0.00     0.077 A 
ENDBRANCH   9  16
ENDBRANCH   5   8
ENDBRANCH   3   4
ENDBRANCH   2   3
ENDBRANCH   1   2
BRANCH   1  22
ATOM     22  C   UNL A   1      38.613  20.944  25.739  1.00  0.00     0.116 C 
BRANCH  22  23
ATOM     23  N   UNL A   1      39.524  19.813  25.632  1.00  0.00    -0.352 N 
ATOM     24  C   UNL A   1      40.851  19.775  25.988  1.00  0.00     0.251 C 
ATOM     25  H   UNL A   1      39.146  18.981  25.263  1.00  0.00     0.163 HD
ATOM     26  O   UNL A   1      41.535  18.777  25.792  1.00  0.00    -0.269 OA
BRANCH  24  27
ATOM     27  C   UNL A   1      41.448  20.993  26.562  1.00  0.00     0.039 A 
ATOM     28  C   UNL A   1      42.009  21.936  25.700  1.00  0.00     0.014 A 
ATOM     29  C   UNL A   1      41.333  21.248  27.931  1.00  0.00     0.014 A 
ATOM     30  C   UNL A   1      42.388  23.179  26.205  1.00  0.00     0.010 A 
ATOM     31  C   UNL A   1      41.638  22.513  28.416  1.00  0.00     0.010 A 
ATOM     32  C   UNL A   1      42.164  23.490  27.557  1.00  0.00    -0.014 A 
BRANCH  32  33
ATOM     33  C   UNL A   1      42.468  24.836  28.095  1.00  0.00     0.031 A 
ATOM     34  C   UNL A   1      43.867  25.168  28.530  1.00  0.00     0.074 A 
ATOM     35  C   UNL A   1      41.475  25.732  28.257  1.00  0.00     0.049 A 
ATOM     36  N   UNL A   1      44.321  26.265  29.080  1.00  0.00    -0.248 NA
ATOM     37  C   UNL A   1      44.883  24.118  28.352  1.00  0.00     0.031 C 
ATOM     38  C   UNL A   1      40.067  25.513  27.920  1.00  0.00     0.029 A 
ATOM     39  N   UNL A   1      41.502  27.010  28.755  1.00  0.00    -0.354 N 
ATOM     40  C   UNL A   1      45.666  26.028  29.331  1.00  0.00     0.074 A 
ATOM     41  C   UNL A   1      45.942  24.669  28.923  1.00  0.00     0.031 C 
ATOM     42  C   UNL A   1      39.372  26.631  28.189  1.00  0.00     0.029 A 
ATOM     43  C   UNL A   1      40.276  27.629  28.749  1.00  0.00     0.049 A 
ATOM     44  H   UNL A   1      42.323  27.443  29.086  1.00  0.00     0.167 HD
ATOM     45  C   UNL A   1      46.596  26.874  29.833  1.00  0.00     0.031 A 
ATOM     46  C   UNL A   1      39.922  28.865  29.148  1.00  0.00     0.031 A 
ATOM     47  C   UNL A   1      46.327  28.231  30.220  1.00  0.00     0.049 A 
ATOM     48  C   UNL A   1      40.972  29.786  29.700  1.00  0.00     0.074 A 
ATOM     49  C   UNL A   1      47.211  29.188  30.683  1.00  0.00     0.029 A 
ATOM     50  N   UNL A   1      45.075  28.825  30.185  1.00  0.00    -0.354 N 
ATOM     51  N   UNL A   1      42.254  29.571  29.867  1.00  0.00    -0.248 NA
ATOM     52  C   UNL A   1      40.527  31.127  30.106  1.00  0.00     0.031 C 
ATOM     53  C   UNL A   1      46.487  30.351  30.967  1.00  0.00     0.029 A 
ATOM     54  C   UNL A   1      45.159  30.131  30.635  1.00  0.00     0.049 A 
ATOM     55  H   UNL A   1      44.248  28.383  29.884  1.00  0.00     0.167 HD
ATOM     56  C   UNL A   1      42.774  30.754  30.375  1.00  0.00     0.074 A 
ATOM     57  C   UNL A   1      41.671  31.688  30.474  1.00  0.00     0.031 C 
ATOM     58  C   UNL A   1      44.050  31.043  30.727  1.00  0.00     0.031 A 
BRANCH  45  59
ATOM     59  C   UNL A   1      47.992  26.343  29.989  1.00  0.00    -0.014 A 
ATOM     60  C   UNL A   1      48.420  25.773  31.199  1.00  0.00     0.009 A 
ATOM     61  C   UNL A   1      48.887  26.400  28.911  1.00  0.00     0.009 A 
ATOM     62  C   UNL A   1      49.729  25.310  31.339  1.00  0.00     0.001 A 
ATOM     63  C   UNL A   1      50.188  25.909  29.044  1.00  0.00     0.001 A 
ATOM     64  C   UNL A   1      50.611  25.376  30.261  1.00  0.00     0.000 A 
ENDBRANCH  45  59
BRANCH  46  65
ATOM     65  C   UNL A   1      38.513  29.316  29.014  1.00  0.00    -0.014 A 
ATOM     66  C   UNL A   1      37.641  29.250  30.113  1.00  0.00     0.009 A 
ATOM     67  C   UNL A   1      38.029  29.807  27.792  1.00  0.00     0.009 A 
ATOM     68  C   UNL A   1      36.308  29.643  29.983  1.00  0.00     0.001 A 
ATOM     69  C   UNL A   1      36.702  30.224  27.673  1.00  0.00     0.001 A 
ATOM     70  C   UNL A   1      35.841  30.133  28.765  1.00  0.00     0.000 A 
ENDBRANCH  46  65
BRANCH  58  71
ATOM     71  C   UNL A   1      44.326  32.433  31.221  1.00  0.00    -0.014 A 
ATOM     72  C   UNL A   1      44.274  32.741  32.589  1.00  0.00     0.009 A 
ATOM     73  C   UNL A   1      44.683  33.437  30.307  1.00  0.00     0.009 A 
ATOM     74  C   UNL A   1      44.547  34.038  33.029  1.00  0.00     0.001 A 
ATOM     75  C   UNL A   1      44.979  34.725  30.753  1.00  0.00     0.001 A 
ATOM     76  C   UNL A   1      44.903  35.027  32.112  1.00  0.00     0.000 A 
ENDBRANCH  58  71
ENDBRANCH  32  33
ENDBRANCH  24  27
ENDBRANCH  22  23
ENDBRANCH   1  22
TORSDOF 12
ENDMDL
MODEL 2
REMARK VINA RESULT:     -11.1      0.429      6.036
REMARK SMILES Cc1cscc1-c1nc(C)c(C(=O)NCCCCNC(=O)c2ccc(-c3c4nc(c(-c5ccccc5)c5ccc([nH]5)c(-c5ccccc5)c5nc(c(-c6ccccc6)c6ccc3[nH]6)C=C5)C=C4)cc2)c(C)n1
REMARK SMILES IDX 17 1 16 2 15 3 14 4 12 5 13 6 11 8 7 9 8 10 72 11 9 12 70 13
REMARK SMILES IDX 10 14 71 15 6 16 1 17 2 18 3 19 4 20 5 21 18 22 19 23 20 24
REMARK SMILES IDX 21 26 22 27 23 28 69 29 24 30 68 31 25 32 26 33 27 34 62 35
REMARK SMILES IDX 28 36 67 37 61 38 63 39 29 40 66 41 60 42 59 43 30 45 52 46
REMARK SMILES IDX 37 47 51 48 38 49 41 50 50 51 64 52 39 53 40 54 49 56 65 57
REMARK SMILES IDX 42 58 31 59 32 60 36 61 33 62 35 63 34 64 53 65 54 66 58 67
REMARK SMILES IDX 55 68 57 69 56 70 43 71 44 72 48 73 45 74 47 75 46 76
REMARK H PARENT 14 7 19 25 63 44 41 55
REMARK Flexibility Score: inf
ROOT
ATOM      1  C   UNL A   1      37.314  21.317  24.741  1.00  0.00     0.023 C 
ENDROOT
BRANCH   1   2
ATOM      2  C   UNL A   1      36.280  20.220  24.976  1.00  0.00     0.023 C 
BRANCH   2   3
ATOM      3  C   UNL A   1      34.822  20.692  24.971  1.00  0.00     0.116 C 
BRANCH   3   4
ATOM      4  N   UNL A   1      34.432  21.156  26.283  1.00  0.00    -0.352 N 
ATOM      5  C   UNL A   1      33.812  22.226  26.862  1.00  0.00     0.254 C 
ATOM      6  O   UNL A   1      33.844  22.125  28.095  1.00  0.00    -0.269 OA
ATOM      7  H   UNL A   1      34.694  20.501  26.968  1.00  0.00     0.163 HD
BRANCH   5   8
ATOM      8  C   UNL A   1      33.129  23.422  26.248  1.00  0.00     0.082 A 
ATOM      9  C   UNL A   1      32.160  25.680  24.978  1.00  0.00     0.160 A 
ATOM     10  N   UNL A   1      31.299  24.851  25.559  1.00  0.00    -0.232 NA
ATOM     11  N   UNL A   1      33.473  25.497  24.961  1.00  0.00    -0.232 NA
ATOM     12  C   UNL A   1      31.768  23.722  26.149  1.00  0.00     0.054 A 
ATOM     13  C   UNL A   1      33.947  24.392  25.609  1.00  0.00     0.054 A 
ATOM     14  C   UNL A   1      30.604  22.918  26.599  1.00  0.00     0.068 C 
ATOM     15  C   UNL A   1      35.454  24.341  25.564  1.00  0.00     0.068 C 
BRANCH   9  16
ATOM     16  C   UNL A   1      31.581  26.851  24.351  1.00  0.00     0.033 A 
ATOM     17  C   UNL A   1      31.921  28.526  26.309  1.00  0.00     0.046 C 
ATOM     18  C   UNL A   1      31.414  28.153  24.953  1.00  0.00    -0.029 A 
ATOM     19  C   UNL A   1      30.723  29.003  24.110  1.00  0.00     0.069 A 
ATOM     20  S   UNL A   1      30.299  28.266  22.628  1.00  0.00    -0.151 S 
ATOM     21  C   UNL A   1      31.028  26.790  23.087  1.00  0.00     0.077 A 
ENDBRANCH   9  16
ENDBRANCH   5   8
ENDBRANCH   3   4
ENDBRANCH   2   3
ENDBRANCH   1   2
BRANCH   1  22
ATOM     22  C   UNL A   1      38.496  21.283  25.700  1.00  0.00     0.116 C 
BRANCH  22  23
ATOM     23  N   UNL A   1      39.314  20.082  25.593  1.00  0.00    -0.352 N 
ATOM     24  C   UNL A   1      40.627  19.932  25.971  1.00  0.00     0.251 C 
ATOM     25  H   UNL A   1      38.876  19.288  25.206  1.00  0.00     0.163 HD
ATOM     26  O   UNL A   1      41.230  18.884  25.772  1.00  0.00    -0.269 OA
BRANCH  24  27
ATOM     27  C   UNL A   1      41.311  21.091  26.570  1.00  0.00     0.039 A 
ATOM     28  C   UNL A   1      41.910  22.027  25.726  1.00  0.00     0.014 A 
ATOM     29  C   UNL A   1      41.242  21.305  27.949  1.00  0.00     0.014 A 
ATOM     30  C   UNL A   1      42.376  23.226  26.263  1.00  0.00     0.010 A 
ATOM     31  C   UNL A   1      41.636  22.530  28.468  1.00  0.00     0.010 A 
ATOM     32  C   UNL A   1      42.202  23.503  27.630  1.00  0.00    -0.014 A 
BRANCH  32  33
ATOM     33  C   UNL A   1      42.601  24.808  28.205  1.00  0.00     0.031 A 
ATOM     34  C   UNL A   1      41.570  25.881  28.411  1.00  0.00     0.074 A 
ATOM     35  C   UNL A   1      43.898  25.052  28.476  1.00  0.00     0.049 A 
ATOM     36  N   UNL A   1      41.729  27.106  28.842  1.00  0.00    -0.248 NA
ATOM     37  C   UNL A   1      40.182  25.543  28.053  1.00  0.00     0.031 C 
ATOM     38  C   UNL A   1      45.001  24.110  28.273  1.00  0.00     0.029 A 
ATOM     39  N   UNL A   1      44.507  26.174  28.975  1.00  0.00    -0.354 N 
ATOM     40  C   UNL A   1      40.469  27.688  28.790  1.00  0.00     0.074 A 
ATOM     41  C   UNL A   1      39.568  26.702  28.235  1.00  0.00     0.031 C 
ATOM     42  C   UNL A   1      46.147  24.682  28.678  1.00  0.00     0.029 A 
ATOM     43  C   UNL A   1      45.865  26.039  29.133  1.00  0.00     0.049 A 
ATOM     44  H   UNL A   1      44.018  26.999  29.200  1.00  0.00     0.167 HD
ATOM     45  C   UNL A   1      40.089  28.923  29.190  1.00  0.00     0.031 A 
ATOM     46  C   UNL A   1      46.780  26.913  29.594  1.00  0.00     0.031 A 
ATOM     47  C   UNL A   1      40.979  29.896  29.759  1.00  0.00     0.049 A 
ATOM     48  C   UNL A   1      46.333  28.278  30.035  1.00  0.00     0.074 A 
ATOM     49  C   UNL A   1      40.682  31.154  30.251  1.00  0.00     0.029 A 
ATOM     50  N   UNL A   1      42.345  29.716  29.914  1.00  0.00    -0.354 N 
ATOM     51  N   UNL A   1      45.127  28.789  30.042  1.00  0.00    -0.248 NA
ATOM     52  C   UNL A   1      47.375  29.182  30.542  1.00  0.00     0.031 C 
ATOM     53  C   UNL A   1      41.876  31.752  30.669  1.00  0.00     0.029 A 
ATOM     54  C   UNL A   1      42.909  30.847  30.479  1.00  0.00     0.049 A 
ATOM     55  H   UNL A   1      42.840  28.904  29.661  1.00  0.00     0.167 HD
ATOM     56  C   UNL A   1      45.259  30.064  30.576  1.00  0.00     0.074 A 
ATOM     57  C   UNL A   1      46.661  30.242  30.894  1.00  0.00     0.031 C 
ATOM     58  C   UNL A   1      44.306  31.004  30.787  1.00  0.00     0.031 A 
BRANCH  45  59
ATOM     59  C   UNL A   1      38.641  29.283  29.019  1.00  0.00    -0.014 A 
ATOM     60  C   UNL A   1      37.734  29.167  30.085  1.00  0.00     0.009 A 
ATOM     61  C   UNL A   1      38.178  29.755  27.782  1.00  0.00     0.009 A 
ATOM     62  C   UNL A   1      36.386  29.477  29.905  1.00  0.00     0.001 A 
ATOM     63  C   UNL A   1      36.834  30.092  27.611  1.00  0.00     0.001 A 
ATOM     64  C   UNL A   1      35.937  29.942  28.668  1.00  0.00     0.000 A 
ENDBRANCH  45  59
BRANCH  46  65
ATOM     65  C   UNL A   1      48.208  26.514  29.693  1.00  0.00    -0.014 A 
ATOM     66  C   UNL A   1      49.091  26.780  28.635  1.00  0.00     0.009 A 
ATOM     67  C   UNL A   1      48.694  25.862  30.836  1.00  0.00     0.009 A 
ATOM     68  C   UNL A   1      50.427  26.379  28.709  1.00  0.00     0.001 A 
ATOM     69  C   UNL A   1      50.036  25.486  30.918  1.00  0.00     0.001 A 
ATOM     70  C   UNL A   1      50.898  25.736  29.852  1.00  0.00     0.000 A 
ENDBRANCH  46  65
BRANCH  58  71
ATOM     71  C   UNL A   1      44.743  32.294  31.416  1.00  0.00    -0.014 A 
ATOM     72  C   UNL A   1      44.803  32.438  32.811  1.00  0.00     0.009 A 
ATOM     73  C   UNL A   1      45.139  33.365  30.601  1.00  0.00     0.009 A 
ATOM     74  C   UNL A   1      45.224  33.644  33.376  1.00  0.00     0.001 A 
ATOM     75  C   UNL A   1      45.583  34.560  31.169  1.00  0.00     0.001 A 
ATOM     76  C   UNL A   1      45.618  34.700  32.555  1.00  0.00     0.000 A 
ENDBRANCH  58  71
ENDBRANCH  32  33
ENDBRANCH  24  27
ENDBRANCH  22  23
ENDBRANCH   1  22
TORSDOF 12
ENDMDL
MODEL 3
REMARK VINA RESULT:     -11.1      3.329      8.638
REMARK SMILES Cc1cscc1-c1nc(C)c(C(=O)NCCCCNC(=O)c2ccc(-c3c4nc(c(-c5ccccc5)c5ccc([nH]5)c(-c5ccccc5)c5nc(c(-c6ccccc6)c6ccc3[nH]6)C=C5)C=C4)cc2)c(C)n1
REMARK SMILES IDX 17 1 16 2 15 3 14 4 12 5 13 6 11 8 7 9 8 10 72 11 9 12 70 13
REMARK SMILES IDX 10 14 71 15 6 16 1 17 2 18 3 19 4 20 5 21 18 22 19 23 20 24
REMARK SMILES IDX 21 26 22 27 23 28 69 29 24 30 68 31 25 32 26 33 27 34 62 35
REMARK SMILES IDX 28 36 67 37 61 38 63 39 29 40 66 41 60 42 59 43 30 45 52 46
REMARK SMILES IDX 37 47 51 48 38 49 41 50 50 51 64 52 39 53 40 54 49 56 65 57
REMARK SMILES IDX 42 58 31 59 32 60 36 61 33 62 35 63 34 64 53 65 54 66 58 67
REMARK SMILES IDX 55 68 57 69 56 70 43 71 44 72 48 73 45 74 47 75 46 76
REMARK H PARENT 14 7 19 25 63 44 41 55
REMARK Flexibility Score: inf
ROOT
ATOM      1  C   UNL A   1      31.849  30.512  26.814  1.00  0.00     0.023 C 
ENDROOT
BRANCH   1   2
ATOM      2  C   UNL A   1      31.168  30.655  25.456  1.00  0.00     0.023 C 
BRANCH   2   3
ATOM      3  C   UNL A   1      31.177  29.391  24.589  1.00  0.00     0.116 C 
BRANCH   3   4
ATOM      4  N   UNL A   1      32.368  29.342  23.773  1.00  0.00    -0.352 N 
ATOM      5  C   UNL A   1      33.331  28.449  23.397  1.00  0.00     0.254 C 
ATOM      6  O   UNL A   1      34.206  29.016  22.731  1.00  0.00    -0.269 OA
ATOM      7  H   UNL A   1      32.538  30.219  23.363  1.00  0.00     0.163 HD
BRANCH   5   8
ATOM      8  C   UNL A   1      33.457  26.968  23.653  1.00  0.00     0.082 A 
ATOM      9  C   UNL A   1      33.684  24.326  24.437  1.00  0.00     0.160 A 
ATOM     10  N   UNL A   1      33.417  24.596  23.164  1.00  0.00    -0.232 NA
ATOM     11  N   UNL A   1      33.850  25.249  25.375  1.00  0.00    -0.232 NA
ATOM     12  C   UNL A   1      33.266  25.891  22.784  1.00  0.00     0.054 A 
ATOM     13  C   UNL A   1      33.759  26.552  24.977  1.00  0.00     0.054 A 
ATOM     14  C   UNL A   1      32.848  25.909  21.360  1.00  0.00     0.068 C 
ATOM     15  C   UNL A   1      34.029  27.490  26.126  1.00  0.00     0.068 C 
BRANCH   9  16
ATOM     16  C   UNL A   1      33.808  22.920  24.769  1.00  0.00     0.033 A 
ATOM     17  C   UNL A   1      36.294  22.596  24.081  1.00  0.00     0.046 C 
ATOM     18  C   UNL A   1      34.974  22.091  24.572  1.00  0.00    -0.029 A 
ATOM     19  C   UNL A   1      34.706  20.775  24.895  1.00  0.00     0.069 A 
ATOM     20  S   UNL A   1      33.102  20.539  25.437  1.00  0.00    -0.151 S 
ATOM     21  C   UNL A   1      32.733  22.197  25.245  1.00  0.00     0.077 A 
ENDBRANCH   9  16
ENDBRANCH   5   8
ENDBRANCH   3   4
ENDBRANCH   2   3
ENDBRANCH   1   2
BRANCH   1  22
ATOM     22  C   UNL A   1      32.945  31.535  27.078  1.00  0.00     0.116 C 
BRANCH  22  23
ATOM     23  N   UNL A   1      32.450  32.861  27.421  1.00  0.00    -0.352 N 
ATOM     24  C   UNL A   1      33.070  33.806  28.205  1.00  0.00     0.251 C 
ATOM     25  H   UNL A   1      31.572  33.110  27.048  1.00  0.00     0.163 HD
ATOM     26  O   UNL A   1      32.523  34.869  28.473  1.00  0.00    -0.269 OA
BRANCH  24  27
ATOM     27  C   UNL A   1      34.393  33.479  28.764  1.00  0.00     0.039 A 
ATOM     28  C   UNL A   1      34.457  32.794  29.979  1.00  0.00     0.014 A 
ATOM     29  C   UNL A   1      35.548  33.739  28.023  1.00  0.00     0.014 A 
ATOM     30  C   UNL A   1      35.684  32.298  30.416  1.00  0.00     0.010 A 
ATOM     31  C   UNL A   1      36.753  33.177  28.421  1.00  0.00     0.010 A 
ATOM     32  C   UNL A   1      36.831  32.449  29.618  1.00  0.00    -0.014 A 
BRANCH  32  33
ATOM     33  C   UNL A   1      38.126  31.847  30.014  1.00  0.00     0.031 A 
ATOM     34  C   UNL A   1      39.043  32.592  30.941  1.00  0.00     0.074 A 
ATOM     35  C   UNL A   1      38.504  30.667  29.487  1.00  0.00     0.049 A 
ATOM     36  N   UNL A   1      40.240  32.264  31.356  1.00  0.00    -0.248 NA
ATOM     37  C   UNL A   1      38.566  33.892  31.441  1.00  0.00     0.031 C 
ATOM     38  C   UNL A   1      37.725  29.869  28.537  1.00  0.00     0.029 A 
ATOM     39  N   UNL A   1      39.650  29.936  29.672  1.00  0.00    -0.354 N 
ATOM     40  C   UNL A   1      40.664  33.323  32.148  1.00  0.00     0.074 A 
ATOM     41  C   UNL A   1      39.622  34.325  32.112  1.00  0.00     0.031 C 
ATOM     42  C   UNL A   1      38.400  28.744  28.252  1.00  0.00     0.029 A 
ATOM     43  C   UNL A   1      39.671  28.758  28.967  1.00  0.00     0.049 A 
ATOM     44  H   UNL A   1      40.387  30.227  30.256  1.00  0.00     0.167 HD
ATOM     45  C   UNL A   1      41.808  33.442  32.862  1.00  0.00     0.031 A 
ATOM     46  C   UNL A   1      40.611  27.796  28.906  1.00  0.00     0.031 A 
ATOM     47  C   UNL A   1      42.834  32.438  32.914  1.00  0.00     0.049 A 
ATOM     48  C   UNL A   1      41.871  27.949  29.709  1.00  0.00     0.074 A 
ATOM     49  C   UNL A   1      44.002  32.436  33.655  1.00  0.00     0.029 A 
ATOM     50  N   UNL A   1      42.812  31.253  32.196  1.00  0.00    -0.354 N 
ATOM     51  N   UNL A   1      42.227  28.925  30.507  1.00  0.00    -0.248 NA
ATOM     52  C   UNL A   1      42.852  26.859  29.612  1.00  0.00     0.031 C 
ATOM     53  C   UNL A   1      44.707  31.266  33.354  1.00  0.00     0.029 A 
ATOM     54  C   UNL A   1      43.954  30.518  32.462  1.00  0.00     0.049 A 
ATOM     55  H   UNL A   1      42.089  30.974  31.588  1.00  0.00     0.167 HD
ATOM     56  C   UNL A   1      43.462  28.559  31.026  1.00  0.00     0.074 A 
ATOM     57  C   UNL A   1      43.785  27.263  30.464  1.00  0.00     0.031 C 
ATOM     58  C   UNL A   1      44.257  29.232  31.892  1.00  0.00     0.031 A 
BRANCH  45  59
ATOM     59  C   UNL A   1      41.999  34.711  33.643  1.00  0.00    -0.014 A 
ATOM     60  C   UNL A   1      41.454  34.861  34.928  1.00  0.00     0.009 A 
ATOM     61  C   UNL A   1      42.742  35.765  33.093  1.00  0.00     0.009 A 
ATOM     62  C   UNL A   1      41.614  36.056  35.630  1.00  0.00     0.001 A 
ATOM     63  C   UNL A   1      42.926  36.950  33.809  1.00  0.00     0.001 A 
ATOM     64  C   UNL A   1      42.353  37.099  35.071  1.00  0.00     0.000 A 
ENDBRANCH  45  59
BRANCH  46  65
ATOM     65  C   UNL A   1      40.384  26.584  28.075  1.00  0.00    -0.014 A 
ATOM     66  C   UNL A   1      40.914  26.507  26.777  1.00  0.00     0.009 A 
ATOM     67  C   UNL A   1      39.634  25.506  28.568  1.00  0.00     0.009 A 
ATOM     68  C   UNL A   1      40.678  25.385  25.981  1.00  0.00     0.001 A 
ATOM     69  C   UNL A   1      39.422  24.374  27.778  1.00  0.00     0.001 A 
ATOM     70  C   UNL A   1      39.935  24.318  26.483  1.00  0.00     0.000 A 
ENDBRANCH  46  65
BRANCH  58  71
ATOM     71  C   UNL A   1      45.537  28.567  32.306  1.00  0.00    -0.014 A 
ATOM     72  C   UNL A   1      45.580  27.699  33.408  1.00  0.00     0.009 A 
ATOM     73  C   UNL A   1      46.704  28.781  31.558  1.00  0.00     0.009 A 
ATOM     74  C   UNL A   1      46.779  27.080  33.769  1.00  0.00     0.001 A 
ATOM     75  C   UNL A   1      47.894  28.142  31.907  1.00  0.00     0.001 A 
ATOM     76  C   UNL A   1      47.932  27.299  33.016  1.00  0.00     0.000 A 
ENDBRANCH  58  71
ENDBRANCH  32  33
ENDBRANCH  24  27
ENDBRANCH  22  23
ENDBRANCH   1  22
TORSDOF 12
ENDMDL
