MODEL 1
REMARK VINA RESULT:     -11.8      0.000      0.000
REMARK SMILES Cc1ccc(C[C@@H](Cc2cc(F)cc(Br)c2)C(=O)NCCCCNC(=O)c2ccc(-c3c4nc(c(-c5ccccc5)c5ccc([nH]5)c(-c5ccccc5)c5nc(c(-c6ccccc6)c6ccc3[nH]6)C=C5)C=C4)cc2)cc1
REMARK SMILES IDX 21 1 20 2 19 3 17 4 18 5 7 7 6 8 5 9 1 10 2 11 3 12 76 13
REMARK SMILES IDX 4 14 75 15 8 16 9 17 10 18 16 19 11 20 14 21 12 22 13 23
REMARK SMILES IDX 15 24 22 25 23 26 24 27 25 28 26 30 27 31 28 32 74 33 29 34
REMARK SMILES IDX 73 35 30 36 31 37 32 38 67 39 33 40 72 41 66 42 68 43 34 44
REMARK SMILES IDX 71 45 65 46 64 47 35 49 57 50 42 51 56 52 43 53 46 54 55 55
REMARK SMILES IDX 69 56 44 57 45 58 54 60 70 61 47 62 36 63 37 64 41 65 38 66
REMARK SMILES IDX 40 67 39 68 58 69 59 70 63 71 60 72 62 73 61 74 48 75 49 76
REMARK SMILES IDX 53 77 50 78 52 79 51 80
REMARK H PARENT 19 6 24 29 68 48 46 59
REMARK Flexibility Score: inf
ROOT
ATOM      1  C   UNL A   1      31.726  30.545  26.211  1.00  0.00     0.023 C 
ENDROOT
BRANCH   1   2
ATOM      2  C   UNL A   1      31.374  29.743  24.952  1.00  0.00     0.116 C 
BRANCH   2   3
ATOM      3  N   UNL A   1      32.476  29.723  24.004  1.00  0.00    -0.356 N 
ATOM      4  C   UNL A   1      33.202  28.696  23.492  1.00  0.00     0.223 C 
ATOM      5  O   UNL A   1      34.084  28.978  22.676  1.00  0.00    -0.275 OA
ATOM      6  H   UNL A   1      32.743  30.612  23.675  1.00  0.00     0.163 HD
BRANCH   4   7
ATOM      7  C   UNL A   1      32.957  27.248  23.887  1.00  0.00     0.087 C 
BRANCH   7   8
ATOM      8  C   UNL A   1      32.992  26.415  22.579  1.00  0.00     0.049 C 
BRANCH   8   9
ATOM      9  C   UNL A   1      32.741  24.927  22.636  1.00  0.00    -0.047 A 
ATOM     10  C   UNL A   1      32.191  20.685  23.278  1.00  0.00     0.044 C 
ATOM     11  C   UNL A   1      32.390  22.153  23.041  1.00  0.00    -0.051 A 
ATOM     12  C   UNL A   1      31.331  23.039  23.249  1.00  0.00     0.004 A 
ATOM     13  C   UNL A   1      33.620  22.658  22.609  1.00  0.00     0.004 A 
ATOM     14  C   UNL A   1      31.511  24.411  23.066  1.00  0.00     0.004 A 
ATOM     15  C   UNL A   1      33.792  24.031  22.404  1.00  0.00     0.004 A 
ENDBRANCH   8   9
ENDBRANCH   7   8
BRANCH   7  16
ATOM     16  C   UNL A   1      33.824  26.700  25.044  1.00  0.00     0.049 C 
BRANCH  16  17
ATOM     17  C   UNL A   1      33.677  25.330  25.678  1.00  0.00    -0.043 A 
ATOM     18  C   UNL A   1      32.433  25.048  26.270  1.00  0.00     0.043 A 
ATOM     19  C   UNL A   1      34.649  24.323  25.715  1.00  0.00     0.019 A 
ATOM     20  C   UNL A   1      32.154  23.792  26.793  1.00  0.00     0.124 A 
ATOM     21  C   UNL A   1      34.328  23.039  26.179  1.00  0.00     0.021 A 
ATOM     22  F   UNL A   1      30.965  23.586  27.368  1.00  0.00    -0.207 F 
ATOM     23  C   UNL A   1      33.077  22.764  26.715  1.00  0.00     0.055 A 
ATOM     24  Br  UNL A   1      35.600  21.645  26.027  1.00  0.00    -0.051 Br
ENDBRANCH  16  17
ENDBRANCH   7  16
ENDBRANCH   4   7
ENDBRANCH   2   3
ENDBRANCH   1   2
BRANCH   1  25
ATOM     25  C   UNL A   1      32.442  29.734  27.297  1.00  0.00     0.023 C 
BRANCH  25  26
ATOM     26  C   UNL A   1      33.957  29.872  27.253  1.00  0.00     0.116 C 
BRANCH  26  27
ATOM     27  N   UNL A   1      34.490  30.929  28.095  1.00  0.00    -0.352 N 
ATOM     28  C   UNL A   1      35.666  30.982  28.827  1.00  0.00     0.251 C 
ATOM     29  H   UNL A   1      33.926  31.735  28.155  1.00  0.00     0.163 HD
ATOM     30  O   UNL A   1      35.873  31.934  29.552  1.00  0.00    -0.269 OA
BRANCH  28  31
ATOM     31  C   UNL A   1      36.729  29.956  28.623  1.00  0.00     0.039 A 
ATOM     32  C   UNL A   1      36.981  29.073  29.683  1.00  0.00     0.014 A 
ATOM     33  C   UNL A   1      37.572  29.954  27.515  1.00  0.00     0.014 A 
ATOM     34  C   UNL A   1      38.193  28.388  29.738  1.00  0.00     0.010 A 
ATOM     35  C   UNL A   1      38.814  29.358  27.607  1.00  0.00     0.010 A 
ATOM     36  C   UNL A   1      39.143  28.625  28.747  1.00  0.00    -0.014 A 
BRANCH  36  37
ATOM     37  C   UNL A   1      40.535  28.228  28.874  1.00  0.00     0.031 A 
ATOM     38  C   UNL A   1      41.014  26.974  28.274  1.00  0.00     0.074 A 
ATOM     39  C   UNL A   1      41.397  29.020  29.544  1.00  0.00     0.049 A 
ATOM     40  N   UNL A   1      41.963  26.259  28.776  1.00  0.00    -0.248 NA
ATOM     41  C   UNL A   1      40.433  26.410  27.060  1.00  0.00     0.031 C 
ATOM     42  C   UNL A   1      42.847  28.885  29.624  1.00  0.00     0.029 A 
ATOM     43  N   UNL A   1      41.088  30.003  30.477  1.00  0.00    -0.354 N 
ATOM     44  C   UNL A   1      42.314  25.337  27.823  1.00  0.00     0.074 A 
ATOM     45  C   UNL A   1      41.278  25.403  26.817  1.00  0.00     0.031 C 
ATOM     46  C   UNL A   1      43.284  29.554  30.702  1.00  0.00     0.029 A 
ATOM     47  C   UNL A   1      42.119  30.032  31.427  1.00  0.00     0.049 A 
ATOM     48  H   UNL A   1      40.289  30.577  30.472  1.00  0.00     0.167 HD
ATOM     49  C   UNL A   1      43.527  24.725  27.881  1.00  0.00     0.031 A 
ATOM     50  C   UNL A   1      41.867  29.779  32.744  1.00  0.00     0.031 A 
ATOM     51  C   UNL A   1      44.327  25.184  29.010  1.00  0.00     0.049 A 
ATOM     52  C   UNL A   1      42.590  28.551  33.251  1.00  0.00     0.074 A 
ATOM     53  C   UNL A   1      45.350  26.113  29.114  1.00  0.00     0.029 A 
ATOM     54  N   UNL A   1      43.901  24.921  30.307  1.00  0.00    -0.354 N 
ATOM     55  N   UNL A   1      43.060  27.618  32.469  1.00  0.00    -0.248 NA
ATOM     56  C   UNL A   1      42.836  28.266  34.662  1.00  0.00     0.031 C 
ATOM     57  C   UNL A   1      45.492  26.461  30.481  1.00  0.00     0.029 A 
ATOM     58  C   UNL A   1      44.580  25.718  31.209  1.00  0.00     0.049 A 
ATOM     59  H   UNL A   1      43.212  24.261  30.549  1.00  0.00     0.167 HD
ATOM     60  C   UNL A   1      43.694  26.664  33.216  1.00  0.00     0.074 A 
ATOM     61  C   UNL A   1      43.512  27.104  34.588  1.00  0.00     0.031 C 
ATOM     62  C   UNL A   1      44.326  25.603  32.638  1.00  0.00     0.031 A 
BRANCH  49  63
ATOM     63  C   UNL A   1      44.072  23.969  26.703  1.00  0.00    -0.014 A 
ATOM     64  C   UNL A   1      43.864  22.583  26.596  1.00  0.00     0.009 A 
ATOM     65  C   UNL A   1      44.844  24.571  25.694  1.00  0.00     0.009 A 
ATOM     66  C   UNL A   1      44.474  21.822  25.593  1.00  0.00     0.001 A 
ATOM     67  C   UNL A   1      45.488  23.810  24.710  1.00  0.00     0.001 A 
ATOM     68  C   UNL A   1      45.311  22.432  24.667  1.00  0.00     0.000 A 
ENDBRANCH  49  63
BRANCH  50  69
ATOM     69  C   UNL A   1      40.522  30.240  33.187  1.00  0.00    -0.014 A 
ATOM     70  C   UNL A   1      40.260  31.627  33.170  1.00  0.00     0.009 A 
ATOM     71  C   UNL A   1      39.435  29.356  33.227  1.00  0.00     0.009 A 
ATOM     72  C   UNL A   1      38.952  32.109  33.070  1.00  0.00     0.001 A 
ATOM     73  C   UNL A   1      38.125  29.847  33.139  1.00  0.00     0.001 A 
ATOM     74  C   UNL A   1      37.886  31.216  33.022  1.00  0.00     0.000 A 
ENDBRANCH  50  69
BRANCH  62  75
ATOM     75  C   UNL A   1      44.857  24.385  33.347  1.00  0.00    -0.014 A 
ATOM     76  C   UNL A   1      46.157  24.273  33.853  1.00  0.00     0.009 A 
ATOM     77  C   UNL A   1      43.956  23.342  33.669  1.00  0.00     0.009 A 
ATOM     78  C   UNL A   1      46.545  23.162  34.615  1.00  0.00     0.001 A 
ATOM     79  C   UNL A   1      44.326  22.257  34.465  1.00  0.00     0.001 A 
ATOM     80  C   UNL A   1      45.628  22.164  34.933  1.00  0.00     0.000 A 
ENDBRANCH  62  75
ENDBRANCH  36  37
ENDBRANCH  28  31
ENDBRANCH  26  27
ENDBRANCH  25  26
ENDBRANCH   1  25
TORSDOF 15
ENDMDL
MODEL 2
REMARK VINA RESULT:     -11.7      3.753      8.621
REMARK SMILES Cc1ccc(C[C@@H](Cc2cc(F)cc(Br)c2)C(=O)NCCCCNC(=O)c2ccc(-c3c4nc(c(-c5ccccc5)c5ccc([nH]5)c(-c5ccccc5)c5nc(c(-c6ccccc6)c6ccc3[nH]6)C=C5)C=C4)cc2)cc1
REMARK SMILES IDX 21 1 20 2 19 3 17 4 18 5 7 7 6 8 5 9 1 10 2 11 3 12 76 13
REMARK SMILES IDX 4 14 75 15 8 16 9 17 10 18 16 19 11 20 14 21 12 22 13 23
REMARK SMILES IDX 15 24 22 25 23 26 24 27 25 28 26 30 27 31 28 32 74 33 29 34
REMARK SMILES IDX 73 35 30 36 31 37 32 38 67 39 33 40 72 41 66 42 68 43 34 44
REMARK SMILES IDX 71 45 65 46 64 47 35 49 57 50 42 51 56 52 43 53 46 54 55 55
REMARK SMILES IDX 69 56 44 57 45 58 54 60 70 61 47 62 36 63 37 64 41 65 38 66
REMARK SMILES IDX 40 67 39 68 58 69 59 70 63 71 60 72 62 73 61 74 48 75 49 76
REMARK SMILES IDX 53 77 50 78 52 79 51 80
REMARK H PARENT 19 6 24 29 68 48 46 59
REMARK Flexibility Score: inf
ROOT
ATOM      1  C   UNL A   1      36.870  20.541  25.117  1.00  0.00     0.023 C 
ENDROOT
BRANCH   1   2
ATOM      2  C   UNL A   1      35.343  20.677  25.159  1.00  0.00     0.116 C 
BRANCH   2   3
ATOM      3  N   UNL A   1      34.878  21.088  26.473  1.00  0.00    -0.356 N 
ATOM      4  C   UNL A   1      34.053  22.095  26.860  1.00  0.00     0.223 C 
ATOM      5  O   UNL A   1      33.814  22.199  28.067  1.00  0.00    -0.275 OA
ATOM      6  H   UNL A   1      35.222  20.538  27.214  1.00  0.00     0.163 HD
BRANCH   4   7
ATOM      7  C   UNL A   1      33.432  23.066  25.869  1.00  0.00     0.087 C 
BRANCH   7   8
ATOM      8  C   UNL A   1      32.193  23.687  26.566  1.00  0.00     0.049 C 
BRANCH   8   9
ATOM      9  C   UNL A   1      31.332  24.675  25.816  1.00  0.00    -0.047 A 
ATOM     10  C   UNL A   1      29.287  27.636  23.417  1.00  0.00     0.044 C 
ATOM     11  C   UNL A   1      29.990  26.616  24.263  1.00  0.00    -0.051 A 
ATOM     12  C   UNL A   1      30.022  25.281  23.855  1.00  0.00     0.004 A 
ATOM     13  C   UNL A   1      30.613  26.972  25.462  1.00  0.00     0.004 A 
ATOM     14  C   UNL A   1      30.702  24.326  24.614  1.00  0.00     0.004 A 
ATOM     15  C   UNL A   1      31.273  26.010  26.233  1.00  0.00     0.004 A 
ENDBRANCH   8   9
ENDBRANCH   7   8
BRANCH   7  16
ATOM     16  C   UNL A   1      34.396  24.079  25.210  1.00  0.00     0.049 C 
BRANCH  16  17
ATOM     17  C   UNL A   1      34.042  25.013  24.069  1.00  0.00    -0.043 A 
ATOM     18  C   UNL A   1      33.691  24.403  22.851  1.00  0.00     0.043 A 
ATOM     19  C   UNL A   1      34.017  26.412  24.117  1.00  0.00     0.019 A 
ATOM     20  C   UNL A   1      33.253  25.158  21.769  1.00  0.00     0.124 A 
ATOM     21  C   UNL A   1      33.505  27.154  23.043  1.00  0.00     0.021 A 
ATOM     22  F   UNL A   1      32.957  24.530  20.627  1.00  0.00    -0.207 F 
ATOM     23  C   UNL A   1      33.114  26.531  21.865  1.00  0.00     0.055 A 
ATOM     24  Br  UNL A   1      33.293  29.027  23.217  1.00  0.00    -0.051 Br
ENDBRANCH  16  17
ENDBRANCH   7  16
ENDBRANCH   4   7
ENDBRANCH   2   3
ENDBRANCH   1   2
BRANCH   1  25
ATOM     25  C   UNL A   1      37.605  21.805  24.657  1.00  0.00     0.023 C 
BRANCH  25  26
ATOM     26  C   UNL A   1      38.097  22.670  25.807  1.00  0.00     0.116 C 
BRANCH  26  27
ATOM     27  N   UNL A   1      39.517  22.550  26.088  1.00  0.00    -0.352 N 
ATOM     28  C   UNL A   1      40.421  23.497  26.545  1.00  0.00     0.251 C 
ATOM     29  H   UNL A   1      39.896  21.655  25.929  1.00  0.00     0.163 HD
ATOM     30  O   UNL A   1      41.599  23.208  26.616  1.00  0.00    -0.269 OA
BRANCH  28  31
ATOM     31  C   UNL A   1      39.942  24.805  27.075  1.00  0.00     0.039 A 
ATOM     32  C   UNL A   1      40.397  25.965  26.431  1.00  0.00     0.014 A 
ATOM     33  C   UNL A   1      39.216  24.919  28.257  1.00  0.00     0.014 A 
ATOM     34  C   UNL A   1      40.343  27.189  27.093  1.00  0.00     0.010 A 
ATOM     35  C   UNL A   1      39.245  26.107  28.961  1.00  0.00     0.010 A 
ATOM     36  C   UNL A   1      39.863  27.224  28.401  1.00  0.00    -0.014 A 
BRANCH  36  37
ATOM     37  C   UNL A   1      40.060  28.359  29.286  1.00  0.00     0.031 A 
ATOM     38  C   UNL A   1      39.007  29.374  29.448  1.00  0.00     0.074 A 
ATOM     39  C   UNL A   1      41.216  28.481  29.970  1.00  0.00     0.049 A 
ATOM     40  N   UNL A   1      39.247  30.619  29.681  1.00  0.00    -0.248 NA
ATOM     41  C   UNL A   1      37.587  29.060  29.329  1.00  0.00     0.031 C 
ATOM     42  C   UNL A   1      41.525  29.437  31.027  1.00  0.00     0.029 A 
ATOM     43  N   UNL A   1      42.434  27.878  29.681  1.00  0.00    -0.354 N 
ATOM     44  C   UNL A   1      38.054  31.195  30.038  1.00  0.00     0.074 A 
ATOM     45  C   UNL A   1      37.038  30.218  29.713  1.00  0.00     0.031 C 
ATOM     46  C   UNL A   1      42.858  29.544  31.136  1.00  0.00     0.029 A 
ATOM     47  C   UNL A   1      43.453  28.761  30.065  1.00  0.00     0.049 A 
ATOM     48  H   UNL A   1      42.560  26.989  29.278  1.00  0.00     0.167 HD
ATOM     49  C   UNL A   1      38.041  32.366  30.729  1.00  0.00     0.031 A 
ATOM     50  C   UNL A   1      44.344  29.245  29.153  1.00  0.00     0.031 A 
ATOM     51  C   UNL A   1      39.384  32.855  31.017  1.00  0.00     0.049 A 
ATOM     52  C   UNL A   1      44.267  30.748  29.003  1.00  0.00     0.074 A 
ATOM     53  C   UNL A   1      40.183  32.776  32.147  1.00  0.00     0.029 A 
ATOM     54  N   UNL A   1      40.215  33.240  29.973  1.00  0.00    -0.354 N 
ATOM     55  N   UNL A   1      43.233  31.456  29.369  1.00  0.00    -0.248 NA
ATOM     56  C   UNL A   1      45.326  31.573  28.428  1.00  0.00     0.031 C 
ATOM     57  C   UNL A   1      41.519  33.052  31.761  1.00  0.00     0.029 A 
ATOM     58  C   UNL A   1      41.524  33.331  30.406  1.00  0.00     0.049 A 
ATOM     59  H   UNL A   1      39.914  33.422  29.053  1.00  0.00     0.167 HD
ATOM     60  C   UNL A   1      43.479  32.783  29.145  1.00  0.00     0.074 A 
ATOM     61  C   UNL A   1      44.797  32.806  28.537  1.00  0.00     0.031 C 
ATOM     62  C   UNL A   1      42.580  33.748  29.494  1.00  0.00     0.031 A 
BRANCH  49  63
ATOM     63  C   UNL A   1      36.793  32.853  31.409  1.00  0.00    -0.014 A 
ATOM     64  C   UNL A   1      36.537  32.507  32.747  1.00  0.00     0.009 A 
ATOM     65  C   UNL A   1      35.809  33.615  30.755  1.00  0.00     0.009 A 
ATOM     66  C   UNL A   1      35.324  32.819  33.369  1.00  0.00     0.001 A 
ATOM     67  C   UNL A   1      34.578  33.898  31.360  1.00  0.00     0.001 A 
ATOM     68  C   UNL A   1      34.332  33.489  32.665  1.00  0.00     0.000 A 
ENDBRANCH  49  63
BRANCH  50  69
ATOM     69  C   UNL A   1      44.659  28.278  28.065  1.00  0.00    -0.014 A 
ATOM     70  C   UNL A   1      45.322  27.083  28.415  1.00  0.00     0.009 A 
ATOM     71  C   UNL A   1      43.987  28.334  26.836  1.00  0.00     0.009 A 
ATOM     72  C   UNL A   1      45.211  25.940  27.617  1.00  0.00     0.001 A 
ATOM     73  C   UNL A   1      43.891  27.189  26.034  1.00  0.00     0.001 A 
ATOM     74  C   UNL A   1      44.468  25.986  26.442  1.00  0.00     0.000 A 
ENDBRANCH  50  69
BRANCH  62  75
ATOM     75  C   UNL A   1      42.632  35.201  29.101  1.00  0.00    -0.014 A 
ATOM     76  C   UNL A   1      43.456  36.152  29.713  1.00  0.00     0.009 A 
ATOM     77  C   UNL A   1      41.929  35.616  27.946  1.00  0.00     0.009 A 
ATOM     78  C   UNL A   1      43.550  37.459  29.214  1.00  0.00     0.001 A 
ATOM     79  C   UNL A   1      42.055  36.902  27.419  1.00  0.00     0.001 A 
ATOM     80  C   UNL A   1      42.862  37.829  28.061  1.00  0.00     0.000 A 
ENDBRANCH  62  75
ENDBRANCH  36  37
ENDBRANCH  28  31
ENDBRANCH  26  27
ENDBRANCH  25  26
ENDBRANCH   1  25
TORSDOF 15
ENDMDL
MODEL 3
REMARK VINA RESULT:     -11.4      2.297      3.288
REMARK SMILES Cc1ccc(C[C@@H](Cc2cc(F)cc(Br)c2)C(=O)NCCCCNC(=O)c2ccc(-c3c4nc(c(-c5ccccc5)c5ccc([nH]5)c(-c5ccccc5)c5nc(c(-c6ccccc6)c6ccc3[nH]6)C=C5)C=C4)cc2)cc1
REMARK SMILES IDX 21 1 20 2 19 3 17 4 18 5 7 7 6 8 5 9 1 10 2 11 3 12 76 13
REMARK SMILES IDX 4 14 75 15 8 16 9 17 10 18 16 19 11 20 14 21 12 22 13 23
REMARK SMILES IDX 15 24 22 25 23 26 24 27 25 28 26 30 27 31 28 32 74 33 29 34
REMARK SMILES IDX 73 35 30 36 31 37 32 38 67 39 33 40 72 41 66 42 68 43 34 44
REMARK SMILES IDX 71 45 65 46 64 47 35 49 57 50 42 51 56 52 43 53 46 54 55 55
REMARK SMILES IDX 69 56 44 57 45 58 54 60 70 61 47 62 36 63 37 64 41 65 38 66
REMARK SMILES IDX 40 67 39 68 58 69 59 70 63 71 60 72 62 73 61 74 48 75 49 76
REMARK SMILES IDX 53 77 50 78 52 79 51 80
REMARK H PARENT 19 6 24 29 68 48 46 59
REMARK Flexibility Score: inf
ROOT
ATOM      1  C   UNL A   1      32.107  30.437  25.813  1.00  0.00     0.023 C 
ENDROOT
BRANCH   1   2
ATOM      2  C   UNL A   1      32.602  29.027  25.465  1.00  0.00     0.116 C 
BRANCH   2   3
ATOM      3  N   UNL A   1      31.581  28.024  25.715  1.00  0.00    -0.356 N 
ATOM      4  C   UNL A   1      31.098  27.021  24.937  1.00  0.00     0.223 C 
ATOM      5  O   UNL A   1      30.225  26.297  25.424  1.00  0.00    -0.275 OA
ATOM      6  H   UNL A   1      31.165  28.082  26.605  1.00  0.00     0.163 HD
BRANCH   4   7
ATOM      7  C   UNL A   1      31.595  26.775  23.521  1.00  0.00     0.087 C 
BRANCH   7   8
ATOM      8  C   UNL A   1      31.846  25.250  23.393  1.00  0.00     0.049 C 
BRANCH   8   9
ATOM      9  C   UNL A   1      33.154  24.667  23.875  1.00  0.00    -0.047 A 
ATOM     10  C   UNL A   1      37.116  23.419  25.078  1.00  0.00     0.044 C 
ATOM     11  C   UNL A   1      35.739  23.837  24.653  1.00  0.00    -0.051 A 
ATOM     12  C   UNL A   1      34.905  24.497  25.557  1.00  0.00     0.004 A 
ATOM     13  C   UNL A   1      35.267  23.574  23.364  1.00  0.00     0.004 A 
ATOM     14  C   UNL A   1      33.635  24.923  25.165  1.00  0.00     0.004 A 
ATOM     15  C   UNL A   1      33.985  23.981  22.981  1.00  0.00     0.004 A 
ENDBRANCH   8   9
ENDBRANCH   7   8
BRANCH   7  16
ATOM     16  C   UNL A   1      30.758  27.406  22.384  1.00  0.00     0.049 C 
BRANCH  16  17
ATOM     17  C   UNL A   1      29.644  28.417  22.571  1.00  0.00    -0.043 A 
ATOM     18  C   UNL A   1      28.414  27.910  23.030  1.00  0.00     0.043 A 
ATOM     19  C   UNL A   1      29.727  29.796  22.349  1.00  0.00     0.019 A 
ATOM     20  C   UNL A   1      27.355  28.757  23.331  1.00  0.00     0.124 A 
ATOM     21  C   UNL A   1      28.676  30.645  22.726  1.00  0.00     0.021 A 
ATOM     22  F   UNL A   1      26.200  28.221  23.737  1.00  0.00    -0.207 F 
ATOM     23  C   UNL A   1      27.485  30.131  23.225  1.00  0.00     0.055 A 
ATOM     24  Br  UNL A   1      28.897  32.520  22.602  1.00  0.00    -0.051 Br
ENDBRANCH  16  17
ENDBRANCH   7  16
ENDBRANCH   4   7
ENDBRANCH   2   3
ENDBRANCH   1   2
BRANCH   1  25
ATOM     25  C   UNL A   1      32.467  30.901  27.228  1.00  0.00     0.023 C 
BRANCH  25  26
ATOM     26  C   UNL A   1      33.909  30.603  27.613  1.00  0.00     0.116 C 
BRANCH  26  27
ATOM     27  N   UNL A   1      34.452  31.477  28.639  1.00  0.00    -0.352 N 
ATOM     28  C   UNL A   1      35.583  31.334  29.428  1.00  0.00     0.251 C 
ATOM     29  H   UNL A   1      33.935  32.300  28.798  1.00  0.00     0.163 HD
ATOM     30  O   UNL A   1      35.802  32.145  30.305  1.00  0.00    -0.269 OA
BRANCH  28  31
ATOM     31  C   UNL A   1      36.593  30.283  29.116  1.00  0.00     0.039 A 
ATOM     32  C   UNL A   1      36.852  29.326  30.108  1.00  0.00     0.014 A 
ATOM     33  C   UNL A   1      37.390  30.318  27.975  1.00  0.00     0.014 A 
ATOM     34  C   UNL A   1      38.035  28.593  30.070  1.00  0.00     0.010 A 
ATOM     35  C   UNL A   1      38.608  29.668  27.977  1.00  0.00     0.010 A 
ATOM     36  C   UNL A   1      38.953  28.854  29.055  1.00  0.00    -0.014 A 
BRANCH  36  37
ATOM     37  C   UNL A   1      40.331  28.397  29.098  1.00  0.00     0.031 A 
ATOM     38  C   UNL A   1      40.712  27.109  28.497  1.00  0.00     0.074 A 
ATOM     39  C   UNL A   1      41.272  29.162  29.688  1.00  0.00     0.049 A 
ATOM     40  N   UNL A   1      41.660  26.362  28.952  1.00  0.00    -0.248 NA
ATOM     41  C   UNL A   1      40.025  26.547  27.339  1.00  0.00     0.031 C 
ATOM     42  C   UNL A   1      42.717  28.962  29.673  1.00  0.00     0.029 A 
ATOM     43  N   UNL A   1      41.072  30.178  30.616  1.00  0.00    -0.354 N 
ATOM     44  C   UNL A   1      41.905  25.404  28.000  1.00  0.00     0.074 A 
ATOM     45  C   UNL A   1      40.806  25.497  27.064  1.00  0.00     0.031 C 
ATOM     46  C   UNL A   1      43.256  29.633  30.703  1.00  0.00     0.029 A 
ATOM     47  C   UNL A   1      42.165  30.180  31.493  1.00  0.00     0.049 A 
ATOM     48  H   UNL A   1      40.300  30.788  30.651  1.00  0.00     0.167 HD
ATOM     49  C   UNL A   1      43.090  24.739  27.991  1.00  0.00     0.031 A 
ATOM     50  C   UNL A   1      41.993  29.967  32.830  1.00  0.00     0.031 A 
ATOM     51  C   UNL A   1      43.985  25.184  29.052  1.00  0.00     0.049 A 
ATOM     52  C   UNL A   1      42.694  28.718  33.317  1.00  0.00     0.074 A 
ATOM     53  C   UNL A   1      45.053  26.068  29.064  1.00  0.00     0.029 A 
ATOM     54  N   UNL A   1      43.637  24.969  30.380  1.00  0.00    -0.354 N 
ATOM     55  N   UNL A   1      43.067  27.747  32.527  1.00  0.00    -0.248 NA
ATOM     56  C   UNL A   1      43.023  28.452  34.715  1.00  0.00     0.031 C 
ATOM     57  C   UNL A   1      45.304  26.437  30.409  1.00  0.00     0.029 A 
ATOM     58  C   UNL A   1      44.411  25.753  31.215  1.00  0.00     0.049 A 
ATOM     59  H   UNL A   1      42.938  24.347  30.684  1.00  0.00     0.167 HD
ATOM     60  C   UNL A   1      43.708  26.781  33.254  1.00  0.00     0.074 A 
ATOM     61  C   UNL A   1      43.641  27.258  34.624  1.00  0.00     0.031 C 
ATOM     62  C   UNL A   1      44.251  25.680  32.660  1.00  0.00     0.031 A 
BRANCH  49  63
ATOM     63  C   UNL A   1      43.519  23.933  26.797  1.00  0.00    -0.014 A 
ATOM     64  C   UNL A   1      44.244  24.542  25.758  1.00  0.00     0.009 A 
ATOM     65  C   UNL A   1      43.187  22.578  26.626  1.00  0.00     0.009 A 
ATOM     66  C   UNL A   1      44.537  23.864  24.570  1.00  0.00     0.001 A 
ATOM     67  C   UNL A   1      43.444  21.906  25.424  1.00  0.00     0.001 A 
ATOM     68  C   UNL A   1      44.110  22.554  24.391  1.00  0.00     0.000 A 
ENDBRANCH  49  63
BRANCH  50  69
ATOM     69  C   UNL A   1      40.704  30.498  33.351  1.00  0.00    -0.014 A 
ATOM     70  C   UNL A   1      40.502  31.895  33.314  1.00  0.00     0.009 A 
ATOM     71  C   UNL A   1      39.585  29.666  33.489  1.00  0.00     0.009 A 
ATOM     72  C   UNL A   1      39.211  32.433  33.291  1.00  0.00     0.001 A 
ATOM     73  C   UNL A   1      38.294  30.212  33.478  1.00  0.00     0.001 A 
ATOM     74  C   UNL A   1      38.107  31.588  33.341  1.00  0.00     0.000 A 
ENDBRANCH  50  69
BRANCH  62  75
ATOM     75  C   UNL A   1      44.774  24.454  33.362  1.00  0.00    -0.014 A 
ATOM     76  C   UNL A   1      46.076  24.329  33.861  1.00  0.00     0.009 A 
ATOM     77  C   UNL A   1      43.866  23.417  33.682  1.00  0.00     0.009 A 
ATOM     78  C   UNL A   1      46.458  23.212  34.617  1.00  0.00     0.001 A 
ATOM     79  C   UNL A   1      44.230  22.326  34.471  1.00  0.00     0.001 A 
ATOM     80  C   UNL A   1      45.533  22.219  34.933  1.00  0.00     0.000 A 
ENDBRANCH  62  75
ENDBRANCH  36  37
ENDBRANCH  28  31
ENDBRANCH  26  27
ENDBRANCH  25  26
ENDBRANCH   1  25
TORSDOF 15
ENDMDL
