MODEL 1
REMARK VINA RESULT:     -12.7      0.000      0.000
REMARK SMILES Cn1c(=O)c(=O)n(C)c2cc(S(=O)(=O)N3CCC[C@H]3C(=O)NCCCCNC(=O)c3ccc(-c4c5nc(c(-c6ccccc6)c6ccc([nH]6)c(-c6ccccc6)c6nc(c(-c7ccccc7)c7ccc4[nH]7)C=C6)C=C5)cc3)ccc21
REMARK SMILES IDX 24 1 23 2 22 3 20 4 21 5 19 7 15 8 16 9 17 10 18 11 12 12
REMARK SMILES IDX 13 13 14 14 11 15 1 16 2 17 3 18 80 19 4 20 5 21 9 22 79 23
REMARK SMILES IDX 6 24 7 25 10 26 78 27 8 28 25 29 26 30 27 31 28 32 29 34
REMARK SMILES IDX 30 35 31 36 77 37 32 38 76 39 33 40 34 41 35 42 70 43 36 44
REMARK SMILES IDX 75 45 69 46 71 47 37 48 74 49 68 50 67 51 38 53 60 54 45 55
REMARK SMILES IDX 59 56 46 57 49 58 58 59 72 60 47 61 48 62 57 64 73 65 50 66
REMARK SMILES IDX 39 67 40 68 44 69 41 70 43 71 42 72 61 73 62 74 66 75 63 76
REMARK SMILES IDX 65 77 64 78 51 79 52 80 56 81 53 82 55 83 54 84
REMARK H PARENT 22 6 27 33 71 52 49 63
REMARK Flexibility Score: inf
ROOT
ATOM      1  C   UNL A   1      32.103  30.347  26.812  1.00  0.00     0.023 C 
ENDROOT
BRANCH   1   2
ATOM      2  C   UNL A   1      32.315  29.831  25.388  1.00  0.00     0.116 C 
BRANCH   2   3
ATOM      3  N   UNL A   1      31.083  29.802  24.610  1.00  0.00    -0.355 N 
ATOM      4  C   UNL A   1      30.524  28.753  23.909  1.00  0.00     0.238 C 
ATOM      5  O   UNL A   1      29.472  28.939  23.303  1.00  0.00    -0.273 OA
ATOM      6  H   UNL A   1      30.581  30.649  24.579  1.00  0.00     0.163 HD
BRANCH   4   7
ATOM      7  C   UNL A   1      31.285  27.436  23.900  1.00  0.00     0.162 C 
ATOM      8  N   UNL A   1      30.626  26.247  24.479  1.00  0.00    -0.185 NA
ATOM      9  C   UNL A   1      30.265  25.313  23.405  1.00  0.00     0.103 C 
ATOM     10  C   UNL A   1      31.330  25.544  22.354  1.00  0.00     0.019 C 
ATOM     11  C   UNL A   1      31.620  27.031  22.457  1.00  0.00     0.032 C 
BRANCH   8  12
ATOM     12  S   UNL A   1      31.143  25.662  25.974  1.00  0.00     0.243 S 
ATOM     13  O   UNL A   1      30.154  24.715  26.429  1.00  0.00    -0.207 OA
ATOM     14  O   UNL A   1      31.544  26.795  26.780  1.00  0.00    -0.207 OA
BRANCH  12  15
ATOM     15  C   UNL A   1      32.653  24.720  25.703  1.00  0.00     0.084 A 
ATOM     16  C   UNL A   1      37.457  22.951  25.501  1.00  0.00     0.154 C 
ATOM     17  N   UNL A   1      36.146  22.338  25.334  1.00  0.00    -0.305 N 
ATOM     18  C   UNL A   1      36.094  20.977  25.048  1.00  0.00     0.316 A 
ATOM     19  C   UNL A   1      34.967  23.119  25.454  1.00  0.00     0.068 A 
ATOM     20  O   UNL A   1      37.093  20.278  24.908  1.00  0.00    -0.263 OA
ATOM     21  C   UNL A   1      34.710  20.328  24.913  1.00  0.00     0.316 A 
ATOM     22  C   UNL A   1      33.696  22.545  25.266  1.00  0.00     0.069 A 
ATOM     23  C   UNL A   1      35.057  24.475  25.777  1.00  0.00     0.030 A 
ATOM     24  O   UNL A   1      34.652  19.116  24.724  1.00  0.00    -0.263 OA
ATOM     25  N   UNL A   1      33.587  21.151  25.011  1.00  0.00    -0.305 N 
ATOM     26  C   UNL A   1      32.548  23.363  25.369  1.00  0.00     0.050 A 
ATOM     27  C   UNL A   1      33.915  25.258  25.919  1.00  0.00     0.024 A 
ATOM     28  C   UNL A   1      32.279  20.524  24.895  1.00  0.00     0.154 C 
ENDBRANCH  12  15
ENDBRANCH   8  12
ENDBRANCH   4   7
ENDBRANCH   2   3
ENDBRANCH   1   2
BRANCH   1  29
ATOM     29  C   UNL A   1      31.738  31.824  26.905  1.00  0.00     0.023 C 
BRANCH  29  30
ATOM     30  C   UNL A   1      32.877  32.732  27.342  1.00  0.00     0.116 C 
BRANCH  30  31
ATOM     31  N   UNL A   1      32.450  34.078  27.699  1.00  0.00    -0.352 N 
ATOM     32  C   UNL A   1      33.017  34.938  28.613  1.00  0.00     0.251 C 
ATOM     33  H   UNL A   1      31.655  34.416  27.227  1.00  0.00     0.163 HD
ATOM     34  O   UNL A   1      32.483  36.010  28.875  1.00  0.00    -0.269 OA
BRANCH  32  35
ATOM     35  C   UNL A   1      34.254  34.526  29.312  1.00  0.00     0.039 A 
ATOM     36  C   UNL A   1      35.500  34.745  28.722  1.00  0.00     0.014 A 
ATOM     37  C   UNL A   1      34.160  33.853  30.532  1.00  0.00     0.014 A 
ATOM     38  C   UNL A   1      36.624  34.130  29.254  1.00  0.00     0.010 A 
ATOM     39  C   UNL A   1      35.311  33.319  31.118  1.00  0.00     0.010 A 
ATOM     40  C   UNL A   1      36.546  33.407  30.457  1.00  0.00    -0.014 A 
BRANCH  40  41
ATOM     41  C   UNL A   1      37.778  32.773  30.991  1.00  0.00     0.031 A 
ATOM     42  C   UNL A   1      38.377  33.216  32.299  1.00  0.00     0.074 A 
ATOM     43  C   UNL A   1      38.301  31.721  30.330  1.00  0.00     0.049 A 
ATOM     44  N   UNL A   1      39.391  32.702  32.951  1.00  0.00    -0.248 NA
ATOM     45  C   UNL A   1      37.767  34.377  32.969  1.00  0.00     0.031 C 
ATOM     46  C   UNL A   1      37.793  31.185  29.065  1.00  0.00     0.029 A 
ATOM     47  N   UNL A   1      39.335  30.879  30.655  1.00  0.00    -0.354 N 
ATOM     48  C   UNL A   1      39.547  33.480  34.091  1.00  0.00     0.074 A 
ATOM     49  C   UNL A   1      38.542  34.518  34.036  1.00  0.00     0.031 C 
ATOM     50  C   UNL A   1      38.452  30.056  28.770  1.00  0.00     0.029 A 
ATOM     51  C   UNL A   1      39.478  29.828  29.781  1.00  0.00     0.049 A 
ATOM     52  H   UNL A   1      39.918  31.015  31.436  1.00  0.00     0.167 HD
ATOM     53  C   UNL A   1      40.442  33.334  35.096  1.00  0.00     0.031 A 
ATOM     54  C   UNL A   1      40.335  28.789  29.789  1.00  0.00     0.031 A 
ATOM     55  C   UNL A   1      41.431  32.291  35.160  1.00  0.00     0.049 A 
ATOM     56  C   UNL A   1      41.344  28.685  30.895  1.00  0.00     0.074 A 
ATOM     57  C   UNL A   1      42.373  32.062  36.150  1.00  0.00     0.029 A 
ATOM     58  N   UNL A   1      41.602  31.300  34.208  1.00  0.00    -0.354 N 
ATOM     59  N   UNL A   1      41.477  29.434  31.962  1.00  0.00    -0.248 NA
ATOM     60  C   UNL A   1      42.327  27.597  30.792  1.00  0.00     0.031 C 
ATOM     61  C   UNL A   1      43.147  30.963  35.770  1.00  0.00     0.029 A 
ATOM     62  C   UNL A   1      42.648  30.471  34.575  1.00  0.00     0.049 A 
ATOM     63  H   UNL A   1      41.060  31.200  33.391  1.00  0.00     0.167 HD
ATOM     64  C   UNL A   1      42.550  28.902  32.664  1.00  0.00     0.074 A 
ATOM     65  C   UNL A   1      43.015  27.751  31.916  1.00  0.00     0.031 C 
ATOM     66  C   UNL A   1      43.102  29.332  33.822  1.00  0.00     0.031 A 
BRANCH  53  67
ATOM     67  C   UNL A   1      40.414  34.324  36.228  1.00  0.00    -0.014 A 
ATOM     68  C   UNL A   1      39.571  34.098  37.329  1.00  0.00     0.009 A 
ATOM     69  C   UNL A   1      41.115  35.536  36.146  1.00  0.00     0.009 A 
ATOM     70  C   UNL A   1      39.413  35.075  38.314  1.00  0.00     0.001 A 
ATOM     71  C   UNL A   1      40.973  36.503  37.145  1.00  0.00     0.001 A 
ATOM     72  C   UNL A   1      40.115  36.276  38.221  1.00  0.00     0.000 A 
ENDBRANCH  53  67
BRANCH  54  73
ATOM     73  C   UNL A   1      40.263  27.762  28.719  1.00  0.00    -0.014 A 
ATOM     74  C   UNL A   1      39.531  26.579  28.907  1.00  0.00     0.009 A 
ATOM     75  C   UNL A   1      40.945  27.950  27.507  1.00  0.00     0.009 A 
ATOM     76  C   UNL A   1      39.501  25.596  27.916  1.00  0.00     0.001 A 
ATOM     77  C   UNL A   1      40.886  26.980  26.504  1.00  0.00     0.001 A 
ATOM     78  C   UNL A   1      40.172  25.802  26.712  1.00  0.00     0.000 A 
ENDBRANCH  54  73
BRANCH  66  79
ATOM     79  C   UNL A   1      44.267  28.557  34.369  1.00  0.00    -0.014 A 
ATOM     80  C   UNL A   1      44.047  27.540  35.312  1.00  0.00     0.009 A 
ATOM     81  C   UNL A   1      45.583  28.887  34.016  1.00  0.00     0.009 A 
ATOM     82  C   UNL A   1      45.123  26.873  35.897  1.00  0.00     0.001 A 
ATOM     83  C   UNL A   1      46.658  28.200  34.583  1.00  0.00     0.001 A 
ATOM     84  C   UNL A   1      46.428  27.200  35.528  1.00  0.00     0.000 A 
ENDBRANCH  66  79
ENDBRANCH  40  41
ENDBRANCH  32  35
ENDBRANCH  30  31
ENDBRANCH  29  30
ENDBRANCH   1  29
TORSDOF 13
ENDMDL
MODEL 2
REMARK VINA RESULT:     -12.7      4.074      9.767
REMARK SMILES Cn1c(=O)c(=O)n(C)c2cc(S(=O)(=O)N3CCC[C@H]3C(=O)NCCCCNC(=O)c3ccc(-c4c5nc(c(-c6ccccc6)c6ccc([nH]6)c(-c6ccccc6)c6nc(c(-c7ccccc7)c7ccc4[nH]7)C=C6)C=C5)cc3)ccc21
REMARK SMILES IDX 24 1 23 2 22 3 20 4 21 5 19 7 15 8 16 9 17 10 18 11 12 12
REMARK SMILES IDX 13 13 14 14 11 15 1 16 2 17 3 18 80 19 4 20 5 21 9 22 79 23
REMARK SMILES IDX 6 24 7 25 10 26 78 27 8 28 25 29 26 30 27 31 28 32 29 34
REMARK SMILES IDX 30 35 31 36 77 37 32 38 76 39 33 40 34 41 35 42 70 43 36 44
REMARK SMILES IDX 75 45 69 46 71 47 37 48 74 49 68 50 67 51 38 53 60 54 45 55
REMARK SMILES IDX 59 56 46 57 49 58 58 59 72 60 47 61 48 62 57 64 73 65 50 66
REMARK SMILES IDX 39 67 40 68 44 69 41 70 43 71 42 72 61 73 62 74 66 75 63 76
REMARK SMILES IDX 65 77 64 78 51 79 52 80 56 81 53 82 55 83 54 84
REMARK H PARENT 22 6 27 33 71 52 49 63
REMARK Flexibility Score: inf
ROOT
ATOM      1  C   UNL A   1      38.083  21.574  25.294  1.00  0.00     0.023 C 
ENDROOT
BRANCH   1   2
ATOM      2  C   UNL A   1      36.616  21.656  25.722  1.00  0.00     0.116 C 
BRANCH   2   3
ATOM      3  N   UNL A   1      35.840  20.498  25.296  1.00  0.00    -0.355 N 
ATOM      4  C   UNL A   1      34.528  20.441  24.874  1.00  0.00     0.238 C 
ATOM      5  O   UNL A   1      34.050  19.353  24.565  1.00  0.00    -0.273 OA
ATOM      6  H   UNL A   1      36.318  19.637  25.313  1.00  0.00     0.163 HD
BRANCH   4   7
ATOM      7  C   UNL A   1      33.740  21.744  24.867  1.00  0.00     0.162 C 
ATOM      8  N   UNL A   1      33.242  22.248  23.571  1.00  0.00    -0.185 NA
ATOM      9  C   UNL A   1      31.781  22.107  23.517  1.00  0.00     0.103 C 
ATOM     10  C   UNL A   1      31.352  22.250  24.961  1.00  0.00     0.019 C 
ATOM     11  C   UNL A   1      32.483  21.604  25.740  1.00  0.00     0.032 C 
BRANCH   8  12
ATOM     12  S   UNL A   1      33.992  23.582  22.862  1.00  0.00     0.243 S 
ATOM     13  O   UNL A   1      33.377  23.783  21.572  1.00  0.00    -0.207 OA
ATOM     14  O   UNL A   1      35.422  23.418  23.009  1.00  0.00    -0.207 OA
BRANCH  12  15
ATOM     15  C   UNL A   1      33.580  25.032  23.845  1.00  0.00     0.084 A 
ATOM     16  C   UNL A   1      33.478  28.963  27.129  1.00  0.00     0.154 C 
ATOM     17  N   UNL A   1      32.726  28.631  25.927  1.00  0.00    -0.305 N 
ATOM     18  C   UNL A   1      31.739  29.518  25.508  1.00  0.00     0.316 A 
ATOM     19  C   UNL A   1      32.998  27.432  25.218  1.00  0.00     0.068 A 
ATOM     20  O   UNL A   1      31.457  30.549  26.112  1.00  0.00    -0.263 OA
ATOM     21  C   UNL A   1      30.978  29.183  24.218  1.00  0.00     0.316 A 
ATOM     22  C   UNL A   1      32.260  27.085  24.071  1.00  0.00     0.069 A 
ATOM     23  C   UNL A   1      34.021  26.583  25.647  1.00  0.00     0.030 A 
ATOM     24  O   UNL A   1      30.150  29.991  23.805  1.00  0.00    -0.263 OA
ATOM     25  N   UNL A   1      31.267  27.976  23.580  1.00  0.00    -0.305 N 
ATOM     26  C   UNL A   1      32.545  25.869  23.408  1.00  0.00     0.050 A 
ATOM     27  C   UNL A   1      34.320  25.411  24.958  1.00  0.00     0.024 A 
ATOM     28  C   UNL A   1      30.551  27.674  22.350  1.00  0.00     0.154 C 
ENDBRANCH  12  15
ENDBRANCH   8  12
ENDBRANCH   4   7
ENDBRANCH   2   3
ENDBRANCH   1   2
BRANCH   1  29
ATOM     29  C   UNL A   1      38.572  20.167  24.968  1.00  0.00     0.023 C 
BRANCH  29  30
ATOM     30  C   UNL A   1      39.278  19.460  26.114  1.00  0.00     0.116 C 
BRANCH  30  31
ATOM     31  N   UNL A   1      40.573  18.902  25.750  1.00  0.00    -0.352 N 
ATOM     32  C   UNL A   1      41.814  19.493  25.844  1.00  0.00     0.251 C 
ATOM     33  H   UNL A   1      40.560  17.985  25.391  1.00  0.00     0.163 HD
ATOM     34  O   UNL A   1      42.808  18.928  25.404  1.00  0.00    -0.269 OA
BRANCH  32  35
ATOM     35  C   UNL A   1      41.920  20.844  26.438  1.00  0.00     0.039 A 
ATOM     36  C   UNL A   1      41.969  21.970  25.616  1.00  0.00     0.014 A 
ATOM     37  C   UNL A   1      42.043  20.975  27.824  1.00  0.00     0.014 A 
ATOM     38  C   UNL A   1      42.327  23.196  26.160  1.00  0.00     0.010 A 
ATOM     39  C   UNL A   1      42.305  22.230  28.379  1.00  0.00     0.010 A 
ATOM     40  C   UNL A   1      42.502  23.343  27.546  1.00  0.00    -0.014 A 
BRANCH  40  41
ATOM     41  C   UNL A   1      42.877  24.677  28.082  1.00  0.00     0.031 A 
ATOM     42  C   UNL A   1      44.317  25.105  28.166  1.00  0.00     0.074 A 
ATOM     43  C   UNL A   1      41.895  25.544  28.402  1.00  0.00     0.049 A 
ATOM     44  N   UNL A   1      44.807  26.269  28.517  1.00  0.00    -0.248 NA
ATOM     45  C   UNL A   1      45.345  24.111  27.812  1.00  0.00     0.031 C 
ATOM     46  C   UNL A   1      40.460  25.251  28.337  1.00  0.00     0.029 A 
ATOM     47  N   UNL A   1      41.947  26.859  28.788  1.00  0.00    -0.354 N 
ATOM     48  C   UNL A   1      46.188  26.142  28.440  1.00  0.00     0.074 A 
ATOM     49  C   UNL A   1      46.467  24.784  28.032  1.00  0.00     0.031 C 
ATOM     50  C   UNL A   1      39.772  26.374  28.580  1.00  0.00     0.029 A 
ATOM     51  C   UNL A   1      40.709  27.448  28.891  1.00  0.00     0.049 A 
ATOM     52  H   UNL A   1      42.789  27.335  28.974  1.00  0.00     0.167 HD
ATOM     53  C   UNL A   1      47.135  27.080  28.677  1.00  0.00     0.031 A 
ATOM     54  C   UNL A   1      40.361  28.712  29.197  1.00  0.00     0.031 A 
ATOM     55  C   UNL A   1      46.858  28.438  29.064  1.00  0.00     0.049 A 
ATOM     56  C   UNL A   1      41.437  29.712  29.500  1.00  0.00     0.074 A 
ATOM     57  C   UNL A   1      47.759  29.459  29.316  1.00  0.00     0.029 A 
ATOM     58  N   UNL A   1      45.591  28.968  29.247  1.00  0.00    -0.354 N 
ATOM     59  N   UNL A   1      42.737  29.572  29.424  1.00  0.00    -0.248 NA
ATOM     60  C   UNL A   1      40.997  31.044  29.938  1.00  0.00     0.031 C 
ATOM     61  C   UNL A   1      47.040  30.592  29.701  1.00  0.00     0.029 A 
ATOM     62  C   UNL A   1      45.689  30.295  29.630  1.00  0.00     0.049 A 
ATOM     63  H   UNL A   1      44.748  28.474  29.123  1.00  0.00     0.167 HD
ATOM     64  C   UNL A   1      43.271  30.799  29.793  1.00  0.00     0.074 A 
ATOM     65  C   UNL A   1      42.154  31.679  30.067  1.00  0.00     0.031 C 
ATOM     66  C   UNL A   1      44.571  31.159  29.901  1.00  0.00     0.031 A 
BRANCH  53  67
ATOM     67  C   UNL A   1      48.580  26.689  28.532  1.00  0.00    -0.014 A 
ATOM     68  C   UNL A   1      49.192  26.744  27.269  1.00  0.00     0.009 A 
ATOM     69  C   UNL A   1      49.294  26.144  29.610  1.00  0.00     0.009 A 
ATOM     70  C   UNL A   1      50.481  26.240  27.083  1.00  0.00     0.001 A 
ATOM     71  C   UNL A   1      50.592  25.662  29.426  1.00  0.00     0.001 A 
ATOM     72  C   UNL A   1      51.180  25.701  28.161  1.00  0.00     0.000 A 
ENDBRANCH  53  67
BRANCH  54  73
ATOM     73  C   UNL A   1      38.926  29.099  29.218  1.00  0.00    -0.014 A 
ATOM     74  C   UNL A   1      38.302  29.608  28.069  1.00  0.00     0.009 A 
ATOM     75  C   UNL A   1      38.178  28.980  30.399  1.00  0.00     0.009 A 
ATOM     76  C   UNL A   1      36.966  30.011  28.104  1.00  0.00     0.001 A 
ATOM     77  C   UNL A   1      36.832  29.354  30.424  1.00  0.00     0.001 A 
ATOM     78  C   UNL A   1      36.231  29.876  29.280  1.00  0.00     0.000 A 
ENDBRANCH  54  73
BRANCH  66  79
ATOM     79  C   UNL A   1      44.870  32.570  30.322  1.00  0.00    -0.014 A 
ATOM     80  C   UNL A   1      44.993  32.879  31.687  1.00  0.00     0.009 A 
ATOM     81  C   UNL A   1      44.945  33.604  29.379  1.00  0.00     0.009 A 
ATOM     82  C   UNL A   1      45.179  34.198  32.099  1.00  0.00     0.001 A 
ATOM     83  C   UNL A   1      45.159  34.921  29.792  1.00  0.00     0.001 A 
ATOM     84  C   UNL A   1      45.268  35.218  31.151  1.00  0.00     0.000 A 
ENDBRANCH  66  79
ENDBRANCH  40  41
ENDBRANCH  32  35
ENDBRANCH  30  31
ENDBRANCH  29  30
ENDBRANCH   1  29
TORSDOF 13
ENDMDL
MODEL 3
REMARK VINA RESULT:     -12.5      0.984      5.769
REMARK SMILES Cn1c(=O)c(=O)n(C)c2cc(S(=O)(=O)N3CCC[C@H]3C(=O)NCCCCNC(=O)c3ccc(-c4c5nc(c(-c6ccccc6)c6ccc([nH]6)c(-c6ccccc6)c6nc(c(-c7ccccc7)c7ccc4[nH]7)C=C6)C=C5)cc3)ccc21
REMARK SMILES IDX 24 1 23 2 22 3 20 4 21 5 19 7 15 8 16 9 17 10 18 11 12 12
REMARK SMILES IDX 13 13 14 14 11 15 1 16 2 17 3 18 80 19 4 20 5 21 9 22 79 23
REMARK SMILES IDX 6 24 7 25 10 26 78 27 8 28 25 29 26 30 27 31 28 32 29 34
REMARK SMILES IDX 30 35 31 36 77 37 32 38 76 39 33 40 34 41 35 42 70 43 36 44
REMARK SMILES IDX 75 45 69 46 71 47 37 48 74 49 68 50 67 51 38 53 60 54 45 55
REMARK SMILES IDX 59 56 46 57 49 58 58 59 72 60 47 61 48 62 57 64 73 65 50 66
REMARK SMILES IDX 39 67 40 68 44 69 41 70 43 71 42 72 61 73 62 74 66 75 63 76
REMARK SMILES IDX 65 77 64 78 51 79 52 80 56 81 53 82 55 83 54 84
REMARK H PARENT 22 6 27 33 71 52 49 63
REMARK Flexibility Score: inf
ROOT
ATOM      1  C   UNL A   1      32.173  30.084  26.804  1.00  0.00     0.023 C 
ENDROOT
BRANCH   1   2
ATOM      2  C   UNL A   1      32.389  29.742  25.329  1.00  0.00     0.116 C 
BRANCH   2   3
ATOM      3  N   UNL A   1      31.141  29.676  24.578  1.00  0.00    -0.355 N 
ATOM      4  C   UNL A   1      30.589  28.604  23.906  1.00  0.00     0.238 C 
ATOM      5  O   UNL A   1      29.521  28.758  23.320  1.00  0.00    -0.273 OA
ATOM      6  H   UNL A   1      30.621  30.511  24.544  1.00  0.00     0.163 HD
BRANCH   4   7
ATOM      7  C   UNL A   1      31.377  27.302  23.902  1.00  0.00     0.162 C 
ATOM      8  N   UNL A   1      30.726  26.093  24.447  1.00  0.00    -0.185 NA
ATOM      9  C   UNL A   1      30.415  25.166  23.352  1.00  0.00     0.103 C 
ATOM     10  C   UNL A   1      31.503  25.433  22.334  1.00  0.00     0.019 C 
ATOM     11  C   UNL A   1      31.760  26.923  22.463  1.00  0.00     0.032 C 
BRANCH   8  12
ATOM     12  S   UNL A   1      31.214  25.499  25.948  1.00  0.00     0.243 S 
ATOM     13  O   UNL A   1      30.193  24.584  26.399  1.00  0.00    -0.207 OA
ATOM     14  O   UNL A   1      31.643  26.622  26.753  1.00  0.00    -0.207 OA
BRANCH  12  15
ATOM     15  C   UNL A   1      32.696  24.510  25.693  1.00  0.00     0.084 A 
ATOM     16  C   UNL A   1      37.441  22.581  25.563  1.00  0.00     0.154 C 
ATOM     17  N   UNL A   1      36.114  22.016  25.356  1.00  0.00    -0.305 N 
ATOM     18  C   UNL A   1      36.022  20.663  25.045  1.00  0.00     0.316 A 
ATOM     19  C   UNL A   1      34.960  22.835  25.464  1.00  0.00     0.068 A 
ATOM     20  O   UNL A   1      37.000  19.932  24.914  1.00  0.00    -0.263 OA
ATOM     21  C   UNL A   1      34.620  20.065  24.868  1.00  0.00     0.316 A 
ATOM     22  C   UNL A   1      33.675  22.309  25.239  1.00  0.00     0.069 A 
ATOM     23  C   UNL A   1      35.088  24.182  25.814  1.00  0.00     0.030 A 
ATOM     24  O   UNL A   1      34.525  18.859  24.657  1.00  0.00    -0.263 OA
ATOM     25  N   UNL A   1      33.524  20.924  24.957  1.00  0.00    -0.305 N 
ATOM     26  C   UNL A   1      32.552  23.164  25.333  1.00  0.00     0.050 A 
ATOM     27  C   UNL A   1      33.971  25.001  25.946  1.00  0.00     0.024 A 
ATOM     28  C   UNL A   1      32.198  20.345  24.802  1.00  0.00     0.154 C 
ENDBRANCH  12  15
ENDBRANCH   8  12
ENDBRANCH   4   7
ENDBRANCH   2   3
ENDBRANCH   1   2
BRANCH   1  29
ATOM     29  C   UNL A   1      31.795  31.537  27.070  1.00  0.00     0.023 C 
BRANCH  29  30
ATOM     30  C   UNL A   1      32.976  32.476  27.259  1.00  0.00     0.116 C 
BRANCH  30  31
ATOM     31  N   UNL A   1      32.597  33.818  27.680  1.00  0.00    -0.352 N 
ATOM     32  C   UNL A   1      33.203  34.618  28.623  1.00  0.00     0.251 C 
ATOM     33  H   UNL A   1      31.808  34.201  27.235  1.00  0.00     0.163 HD
ATOM     34  O   UNL A   1      32.707  35.693  28.939  1.00  0.00    -0.269 OA
BRANCH  32  35
ATOM     35  C   UNL A   1      34.435  34.136  29.285  1.00  0.00     0.039 A 
ATOM     36  C   UNL A   1      35.686  34.428  28.740  1.00  0.00     0.014 A 
ATOM     37  C   UNL A   1      34.332  33.327  30.420  1.00  0.00     0.014 A 
ATOM     38  C   UNL A   1      36.809  33.763  29.213  1.00  0.00     0.010 A 
ATOM     39  C   UNL A   1      35.480  32.737  30.956  1.00  0.00     0.010 A 
ATOM     40  C   UNL A   1      36.721  32.908  30.324  1.00  0.00    -0.014 A 
BRANCH  40  41
ATOM     41  C   UNL A   1      37.952  32.224  30.798  1.00  0.00     0.031 A 
ATOM     42  C   UNL A   1      38.447  30.965  30.139  1.00  0.00     0.074 A 
ATOM     43  C   UNL A   1      38.680  32.807  31.772  1.00  0.00     0.049 A 
ATOM     44  N   UNL A   1      39.553  30.301  30.367  1.00  0.00    -0.248 NA
ATOM     45  C   UNL A   1      37.604  30.371  29.087  1.00  0.00     0.031 C 
ATOM     46  C   UNL A   1      38.314  34.043  32.470  1.00  0.00     0.029 A 
ATOM     47  N   UNL A   1      39.900  32.476  32.304  1.00  0.00    -0.354 N 
ATOM     48  C   UNL A   1      39.531  29.212  29.506  1.00  0.00     0.074 A 
ATOM     49  C   UNL A   1      38.293  29.285  28.763  1.00  0.00     0.031 C 
ATOM     50  C   UNL A   1      39.326  34.413  33.266  1.00  0.00     0.029 A 
ATOM     51  C   UNL A   1      40.380  33.407  33.194  1.00  0.00     0.049 A 
ATOM     52  H   UNL A   1      40.385  31.650  32.072  1.00  0.00     0.167 HD
ATOM     53  C   UNL A   1      40.465  28.246  29.343  1.00  0.00     0.031 A 
ATOM     54  C   UNL A   1      41.539  33.453  33.876  1.00  0.00     0.031 A 
ATOM     55  C   UNL A   1      41.706  28.183  30.069  1.00  0.00     0.049 A 
ATOM     56  C   UNL A   1      42.531  32.341  33.706  1.00  0.00     0.074 A 
ATOM     57  C   UNL A   1      42.717  27.242  29.959  1.00  0.00     0.029 A 
ATOM     58  N   UNL A   1      42.111  29.096  31.028  1.00  0.00    -0.354 N 
ATOM     59  N   UNL A   1      42.490  31.318  32.888  1.00  0.00    -0.248 NA
ATOM     60  C   UNL A   1      43.727  32.385  34.560  1.00  0.00     0.031 C 
ATOM     61  C   UNL A   1      43.710  27.557  30.888  1.00  0.00     0.029 A 
ATOM     62  C   UNL A   1      43.346  28.728  31.534  1.00  0.00     0.049 A 
ATOM     63  H   UNL A   1      41.598  29.888  31.308  1.00  0.00     0.167 HD
ATOM     64  C   UNL A   1      43.657  30.603  33.119  1.00  0.00     0.074 A 
ATOM     65  C   UNL A   1      44.398  31.323  34.135  1.00  0.00     0.031 C 
ATOM     66  C   UNL A   1      44.073  29.450  32.544  1.00  0.00     0.031 A 
BRANCH  53  67
ATOM     67  C   UNL A   1      40.200  27.157  28.340  1.00  0.00    -0.014 A 
ATOM     68  C   UNL A   1      39.509  26.000  28.736  1.00  0.00     0.009 A 
ATOM     69  C   UNL A   1      40.744  27.215  27.048  1.00  0.00     0.009 A 
ATOM     70  C   UNL A   1      39.388  24.914  27.867  1.00  0.00     0.001 A 
ATOM     71  C   UNL A   1      40.602  26.135  26.173  1.00  0.00     0.001 A 
ATOM     72  C   UNL A   1      39.933  24.983  26.586  1.00  0.00     0.000 A 
ENDBRANCH  53  67
BRANCH  54  73
ATOM     73  C   UNL A   1      41.824  34.604  34.773  1.00  0.00    -0.014 A 
ATOM     74  C   UNL A   1      41.450  34.570  36.125  1.00  0.00     0.009 A 
ATOM     75  C   UNL A   1      42.455  35.753  34.273  1.00  0.00     0.009 A 
ATOM     76  C   UNL A   1      41.681  35.670  36.954  1.00  0.00     0.001 A 
ATOM     77  C   UNL A   1      42.714  36.839  35.112  1.00  0.00     0.001 A 
ATOM     78  C   UNL A   1      42.320  36.800  36.448  1.00  0.00     0.000 A 
ENDBRANCH  54  73
BRANCH  66  79
ATOM     79  C   UNL A   1      45.395  28.890  32.984  1.00  0.00    -0.014 A 
ATOM     80  C   UNL A   1      46.560  29.204  32.265  1.00  0.00     0.009 A 
ATOM     81  C   UNL A   1      45.477  27.988  34.055  1.00  0.00     0.009 A 
ATOM     82  C   UNL A   1      47.779  28.620  32.604  1.00  0.00     0.001 A 
ATOM     83  C   UNL A   1      46.705  27.426  34.410  1.00  0.00     0.001 A 
ATOM     84  C   UNL A   1      47.852  27.736  33.680  1.00  0.00     0.000 A 
ENDBRANCH  66  79
ENDBRANCH  40  41
ENDBRANCH  32  35
ENDBRANCH  30  31
ENDBRANCH  29  30
ENDBRANCH   1  29
TORSDOF 13
ENDMDL
