MODEL 1
REMARK VINA RESULT:     -12.9      0.000      0.000
REMARK SMILES Cc1c(CCC(=O)N[C@@H](C)C(=O)NCCCCNC(=O)c2ccc(-c3c4nc(c(-c5ccccc5)c5ccc([nH]5)c(-c5ccccc5)c5nc(c(-c6ccccc6)c6ccc3[nH]6)C=C5)C=C4)cc2)c(=O)oc2cc3oc4c(c3cc12)CCCC4
REMARK SMILES IDX 14 1 13 2 11 3 12 4 9 6 10 7 8 8 6 9 7 10 5 12 4 13 3 14
REMARK SMILES IDX 1 15 2 16 80 17 69 18 72 19 79 20 70 21 71 22 73 23 78 24
REMARK SMILES IDX 74 25 77 26 75 27 76 28 81 29 84 30 82 31 83 32 15 33 16 34
REMARK SMILES IDX 17 35 18 36 19 37 20 39 21 40 22 41 68 42 23 43 67 44 24 45
REMARK SMILES IDX 25 46 26 47 61 48 27 49 66 50 60 51 62 52 28 53 65 54 59 55
REMARK SMILES IDX 58 56 29 58 51 59 36 60 50 61 37 62 40 63 49 64 63 65 38 66
REMARK SMILES IDX 39 67 48 69 64 70 41 71 30 72 31 73 35 74 32 75 34 76 33 77
REMARK SMILES IDX 52 78 53 79 57 80 54 81 56 82 55 83 42 84 43 85 47 86 44 87
REMARK SMILES IDX 46 88 45 89
REMARK H PARENT 13 5 8 11 18 38 62 57 40 68
REMARK Flexibility Score: inf
ROOT
ATOM      1  C   UNL A   1      35.861  21.254  24.776  1.00  0.00     0.116 C 
ENDROOT
BRANCH   1   2
ATOM      2  N   UNL A   1      34.676  20.491  25.142  1.00  0.00    -0.354 N 
ATOM      3  C   UNL A   1      33.418  20.784  25.577  1.00  0.00     0.242 C 
ATOM      4  O   UNL A   1      32.674  19.811  25.754  1.00  0.00    -0.273 OA
ATOM      5  H   UNL A   1      34.819  19.521  25.053  1.00  0.00     0.163 HD
BRANCH   3   6
ATOM      6  C   UNL A   1      32.878  22.213  25.844  1.00  0.00     0.168 C 
ATOM      7  C   UNL A   1      32.620  22.514  27.288  1.00  0.00     0.041 C 
BRANCH   6   8
ATOM      8  N   UNL A   1      31.620  22.507  25.154  1.00  0.00    -0.345 N 
ATOM      9  C   UNL A   1      31.511  23.340  24.065  1.00  0.00     0.220 C 
ATOM     10  O   UNL A   1      30.542  24.096  23.991  1.00  0.00    -0.275 OA
ATOM     11  H   UNL A   1      30.799  22.080  25.491  1.00  0.00     0.164 HD
BRANCH   9  12
ATOM     12  C   UNL A   1      32.560  23.270  22.957  1.00  0.00     0.105 C 
BRANCH  12  13
ATOM     13  C   UNL A   1      33.787  24.198  23.102  1.00  0.00     0.053 C 
BRANCH  13  14
ATOM     14  C   UNL A   1      33.459  25.641  23.446  1.00  0.00     0.042 A 
ATOM     15  C   UNL A   1      32.599  26.240  21.134  1.00  0.00     0.046 C 
ATOM     16  C   UNL A   1      32.835  26.486  22.601  1.00  0.00    -0.030 A 
ATOM     17  C   UNL A   1      32.143  27.618  23.223  1.00  0.00     0.022 A 
ATOM     18  C   UNL A   1      33.864  26.124  24.806  1.00  0.00     0.339 A 
ATOM     19  C   UNL A   1      32.603  28.141  24.428  1.00  0.00     0.142 A 
ATOM     20  C   UNL A   1      30.907  28.045  22.729  1.00  0.00     0.024 A 
ATOM     21  O   UNL A   1      34.447  25.388  25.594  1.00  0.00    -0.246 OA
ATOM     22  O   UNL A   1      33.631  27.465  25.109  1.00  0.00    -0.422 OA
ATOM     23  C   UNL A   1      32.031  29.268  25.042  1.00  0.00     0.095 A 
ATOM     24  C   UNL A   1      30.220  29.049  23.410  1.00  0.00     0.025 A 
ATOM     25  C   UNL A   1      30.864  29.730  24.439  1.00  0.00     0.138 A 
ATOM     26  C   UNL A   1      28.972  29.669  23.239  1.00  0.00     0.001 A 
ATOM     27  O   UNL A   1      30.215  30.922  24.655  1.00  0.00    -0.461 OA
ATOM     28  C   UNL A   1      29.171  30.915  23.784  1.00  0.00     0.108 A 
ATOM     29  C   UNL A   1      27.902  29.454  22.245  1.00  0.00     0.040 C 
ATOM     30  C   UNL A   1      28.708  32.142  23.079  1.00  0.00     0.076 C 
ATOM     31  C   UNL A   1      28.054  30.490  21.125  1.00  0.00     0.005 C 
ATOM     32  C   UNL A   1      28.783  31.801  21.554  1.00  0.00     0.008 C 
ENDBRANCH  13  14
ENDBRANCH  12  13
ENDBRANCH   9  12
ENDBRANCH   6   8
ENDBRANCH   3   6
ENDBRANCH   1   2
BRANCH   1  33
ATOM     33  C   UNL A   1      36.169  22.367  25.780  1.00  0.00     0.023 C 
BRANCH  33  34
ATOM     34  C   UNL A   1      37.098  23.415  25.176  1.00  0.00     0.023 C 
BRANCH  34  35
ATOM     35  C   UNL A   1      38.408  23.543  25.971  1.00  0.00     0.116 C 
BRANCH  35  36
ATOM     36  N   UNL A   1      39.007  22.276  26.358  1.00  0.00    -0.352 N 
ATOM     37  C   UNL A   1      40.111  22.054  27.157  1.00  0.00     0.251 C 
ATOM     38  H   UNL A   1      38.568  21.470  26.003  1.00  0.00     0.163 HD
ATOM     39  O   UNL A   1      40.482  20.940  27.445  1.00  0.00    -0.269 OA
BRANCH  37  40
ATOM     40  C   UNL A   1      40.879  23.247  27.554  1.00  0.00     0.039 A 
ATOM     41  C   UNL A   1      40.316  24.175  28.432  1.00  0.00     0.014 A 
ATOM     42  C   UNL A   1      42.044  23.522  26.837  1.00  0.00     0.014 A 
ATOM     43  C   UNL A   1      40.825  25.463  28.456  1.00  0.00     0.010 A 
ATOM     44  C   UNL A   1      42.581  24.799  26.902  1.00  0.00     0.010 A 
ATOM     45  C   UNL A   1      41.933  25.782  27.662  1.00  0.00    -0.014 A 
BRANCH  45  46
ATOM     46  C   UNL A   1      42.426  27.159  27.745  1.00  0.00     0.031 A 
ATOM     47  C   UNL A   1      41.322  28.154  27.649  1.00  0.00     0.074 A 
ATOM     48  C   UNL A   1      43.520  27.500  28.455  1.00  0.00     0.049 A 
ATOM     49  N   UNL A   1      40.571  28.453  28.670  1.00  0.00    -0.248 NA
ATOM     50  C   UNL A   1      40.798  28.604  26.361  1.00  0.00     0.031 C 
ATOM     51  C   UNL A   1      43.985  26.804  29.662  1.00  0.00     0.029 A 
ATOM     52  N   UNL A   1      44.271  28.647  28.410  1.00  0.00    -0.354 N 
ATOM     53  C   UNL A   1      39.431  29.041  28.162  1.00  0.00     0.074 A 
ATOM     54  C   UNL A   1      39.626  29.141  26.731  1.00  0.00     0.031 C 
ATOM     55  C   UNL A   1      44.778  27.644  30.358  1.00  0.00     0.029 A 
ATOM     56  C   UNL A   1      45.016  28.845  29.568  1.00  0.00     0.049 A 
ATOM     57  H   UNL A   1      44.282  29.263  27.643  1.00  0.00     0.167 HD
ATOM     58  C   UNL A   1      38.361  29.369  28.932  1.00  0.00     0.031 A 
ATOM     59  C   UNL A   1      45.348  30.071  30.052  1.00  0.00     0.031 A 
ATOM     60  C   UNL A   1      38.485  29.102  30.332  1.00  0.00     0.049 A 
ATOM     61  C   UNL A   1      44.032  30.508  30.648  1.00  0.00     0.074 A 
ATOM     62  C   UNL A   1      38.099  28.110  31.208  1.00  0.00     0.029 A 
ATOM     63  N   UNL A   1      39.224  29.973  31.096  1.00  0.00    -0.354 N 
ATOM     64  N   UNL A   1      43.537  30.133  31.798  1.00  0.00    -0.248 NA
ATOM     65  C   UNL A   1      43.060  31.136  29.749  1.00  0.00     0.031 C 
ATOM     66  C   UNL A   1      38.986  28.217  32.325  1.00  0.00     0.029 A 
ATOM     67  C   UNL A   1      39.903  29.223  32.024  1.00  0.00     0.049 A 
ATOM     68  H   UNL A   1      39.260  30.951  30.996  1.00  0.00     0.167 HD
ATOM     69  C   UNL A   1      42.149  30.195  31.645  1.00  0.00     0.074 A 
ATOM     70  C   UNL A   1      41.926  30.872  30.384  1.00  0.00     0.031 C 
ATOM     71  C   UNL A   1      41.262  29.516  32.432  1.00  0.00     0.031 A 
BRANCH  58  72
ATOM     72  C   UNL A   1      37.167  30.047  28.398  1.00  0.00    -0.014 A 
ATOM     73  C   UNL A   1      36.065  29.335  27.912  1.00  0.00     0.009 A 
ATOM     74  C   UNL A   1      37.096  31.443  28.502  1.00  0.00     0.009 A 
ATOM     75  C   UNL A   1      34.901  30.018  27.553  1.00  0.00     0.001 A 
ATOM     76  C   UNL A   1      35.933  32.120  28.148  1.00  0.00     0.001 A 
ATOM     77  C   UNL A   1      34.833  31.407  27.679  1.00  0.00     0.000 A 
ENDBRANCH  58  72
BRANCH  59  78
ATOM     78  C   UNL A   1      46.159  30.891  29.093  1.00  0.00    -0.014 A 
ATOM     79  C   UNL A   1      46.070  32.278  28.919  1.00  0.00     0.009 A 
ATOM     80  C   UNL A   1      47.069  30.197  28.264  1.00  0.00     0.009 A 
ATOM     81  C   UNL A   1      46.743  32.918  27.867  1.00  0.00     0.001 A 
ATOM     82  C   UNL A   1      47.762  30.838  27.233  1.00  0.00     0.001 A 
ATOM     83  C   UNL A   1      47.574  32.196  27.015  1.00  0.00     0.000 A 
ENDBRANCH  59  78
BRANCH  71  84
ATOM     84  C   UNL A   1      41.826  28.827  33.635  1.00  0.00    -0.014 A 
ATOM     85  C   UNL A   1      42.520  27.612  33.507  1.00  0.00     0.009 A 
ATOM     86  C   UNL A   1      41.605  29.344  34.918  1.00  0.00     0.009 A 
ATOM     87  C   UNL A   1      42.928  26.900  34.636  1.00  0.00     0.001 A 
ATOM     88  C   UNL A   1      42.034  28.643  36.047  1.00  0.00     0.001 A 
ATOM     89  C   UNL A   1      42.679  27.414  35.906  1.00  0.00     0.000 A 
ENDBRANCH  71  84
ENDBRANCH  45  46
ENDBRANCH  37  40
ENDBRANCH  35  36
ENDBRANCH  34  35
ENDBRANCH  33  34
ENDBRANCH   1  33
TORSDOF 15
ENDMDL
MODEL 2
REMARK VINA RESULT:     -12.1      4.396      9.780
REMARK SMILES Cc1c(CCC(=O)N[C@@H](C)C(=O)NCCCCNC(=O)c2ccc(-c3c4nc(c(-c5ccccc5)c5ccc([nH]5)c(-c5ccccc5)c5nc(c(-c6ccccc6)c6ccc3[nH]6)C=C5)C=C4)cc2)c(=O)oc2cc3oc4c(c3cc12)CCCC4
REMARK SMILES IDX 14 1 13 2 11 3 12 4 9 6 10 7 8 8 6 9 7 10 5 12 4 13 3 14
REMARK SMILES IDX 1 15 2 16 80 17 69 18 72 19 79 20 70 21 71 22 73 23 78 24
REMARK SMILES IDX 74 25 77 26 75 27 76 28 81 29 84 30 82 31 83 32 15 33 16 34
REMARK SMILES IDX 17 35 18 36 19 37 20 39 21 40 22 41 68 42 23 43 67 44 24 45
REMARK SMILES IDX 25 46 26 47 61 48 27 49 66 50 60 51 62 52 28 53 65 54 59 55
REMARK SMILES IDX 58 56 29 58 51 59 36 60 50 61 37 62 40 63 49 64 63 65 38 66
REMARK SMILES IDX 39 67 48 69 64 70 41 71 30 72 31 73 35 74 32 75 34 76 33 77
REMARK SMILES IDX 52 78 53 79 57 80 54 81 56 82 55 83 42 84 43 85 47 86 44 87
REMARK SMILES IDX 46 88 45 89
REMARK H PARENT 13 5 8 11 18 38 62 57 40 68
REMARK Flexibility Score: inf
ROOT
ATOM      1  C   UNL A   1      45.338  31.559  26.775  1.00  0.00     0.116 C 
ENDROOT
BRANCH   1   2
ATOM      2  N   UNL A   1      46.080  30.715  25.849  1.00  0.00    -0.354 N 
ATOM      3  C   UNL A   1      46.057  29.399  25.490  1.00  0.00     0.242 C 
ATOM      4  O   UNL A   1      46.864  29.074  24.611  1.00  0.00    -0.273 OA
ATOM      5  H   UNL A   1      46.769  31.219  25.359  1.00  0.00     0.163 HD
BRANCH   3   6
ATOM      6  C   UNL A   1      45.108  28.329  26.088  1.00  0.00     0.168 C 
ATOM      7  C   UNL A   1      45.805  27.105  26.599  1.00  0.00     0.041 C 
BRANCH   6   8
ATOM      8  N   UNL A   1      44.102  27.839  25.144  1.00  0.00    -0.345 N 
ATOM      9  C   UNL A   1      43.053  27.019  25.488  1.00  0.00     0.220 C 
ATOM     10  O   UNL A   1      42.733  26.112  24.720  1.00  0.00    -0.275 OA
ATOM     11  H   UNL A   1      44.180  28.116  24.202  1.00  0.00     0.164 HD
BRANCH   9  12
ATOM     12  C   UNL A   1      42.284  27.283  26.781  1.00  0.00     0.105 C 
BRANCH  12  13
ATOM     13  C   UNL A   1      42.387  26.206  27.884  1.00  0.00     0.053 C 
BRANCH  13  14
ATOM     14  C   UNL A   1      41.519  24.979  27.662  1.00  0.00     0.042 A 
ATOM     15  C   UNL A   1      39.401  26.024  28.592  1.00  0.00     0.046 C 
ATOM     16  C   UNL A   1      40.188  24.959  27.875  1.00  0.00    -0.030 A 
ATOM     17  C   UNL A   1      39.440  23.929  27.150  1.00  0.00     0.022 A 
ATOM     18  C   UNL A   1      42.208  23.738  27.180  1.00  0.00     0.339 A 
ATOM     19  C   UNL A   1      40.053  22.726  26.814  1.00  0.00     0.142 A 
ATOM     20  C   UNL A   1      38.184  24.221  26.608  1.00  0.00     0.024 A 
ATOM     21  O   UNL A   1      43.419  23.716  26.990  1.00  0.00    -0.246 OA
ATOM     22  O   UNL A   1      41.434  22.586  27.038  1.00  0.00    -0.422 OA
ATOM     23  C   UNL A   1      39.374  21.669  26.183  1.00  0.00     0.095 A 
ATOM     24  C   UNL A   1      37.547  23.259  25.827  1.00  0.00     0.025 A 
ATOM     25  C   UNL A   1      38.080  21.975  25.770  1.00  0.00     0.138 A 
ATOM     26  C   UNL A   1      36.344  23.227  25.103  1.00  0.00     0.001 A 
ATOM     27  O   UNL A   1      37.101  21.108  25.345  1.00  0.00    -0.461 OA
ATOM     28  C   UNL A   1      36.015  21.893  25.116  1.00  0.00     0.108 A 
ATOM     29  C   UNL A   1      35.300  24.249  24.898  1.00  0.00     0.040 C 
ATOM     30  C   UNL A   1      34.627  21.449  25.424  1.00  0.00     0.076 C 
ATOM     31  C   UNL A   1      34.166  24.006  25.901  1.00  0.00     0.005 C 
ATOM     32  C   UNL A   1      34.049  22.530  26.397  1.00  0.00     0.008 C 
ENDBRANCH  13  14
ENDBRANCH  12  13
ENDBRANCH   9  12
ENDBRANCH   6   8
ENDBRANCH   3   6
ENDBRANCH   1   2
BRANCH   1  33
ATOM     33  C   UNL A   1      44.190  32.306  26.091  1.00  0.00     0.023 C 
BRANCH  33  34
ATOM     34  C   UNL A   1      44.605  33.722  25.705  1.00  0.00     0.023 C 
BRANCH  34  35
ATOM     35  C   UNL A   1      43.434  34.711  25.824  1.00  0.00     0.116 C 
BRANCH  35  36
ATOM     36  N   UNL A   1      43.827  36.083  26.100  1.00  0.00    -0.352 N 
ATOM     37  C   UNL A   1      44.237  36.636  27.297  1.00  0.00     0.251 C 
ATOM     38  H   UNL A   1      43.795  36.699  25.333  1.00  0.00     0.163 HD
ATOM     39  O   UNL A   1      44.587  37.791  27.385  1.00  0.00    -0.269 OA
BRANCH  37  40
ATOM     40  C   UNL A   1      44.125  35.775  28.487  1.00  0.00     0.039 A 
ATOM     41  C   UNL A   1      45.235  35.051  28.928  1.00  0.00     0.014 A 
ATOM     42  C   UNL A   1      42.841  35.528  28.975  1.00  0.00     0.014 A 
ATOM     43  C   UNL A   1      45.031  33.945  29.734  1.00  0.00     0.010 A 
ATOM     44  C   UNL A   1      42.648  34.448  29.823  1.00  0.00     0.010 A 
ATOM     45  C   UNL A   1      43.733  33.623  30.149  1.00  0.00    -0.014 A 
BRANCH  45  46
ATOM     46  C   UNL A   1      43.591  32.446  31.010  1.00  0.00     0.031 A 
ATOM     47  C   UNL A   1      42.957  32.782  32.315  1.00  0.00     0.074 A 
ATOM     48  C   UNL A   1      43.403  31.204  30.521  1.00  0.00     0.049 A 
ATOM     49  N   UNL A   1      41.669  32.924  32.441  1.00  0.00    -0.248 NA
ATOM     50  C   UNL A   1      43.734  33.295  33.441  1.00  0.00     0.031 C 
ATOM     51  C   UNL A   1      42.722  30.896  29.256  1.00  0.00     0.029 A 
ATOM     52  N   UNL A   1      43.537  29.988  31.142  1.00  0.00    -0.354 N 
ATOM     53  C   UNL A   1      41.462  33.629  33.609  1.00  0.00     0.074 A 
ATOM     54  C   UNL A   1      42.766  33.812  34.211  1.00  0.00     0.031 C 
ATOM     55  C   UNL A   1      42.301  29.616  29.300  1.00  0.00     0.029 A 
ATOM     56  C   UNL A   1      42.834  28.976  30.497  1.00  0.00     0.049 A 
ATOM     57  H   UNL A   1      44.073  29.846  31.955  1.00  0.00     0.167 HD
ATOM     58  C   UNL A   1      40.239  34.072  33.999  1.00  0.00     0.031 A 
ATOM     59  C   UNL A   1      42.303  27.899  31.134  1.00  0.00     0.031 A 
ATOM     60  C   UNL A   1      39.143  33.740  33.141  1.00  0.00     0.049 A 
ATOM     61  C   UNL A   1      41.095  28.523  31.790  1.00  0.00     0.074 A 
ATOM     62  C   UNL A   1      38.424  34.356  32.139  1.00  0.00     0.029 A 
ATOM     63  N   UNL A   1      38.633  32.466  33.205  1.00  0.00    -0.354 N 
ATOM     64  N   UNL A   1      39.956  28.805  31.213  1.00  0.00    -0.248 NA
ATOM     65  C   UNL A   1      41.293  29.181  33.084  1.00  0.00     0.031 C 
ATOM     66  C   UNL A   1      37.840  33.294  31.378  1.00  0.00     0.029 A 
ATOM     67  C   UNL A   1      38.301  32.097  31.925  1.00  0.00     0.049 A 
ATOM     68  H   UNL A   1      38.525  31.920  34.015  1.00  0.00     0.167 HD
ATOM     69  C   UNL A   1      39.443  29.900  31.914  1.00  0.00     0.074 A 
ATOM     70  C   UNL A   1      40.286  30.042  33.084  1.00  0.00     0.031 C 
ATOM     71  C   UNL A   1      38.505  30.757  31.412  1.00  0.00     0.031 A 
BRANCH  58  72
ATOM     72  C   UNL A   1      40.011  34.776  35.272  1.00  0.00    -0.014 A 
ATOM     73  C   UNL A   1      39.230  34.225  36.295  1.00  0.00     0.009 A 
ATOM     74  C   UNL A   1      40.702  35.974  35.501  1.00  0.00     0.009 A 
ATOM     75  C   UNL A   1      39.162  34.862  37.536  1.00  0.00     0.001 A 
ATOM     76  C   UNL A   1      40.635  36.603  36.741  1.00  0.00     0.001 A 
ATOM     77  C   UNL A   1      39.870  36.043  37.761  1.00  0.00     0.000 A 
ENDBRANCH  58  72
BRANCH  59  78
ATOM     78  C   UNL A   1      43.325  27.070  31.854  1.00  0.00    -0.014 A 
ATOM     79  C   UNL A   1      43.533  27.042  33.239  1.00  0.00     0.009 A 
ATOM     80  C   UNL A   1      44.179  26.272  31.061  1.00  0.00     0.009 A 
ATOM     81  C   UNL A   1      44.635  26.372  33.791  1.00  0.00     0.001 A 
ATOM     82  C   UNL A   1      45.262  25.580  31.611  1.00  0.00     0.001 A 
ATOM     83  C   UNL A   1      45.508  25.656  32.975  1.00  0.00     0.000 A 
ENDBRANCH  59  78
BRANCH  71  84
ATOM     84  C   UNL A   1      37.870  30.369  30.113  1.00  0.00    -0.014 A 
ATOM     85  C   UNL A   1      36.523  29.972  30.064  1.00  0.00     0.009 A 
ATOM     86  C   UNL A   1      38.630  30.323  28.938  1.00  0.00     0.009 A 
ATOM     87  C   UNL A   1      35.967  29.481  28.881  1.00  0.00     0.001 A 
ATOM     88  C   UNL A   1      38.066  29.854  27.749  1.00  0.00     0.001 A 
ATOM     89  C   UNL A   1      36.742  29.417  27.726  1.00  0.00     0.000 A 
ENDBRANCH  71  84
ENDBRANCH  45  46
ENDBRANCH  37  40
ENDBRANCH  35  36
ENDBRANCH  34  35
ENDBRANCH  33  34
ENDBRANCH   1  33
TORSDOF 15
ENDMDL
MODEL 3
REMARK VINA RESULT:     -11.6      6.306     12.031
REMARK SMILES Cc1c(CCC(=O)N[C@@H](C)C(=O)NCCCCNC(=O)c2ccc(-c3c4nc(c(-c5ccccc5)c5ccc([nH]5)c(-c5ccccc5)c5nc(c(-c6ccccc6)c6ccc3[nH]6)C=C5)C=C4)cc2)c(=O)oc2cc3oc4c(c3cc12)CCCC4
REMARK SMILES IDX 14 1 13 2 11 3 12 4 9 6 10 7 8 8 6 9 7 10 5 12 4 13 3 14
REMARK SMILES IDX 1 15 2 16 80 17 69 18 72 19 79 20 70 21 71 22 73 23 78 24
REMARK SMILES IDX 74 25 77 26 75 27 76 28 81 29 84 30 82 31 83 32 15 33 16 34
REMARK SMILES IDX 17 35 18 36 19 37 20 39 21 40 22 41 68 42 23 43 67 44 24 45
REMARK SMILES IDX 25 46 26 47 61 48 27 49 66 50 60 51 62 52 28 53 65 54 59 55
REMARK SMILES IDX 58 56 29 58 51 59 36 60 50 61 37 62 40 63 49 64 63 65 38 66
REMARK SMILES IDX 39 67 48 69 64 70 41 71 30 72 31 73 35 74 32 75 34 76 33 77
REMARK SMILES IDX 52 78 53 79 57 80 54 81 56 82 55 83 42 84 43 85 47 86 44 87
REMARK SMILES IDX 46 88 45 89
REMARK H PARENT 13 5 8 11 18 38 62 57 40 68
REMARK Flexibility Score: inf
ROOT
ATOM      1  C   UNL A   1      45.791  31.969  27.240  1.00  0.00     0.116 C 
ENDROOT
BRANCH   1   2
ATOM      2  N   UNL A   1      45.946  31.021  28.336  1.00  0.00    -0.354 N 
ATOM      3  C   UNL A   1      46.493  29.782  28.489  1.00  0.00     0.242 C 
ATOM      4  O   UNL A   1      46.441  29.315  29.634  1.00  0.00    -0.273 OA
ATOM      5  H   UNL A   1      45.559  31.361  29.175  1.00  0.00     0.163 HD
BRANCH   3   6
ATOM      6  C   UNL A   1      47.162  28.958  27.359  1.00  0.00     0.168 C 
ATOM      7  C   UNL A   1      48.506  29.468  26.939  1.00  0.00     0.041 C 
BRANCH   6   8
ATOM      8  N   UNL A   1      46.369  28.889  26.130  1.00  0.00    -0.345 N 
ATOM      9  C   UNL A   1      45.603  27.807  25.763  1.00  0.00     0.220 C 
ATOM     10  O   UNL A   1      45.585  27.467  24.581  1.00  0.00    -0.275 OA
ATOM     11  H   UNL A   1      46.385  29.667  25.527  1.00  0.00     0.164 HD
BRANCH   9  12
ATOM     12  C   UNL A   1      44.759  27.092  26.816  1.00  0.00     0.105 C 
BRANCH  12  13
ATOM     13  C   UNL A   1      45.373  25.827  27.457  1.00  0.00     0.053 C 
BRANCH  13  14
ATOM     14  C   UNL A   1      45.746  25.970  28.923  1.00  0.00     0.042 A 
ATOM     15  C   UNL A   1      43.393  26.509  29.708  1.00  0.00     0.046 C 
ATOM     16  C   UNL A   1      44.844  26.158  29.906  1.00  0.00    -0.030 A 
ATOM     17  C   UNL A   1      45.272  25.764  31.251  1.00  0.00     0.022 A 
ATOM     18  C   UNL A   1      47.203  25.895  29.262  1.00  0.00     0.339 A 
ATOM     19  C   UNL A   1      46.619  25.815  31.598  1.00  0.00     0.142 A 
ATOM     20  C   UNL A   1      44.374  25.140  32.122  1.00  0.00     0.024 A 
ATOM     21  O   UNL A   1      48.052  25.739  28.392  1.00  0.00    -0.246 OA
ATOM     22  O   UNL A   1      47.565  26.093  30.595  1.00  0.00    -0.422 OA
ATOM     23  C   UNL A   1      47.090  25.521  32.889  1.00  0.00     0.095 A 
ATOM     24  C   UNL A   1      44.840  24.674  33.351  1.00  0.00     0.025 A 
ATOM     25  C   UNL A   1      46.126  25.014  33.757  1.00  0.00     0.138 A 
ATOM     26  C   UNL A   1      44.253  23.975  34.417  1.00  0.00     0.001 A 
ATOM     27  O   UNL A   1      46.216  24.855  35.120  1.00  0.00    -0.461 OA
ATOM     28  C   UNL A   1      44.998  24.383  35.497  1.00  0.00     0.108 A 
ATOM     29  C   UNL A   1      42.886  23.455  34.610  1.00  0.00     0.040 C 
ATOM     30  C   UNL A   1      44.342  24.788  36.771  1.00  0.00     0.076 C 
ATOM     31  C   UNL A   1      42.085  24.467  35.438  1.00  0.00     0.005 C 
ATOM     32  C   UNL A   1      42.954  25.381  36.356  1.00  0.00     0.008 C 
ENDBRANCH  13  14
ENDBRANCH  12  13
ENDBRANCH   9  12
ENDBRANCH   6   8
ENDBRANCH   3   6
ENDBRANCH   1   2
BRANCH   1  33
ATOM     33  C   UNL A   1      44.819  33.100  27.582  1.00  0.00     0.023 C 
BRANCH  33  34
ATOM     34  C   UNL A   1      44.839  34.188  26.513  1.00  0.00     0.023 C 
BRANCH  34  35
ATOM     35  C   UNL A   1      43.419  34.591  26.083  1.00  0.00     0.116 C 
BRANCH  35  36
ATOM     36  N   UNL A   1      43.179  36.025  26.058  1.00  0.00    -0.352 N 
ATOM     37  C   UNL A   1      42.764  36.846  27.088  1.00  0.00     0.251 C 
ATOM     38  H   UNL A   1      43.330  36.468  25.193  1.00  0.00     0.163 HD
ATOM     39  O   UNL A   1      42.647  38.042  26.949  1.00  0.00    -0.269 OA
BRANCH  37  40
ATOM     40  C   UNL A   1      42.368  36.175  28.338  1.00  0.00     0.039 A 
ATOM     41  C   UNL A   1      43.307  35.988  29.355  1.00  0.00     0.014 A 
ATOM     42  C   UNL A   1      41.129  35.533  28.351  1.00  0.00     0.014 A 
ATOM     43  C   UNL A   1      43.076  35.006  30.303  1.00  0.00     0.010 A 
ATOM     44  C   UNL A   1      40.881  34.585  29.332  1.00  0.00     0.010 A 
ATOM     45  C   UNL A   1      41.880  34.280  30.267  1.00  0.00    -0.014 A 
BRANCH  45  46
ATOM     46  C   UNL A   1      41.696  33.264  31.306  1.00  0.00     0.031 A 
ATOM     47  C   UNL A   1      40.296  33.232  31.814  1.00  0.00     0.074 A 
ATOM     48  C   UNL A   1      42.402  32.116  31.336  1.00  0.00     0.049 A 
ATOM     49  N   UNL A   1      39.342  32.623  31.170  1.00  0.00    -0.248 NA
ATOM     50  C   UNL A   1      39.835  34.138  32.863  1.00  0.00     0.031 C 
ATOM     51  C   UNL A   1      42.933  31.428  30.152  1.00  0.00     0.029 A 
ATOM     52  N   UNL A   1      42.567  31.215  32.358  1.00  0.00    -0.354 N 
ATOM     53  C   UNL A   1      38.153  33.131  31.653  1.00  0.00     0.074 A 
ATOM     54  C   UNL A   1      38.504  34.044  32.721  1.00  0.00     0.031 C 
ATOM     55  C   UNL A   1      43.155  30.137  30.474  1.00  0.00     0.029 A 
ATOM     56  C   UNL A   1      42.958  29.959  31.908  1.00  0.00     0.049 A 
ATOM     57  H   UNL A   1      42.424  31.434  33.307  1.00  0.00     0.167 HD
ATOM     58  C   UNL A   1      36.944  32.819  31.122  1.00  0.00     0.031 A 
ATOM     59  C   UNL A   1      42.636  28.797  32.534  1.00  0.00     0.031 A 
ATOM     60  C   UNL A   1      36.953  31.891  30.032  1.00  0.00     0.049 A 
ATOM     61  C   UNL A   1      41.187  28.651  32.137  1.00  0.00     0.074 A 
ATOM     62  C   UNL A   1      36.913  31.951  28.656  1.00  0.00     0.029 A 
ATOM     63  N   UNL A   1      37.103  30.556  30.319  1.00  0.00    -0.354 N 
ATOM     64  N   UNL A   1      40.736  28.216  30.990  1.00  0.00    -0.248 NA
ATOM     65  C   UNL A   1      40.191  29.355  32.948  1.00  0.00     0.031 C 
ATOM     66  C   UNL A   1      37.477  30.717  28.201  1.00  0.00     0.029 A 
ATOM     67  C   UNL A   1      37.890  30.015  29.332  1.00  0.00     0.049 A 
ATOM     68  H   UNL A   1      36.719  30.076  31.087  1.00  0.00     0.167 HD
ATOM     69  C   UNL A   1      39.505  28.852  30.806  1.00  0.00     0.074 A 
ATOM     70  C   UNL A   1      39.206  29.493  32.071  1.00  0.00     0.031 C 
ATOM     71  C   UNL A   1      38.899  29.007  29.592  1.00  0.00     0.031 A 
BRANCH  58  72
ATOM     72  C   UNL A   1      35.672  33.318  31.673  1.00  0.00    -0.014 A 
ATOM     73  C   UNL A   1      35.180  32.885  32.910  1.00  0.00     0.009 A 
ATOM     74  C   UNL A   1      35.011  34.346  30.988  1.00  0.00     0.009 A 
ATOM     75  C   UNL A   1      34.047  33.493  33.457  1.00  0.00     0.001 A 
ATOM     76  C   UNL A   1      33.886  34.953  31.539  1.00  0.00     0.001 A 
ATOM     77  C   UNL A   1      33.408  34.530  32.776  1.00  0.00     0.000 A 
ENDBRANCH  58  72
BRANCH  59  78
ATOM     78  C   UNL A   1      43.140  28.721  33.945  1.00  0.00    -0.014 A 
ATOM     79  C   UNL A   1      42.425  29.084  35.094  1.00  0.00     0.009 A 
ATOM     80  C   UNL A   1      44.469  28.280  34.129  1.00  0.00     0.009 A 
ATOM     81  C   UNL A   1      43.054  29.147  36.346  1.00  0.00     0.001 A 
ATOM     82  C   UNL A   1      45.091  28.315  35.381  1.00  0.00     0.001 A 
ATOM     83  C   UNL A   1      44.390  28.780  36.486  1.00  0.00     0.000 A 
ENDBRANCH  59  78
BRANCH  71  84
ATOM     84  C   UNL A   1      39.514  28.278  28.439  1.00  0.00    -0.014 A 
ATOM     85  C   UNL A   1      39.318  26.896  28.277  1.00  0.00     0.009 A 
ATOM     86  C   UNL A   1      40.358  28.948  27.545  1.00  0.00     0.009 A 
ATOM     87  C   UNL A   1      39.998  26.190  27.283  1.00  0.00     0.001 A 
ATOM     88  C   UNL A   1      41.021  28.245  26.535  1.00  0.00     0.001 A 
ATOM     89  C   UNL A   1      40.854  26.865  26.417  1.00  0.00     0.000 A 
ENDBRANCH  71  84
ENDBRANCH  45  46
ENDBRANCH  37  40
ENDBRANCH  35  36
ENDBRANCH  34  35
ENDBRANCH  33  34
ENDBRANCH   1  33
TORSDOF 15
ENDMDL
