MODEL 1
REMARK VINA RESULT:     -11.9      0.000      0.000
REMARK SMILES COc1ccc(C(=O)Nc2ccccc2C(=O)N[C@@H](C(=O)NCCCCNC(=O)c2ccc(-c3c4nc(c(-c5ccccc5)c5ccc([nH]5)c(-c5ccccc5)c5nc(c(-c6ccccc6)c6ccc3[nH]6)C=C5)C=C4)cc2)C(C)C)cc1
REMARK SMILES IDX 23 1 22 2 20 3 21 4 19 6 18 7 16 8 17 9 15 11 10 12 11 13
REMARK SMILES IDX 12 14 14 15 13 16 9 17 7 18 8 19 6 21 3 22 4 23 82 24 5 25
REMARK SMILES IDX 81 26 2 27 1 28 78 29 79 30 80 31 24 32 25 33 26 34 27 35
REMARK SMILES IDX 28 36 29 38 30 39 31 40 77 41 32 42 76 43 33 44 34 45 35 46
REMARK SMILES IDX 70 47 36 48 75 49 69 50 71 51 37 52 74 53 68 54 67 55 38 57
REMARK SMILES IDX 60 58 45 59 59 60 46 61 49 62 58 63 72 64 47 65 48 66 57 68
REMARK SMILES IDX 73 69 50 70 39 71 40 72 44 73 41 74 43 75 42 76 61 77 62 78
REMARK SMILES IDX 66 79 63 80 65 81 64 82 51 83 52 84 56 85 53 86 55 87 54 88
REMARK H PARENT 22 5 18 10 9 20 27 37 71 56 49 67
REMARK Flexibility Score: inf
ROOT
ATOM      1  C   UNL A   1      36.753  22.625  25.638  1.00  0.00     0.116 C 
ENDROOT
BRANCH   1   2
ATOM      2  N   UNL A   1      35.676  22.024  26.377  1.00  0.00    -0.354 N 
ATOM      3  C   UNL A   1      34.356  22.337  26.365  1.00  0.00     0.242 C 
ATOM      4  O   UNL A   1      33.717  21.941  27.346  1.00  0.00    -0.273 OA
ATOM      5  H   UNL A   1      35.931  21.284  26.974  1.00  0.00     0.163 HD
BRANCH   3   6
ATOM      6  C   UNL A   1      33.698  23.142  25.185  1.00  0.00     0.174 C 
BRANCH   6   7
ATOM      7  N   UNL A   1      32.418  23.684  25.696  1.00  0.00    -0.340 N 
ATOM      8  C   UNL A   1      31.961  24.885  26.226  1.00  0.00     0.254 C 
ATOM      9  O   UNL A   1      30.931  24.780  26.905  1.00  0.00    -0.269 OA
ATOM     10  H   UNL A   1      31.697  23.014  25.648  1.00  0.00     0.164 HD
BRANCH   8  11
ATOM     11  C   UNL A   1      32.560  26.276  26.122  1.00  0.00     0.063 A 
ATOM     12  C   UNL A   1      33.524  26.736  25.216  1.00  0.00     0.054 A 
ATOM     13  C   UNL A   1      34.139  27.997  25.381  1.00  0.00     0.027 A 
ATOM     14  C   UNL A   1      33.636  28.916  26.295  1.00  0.00     0.002 A 
ATOM     15  C   UNL A   1      32.057  27.244  27.028  1.00  0.00     0.016 A 
ATOM     16  C   UNL A   1      32.556  28.556  27.084  1.00  0.00     0.001 A 
BRANCH  12  17
ATOM     17  N   UNL A   1      33.780  26.158  23.970  1.00  0.00    -0.321 N 
ATOM     18  C   UNL A   1      33.072  26.426  22.816  1.00  0.00     0.255 C 
ATOM     19  O   UNL A   1      33.527  26.064  21.734  1.00  0.00    -0.269 OA
ATOM     20  H   UNL A   1      34.521  25.513  23.910  1.00  0.00     0.170 HD
BRANCH  18  21
ATOM     21  C   UNL A   1      31.826  27.229  22.848  1.00  0.00     0.040 A 
ATOM     22  C   UNL A   1      29.422  28.639  22.834  1.00  0.00     0.118 A 
ATOM     23  C   UNL A   1      29.424  27.313  23.217  1.00  0.00     0.047 A 
ATOM     24  C   UNL A   1      30.624  29.290  22.527  1.00  0.00     0.047 A 
ATOM     25  C   UNL A   1      30.623  26.619  23.198  1.00  0.00     0.017 A 
ATOM     26  C   UNL A   1      31.832  28.583  22.525  1.00  0.00     0.017 A 
BRANCH  22  27
ATOM     27  O   UNL A   1      28.202  29.250  22.790  1.00  0.00    -0.497 OA
ATOM     28  C   UNL A   1      28.093  30.116  21.665  1.00  0.00     0.278 C 
ENDBRANCH  22  27
ENDBRANCH  18  21
ENDBRANCH  12  17
ENDBRANCH   8  11
ENDBRANCH   6   7
BRANCH   6  29
ATOM     29  C   UNL A   1      33.610  22.079  23.999  1.00  0.00     0.015 C 
ATOM     30  C   UNL A   1      33.079  20.659  24.183  1.00  0.00     0.010 C 
ATOM     31  C   UNL A   1      32.782  22.694  22.855  1.00  0.00     0.010 C 
ENDBRANCH   6  29
ENDBRANCH   3   6
ENDBRANCH   1   2
BRANCH   1  32
ATOM     32  C   UNL A   1      37.165  21.713  24.480  1.00  0.00     0.023 C 
BRANCH  32  33
ATOM     33  C   UNL A   1      37.771  20.382  24.933  1.00  0.00     0.023 C 
BRANCH  33  34
ATOM     34  C   UNL A   1      38.898  20.527  25.943  1.00  0.00     0.116 C 
BRANCH  34  35
ATOM     35  N   UNL A   1      39.931  19.517  25.792  1.00  0.00    -0.352 N 
ATOM     36  C   UNL A   1      41.284  19.650  26.026  1.00  0.00     0.251 C 
ATOM     37  H   UNL A   1      39.630  18.631  25.486  1.00  0.00     0.163 HD
ATOM     38  O   UNL A   1      42.062  18.764  25.742  1.00  0.00    -0.269 OA
BRANCH  36  39
ATOM     39  C   UNL A   1      41.769  20.929  26.594  1.00  0.00     0.039 A 
ATOM     40  C   UNL A   1      42.234  21.915  25.723  1.00  0.00     0.014 A 
ATOM     41  C   UNL A   1      41.695  21.169  27.968  1.00  0.00     0.014 A 
ATOM     42  C   UNL A   1      42.571  23.171  26.232  1.00  0.00     0.010 A 
ATOM     43  C   UNL A   1      41.948  22.445  28.458  1.00  0.00     0.010 A 
ATOM     44  C   UNL A   1      42.397  23.458  27.596  1.00  0.00    -0.014 A 
BRANCH  44  45
ATOM     45  C   UNL A   1      42.689  24.809  28.137  1.00  0.00     0.031 A 
ATOM     46  C   UNL A   1      44.097  25.181  28.517  1.00  0.00     0.074 A 
ATOM     47  C   UNL A   1      41.684  25.689  28.319  1.00  0.00     0.049 A 
ATOM     48  N   UNL A   1      44.547  26.307  29.011  1.00  0.00    -0.248 NA
ATOM     49  C   UNL A   1      45.131  24.149  28.340  1.00  0.00     0.031 C 
ATOM     50  C   UNL A   1      40.269  25.438  28.033  1.00  0.00     0.029 A 
ATOM     51  N   UNL A   1      41.702  26.980  28.784  1.00  0.00    -0.354 N 
ATOM     52  C   UNL A   1      45.909  26.114  29.207  1.00  0.00     0.074 A 
ATOM     53  C   UNL A   1      46.201  24.746  28.844  1.00  0.00     0.031 C 
ATOM     54  C   UNL A   1      39.564  26.552  28.287  1.00  0.00     0.029 A 
ATOM     55  C   UNL A   1      40.467  27.582  28.790  1.00  0.00     0.049 A 
ATOM     56  H   UNL A   1      42.523  27.433  29.085  1.00  0.00     0.167 HD
ATOM     57  C   UNL A   1      46.842  27.003  29.624  1.00  0.00     0.031 A 
ATOM     58  C   UNL A   1      40.104  28.826  29.157  1.00  0.00     0.031 A 
ATOM     59  C   UNL A   1      46.557  28.367  29.981  1.00  0.00     0.049 A 
ATOM     60  C   UNL A   1      41.158  29.786  29.636  1.00  0.00     0.074 A 
ATOM     61  C   UNL A   1      47.438  29.354  30.386  1.00  0.00     0.029 A 
ATOM     62  N   UNL A   1      45.293  28.935  29.973  1.00  0.00    -0.354 N 
ATOM     63  N   UNL A   1      42.452  29.604  29.754  1.00  0.00    -0.248 NA
ATOM     64  C   UNL A   1      40.702  31.130  30.011  1.00  0.00     0.031 C 
ATOM     65  C   UNL A   1      46.701  30.509  30.666  1.00  0.00     0.029 A 
ATOM     66  C   UNL A   1      45.369  30.258  30.375  1.00  0.00     0.049 A 
ATOM     67  H   UNL A   1      44.465  28.469  29.719  1.00  0.00     0.167 HD
ATOM     68  C   UNL A   1      42.967  30.824  30.176  1.00  0.00     0.074 A 
ATOM     69  C   UNL A   1      41.848  31.739  30.275  1.00  0.00     0.031 C 
ATOM     70  C   UNL A   1      44.250  31.158  30.455  1.00  0.00     0.031 A 
BRANCH  57  71
ATOM     71  C   UNL A   1      48.266  26.526  29.703  1.00  0.00    -0.014 A 
ATOM     72  C   UNL A   1      48.761  25.914  30.866  1.00  0.00     0.009 A 
ATOM     73  C   UNL A   1      49.112  26.652  28.590  1.00  0.00     0.009 A 
ATOM     74  C   UNL A   1      50.081  25.464  30.924  1.00  0.00     0.001 A 
ATOM     75  C   UNL A   1      50.423  26.172  28.640  1.00  0.00     0.001 A 
ATOM     76  C   UNL A   1      50.909  25.588  29.808  1.00  0.00     0.000 A 
ENDBRANCH  57  71
BRANCH  58  77
ATOM     77  C   UNL A   1      38.682  29.257  29.065  1.00  0.00    -0.014 A 
ATOM     78  C   UNL A   1      37.834  29.158  30.180  1.00  0.00     0.009 A 
ATOM     79  C   UNL A   1      38.153  29.726  27.853  1.00  0.00     0.009 A 
ATOM     80  C   UNL A   1      36.478  29.474  30.071  1.00  0.00     0.001 A 
ATOM     81  C   UNL A   1      36.804  30.075  27.756  1.00  0.00     0.001 A 
ATOM     82  C   UNL A   1      35.965  29.934  28.860  1.00  0.00     0.000 A 
ENDBRANCH  58  77
BRANCH  70  83
ATOM     83  C   UNL A   1      44.519  32.590  30.829  1.00  0.00    -0.014 A 
ATOM     84  C   UNL A   1      44.769  33.572  29.857  1.00  0.00     0.009 A 
ATOM     85  C   UNL A   1      44.508  32.962  32.184  1.00  0.00     0.009 A 
ATOM     86  C   UNL A   1      45.051  34.886  30.238  1.00  0.00     0.001 A 
ATOM     87  C   UNL A   1      44.754  34.283  32.558  1.00  0.00     0.001 A 
ATOM     88  C   UNL A   1      45.040  35.240  31.587  1.00  0.00     0.000 A 
ENDBRANCH  70  83
ENDBRANCH  44  45
ENDBRANCH  36  39
ENDBRANCH  34  35
ENDBRANCH  33  34
ENDBRANCH  32  33
ENDBRANCH   1  32
TORSDOF 17
ENDMDL
MODEL 2
REMARK VINA RESULT:     -11.5      0.426      5.637
REMARK SMILES COc1ccc(C(=O)Nc2ccccc2C(=O)N[C@@H](C(=O)NCCCCNC(=O)c2ccc(-c3c4nc(c(-c5ccccc5)c5ccc([nH]5)c(-c5ccccc5)c5nc(c(-c6ccccc6)c6ccc3[nH]6)C=C5)C=C4)cc2)C(C)C)cc1
REMARK SMILES IDX 23 1 22 2 20 3 21 4 19 6 18 7 16 8 17 9 15 11 10 12 11 13
REMARK SMILES IDX 12 14 14 15 13 16 9 17 7 18 8 19 6 21 3 22 4 23 82 24 5 25
REMARK SMILES IDX 81 26 2 27 1 28 78 29 79 30 80 31 24 32 25 33 26 34 27 35
REMARK SMILES IDX 28 36 29 38 30 39 31 40 77 41 32 42 76 43 33 44 34 45 35 46
REMARK SMILES IDX 70 47 36 48 75 49 69 50 71 51 37 52 74 53 68 54 67 55 38 57
REMARK SMILES IDX 60 58 45 59 59 60 46 61 49 62 58 63 72 64 47 65 48 66 57 68
REMARK SMILES IDX 73 69 50 70 39 71 40 72 44 73 41 74 43 75 42 76 61 77 62 78
REMARK SMILES IDX 66 79 63 80 65 81 64 82 51 83 52 84 56 85 53 86 55 87 54 88
REMARK H PARENT 22 5 18 10 9 20 27 37 71 56 49 67
REMARK Flexibility Score: inf
ROOT
ATOM      1  C   UNL A   1      36.510  22.644  25.739  1.00  0.00     0.116 C 
ENDROOT
BRANCH   1   2
ATOM      2  N   UNL A   1      35.392  22.105  26.465  1.00  0.00    -0.354 N 
ATOM      3  C   UNL A   1      34.081  22.449  26.389  1.00  0.00     0.242 C 
ATOM      4  O   UNL A   1      33.398  22.116  27.363  1.00  0.00    -0.273 OA
ATOM      5  H   UNL A   1      35.606  21.390  27.106  1.00  0.00     0.163 HD
BRANCH   3   6
ATOM      6  C   UNL A   1      33.487  23.211  25.148  1.00  0.00     0.174 C 
BRANCH   6   7
ATOM      7  N   UNL A   1      32.176  23.757  25.568  1.00  0.00    -0.340 N 
ATOM      8  C   UNL A   1      31.694  24.945  26.105  1.00  0.00     0.254 C 
ATOM      9  O   UNL A   1      30.607  24.834  26.685  1.00  0.00    -0.269 OA
ATOM     10  H   UNL A   1      31.452  23.104  25.428  1.00  0.00     0.164 HD
BRANCH   8  11
ATOM     11  C   UNL A   1      32.322  26.327  26.111  1.00  0.00     0.063 A 
ATOM     12  C   UNL A   1      33.395  26.792  25.339  1.00  0.00     0.054 A 
ATOM     13  C   UNL A   1      34.005  28.037  25.611  1.00  0.00     0.027 A 
ATOM     14  C   UNL A   1      33.411  28.941  26.484  1.00  0.00     0.002 A 
ATOM     15  C   UNL A   1      31.731  27.280  26.977  1.00  0.00     0.016 A 
ATOM     16  C   UNL A   1      32.239  28.581  27.129  1.00  0.00     0.001 A 
BRANCH  12  17
ATOM     17  N   UNL A   1      33.789  26.242  24.117  1.00  0.00    -0.321 N 
ATOM     18  C   UNL A   1      33.226  26.551  22.894  1.00  0.00     0.255 C 
ATOM     19  O   UNL A   1      33.801  26.209  21.865  1.00  0.00    -0.269 OA
ATOM     20  H   UNL A   1      34.523  25.585  24.127  1.00  0.00     0.170 HD
BRANCH  18  21
ATOM     21  C   UNL A   1      31.996  27.375  22.801  1.00  0.00     0.040 A 
ATOM     22  C   UNL A   1      29.626  28.819  22.553  1.00  0.00     0.118 A 
ATOM     23  C   UNL A   1      29.579  27.521  23.018  1.00  0.00     0.047 A 
ATOM     24  C   UNL A   1      30.857  29.429  22.279  1.00  0.00     0.047 A 
ATOM     25  C   UNL A   1      30.763  26.807  23.116  1.00  0.00     0.017 A 
ATOM     26  C   UNL A   1      32.049  28.705  22.395  1.00  0.00     0.017 A 
BRANCH  22  27
ATOM     27  O   UNL A   1      28.423  29.445  22.398  1.00  0.00    -0.497 OA
ATOM     28  C   UNL A   1      28.177  30.369  23.455  1.00  0.00     0.278 C 
ENDBRANCH  22  27
ENDBRANCH  18  21
ENDBRANCH  12  17
ENDBRANCH   8  11
ENDBRANCH   6   7
BRANCH   6  29
ATOM     29  C   UNL A   1      33.475  22.110  23.993  1.00  0.00     0.015 C 
ATOM     30  C   UNL A   1      32.668  20.817  24.076  1.00  0.00     0.010 C 
ATOM     31  C   UNL A   1      33.050  22.790  22.678  1.00  0.00     0.010 C 
ENDBRANCH   6  29
ENDBRANCH   3   6
ENDBRANCH   1   2
BRANCH   1  32
ATOM     32  C   UNL A   1      36.857  21.730  24.562  1.00  0.00     0.023 C 
BRANCH  32  33
ATOM     33  C   UNL A   1      37.651  20.485  24.966  1.00  0.00     0.023 C 
BRANCH  33  34
ATOM     34  C   UNL A   1      38.929  20.786  25.733  1.00  0.00     0.116 C 
BRANCH  34  35
ATOM     35  N   UNL A   1      39.870  19.679  25.728  1.00  0.00    -0.352 N 
ATOM     36  C   UNL A   1      41.205  19.703  26.077  1.00  0.00     0.251 C 
ATOM     37  H   UNL A   1      39.512  18.807  25.442  1.00  0.00     0.163 HD
ATOM     38  O   UNL A   1      41.916  18.734  25.910  1.00  0.00    -0.269 OA
BRANCH  36  39
ATOM     39  C   UNL A   1      41.759  20.964  26.618  1.00  0.00     0.039 A 
ATOM     40  C   UNL A   1      42.200  21.941  25.725  1.00  0.00     0.014 A 
ATOM     41  C   UNL A   1      41.775  21.199  27.996  1.00  0.00     0.014 A 
ATOM     42  C   UNL A   1      42.604  23.184  26.217  1.00  0.00     0.010 A 
ATOM     43  C   UNL A   1      42.093  22.465  28.474  1.00  0.00     0.010 A 
ATOM     44  C   UNL A   1      42.519  23.468  27.591  1.00  0.00    -0.014 A 
BRANCH  44  45
ATOM     45  C   UNL A   1      42.883  24.808  28.118  1.00  0.00     0.031 A 
ATOM     46  C   UNL A   1      41.820  25.855  28.314  1.00  0.00     0.074 A 
ATOM     47  C   UNL A   1      44.172  25.094  28.389  1.00  0.00     0.049 A 
ATOM     48  N   UNL A   1      41.943  27.082  28.754  1.00  0.00    -0.248 NA
ATOM     49  C   UNL A   1      40.443  25.487  27.945  1.00  0.00     0.031 C 
ATOM     50  C   UNL A   1      45.304  24.182  28.202  1.00  0.00     0.029 A 
ATOM     51  N   UNL A   1      44.747  26.236  28.887  1.00  0.00    -0.354 N 
ATOM     52  C   UNL A   1      40.666  27.627  28.711  1.00  0.00     0.074 A 
ATOM     53  C   UNL A   1      39.795  26.626  28.139  1.00  0.00     0.031 C 
ATOM     54  C   UNL A   1      46.428  24.785  28.620  1.00  0.00     0.029 A 
ATOM     55  C   UNL A   1      46.106  26.136  29.068  1.00  0.00     0.049 A 
ATOM     56  H   UNL A   1      44.234  27.050  29.096  1.00  0.00     0.167 HD
ATOM     57  C   UNL A   1      40.245  28.842  29.136  1.00  0.00     0.031 A 
ATOM     58  C   UNL A   1      46.990  27.032  29.546  1.00  0.00     0.031 A 
ATOM     59  C   UNL A   1      41.106  29.841  29.711  1.00  0.00     0.049 A 
ATOM     60  C   UNL A   1      46.498  28.382  29.991  1.00  0.00     0.074 A 
ATOM     61  C   UNL A   1      40.771  31.091  30.200  1.00  0.00     0.029 A 
ATOM     62  N   UNL A   1      42.475  29.699  29.876  1.00  0.00    -0.354 N 
ATOM     63  N   UNL A   1      45.276  28.857  30.000  1.00  0.00    -0.248 NA
ATOM     64  C   UNL A   1      47.510  29.311  30.511  1.00  0.00     0.031 C 
ATOM     65  C   UNL A   1      41.945  31.724  30.621  1.00  0.00     0.029 A 
ATOM     66  C   UNL A   1      43.001  30.843  30.452  1.00  0.00     0.049 A 
ATOM     67  H   UNL A   1      42.996  28.903  29.623  1.00  0.00     0.167 HD
ATOM     68  C   UNL A   1      45.367  30.123  30.567  1.00  0.00     0.074 A 
ATOM     69  C   UNL A   1      46.761  30.331  30.903  1.00  0.00     0.031 C 
ATOM     70  C   UNL A   1      44.387  31.030  30.791  1.00  0.00     0.031 A 
BRANCH  57  71
ATOM     71  C   UNL A   1      38.779  29.154  29.004  1.00  0.00    -0.014 A 
ATOM     72  C   UNL A   1      37.913  29.029  30.102  1.00  0.00     0.009 A 
ATOM     73  C   UNL A   1      38.266  29.617  27.784  1.00  0.00     0.009 A 
ATOM     74  C   UNL A   1      36.556  29.333  29.972  1.00  0.00     0.001 A 
ATOM     75  C   UNL A   1      36.915  29.950  27.665  1.00  0.00     0.001 A 
ATOM     76  C   UNL A   1      36.060  29.799  28.755  1.00  0.00     0.000 A 
ENDBRANCH  57  71
BRANCH  58  77
ATOM     77  C   UNL A   1      48.433  26.685  29.657  1.00  0.00    -0.014 A 
ATOM     78  C   UNL A   1      48.933  26.082  30.823  1.00  0.00     0.009 A 
ATOM     79  C   UNL A   1      49.327  26.997  28.621  1.00  0.00     0.009 A 
ATOM     80  C   UNL A   1      50.302  25.841  30.966  1.00  0.00     0.001 A 
ATOM     81  C   UNL A   1      50.690  26.722  28.752  1.00  0.00     0.001 A 
ATOM     82  C   UNL A   1      51.178  26.160  29.930  1.00  0.00     0.000 A 
ENDBRANCH  58  77
BRANCH  70  83
ATOM     83  C   UNL A   1      44.777  32.303  31.491  1.00  0.00    -0.014 A 
ATOM     84  C   UNL A   1      45.173  33.445  30.777  1.00  0.00     0.009 A 
ATOM     85  C   UNL A   1      44.732  32.360  32.893  1.00  0.00     0.009 A 
ATOM     86  C   UNL A   1      45.564  34.601  31.456  1.00  0.00     0.001 A 
ATOM     87  C   UNL A   1      45.088  33.528  33.567  1.00  0.00     0.001 A 
ATOM     88  C   UNL A   1      45.518  34.642  32.849  1.00  0.00     0.000 A 
ENDBRANCH  70  83
ENDBRANCH  44  45
ENDBRANCH  36  39
ENDBRANCH  34  35
ENDBRANCH  33  34
ENDBRANCH  32  33
ENDBRANCH   1  32
TORSDOF 17
ENDMDL
MODEL 3
REMARK VINA RESULT:     -11.1      1.443      2.376
REMARK SMILES COc1ccc(C(=O)Nc2ccccc2C(=O)N[C@@H](C(=O)NCCCCNC(=O)c2ccc(-c3c4nc(c(-c5ccccc5)c5ccc([nH]5)c(-c5ccccc5)c5nc(c(-c6ccccc6)c6ccc3[nH]6)C=C5)C=C4)cc2)C(C)C)cc1
REMARK SMILES IDX 23 1 22 2 20 3 21 4 19 6 18 7 16 8 17 9 15 11 10 12 11 13
REMARK SMILES IDX 12 14 14 15 13 16 9 17 7 18 8 19 6 21 3 22 4 23 82 24 5 25
REMARK SMILES IDX 81 26 2 27 1 28 78 29 79 30 80 31 24 32 25 33 26 34 27 35
REMARK SMILES IDX 28 36 29 38 30 39 31 40 77 41 32 42 76 43 33 44 34 45 35 46
REMARK SMILES IDX 70 47 36 48 75 49 69 50 71 51 37 52 74 53 68 54 67 55 38 57
REMARK SMILES IDX 60 58 45 59 59 60 46 61 49 62 58 63 72 64 47 65 48 66 57 68
REMARK SMILES IDX 73 69 50 70 39 71 40 72 44 73 41 74 43 75 42 76 61 77 62 78
REMARK SMILES IDX 66 79 63 80 65 81 64 82 51 83 52 84 56 85 53 86 55 87 54 88
REMARK H PARENT 22 5 18 10 9 20 27 37 71 56 49 67
REMARK Flexibility Score: inf
ROOT
ATOM      1  C   UNL A   1      36.385  22.379  25.142  1.00  0.00     0.116 C 
ENDROOT
BRANCH   1   2
ATOM      2  N   UNL A   1      35.721  21.843  26.299  1.00  0.00    -0.354 N 
ATOM      3  C   UNL A   1      34.444  21.399  26.419  1.00  0.00     0.242 C 
ATOM      4  O   UNL A   1      34.016  21.351  27.577  1.00  0.00    -0.273 OA
ATOM      5  H   UNL A   1      36.266  21.792  27.117  1.00  0.00     0.163 HD
BRANCH   3   6
ATOM      6  C   UNL A   1      33.584  20.979  25.171  1.00  0.00     0.174 C 
BRANCH   6   7
ATOM      7  N   UNL A   1      32.258  21.619  25.330  1.00  0.00    -0.340 N 
ATOM      8  C   UNL A   1      31.682  22.851  25.041  1.00  0.00     0.254 C 
ATOM      9  O   UNL A   1      30.672  23.107  25.709  1.00  0.00    -0.269 OA
ATOM     10  H   UNL A   1      31.610  21.008  25.752  1.00  0.00     0.164 HD
BRANCH   8  11
ATOM     11  C   UNL A   1      32.132  23.922  24.064  1.00  0.00     0.063 A 
ATOM     12  C   UNL A   1      31.342  24.685  23.194  1.00  0.00     0.054 A 
ATOM     13  C   UNL A   1      31.929  25.490  22.192  1.00  0.00     0.027 A 
ATOM     14  C   UNL A   1      33.296  25.741  22.194  1.00  0.00     0.002 A 
ATOM     15  C   UNL A   1      33.518  24.216  24.053  1.00  0.00     0.016 A 
ATOM     16  C   UNL A   1      34.086  25.144  23.163  1.00  0.00     0.001 A 
BRANCH  12  17
ATOM     17  N   UNL A   1      29.980  24.937  23.375  1.00  0.00    -0.321 N 
ATOM     18  C   UNL A   1      29.463  26.006  24.079  1.00  0.00     0.255 C 
ATOM     19  O   UNL A   1      28.270  26.276  23.971  1.00  0.00    -0.269 OA
ATOM     20  H   UNL A   1      29.341  24.306  22.970  1.00  0.00     0.170 HD
BRANCH  18  21
ATOM     21  C   UNL A   1      30.339  26.893  24.882  1.00  0.00     0.040 A 
ATOM     22  C   UNL A   1      32.073  28.567  26.283  1.00  0.00     0.118 A 
ATOM     23  C   UNL A   1      31.644  28.940  25.025  1.00  0.00     0.047 A 
ATOM     24  C   UNL A   1      31.585  27.397  26.879  1.00  0.00     0.047 A 
ATOM     25  C   UNL A   1      30.800  28.088  24.331  1.00  0.00     0.017 A 
ATOM     26  C   UNL A   1      30.720  26.550  26.176  1.00  0.00     0.017 A 
BRANCH  22  27
ATOM     27  O   UNL A   1      32.968  29.403  26.884  1.00  0.00    -0.497 OA
ATOM     28  C   UNL A   1      34.307  29.081  26.518  1.00  0.00     0.278 C 
ENDBRANCH  22  27
ENDBRANCH  18  21
ENDBRANCH  12  17
ENDBRANCH   8  11
ENDBRANCH   6   7
BRANCH   6  29
ATOM     29  C   UNL A   1      33.625  19.385  25.198  1.00  0.00     0.015 C 
ATOM     30  C   UNL A   1      32.550  18.507  24.560  1.00  0.00     0.010 C 
ATOM     31  C   UNL A   1      34.963  18.922  24.591  1.00  0.00     0.010 C 
ENDBRANCH   6  29
ENDBRANCH   3   6
ENDBRANCH   1   2
BRANCH   1  32
ATOM     32  C   UNL A   1      37.901  22.242  25.300  1.00  0.00     0.023 C 
BRANCH  32  33
ATOM     33  C   UNL A   1      38.398  20.797  25.210  1.00  0.00     0.023 C 
BRANCH  33  34
ATOM     34  C   UNL A   1      39.265  20.365  26.382  1.00  0.00     0.116 C 
BRANCH  34  35
ATOM     35  N   UNL A   1      40.303  19.422  26.006  1.00  0.00    -0.352 N 
ATOM     36  C   UNL A   1      41.666  19.632  25.976  1.00  0.00     0.251 C 
ATOM     37  H   UNL A   1      39.998  18.524  25.740  1.00  0.00     0.163 HD
ATOM     38  O   UNL A   1      42.422  18.798  25.522  1.00  0.00    -0.269 OA
BRANCH  36  39
ATOM     39  C   UNL A   1      42.181  20.928  26.474  1.00  0.00     0.039 A 
ATOM     40  C   UNL A   1      42.481  21.929  25.549  1.00  0.00     0.014 A 
ATOM     41  C   UNL A   1      42.296  21.167  27.845  1.00  0.00     0.014 A 
ATOM     42  C   UNL A   1      42.842  23.197  26.009  1.00  0.00     0.010 A 
ATOM     43  C   UNL A   1      42.570  22.452  28.299  1.00  0.00     0.010 A 
ATOM     44  C   UNL A   1      42.854  23.479  27.386  1.00  0.00    -0.014 A 
BRANCH  44  45
ATOM     45  C   UNL A   1      43.172  24.841  27.885  1.00  0.00     0.031 A 
ATOM     46  C   UNL A   1      44.605  25.263  28.064  1.00  0.00     0.074 A 
ATOM     47  C   UNL A   1      42.172  25.686  28.208  1.00  0.00     0.049 A 
ATOM     48  N   UNL A   1      45.080  26.405  28.494  1.00  0.00    -0.248 NA
ATOM     49  C   UNL A   1      45.640  24.267  27.741  1.00  0.00     0.031 C 
ATOM     50  C   UNL A   1      40.741  25.384  28.122  1.00  0.00     0.029 A 
ATOM     51  N   UNL A   1      42.210  26.978  28.670  1.00  0.00    -0.354 N 
ATOM     52  C   UNL A   1      46.462  26.261  28.497  1.00  0.00     0.074 A 
ATOM     53  C   UNL A   1      46.748  24.903  28.092  1.00  0.00     0.031 C 
ATOM     54  C   UNL A   1      40.039  26.473  28.477  1.00  0.00     0.029 A 
ATOM     55  C   UNL A   1      40.967  27.535  28.851  1.00  0.00     0.049 A 
ATOM     56  H   UNL A   1      43.049  27.459  28.854  1.00  0.00     0.167 HD
ATOM     57  C   UNL A   1      47.413  27.182  28.781  1.00  0.00     0.031 A 
ATOM     58  C   UNL A   1      40.616  28.766  29.269  1.00  0.00     0.031 A 
ATOM     59  C   UNL A   1      47.133  28.536  29.179  1.00  0.00     0.049 A 
ATOM     60  C   UNL A   1      41.693  29.764  29.598  1.00  0.00     0.074 A 
ATOM     61  C   UNL A   1      48.027  29.554  29.459  1.00  0.00     0.029 A 
ATOM     62  N   UNL A   1      45.861  29.060  29.350  1.00  0.00    -0.354 N 
ATOM     63  N   UNL A   1      42.996  29.628  29.534  1.00  0.00    -0.248 NA
ATOM     64  C   UNL A   1      41.247  31.092  30.038  1.00  0.00     0.031 C 
ATOM     65  C   UNL A   1      47.296  30.683  29.844  1.00  0.00     0.029 A 
ATOM     66  C   UNL A   1      45.947  30.385  29.741  1.00  0.00     0.049 A 
ATOM     67  H   UNL A   1      45.022  28.564  29.213  1.00  0.00     0.167 HD
ATOM     68  C   UNL A   1      43.522  30.866  29.883  1.00  0.00     0.074 A 
ATOM     69  C   UNL A   1      42.397  31.742  30.140  1.00  0.00     0.031 C 
ATOM     70  C   UNL A   1      44.819  31.246  29.981  1.00  0.00     0.031 A 
BRANCH  57  71
ATOM     71  C   UNL A   1      48.850  26.756  28.658  1.00  0.00    -0.014 A 
ATOM     72  C   UNL A   1      49.552  26.253  29.765  1.00  0.00     0.009 A 
ATOM     73  C   UNL A   1      49.497  26.818  27.415  1.00  0.00     0.009 A 
ATOM     74  C   UNL A   1      50.883  25.848  29.637  1.00  0.00     0.001 A 
ATOM     75  C   UNL A   1      50.818  26.384  27.283  1.00  0.00     0.001 A 
ATOM     76  C   UNL A   1      51.512  25.909  28.394  1.00  0.00     0.000 A 
ENDBRANCH  57  71
BRANCH  58  77
ATOM     77  C   UNL A   1      39.181  29.148  29.379  1.00  0.00    -0.014 A 
ATOM     78  C   UNL A   1      38.460  28.877  30.553  1.00  0.00     0.009 A 
ATOM     79  C   UNL A   1      38.513  29.740  28.297  1.00  0.00     0.009 A 
ATOM     80  C   UNL A   1      37.092  29.149  30.624  1.00  0.00     0.001 A 
ATOM     81  C   UNL A   1      37.152  30.043  28.383  1.00  0.00     0.001 A 
ATOM     82  C   UNL A   1      36.440  29.733  29.540  1.00  0.00     0.000 A 
ENDBRANCH  58  77
BRANCH  70  83
ATOM     83  C   UNL A   1      45.088  32.687  30.318  1.00  0.00    -0.014 A 
ATOM     84  C   UNL A   1      45.194  33.669  29.321  1.00  0.00     0.009 A 
ATOM     85  C   UNL A   1      45.223  33.066  31.663  1.00  0.00     0.009 A 
ATOM     86  C   UNL A   1      45.479  34.993  29.663  1.00  0.00     0.001 A 
ATOM     87  C   UNL A   1      45.473  34.395  32.003  1.00  0.00     0.001 A 
ATOM     88  C   UNL A   1      45.615  35.354  31.003  1.00  0.00     0.000 A 
ENDBRANCH  70  83
ENDBRANCH  44  45
ENDBRANCH  36  39
ENDBRANCH  34  35
ENDBRANCH  33  34
ENDBRANCH  32  33
ENDBRANCH   1  32
TORSDOF 17
ENDMDL
