MODEL 1
REMARK VINA RESULT:     -12.8      0.000      0.000
REMARK SMILES CC1(C)[C@H](O)CC[C@@]2(C)[C@H]3Cc4c(oc(C(=O)NCCCCNC(=O)c5ccc(-c6c7nc(c(-c8ccccc8)c8ccc([nH]8)c(-c8ccccc8)c8nc(c(-c9ccccc9)c9ccc6[nH]9)C=C8)C=C7)cc5)cc4=O)O[C@@]3(C)CC[C@@H]12
REMARK SMILES IDX 21 1 20 2 19 3 18 4 16 5 17 6 15 8 1 9 2 10 3 11 4 12 82 13
REMARK SMILES IDX 6 14 8 15 81 16 7 17 9 18 10 19 80 20 78 21 11 22 79 23
REMARK SMILES IDX 77 24 12 25 13 26 75 27 14 28 74 29 76 30 5 31 22 33 23 34
REMARK SMILES IDX 24 35 25 37 26 38 27 39 73 40 28 41 72 42 29 43 30 44 31 45
REMARK SMILES IDX 66 46 32 47 71 48 65 49 67 50 33 51 70 52 64 53 63 54 34 56
REMARK SMILES IDX 56 57 41 58 55 59 42 60 45 61 54 62 68 63 43 64 44 65 53 67
REMARK SMILES IDX 69 68 46 69 35 70 36 71 40 72 37 73 39 74 38 75 57 76 58 77
REMARK SMILES IDX 62 78 59 79 61 80 60 81 47 82 48 83 52 84 49 85 51 86 50 87
REMARK H PARENT 18 7 5 32 23 36 67 55 45 66
REMARK Flexibility Score: inf
ROOT
ATOM      1  C   UNL A   1      33.976  28.276  25.792  1.00  0.00     0.023 C 
ENDROOT
BRANCH   1   2
ATOM      2  C   UNL A   1      33.296  29.141  24.730  1.00  0.00     0.023 C 
BRANCH   2   3
ATOM      3  C   UNL A   1      33.266  28.491  23.342  1.00  0.00     0.116 C 
BRANCH   3   4
ATOM      4  N   UNL A   1      31.989  28.730  22.691  1.00  0.00    -0.349 N 
ATOM      5  C   UNL A   1      30.817  28.029  22.692  1.00  0.00     0.287 C 
ATOM      6  O   UNL A   1      29.864  28.501  22.074  1.00  0.00    -0.266 OA
ATOM      7  H   UNL A   1      31.964  29.552  22.147  1.00  0.00     0.163 HD
BRANCH   5   8
ATOM      8  C   UNL A   1      30.658  26.750  23.459  1.00  0.00     0.199 A 
ATOM      9  C   UNL A   1      33.509  24.493  26.461  1.00  0.00     0.014 C 
ATOM     10  C   UNL A   1      34.674  23.731  25.795  1.00  0.00    -0.006 C 
ATOM     11  C   UNL A   1      35.459  24.860  25.093  1.00  0.00     0.014 C 
ATOM     12  C   UNL A   1      35.422  23.090  26.991  1.00  0.00     0.120 C 
ATOM     13  C   UNL A   1      34.401  22.485  24.834  1.00  0.00     0.004 C 
ATOM     14  C   UNL A   1      34.696  21.796  27.480  1.00  0.00     0.033 C 
ATOM     15  C   UNL A   1      33.226  21.573  25.295  1.00  0.00    -0.022 C 
ATOM     16  C   UNL A   1      34.487  22.630  23.315  1.00  0.00     0.009 C 
ATOM     17  C   UNL A   1      33.280  21.494  26.869  1.00  0.00     0.010 C 
ATOM     18  C   UNL A   1      33.537  20.092  24.879  1.00  0.00     0.012 C 
ATOM     19  C   UNL A   1      31.831  21.971  24.559  1.00  0.00     0.044 C 
ATOM     20  C   UNL A   1      33.251  23.218  22.705  1.00  0.00     0.049 C 
ATOM     21  C   UNL A   1      31.967  22.423  23.027  1.00  0.00     0.113 C 
ATOM     22  C   UNL A   1      30.838  22.898  25.317  1.00  0.00     0.055 C 
ATOM     23  C   UNL A   1      31.870  21.204  22.082  1.00  0.00     0.057 C 
ATOM     24  O   UNL A   1      30.856  23.245  22.560  1.00  0.00    -0.458 OA
ATOM     25  C   UNL A   1      30.619  24.221  24.664  1.00  0.00     0.081 A 
ATOM     26  C   UNL A   1      30.640  24.360  23.340  1.00  0.00     0.292 A 
ATOM     27  C   UNL A   1      30.475  25.439  25.483  1.00  0.00     0.192 A 
ATOM     28  O   UNL A   1      30.509  25.587  22.702  1.00  0.00    -0.420 OA
ATOM     29  C   UNL A   1      30.736  26.712  24.792  1.00  0.00     0.105 A 
ATOM     30  O   UNL A   1      30.244  25.418  26.671  1.00  0.00    -0.289 OA
BRANCH  12  31
ATOM     31  O   UNL A   1      36.758  22.773  26.586  1.00  0.00    -0.393 OA
ATOM     32  H   UNL A   1      36.962  23.235  25.757  1.00  0.00     0.210 HD
ENDBRANCH  12  31
ENDBRANCH   5   8
ENDBRANCH   3   4
ENDBRANCH   2   3
ENDBRANCH   1   2
BRANCH   1  33
ATOM     33  C   UNL A   1      33.495  28.544  27.213  1.00  0.00     0.116 C 
BRANCH  33  34
ATOM     34  N   UNL A   1      33.411  29.960  27.535  1.00  0.00    -0.352 N 
ATOM     35  C   UNL A   1      34.395  30.749  28.083  1.00  0.00     0.251 C 
ATOM     36  H   UNL A   1      32.554  30.403  27.338  1.00  0.00     0.163 HD
ATOM     37  O   UNL A   1      34.187  31.916  28.385  1.00  0.00    -0.269 OA
BRANCH  35  38
ATOM     38  C   UNL A   1      35.708  30.132  28.340  1.00  0.00     0.039 A 
ATOM     39  C   UNL A   1      36.682  30.184  27.343  1.00  0.00     0.014 A 
ATOM     40  C   UNL A   1      35.992  29.596  29.600  1.00  0.00     0.014 A 
ATOM     41  C   UNL A   1      37.973  29.742  27.627  1.00  0.00     0.010 A 
ATOM     42  C   UNL A   1      37.291  29.199  29.896  1.00  0.00     0.010 A 
ATOM     43  C   UNL A   1      38.290  29.271  28.912  1.00  0.00    -0.014 A 
BRANCH  43  44
ATOM     44  C   UNL A   1      39.661  28.815  29.236  1.00  0.00     0.031 A 
ATOM     45  C   UNL A   1      40.562  29.702  30.043  1.00  0.00     0.074 A 
ATOM     46  C   UNL A   1      40.100  27.626  28.781  1.00  0.00     0.049 A 
ATOM     47  N   UNL A   1      41.801  29.498  30.407  1.00  0.00    -0.248 NA
ATOM     48  C   UNL A   1      40.004  30.989  30.492  1.00  0.00     0.031 C 
ATOM     49  C   UNL A   1      39.319  26.680  27.980  1.00  0.00     0.029 A 
ATOM     50  N   UNL A   1      41.315  27.006  28.937  1.00  0.00    -0.354 N 
ATOM     51  C   UNL A   1      42.171  30.631  31.118  1.00  0.00     0.074 A 
ATOM     52  C   UNL A   1      41.044  31.536  31.105  1.00  0.00     0.031 C 
ATOM     53  C   UNL A   1      40.062  25.586  27.747  1.00  0.00     0.029 A 
ATOM     54  C   UNL A   1      41.379  25.765  28.352  1.00  0.00     0.049 A 
ATOM     55  H   UNL A   1      42.069  27.413  29.421  1.00  0.00     0.167 HD
ATOM     56  C   UNL A   1      43.341  30.884  31.745  1.00  0.00     0.031 A 
ATOM     57  C   UNL A   1      42.385  24.870  28.316  1.00  0.00     0.031 A 
ATOM     58  C   UNL A   1      44.451  29.976  31.785  1.00  0.00     0.049 A 
ATOM     59  C   UNL A   1      43.688  25.195  28.991  1.00  0.00     0.074 A 
ATOM     60  C   UNL A   1      45.659  30.129  32.443  1.00  0.00     0.029 A 
ATOM     61  N   UNL A   1      44.488  28.748  31.150  1.00  0.00    -0.354 N 
ATOM     62  N   UNL A   1      44.010  26.256  29.689  1.00  0.00    -0.248 NA
ATOM     63  C   UNL A   1      44.765  24.200  28.876  1.00  0.00     0.031 C 
ATOM     64  C   UNL A   1      46.443  29.005  32.175  1.00  0.00     0.029 A 
ATOM     65  C   UNL A   1      45.707  28.138  31.383  1.00  0.00     0.049 A 
ATOM     66  H   UNL A   1      43.757  28.364  30.613  1.00  0.00     0.167 HD
ATOM     67  C   UNL A   1      45.315  26.048  30.115  1.00  0.00     0.074 A 
ATOM     68  C   UNL A   1      45.726  24.759  29.600  1.00  0.00     0.031 C 
ATOM     69  C   UNL A   1      46.097  26.853  30.869  1.00  0.00     0.031 A 
BRANCH  56  70
ATOM     70  C   UNL A   1      43.484  32.193  32.461  1.00  0.00    -0.014 A 
ATOM     71  C   UNL A   1      43.913  33.340  31.777  1.00  0.00     0.009 A 
ATOM     72  C   UNL A   1      43.091  32.300  33.804  1.00  0.00     0.009 A 
ATOM     73  C   UNL A   1      43.951  34.573  32.428  1.00  0.00     0.001 A 
ATOM     74  C   UNL A   1      43.115  33.538  34.447  1.00  0.00     0.001 A 
ATOM     75  C   UNL A   1      43.545  34.672  33.759  1.00  0.00     0.000 A 
ENDBRANCH  56  70
BRANCH  57  76
ATOM     76  C   UNL A   1      42.187  23.560  27.647  1.00  0.00    -0.014 A 
ATOM     77  C   UNL A   1      42.580  23.389  26.311  1.00  0.00     0.009 A 
ATOM     78  C   UNL A   1      41.621  22.476  28.335  1.00  0.00     0.009 A 
ATOM     79  C   UNL A   1      42.398  22.160  25.672  1.00  0.00     0.001 A 
ATOM     80  C   UNL A   1      41.457  21.243  27.699  1.00  0.00     0.001 A 
ATOM     81  C   UNL A   1      41.841  21.088  26.368  1.00  0.00     0.000 A 
ENDBRANCH  57  76
BRANCH  69  82
ATOM     82  C   UNL A   1      47.475  26.375  31.215  1.00  0.00    -0.014 A 
ATOM     83  C   UNL A   1      47.719  25.703  32.421  1.00  0.00     0.009 A 
ATOM     84  C   UNL A   1      48.505  26.482  30.268  1.00  0.00     0.009 A 
ATOM     85  C   UNL A   1      48.975  25.148  32.674  1.00  0.00     0.001 A 
ATOM     86  C   UNL A   1      49.753  25.909  30.515  1.00  0.00     0.001 A 
ATOM     87  C   UNL A   1      49.986  25.243  31.717  1.00  0.00     0.000 A 
ENDBRANCH  69  82
ENDBRANCH  43  44
ENDBRANCH  35  38
ENDBRANCH  33  34
ENDBRANCH   1  33
TORSDOF 12
ENDMDL
MODEL 2
REMARK VINA RESULT:     -12.8      2.333      7.262
REMARK SMILES CC1(C)[C@H](O)CC[C@@]2(C)[C@H]3Cc4c(oc(C(=O)NCCCCNC(=O)c5ccc(-c6c7nc(c(-c8ccccc8)c8ccc([nH]8)c(-c8ccccc8)c8nc(c(-c9ccccc9)c9ccc6[nH]9)C=C8)C=C7)cc5)cc4=O)O[C@@]3(C)CC[C@@H]12
REMARK SMILES IDX 21 1 20 2 19 3 18 4 16 5 17 6 15 8 1 9 2 10 3 11 4 12 82 13
REMARK SMILES IDX 6 14 8 15 81 16 7 17 9 18 10 19 80 20 78 21 11 22 79 23
REMARK SMILES IDX 77 24 12 25 13 26 75 27 14 28 74 29 76 30 5 31 22 33 23 34
REMARK SMILES IDX 24 35 25 37 26 38 27 39 73 40 28 41 72 42 29 43 30 44 31 45
REMARK SMILES IDX 66 46 32 47 71 48 65 49 67 50 33 51 70 52 64 53 63 54 34 56
REMARK SMILES IDX 56 57 41 58 55 59 42 60 45 61 54 62 68 63 43 64 44 65 53 67
REMARK SMILES IDX 69 68 46 69 35 70 36 71 40 72 37 73 39 74 38 75 57 76 58 77
REMARK SMILES IDX 62 78 59 79 61 80 60 81 47 82 48 83 52 84 49 85 51 86 50 87
REMARK H PARENT 18 7 5 32 23 36 67 55 45 66
REMARK Flexibility Score: inf
ROOT
ATOM      1  C   UNL A   1      35.808  23.658  26.146  1.00  0.00     0.023 C 
ENDROOT
BRANCH   1   2
ATOM      2  C   UNL A   1      35.308  22.252  26.478  1.00  0.00     0.023 C 
BRANCH   2   3
ATOM      3  C   UNL A   1      33.861  22.224  26.983  1.00  0.00     0.116 C 
BRANCH   3   4
ATOM      4  N   UNL A   1      33.148  21.080  26.438  1.00  0.00    -0.349 N 
ATOM      5  C   UNL A   1      32.438  20.913  25.283  1.00  0.00     0.287 C 
ATOM      6  O   UNL A   1      31.971  19.798  25.053  1.00  0.00    -0.266 OA
ATOM      7  H   UNL A   1      33.184  20.277  27.007  1.00  0.00     0.163 HD
BRANCH   5   8
ATOM      8  C   UNL A   1      32.268  22.021  24.287  1.00  0.00     0.199 A 
ATOM      9  C   UNL A   1      34.149  26.336  24.013  1.00  0.00     0.014 C 
ATOM     10  C   UNL A   1      33.542  27.368  24.987  1.00  0.00    -0.006 C 
ATOM     11  C   UNL A   1      33.860  26.757  26.369  1.00  0.00     0.014 C 
ATOM     12  C   UNL A   1      34.325  28.668  24.676  1.00  0.00     0.120 C 
ATOM     13  C   UNL A   1      32.018  27.827  24.854  1.00  0.00     0.004 C 
ATOM     14  C   UNL A   1      33.767  29.368  23.395  1.00  0.00     0.033 C 
ATOM     15  C   UNL A   1      31.524  27.971  23.385  1.00  0.00    -0.022 C 
ATOM     16  C   UNL A   1      30.947  27.278  25.797  1.00  0.00     0.009 C 
ATOM     17  C   UNL A   1      32.715  28.570  22.543  1.00  0.00     0.010 C 
ATOM     18  C   UNL A   1      30.459  29.121  23.316  1.00  0.00     0.012 C 
ATOM     19  C   UNL A   1      30.774  26.623  22.868  1.00  0.00     0.044 C 
ATOM     20  C   UNL A   1      30.449  25.922  25.401  1.00  0.00     0.049 C 
ATOM     21  C   UNL A   1      29.880  25.870  23.965  1.00  0.00     0.113 C 
ATOM     22  C   UNL A   1      31.595  25.598  22.035  1.00  0.00     0.055 C 
ATOM     23  C   UNL A   1      28.435  26.416  23.968  1.00  0.00     0.057 C 
ATOM     24  O   UNL A   1      29.658  24.459  23.670  1.00  0.00    -0.458 OA
ATOM     25  C   UNL A   1      31.769  24.273  22.696  1.00  0.00     0.081 A 
ATOM     26  C   UNL A   1      30.828  23.753  23.482  1.00  0.00     0.292 A 
ATOM     27  C   UNL A   1      33.047  23.546  22.579  1.00  0.00     0.192 A 
ATOM     28  O   UNL A   1      30.985  22.556  24.169  1.00  0.00    -0.420 OA
ATOM     29  C   UNL A   1      33.303  22.525  23.609  1.00  0.00     0.105 A 
ATOM     30  O   UNL A   1      33.889  23.811  21.751  1.00  0.00    -0.289 OA
BRANCH  12  31
ATOM     31  O   UNL A   1      34.219  29.552  25.797  1.00  0.00    -0.393 OA
ATOM     32  H   UNL A   1      34.428  29.068  26.610  1.00  0.00     0.210 HD
ENDBRANCH  12  31
ENDBRANCH   5   8
ENDBRANCH   3   4
ENDBRANCH   2   3
ENDBRANCH   1   2
BRANCH   1  33
ATOM     33  C   UNL A   1      36.969  23.688  25.158  1.00  0.00     0.116 C 
BRANCH  33  34
ATOM     34  N   UNL A   1      37.983  22.681  25.432  1.00  0.00    -0.352 N 
ATOM     35  C   UNL A   1      39.153  22.848  26.133  1.00  0.00     0.251 C 
ATOM     36  H   UNL A   1      37.811  21.779  25.076  1.00  0.00     0.163 HD
ATOM     37  O   UNL A   1      39.974  21.946  26.236  1.00  0.00    -0.269 OA
BRANCH  35  38
ATOM     38  C   UNL A   1      39.418  24.170  26.727  1.00  0.00     0.039 A 
ATOM     39  C   UNL A   1      39.024  24.406  28.044  1.00  0.00     0.014 A 
ATOM     40  C   UNL A   1      40.138  25.128  26.005  1.00  0.00     0.014 A 
ATOM     41  C   UNL A   1      39.403  25.595  28.666  1.00  0.00     0.010 A 
ATOM     42  C   UNL A   1      40.554  26.291  26.642  1.00  0.00     0.010 A 
ATOM     43  C   UNL A   1      40.190  26.532  27.977  1.00  0.00    -0.014 A 
BRANCH  43  44
ATOM     44  C   UNL A   1      40.616  27.791  28.628  1.00  0.00     0.031 A 
ATOM     45  C   UNL A   1      39.628  28.906  28.795  1.00  0.00     0.074 A 
ATOM     46  C   UNL A   1      41.891  27.939  29.039  1.00  0.00     0.049 A 
ATOM     47  N   UNL A   1      39.811  30.094  29.313  1.00  0.00    -0.248 NA
ATOM     48  C   UNL A   1      38.258  28.663  28.310  1.00  0.00     0.031 C 
ATOM     49  C   UNL A   1      42.944  26.928  28.923  1.00  0.00     0.029 A 
ATOM     50  N   UNL A   1      42.513  29.001  29.646  1.00  0.00    -0.354 N 
ATOM     51  C   UNL A   1      38.586  30.738  29.208  1.00  0.00     0.074 A 
ATOM     52  C   UNL A   1      37.676  29.831  28.545  1.00  0.00     0.031 C 
ATOM     53  C   UNL A   1      44.071  27.406  29.475  1.00  0.00     0.029 A 
ATOM     54  C   UNL A   1      43.830  28.764  29.954  1.00  0.00     0.049 A 
ATOM     55  H   UNL A   1      42.058  29.852  29.841  1.00  0.00     0.167 HD
ATOM     56  C   UNL A   1      38.245  31.971  29.645  1.00  0.00     0.031 A 
ATOM     57  C   UNL A   1      44.738  29.552  30.561  1.00  0.00     0.031 A 
ATOM     58  C   UNL A   1      39.137  32.862  30.329  1.00  0.00     0.049 A 
ATOM     59  C   UNL A   1      44.340  30.933  31.004  1.00  0.00     0.074 A 
ATOM     60  C   UNL A   1      38.861  34.112  30.857  1.00  0.00     0.029 A 
ATOM     61  N   UNL A   1      40.471  32.598  30.588  1.00  0.00    -0.354 N 
ATOM     62  N   UNL A   1      43.169  31.514  30.928  1.00  0.00    -0.248 NA
ATOM     63  C   UNL A   1      45.388  31.764  31.617  1.00  0.00     0.031 C 
ATOM     64  C   UNL A   1      40.041  34.621  31.403  1.00  0.00     0.029 A 
ATOM     65  C   UNL A   1      41.039  33.672  31.249  1.00  0.00     0.049 A 
ATOM     66  H   UNL A   1      40.944  31.772  30.339  1.00  0.00     0.167 HD
ATOM     67  C   UNL A   1      43.330  32.768  31.503  1.00  0.00     0.074 A 
ATOM     68  C   UNL A   1      44.712  32.864  31.925  1.00  0.00     0.031 C 
ATOM     69  C   UNL A   1      42.412  33.748  31.668  1.00  0.00     0.031 A 
BRANCH  56  70
ATOM     70  C   UNL A   1      36.837  32.431  29.417  1.00  0.00    -0.014 A 
ATOM     71  C   UNL A   1      35.862  32.269  30.412  1.00  0.00     0.009 A 
ATOM     72  C   UNL A   1      36.511  33.119  28.239  1.00  0.00     0.009 A 
ATOM     73  C   UNL A   1      34.579  32.786  30.228  1.00  0.00     0.001 A 
ATOM     74  C   UNL A   1      35.232  33.649  28.066  1.00  0.00     0.001 A 
ATOM     75  C   UNL A   1      34.268  33.482  29.059  1.00  0.00     0.000 A 
ENDBRANCH  56  70
BRANCH  57  76
ATOM     76  C   UNL A   1      46.107  29.041  30.823  1.00  0.00    -0.014 A 
ATOM     77  C   UNL A   1      47.095  29.144  29.832  1.00  0.00     0.009 A 
ATOM     78  C   UNL A   1      46.437  28.461  32.057  1.00  0.00     0.009 A 
ATOM     79  C   UNL A   1      48.386  28.666  30.069  1.00  0.00     0.001 A 
ATOM     80  C   UNL A   1      47.733  28.000  32.296  1.00  0.00     0.001 A 
ATOM     81  C   UNL A   1      48.704  28.098  31.301  1.00  0.00     0.000 A 
ENDBRANCH  57  76
BRANCH  69  82
ATOM     82  C   UNL A   1      42.844  35.010  32.351  1.00  0.00    -0.014 A 
ATOM     83  C   UNL A   1      43.494  36.026  31.636  1.00  0.00     0.009 A 
ATOM     84  C   UNL A   1      42.481  35.235  33.688  1.00  0.00     0.009 A 
ATOM     85  C   UNL A   1      43.774  37.248  32.250  1.00  0.00     0.001 A 
ATOM     86  C   UNL A   1      42.744  36.464  34.292  1.00  0.00     0.001 A 
ATOM     87  C   UNL A   1      43.391  37.469  33.573  1.00  0.00     0.000 A 
ENDBRANCH  69  82
ENDBRANCH  43  44
ENDBRANCH  35  38
ENDBRANCH  33  34
ENDBRANCH   1  33
TORSDOF 12
ENDMDL
MODEL 3
REMARK VINA RESULT:     -12.2      2.253      7.768
REMARK SMILES CC1(C)[C@H](O)CC[C@@]2(C)[C@H]3Cc4c(oc(C(=O)NCCCCNC(=O)c5ccc(-c6c7nc(c(-c8ccccc8)c8ccc([nH]8)c(-c8ccccc8)c8nc(c(-c9ccccc9)c9ccc6[nH]9)C=C8)C=C7)cc5)cc4=O)O[C@@]3(C)CC[C@@H]12
REMARK SMILES IDX 21 1 20 2 19 3 18 4 16 5 17 6 15 8 1 9 2 10 3 11 4 12 82 13
REMARK SMILES IDX 6 14 8 15 81 16 7 17 9 18 10 19 80 20 78 21 11 22 79 23
REMARK SMILES IDX 77 24 12 25 13 26 75 27 14 28 74 29 76 30 5 31 22 33 23 34
REMARK SMILES IDX 24 35 25 37 26 38 27 39 73 40 28 41 72 42 29 43 30 44 31 45
REMARK SMILES IDX 66 46 32 47 71 48 65 49 67 50 33 51 70 52 64 53 63 54 34 56
REMARK SMILES IDX 56 57 41 58 55 59 42 60 45 61 54 62 68 63 43 64 44 65 53 67
REMARK SMILES IDX 69 68 46 69 35 70 36 71 40 72 37 73 39 74 38 75 57 76 58 77
REMARK SMILES IDX 62 78 59 79 61 80 60 81 47 82 48 83 52 84 49 85 51 86 50 87
REMARK H PARENT 18 7 5 32 23 36 67 55 45 66
REMARK Flexibility Score: inf
ROOT
ATOM      1  C   UNL A   1      39.556  20.499  25.580  1.00  0.00     0.023 C 
ENDROOT
BRANCH   1   2
ATOM      2  C   UNL A   1      38.344  19.734  25.045  1.00  0.00     0.023 C 
BRANCH   2   3
ATOM      3  C   UNL A   1      37.033  20.522  25.148  1.00  0.00     0.116 C 
BRANCH   3   4
ATOM      4  N   UNL A   1      37.261  21.821  25.760  1.00  0.00    -0.349 N 
ATOM      5  C   UNL A   1      36.548  22.985  25.724  1.00  0.00     0.287 C 
ATOM      6  O   UNL A   1      36.963  23.934  26.388  1.00  0.00    -0.266 OA
ATOM      7  H   UNL A   1      38.083  21.870  26.301  1.00  0.00     0.163 HD
BRANCH   5   8
ATOM      8  C   UNL A   1      35.268  23.109  24.951  1.00  0.00     0.199 A 
ATOM      9  C   UNL A   1      33.075  26.824  23.049  1.00  0.00     0.014 C 
ATOM     10  C   UNL A   1      32.335  27.724  24.060  1.00  0.00    -0.006 C 
ATOM     11  C   UNL A   1      33.477  28.216  24.975  1.00  0.00     0.014 C 
ATOM     12  C   UNL A   1      31.712  28.833  23.175  1.00  0.00     0.120 C 
ATOM     13  C   UNL A   1      31.081  27.177  24.884  1.00  0.00     0.004 C 
ATOM     14  C   UNL A   1      30.405  28.331  22.481  1.00  0.00     0.033 C 
ATOM     15  C   UNL A   1      30.148  26.234  24.070  1.00  0.00    -0.022 C 
ATOM     16  C   UNL A   1      31.223  26.762  26.349  1.00  0.00     0.009 C 
ATOM     17  C   UNL A   1      30.074  26.799  22.599  1.00  0.00     0.010 C 
ATOM     18  C   UNL A   1      28.672  26.422  24.570  1.00  0.00     0.012 C 
ATOM     19  C   UNL A   1      30.516  24.669  24.311  1.00  0.00     0.044 C 
ATOM     20  C   UNL A   1      31.786  25.384  26.521  1.00  0.00     0.049 C 
ATOM     21  C   UNL A   1      30.967  24.290  25.802  1.00  0.00     0.113 C 
ATOM     22  C   UNL A   1      31.425  23.958  23.268  1.00  0.00     0.055 C 
ATOM     23  C   UNL A   1      29.744  23.915  26.669  1.00  0.00     0.057 C 
ATOM     24  O   UNL A   1      31.765  23.072  25.880  1.00  0.00    -0.458 OA
ATOM     25  C   UNL A   1      32.742  23.513  23.808  1.00  0.00     0.081 A 
ATOM     26  C   UNL A   1      32.879  23.100  25.067  1.00  0.00     0.292 A 
ATOM     27  C   UNL A   1      33.959  23.620  22.983  1.00  0.00     0.192 A 
ATOM     28  O   UNL A   1      34.101  22.745  25.624  1.00  0.00    -0.420 OA
ATOM     29  C   UNL A   1      35.236  23.617  23.716  1.00  0.00     0.105 A 
ATOM     30  O   UNL A   1      33.937  23.788  21.784  1.00  0.00    -0.289 OA
BRANCH  12  31
ATOM     31  O   UNL A   1      31.421  29.970  23.993  1.00  0.00    -0.393 OA
ATOM     32  H   UNL A   1      32.053  30.679  23.798  1.00  0.00     0.210 HD
ENDBRANCH  12  31
ENDBRANCH   5   8
ENDBRANCH   3   4
ENDBRANCH   2   3
ENDBRANCH   1   2
BRANCH   1  33
ATOM     33  C   UNL A   1      40.460  19.673  26.488  1.00  0.00     0.116 C 
BRANCH  33  34
ATOM     34  N   UNL A   1      41.724  19.309  25.864  1.00  0.00    -0.352 N 
ATOM     35  C   UNL A   1      42.830  20.108  25.698  1.00  0.00     0.251 C 
ATOM     36  H   UNL A   1      41.793  18.388  25.524  1.00  0.00     0.163 HD
ATOM     37  O   UNL A   1      43.816  19.718  25.086  1.00  0.00    -0.269 OA
BRANCH  35  38
ATOM     38  C   UNL A   1      42.781  21.476  26.243  1.00  0.00     0.039 A 
ATOM     39  C   UNL A   1      42.732  21.646  27.627  1.00  0.00     0.014 A 
ATOM     40  C   UNL A   1      42.880  22.574  25.382  1.00  0.00     0.014 A 
ATOM     41  C   UNL A   1      42.839  22.930  28.160  1.00  0.00     0.010 A 
ATOM     42  C   UNL A   1      43.033  23.847  25.917  1.00  0.00     0.010 A 
ATOM     43  C   UNL A   1      43.015  24.034  27.309  1.00  0.00    -0.014 A 
BRANCH  43  44
ATOM     44  C   UNL A   1      43.148  25.402  27.859  1.00  0.00     0.031 A 
ATOM     45  C   UNL A   1      44.510  25.932  28.194  1.00  0.00     0.074 A 
ATOM     46  C   UNL A   1      42.049  26.148  28.084  1.00  0.00     0.049 A 
ATOM     47  N   UNL A   1      44.836  27.090  28.709  1.00  0.00    -0.248 NA
ATOM     48  C   UNL A   1      45.657  25.047  27.925  1.00  0.00     0.031 C 
ATOM     49  C   UNL A   1      40.671  25.736  27.806  1.00  0.00     0.029 A 
ATOM     50  N   UNL A   1      41.923  27.416  28.592  1.00  0.00    -0.354 N 
ATOM     51  C   UNL A   1      46.218  27.067  28.832  1.00  0.00     0.074 A 
ATOM     52  C   UNL A   1      46.670  25.772  28.376  1.00  0.00     0.031 C 
ATOM     53  C   UNL A   1      39.842  26.748  28.113  1.00  0.00     0.029 A 
ATOM     54  C   UNL A   1      40.625  27.864  28.637  1.00  0.00     0.049 A 
ATOM     55  H   UNL A   1      42.689  27.954  28.895  1.00  0.00     0.167 HD
ATOM     56  C   UNL A   1      47.039  28.048  29.268  1.00  0.00     0.031 A 
ATOM     57  C   UNL A   1      40.125  29.044  29.049  1.00  0.00     0.031 A 
ATOM     58  C   UNL A   1      46.596  29.344  29.693  1.00  0.00     0.049 A 
ATOM     59  C   UNL A   1      41.059  30.104  29.564  1.00  0.00     0.074 A 
ATOM     60  C   UNL A   1      47.364  30.421  30.101  1.00  0.00     0.029 A 
ATOM     61  N   UNL A   1      45.272  29.743  29.760  1.00  0.00    -0.354 N 
ATOM     62  N   UNL A   1      42.367  30.079  29.642  1.00  0.00    -0.248 NA
ATOM     63  C   UNL A   1      40.450  31.354  30.045  1.00  0.00     0.031 C 
ATOM     64  C   UNL A   1      46.501  31.461  30.450  1.00  0.00     0.029 A 
ATOM     65  C   UNL A   1      45.200  31.044  30.222  1.00  0.00     0.049 A 
ATOM     66  H   UNL A   1      44.499  29.185  29.514  1.00  0.00     0.167 HD
ATOM     67  C   UNL A   1      42.739  31.314  30.157  1.00  0.00     0.074 A 
ATOM     68  C   UNL A   1      41.521  32.066  30.372  1.00  0.00     0.031 C 
ATOM     69  C   UNL A   1      43.981  31.780  30.423  1.00  0.00     0.031 A 
BRANCH  56  70
ATOM     70  C   UNL A   1      48.511  27.771  29.292  1.00  0.00    -0.014 A 
ATOM     71  C   UNL A   1      49.110  27.183  30.416  1.00  0.00     0.009 A 
ATOM     72  C   UNL A   1      49.285  28.009  28.146  1.00  0.00     0.009 A 
ATOM     73  C   UNL A   1      50.462  26.842  30.393  1.00  0.00     0.001 A 
ATOM     74  C   UNL A   1      50.633  27.650  28.121  1.00  0.00     0.001 A 
ATOM     75  C   UNL A   1      51.220  27.068  29.244  1.00  0.00     0.000 A 
ENDBRANCH  56  70
BRANCH  57  76
ATOM     76  C   UNL A   1      38.666  29.305  28.956  1.00  0.00    -0.014 A 
ATOM     77  C   UNL A   1      37.849  29.124  30.083  1.00  0.00     0.009 A 
ATOM     78  C   UNL A   1      38.086  29.742  27.756  1.00  0.00     0.009 A 
ATOM     79  C   UNL A   1      36.475  29.366  30.005  1.00  0.00     0.001 A 
ATOM     80  C   UNL A   1      36.715  30.001  27.687  1.00  0.00     0.001 A 
ATOM     81  C   UNL A   1      35.911  29.808  28.810  1.00  0.00     0.000 A 
ENDBRANCH  57  76
BRANCH  69  82
ATOM     82  C   UNL A   1      44.110  33.175  30.956  1.00  0.00    -0.014 A 
ATOM     83  C   UNL A   1      44.154  34.274  30.086  1.00  0.00     0.009 A 
ATOM     84  C   UNL A   1      44.057  33.397  32.341  1.00  0.00     0.009 A 
ATOM     85  C   UNL A   1      44.143  35.573  30.596  1.00  0.00     0.001 A 
ATOM     86  C   UNL A   1      44.026  34.696  32.846  1.00  0.00     0.001 A 
ATOM     87  C   UNL A   1      44.069  35.783  31.973  1.00  0.00     0.000 A 
ENDBRANCH  69  82
ENDBRANCH  43  44
ENDBRANCH  35  38
ENDBRANCH  33  34
ENDBRANCH   1  33
TORSDOF 12
ENDMDL
