MODEL 1
REMARK VINA RESULT:      -8.5      0.000      0.000
REMARK SMILES O=C(COCCNC(=O)c1ccn[nH]1)NCCCCNC(=O)c1ccc(-c2c3nc(c(-c4ccccc4)c4ccc([nH]4)c(-c4ccccc4)c4nc(c(-c5ccccc5)c5ccc2[nH]5)C=C4)C=C3)cc1
REMARK SMILES IDX 16 1 15 2 1 3 2 4 3 6 4 7 5 8 6 9 7 10 8 11 9 13 10 14 11 15
REMARK SMILES IDX 14 16 12 17 13 18 17 20 18 21 19 22 20 23 21 24 22 26 23 27
REMARK SMILES IDX 24 28 70 29 25 30 69 31 26 32 27 33 28 34 63 35 29 36 68 37
REMARK SMILES IDX 62 38 64 39 30 40 67 41 61 42 60 43 31 45 53 46 38 47 52 48
REMARK SMILES IDX 39 49 42 50 51 51 65 52 40 53 41 54 50 56 66 57 43 58 32 59
REMARK SMILES IDX 33 60 37 61 34 62 36 63 35 64 54 65 55 66 59 67 56 68 58 69
REMARK SMILES IDX 57 70 44 71 45 72 49 73 46 74 48 75 47 76
REMARK H PARENT 15 5 7 12 14 19 20 25 64 44 42 55
REMARK Flexibility Score: inf
ROOT
ATOM      1  C   UNL A   1      45.238  21.325  25.334  1.00  0.00     0.116 C 
ENDROOT
BRANCH   1   2
ATOM      2  N   UNL A   1      46.196  22.404  25.246  1.00  0.00    -0.354 N 
ATOM      3  O   UNL A   1      44.788  23.891  24.197  1.00  0.00    -0.272 OA
ATOM      4  C   UNL A   1      45.874  23.631  24.704  1.00  0.00     0.245 C 
ATOM      5  H   UNL A   1      47.109  22.257  25.584  1.00  0.00     0.163 HD
BRANCH   4   6
ATOM      6  C   UNL A   1      47.027  24.637  24.754  1.00  0.00     0.260 C 
BRANCH   6   7
ATOM      7  O   UNL A   1      46.621  26.001  24.746  1.00  0.00    -0.370 OA
BRANCH   7   8
ATOM      8  C   UNL A   1      47.585  26.908  25.299  1.00  0.00     0.182 C 
BRANCH   8   9
ATOM      9  C   UNL A   1      46.951  27.954  26.229  1.00  0.00     0.144 C 
BRANCH   9  10
ATOM     10  N   UNL A   1      45.507  27.832  26.354  1.00  0.00    -0.348 N 
ATOM     11  C   UNL A   1      44.554  28.779  26.619  1.00  0.00     0.269 C 
ATOM     12  H   UNL A   1      45.159  26.920  26.229  1.00  0.00     0.163 HD
ATOM     13  O   UNL A   1      43.413  28.382  26.860  1.00  0.00    -0.268 OA
BRANCH  11  14
ATOM     14  C   UNL A   1      44.885  30.176  26.658  1.00  0.00     0.122 A 
ATOM     15  C   UNL A   1      44.595  31.221  27.516  1.00  0.00     0.055 A 
ATOM     16  N   UNL A   1      45.744  30.717  25.733  1.00  0.00    -0.273 N 
ATOM     17  C   UNL A   1      45.275  32.335  26.990  1.00  0.00     0.135 A 
ATOM     18  N   UNL A   1      45.958  32.035  25.886  1.00  0.00    -0.183 NA
ATOM     19  H   UNL A   1      46.167  30.185  25.020  1.00  0.00     0.190 HD
ENDBRANCH  11  14
ENDBRANCH   9  10
ENDBRANCH   8   9
ENDBRANCH   7   8
ENDBRANCH   6   7
ENDBRANCH   4   6
ENDBRANCH   1   2
BRANCH   1  20
ATOM     20  C   UNL A   1      45.517  20.182  24.357  1.00  0.00     0.023 C 
BRANCH  20  21
ATOM     21  C   UNL A   1      44.576  18.975  24.463  1.00  0.00     0.023 C 
BRANCH  21  22
ATOM     22  C   UNL A   1      43.840  18.814  25.794  1.00  0.00     0.116 C 
BRANCH  22  23
ATOM     23  N   UNL A   1      42.402  18.689  25.637  1.00  0.00    -0.352 N 
ATOM     24  C   UNL A   1      41.404  19.558  25.996  1.00  0.00     0.251 C 
ATOM     25  H   UNL A   1      42.099  17.856  25.209  1.00  0.00     0.163 HD
ATOM     26  O   UNL A   1      40.230  19.225  25.854  1.00  0.00    -0.269 OA
BRANCH  24  27
ATOM     27  C   UNL A   1      41.715  20.880  26.586  1.00  0.00     0.039 A 
ATOM     28  C   UNL A   1      41.861  21.968  25.717  1.00  0.00     0.014 A 
ATOM     29  C   UNL A   1      41.927  21.052  27.958  1.00  0.00     0.014 A 
ATOM     30  C   UNL A   1      42.170  23.232  26.221  1.00  0.00     0.010 A 
ATOM     31  C   UNL A   1      42.221  22.320  28.464  1.00  0.00     0.010 A 
ATOM     32  C   UNL A   1      42.339  23.419  27.600  1.00  0.00    -0.014 A 
BRANCH  32  33
ATOM     33  C   UNL A   1      42.632  24.763  28.145  1.00  0.00     0.031 A 
ATOM     34  C   UNL A   1      44.028  25.134  28.549  1.00  0.00     0.074 A 
ATOM     35  C   UNL A   1      41.634  25.652  28.294  1.00  0.00     0.049 A 
ATOM     36  N   UNL A   1      44.448  26.217  29.154  1.00  0.00    -0.248 NA
ATOM     37  C   UNL A   1      45.087  24.161  28.242  1.00  0.00     0.031 C 
ATOM     38  C   UNL A   1      40.232  25.421  27.941  1.00  0.00     0.029 A 
ATOM     39  N   UNL A   1      41.652  26.932  28.784  1.00  0.00    -0.354 N 
ATOM     40  C   UNL A   1      45.812  26.042  29.332  1.00  0.00     0.074 A 
ATOM     41  C   UNL A   1      46.155  24.761  28.749  1.00  0.00     0.031 C 
ATOM     42  C   UNL A   1      39.526  26.531  28.217  1.00  0.00     0.029 A 
ATOM     43  C   UNL A   1      40.422  27.538  28.777  1.00  0.00     0.049 A 
ATOM     44  H   UNL A   1      42.470  27.374  29.110  1.00  0.00     0.167 HD
ATOM     45  C   UNL A   1      46.697  26.867  29.941  1.00  0.00     0.031 A 
ATOM     46  C   UNL A   1      40.055  28.766  29.183  1.00  0.00     0.031 A 
ATOM     47  C   UNL A   1      46.372  28.148  30.506  1.00  0.00     0.049 A 
ATOM     48  C   UNL A   1      41.073  29.698  29.767  1.00  0.00     0.074 A 
ATOM     49  C   UNL A   1      47.189  29.016  31.210  1.00  0.00     0.029 A 
ATOM     50  N   UNL A   1      45.134  28.757  30.404  1.00  0.00    -0.354 N 
ATOM     51  N   UNL A   1      42.341  29.481  30.009  1.00  0.00    -0.248 NA
ATOM     52  C   UNL A   1      40.604  31.042  30.136  1.00  0.00     0.031 C 
ATOM     53  C   UNL A   1      46.446  30.165  31.516  1.00  0.00     0.029 A 
ATOM     54  C   UNL A   1      45.170  30.004  31.002  1.00  0.00     0.049 A 
ATOM     55  H   UNL A   1      44.343  28.361  29.970  1.00  0.00     0.167 HD
ATOM     56  C   UNL A   1      42.820  30.652  30.578  1.00  0.00     0.074 A 
ATOM     57  C   UNL A   1      41.712  31.584  30.626  1.00  0.00     0.031 C 
ATOM     58  C   UNL A   1      44.065  30.922  31.036  1.00  0.00     0.031 A 
BRANCH  45  59
ATOM     59  C   UNL A   1      48.108  26.383  30.044  1.00  0.00    -0.014 A 
ATOM     60  C   UNL A   1      49.021  26.620  29.006  1.00  0.00     0.009 A 
ATOM     61  C   UNL A   1      48.534  25.700  31.193  1.00  0.00     0.009 A 
ATOM     62  C   UNL A   1      50.336  26.165  29.111  1.00  0.00     0.001 A 
ATOM     63  C   UNL A   1      49.851  25.249  31.295  1.00  0.00     0.001 A 
ATOM     64  C   UNL A   1      50.750  25.479  30.253  1.00  0.00     0.000 A 
ENDBRANCH  45  59
BRANCH  46  65
ATOM     65  C   UNL A   1      38.642  29.186  29.057  1.00  0.00    -0.014 A 
ATOM     66  C   UNL A   1      38.163  29.702  27.844  1.00  0.00     0.009 A 
ATOM     67  C   UNL A   1      37.768  29.060  30.146  1.00  0.00     0.009 A 
ATOM     68  C   UNL A   1      36.828  30.094  27.727  1.00  0.00     0.001 A 
ATOM     69  C   UNL A   1      36.434  29.453  30.023  1.00  0.00     0.001 A 
ATOM     70  C   UNL A   1      35.966  29.970  28.816  1.00  0.00     0.000 A 
ENDBRANCH  46  65
BRANCH  58  71
ATOM     71  C   UNL A   1      44.284  32.276  31.633  1.00  0.00    -0.014 A 
ATOM     72  C   UNL A   1      44.763  33.327  30.838  1.00  0.00     0.009 A 
ATOM     73  C   UNL A   1      44.003  32.509  32.987  1.00  0.00     0.009 A 
ATOM     74  C   UNL A   1      44.970  34.591  31.394  1.00  0.00     0.001 A 
ATOM     75  C   UNL A   1      44.213  33.773  33.539  1.00  0.00     0.001 A 
ATOM     76  C   UNL A   1      44.698  34.811  32.744  1.00  0.00     0.000 A 
ENDBRANCH  58  71
ENDBRANCH  32  33
ENDBRANCH  24  27
ENDBRANCH  22  23
ENDBRANCH  21  22
ENDBRANCH  20  21
ENDBRANCH   1  20
TORSDOF 16
ENDMDL
MODEL 2
REMARK VINA RESULT:      -8.5      0.598      6.163
REMARK SMILES O=C(COCCNC(=O)c1ccn[nH]1)NCCCCNC(=O)c1ccc(-c2c3nc(c(-c4ccccc4)c4ccc([nH]4)c(-c4ccccc4)c4nc(c(-c5ccccc5)c5ccc2[nH]5)C=C4)C=C3)cc1
REMARK SMILES IDX 16 1 15 2 1 3 2 4 3 6 4 7 5 8 6 9 7 10 8 11 9 13 10 14 11 15
REMARK SMILES IDX 14 16 12 17 13 18 17 20 18 21 19 22 20 23 21 24 22 26 23 27
REMARK SMILES IDX 24 28 70 29 25 30 69 31 26 32 27 33 28 34 63 35 29 36 68 37
REMARK SMILES IDX 62 38 64 39 30 40 67 41 61 42 60 43 31 45 53 46 38 47 52 48
REMARK SMILES IDX 39 49 42 50 51 51 65 52 40 53 41 54 50 56 66 57 43 58 32 59
REMARK SMILES IDX 33 60 37 61 34 62 36 63 35 64 54 65 55 66 59 67 56 68 58 69
REMARK SMILES IDX 57 70 44 71 45 72 49 73 46 74 48 75 47 76
REMARK H PARENT 15 5 7 12 14 19 20 25 64 44 42 55
REMARK Flexibility Score: inf
ROOT
ATOM      1  C   UNL A   1      45.305  21.295  25.716  1.00  0.00     0.116 C 
ENDROOT
BRANCH   1   2
ATOM      2  N   UNL A   1      46.124  22.482  25.597  1.00  0.00    -0.354 N 
ATOM      3  O   UNL A   1      44.923  23.430  23.878  1.00  0.00    -0.272 OA
ATOM      4  C   UNL A   1      45.838  23.484  24.693  1.00  0.00     0.245 C 
ATOM      5  H   UNL A   1      46.910  22.577  26.180  1.00  0.00     0.163 HD
BRANCH   4   6
ATOM      6  C   UNL A   1      46.809  24.664  24.771  1.00  0.00     0.260 C 
BRANCH   6   7
ATOM      7  O   UNL A   1      46.227  25.879  25.231  1.00  0.00    -0.370 OA
BRANCH   7   8
ATOM      8  C   UNL A   1      46.842  27.065  24.708  1.00  0.00     0.182 C 
BRANCH   8   9
ATOM      9  C   UNL A   1      46.764  28.252  25.680  1.00  0.00     0.144 C 
BRANCH   9  10
ATOM     10  N   UNL A   1      45.411  28.575  26.107  1.00  0.00    -0.348 N 
ATOM     11  C   UNL A   1      44.891  29.735  26.614  1.00  0.00     0.269 C 
ATOM     12  H   UNL A   1      44.765  27.837  26.018  1.00  0.00     0.163 HD
ATOM     13  O   UNL A   1      43.750  29.690  27.076  1.00  0.00    -0.268 OA
BRANCH  11  14
ATOM     14  C   UNL A   1      45.665  30.945  26.644  1.00  0.00     0.122 A 
ATOM     15  C   UNL A   1      46.739  31.393  27.390  1.00  0.00     0.055 A 
ATOM     16  N   UNL A   1      45.445  31.939  25.723  1.00  0.00    -0.273 N 
ATOM     17  C   UNL A   1      47.044  32.668  26.877  1.00  0.00     0.135 A 
ATOM     18  N   UNL A   1      46.238  33.014  25.875  1.00  0.00    -0.183 NA
ATOM     19  H   UNL A   1      44.767  31.870  25.012  1.00  0.00     0.190 HD
ENDBRANCH  11  14
ENDBRANCH   9  10
ENDBRANCH   8   9
ENDBRANCH   7   8
ENDBRANCH   6   7
ENDBRANCH   4   6
ENDBRANCH   1   2
BRANCH   1  20
ATOM     20  C   UNL A   1      45.574  20.258  24.626  1.00  0.00     0.023 C 
BRANCH  20  21
ATOM     21  C   UNL A   1      44.608  19.068  24.591  1.00  0.00     0.023 C 
BRANCH  21  22
ATOM     22  C   UNL A   1      43.847  18.784  25.886  1.00  0.00     0.116 C 
BRANCH  22  23
ATOM     23  N   UNL A   1      42.410  18.707  25.696  1.00  0.00    -0.352 N 
ATOM     24  C   UNL A   1      41.438  19.631  25.987  1.00  0.00     0.251 C 
ATOM     25  H   UNL A   1      42.084  17.868  25.298  1.00  0.00     0.163 HD
ATOM     26  O   UNL A   1      40.256  19.337  25.828  1.00  0.00    -0.269 OA
BRANCH  24  27
ATOM     27  C   UNL A   1      41.787  20.966  26.524  1.00  0.00     0.039 A 
ATOM     28  C   UNL A   1      41.900  21.105  27.912  1.00  0.00     0.014 A 
ATOM     29  C   UNL A   1      41.937  22.085  25.697  1.00  0.00     0.014 A 
ATOM     30  C   UNL A   1      42.211  22.347  28.470  1.00  0.00     0.010 A 
ATOM     31  C   UNL A   1      42.263  23.324  26.254  1.00  0.00     0.010 A 
ATOM     32  C   UNL A   1      42.408  23.461  27.643  1.00  0.00    -0.014 A 
BRANCH  32  33
ATOM     33  C   UNL A   1      42.771  24.773  28.225  1.00  0.00     0.031 A 
ATOM     34  C   UNL A   1      41.721  25.811  28.478  1.00  0.00     0.074 A 
ATOM     35  C   UNL A   1      44.058  25.038  28.512  1.00  0.00     0.049 A 
ATOM     36  N   UNL A   1      41.870  27.053  28.867  1.00  0.00    -0.248 NA
ATOM     37  C   UNL A   1      40.323  25.408  28.259  1.00  0.00     0.031 C 
ATOM     38  C   UNL A   1      45.179  24.117  28.315  1.00  0.00     0.029 A 
ATOM     39  N   UNL A   1      44.636  26.167  29.032  1.00  0.00    -0.354 N 
ATOM     40  C   UNL A   1      40.592  27.590  28.906  1.00  0.00     0.074 A 
ATOM     41  C   UNL A   1      39.675  26.534  28.527  1.00  0.00     0.031 C 
ATOM     42  C   UNL A   1      46.311  24.717  28.721  1.00  0.00     0.029 A 
ATOM     43  C   UNL A   1      45.994  26.063  29.190  1.00  0.00     0.049 A 
ATOM     44  H   UNL A   1      44.125  26.975  29.268  1.00  0.00     0.167 HD
ATOM     45  C   UNL A   1      40.216  28.854  29.215  1.00  0.00     0.031 A 
ATOM     46  C   UNL A   1      46.886  26.955  29.655  1.00  0.00     0.031 A 
ATOM     47  C   UNL A   1      41.112  29.905  29.612  1.00  0.00     0.049 A 
ATOM     48  C   UNL A   1      46.432  28.318  30.081  1.00  0.00     0.074 A 
ATOM     49  C   UNL A   1      40.828  31.235  29.869  1.00  0.00     0.029 A 
ATOM     50  N   UNL A   1      42.467  29.734  29.838  1.00  0.00    -0.354 N 
ATOM     51  N   UNL A   1      45.231  28.837  30.026  1.00  0.00    -0.248 NA
ATOM     52  C   UNL A   1      47.458  29.216  30.629  1.00  0.00     0.031 C 
ATOM     53  C   UNL A   1      42.013  31.866  30.272  1.00  0.00     0.029 A 
ATOM     54  C   UNL A   1      43.029  30.924  30.263  1.00  0.00     0.049 A 
ATOM     55  H   UNL A   1      42.958  28.889  29.714  1.00  0.00     0.167 HD
ATOM     56  C   UNL A   1      45.359  30.130  30.513  1.00  0.00     0.074 A 
ATOM     57  C   UNL A   1      46.749  30.310  30.878  1.00  0.00     0.031 C 
ATOM     58  C   UNL A   1      44.409  31.087  30.629  1.00  0.00     0.031 A 
BRANCH  45  59
ATOM     59  C   UNL A   1      38.757  29.168  29.109  1.00  0.00    -0.014 A 
ATOM     60  C   UNL A   1      37.923  29.070  30.232  1.00  0.00     0.009 A 
ATOM     61  C   UNL A   1      38.215  29.580  27.882  1.00  0.00     0.009 A 
ATOM     62  C   UNL A   1      36.563  29.366  30.123  1.00  0.00     0.001 A 
ATOM     63  C   UNL A   1      36.855  29.877  27.779  1.00  0.00     0.001 A 
ATOM     64  C   UNL A   1      36.031  29.767  28.897  1.00  0.00     0.000 A 
ENDBRANCH  45  59
BRANCH  46  65
ATOM     65  C   UNL A   1      48.317  26.585  29.734  1.00  0.00    -0.014 A 
ATOM     66  C   UNL A   1      49.171  26.831  28.650  1.00  0.00     0.009 A 
ATOM     67  C   UNL A   1      48.831  25.997  30.897  1.00  0.00     0.009 A 
ATOM     68  C   UNL A   1      50.521  26.484  28.728  1.00  0.00     0.001 A 
ATOM     69  C   UNL A   1      50.182  25.652  30.971  1.00  0.00     0.001 A 
ATOM     70  C   UNL A   1      51.024  25.895  29.887  1.00  0.00     0.000 A 
ENDBRANCH  46  65
BRANCH  58  71
ATOM     71  C   UNL A   1      44.850  32.413  31.165  1.00  0.00    -0.014 A 
ATOM     72  C   UNL A   1      44.662  32.722  32.520  1.00  0.00     0.009 A 
ATOM     73  C   UNL A   1      45.464  33.350  30.323  1.00  0.00     0.009 A 
ATOM     74  C   UNL A   1      45.072  33.959  33.021  1.00  0.00     0.001 A 
ATOM     75  C   UNL A   1      45.870  34.586  30.827  1.00  0.00     0.001 A 
ATOM     76  C   UNL A   1      45.672  34.890  32.174  1.00  0.00     0.000 A 
ENDBRANCH  58  71
ENDBRANCH  32  33
ENDBRANCH  24  27
ENDBRANCH  22  23
ENDBRANCH  21  22
ENDBRANCH  20  21
ENDBRANCH   1  20
TORSDOF 16
ENDMDL
MODEL 3
REMARK VINA RESULT:      -8.2      6.511     11.849
REMARK SMILES O=C(COCCNC(=O)c1ccn[nH]1)NCCCCNC(=O)c1ccc(-c2c3nc(c(-c4ccccc4)c4ccc([nH]4)c(-c4ccccc4)c4nc(c(-c5ccccc5)c5ccc2[nH]5)C=C4)C=C3)cc1
REMARK SMILES IDX 16 1 15 2 1 3 2 4 3 6 4 7 5 8 6 9 7 10 8 11 9 13 10 14 11 15
REMARK SMILES IDX 14 16 12 17 13 18 17 20 18 21 19 22 20 23 21 24 22 26 23 27
REMARK SMILES IDX 24 28 70 29 25 30 69 31 26 32 27 33 28 34 63 35 29 36 68 37
REMARK SMILES IDX 62 38 64 39 30 40 67 41 61 42 60 43 31 45 53 46 38 47 52 48
REMARK SMILES IDX 39 49 42 50 51 51 65 52 40 53 41 54 50 56 66 57 43 58 32 59
REMARK SMILES IDX 33 60 37 61 34 62 36 63 35 64 54 65 55 66 59 67 56 68 58 69
REMARK SMILES IDX 57 70 44 71 45 72 49 73 46 74 48 75 47 76
REMARK H PARENT 15 5 7 12 14 19 20 25 64 44 42 55
REMARK Flexibility Score: inf
ROOT
ATOM      1  C   UNL A   1      32.743  29.728  25.809  1.00  0.00     0.116 C 
ENDROOT
BRANCH   1   2
ATOM      2  N   UNL A   1      32.676  28.494  25.057  1.00  0.00    -0.354 N 
ATOM      3  O   UNL A   1      33.613  29.335  23.130  1.00  0.00    -0.272 OA
ATOM      4  C   UNL A   1      33.156  28.392  23.767  1.00  0.00     0.245 C 
ATOM      5  H   UNL A   1      32.275  27.701  25.479  1.00  0.00     0.163 HD
BRANCH   4   6
ATOM      6  C   UNL A   1      33.024  26.984  23.181  1.00  0.00     0.260 C 
BRANCH   6   7
ATOM      7  O   UNL A   1      32.014  26.851  22.187  1.00  0.00    -0.370 OA
BRANCH   7   8
ATOM      8  C   UNL A   1      30.679  26.775  22.706  1.00  0.00     0.182 C 
BRANCH   8   9
ATOM      9  C   UNL A   1      29.944  28.123  22.654  1.00  0.00     0.144 C 
BRANCH   9  10
ATOM     10  N   UNL A   1      28.530  28.035  22.981  1.00  0.00    -0.348 N 
ATOM     11  C   UNL A   1      27.545  28.985  22.936  1.00  0.00     0.269 C 
ATOM     12  H   UNL A   1      28.233  27.147  23.287  1.00  0.00     0.163 HD
ATOM     13  O   UNL A   1      26.461  28.702  23.448  1.00  0.00    -0.268 OA
BRANCH  11  14
ATOM     14  C   UNL A   1      27.785  30.276  22.353  1.00  0.00     0.122 A 
ATOM     15  C   UNL A   1      28.158  31.511  22.849  1.00  0.00     0.055 A 
ATOM     16  N   UNL A   1      27.745  30.446  20.992  1.00  0.00    -0.273 N 
ATOM     17  C   UNL A   1      28.259  32.349  21.722  1.00  0.00     0.135 A 
ATOM     18  N   UNL A   1      27.982  31.707  20.589  1.00  0.00    -0.183 NA
ATOM     19  H   UNL A   1      27.560  29.710  20.365  1.00  0.00     0.190 HD
ENDBRANCH  11  14
ENDBRANCH   9  10
ENDBRANCH   8   9
ENDBRANCH   7   8
ENDBRANCH   6   7
ENDBRANCH   4   6
ENDBRANCH   1   2
BRANCH   1  20
ATOM     20  C   UNL A   1      31.448  30.539  25.764  1.00  0.00     0.023 C 
BRANCH  20  21
ATOM     21  C   UNL A   1      31.351  31.688  26.775  1.00  0.00     0.023 C 
BRANCH  21  22
ATOM     22  C   UNL A   1      32.622  32.512  26.977  1.00  0.00     0.116 C 
BRANCH  22  23
ATOM     23  N   UNL A   1      32.369  33.812  27.571  1.00  0.00    -0.352 N 
ATOM     24  C   UNL A   1      33.101  34.507  28.500  1.00  0.00     0.251 C 
ATOM     25  H   UNL A   1      31.551  34.262  27.260  1.00  0.00     0.163 HD
ATOM     26  O   UNL A   1      32.667  35.567  28.943  1.00  0.00    -0.269 OA
BRANCH  24  27
ATOM     27  C   UNL A   1      34.391  33.985  29.005  1.00  0.00     0.039 A 
ATOM     28  C   UNL A   1      34.361  33.118  30.104  1.00  0.00     0.014 A 
ATOM     29  C   UNL A   1      35.618  34.382  28.464  1.00  0.00     0.014 A 
ATOM     30  C   UNL A   1      35.551  32.611  30.630  1.00  0.00     0.010 A 
ATOM     31  C   UNL A   1      36.808  33.861  28.980  1.00  0.00     0.010 A 
ATOM     32  C   UNL A   1      36.782  32.969  30.062  1.00  0.00    -0.014 A 
BRANCH  32  33
ATOM     33  C   UNL A   1      38.045  32.408  30.591  1.00  0.00     0.031 A 
ATOM     34  C   UNL A   1      38.677  31.211  29.947  1.00  0.00     0.074 A 
ATOM     35  C   UNL A   1      38.619  32.969  31.670  1.00  0.00     0.049 A 
ATOM     36  N   UNL A   1      39.712  30.515  30.345  1.00  0.00    -0.248 NA
ATOM     37  C   UNL A   1      38.063  30.729  28.701  1.00  0.00     0.031 C 
ATOM     38  C   UNL A   1      38.110  34.137  32.392  1.00  0.00     0.029 A 
ATOM     39  N   UNL A   1      39.761  32.627  32.346  1.00  0.00    -0.354 N 
ATOM     40  C   UNL A   1      39.854  29.491  29.420  1.00  0.00     0.074 A 
ATOM     41  C   UNL A   1      38.816  29.672  28.425  1.00  0.00     0.031 C 
ATOM     42  C   UNL A   1      38.946  34.419  33.406  1.00  0.00     0.029 A 
ATOM     43  C   UNL A   1      40.035  33.447  33.410  1.00  0.00     0.049 A 
ATOM     44  H   UNL A   1      40.331  31.864  32.091  1.00  0.00     0.167 HD
ATOM     45  C   UNL A   1      40.758  28.484  29.407  1.00  0.00     0.031 A 
ATOM     46  C   UNL A   1      41.046  33.416  34.295  1.00  0.00     0.031 A 
ATOM     47  C   UNL A   1      41.804  28.305  30.377  1.00  0.00     0.049 A 
ATOM     48  C   UNL A   1      42.089  32.343  34.203  1.00  0.00     0.074 A 
ATOM     49  C   UNL A   1      42.716  27.269  30.486  1.00  0.00     0.029 A 
ATOM     50  N   UNL A   1      42.094  29.203  31.389  1.00  0.00    -0.354 N 
ATOM     51  N   UNL A   1      42.157  31.332  33.375  1.00  0.00    -0.248 NA
ATOM     52  C   UNL A   1      43.193  32.409  35.173  1.00  0.00     0.031 C 
ATOM     53  C   UNL A   1      43.575  27.554  31.557  1.00  0.00     0.029 A 
ATOM     54  C   UNL A   1      43.191  28.765  32.109  1.00  0.00     0.049 A 
ATOM     55  H   UNL A   1      41.593  30.031  31.570  1.00  0.00     0.167 HD
ATOM     56  C   UNL A   1      43.297  30.628  33.734  1.00  0.00     0.074 A 
ATOM     57  C   UNL A   1      43.903  31.338  34.842  1.00  0.00     0.031 C 
ATOM     58  C   UNL A   1      43.786  29.483  33.201  1.00  0.00     0.031 A 
BRANCH  45  59
ATOM     59  C   UNL A   1      40.630  27.477  28.309  1.00  0.00    -0.014 A 
ATOM     60  C   UNL A   1      41.327  27.644  27.104  1.00  0.00     0.009 A 
ATOM     61  C   UNL A   1      39.819  26.345  28.483  1.00  0.00     0.009 A 
ATOM     62  C   UNL A   1      41.202  26.700  26.084  1.00  0.00     0.001 A 
ATOM     63  C   UNL A   1      39.699  25.402  27.462  1.00  0.00     0.001 A 
ATOM     64  C   UNL A   1      40.387  25.581  26.263  1.00  0.00     0.000 A 
ENDBRANCH  45  59
BRANCH  46  65
ATOM     65  C   UNL A   1      41.117  34.438  35.362  1.00  0.00    -0.014 A 
ATOM     66  C   UNL A   1      40.487  34.217  36.595  1.00  0.00     0.009 A 
ATOM     67  C   UNL A   1      41.823  35.631  35.151  1.00  0.00     0.009 A 
ATOM     68  C   UNL A   1      40.558  35.183  37.601  1.00  0.00     0.001 A 
ATOM     69  C   UNL A   1      41.891  36.592  36.161  1.00  0.00     0.001 A 
ATOM     70  C   UNL A   1      41.259  36.368  37.383  1.00  0.00     0.000 A 
ENDBRANCH  46  65
BRANCH  58  71
ATOM     71  C   UNL A   1      45.032  28.931  33.820  1.00  0.00    -0.014 A 
ATOM     72  C   UNL A   1      46.287  29.262  33.291  1.00  0.00     0.009 A 
ATOM     73  C   UNL A   1      44.955  28.090  34.940  1.00  0.00     0.009 A 
ATOM     74  C   UNL A   1      47.450  28.746  33.866  1.00  0.00     0.001 A 
ATOM     75  C   UNL A   1      46.119  27.575  35.511  1.00  0.00     0.001 A 
ATOM     76  C   UNL A   1      47.365  27.901  34.973  1.00  0.00     0.000 A 
ENDBRANCH  58  71
ENDBRANCH  32  33
ENDBRANCH  24  27
ENDBRANCH  22  23
ENDBRANCH  21  22
ENDBRANCH  20  21
ENDBRANCH   1  20
TORSDOF 16
ENDMDL
