MODEL 1
REMARK VINA RESULT:     -12.0      0.000      0.000
REMARK SMILES Cc1c(NS(=O)(=O)c2ncn(C)c2Cl)cccc1C(=O)NCCCCNC(=O)c1ccc(-c2c3nc(c(-c4ccccc4)c4ccc([nH]4)c(-c4ccccc4)c4nc(c(-c5ccccc5)c5ccc2[nH]5)C=C4)C=C3)cc1
REMARK SMILES IDX 23 1 22 2 21 3 19 4 20 5 18 7 1 8 2 9 3 10 15 11 17 12 16 13
REMARK SMILES IDX 4 14 5 16 6 17 7 18 8 19 9 20 13 21 10 22 11 23 14 24 12 25
REMARK SMILES IDX 24 26 25 27 26 28 27 29 28 31 29 32 30 33 76 34 31 35 75 36
REMARK SMILES IDX 32 37 33 38 34 39 69 40 35 41 74 42 68 43 70 44 36 45 73 46
REMARK SMILES IDX 67 47 66 48 37 50 59 51 44 52 58 53 45 54 48 55 57 56 71 57
REMARK SMILES IDX 46 58 47 59 56 61 72 62 49 63 38 64 39 65 43 66 40 67 42 68
REMARK SMILES IDX 41 69 60 70 61 71 65 72 62 73 64 74 63 75 50 76 51 77 55 78
REMARK SMILES IDX 52 79 54 80 53 81
REMARK H PARENT 21 6 4 15 26 30 70 49 48 60
REMARK Flexibility Score: inf
ROOT
ATOM      1  C   UNL A   1      37.698  21.309  25.255  1.00  0.00     0.023 C 
ENDROOT
BRANCH   1   2
ATOM      2  C   UNL A   1      36.208  21.324  24.881  1.00  0.00     0.116 C 
BRANCH   2   3
ATOM      3  N   UNL A   1      35.379  21.206  26.058  1.00  0.00    -0.352 N 
ATOM      4  C   UNL A   1      34.373  21.895  26.669  1.00  0.00     0.251 C 
ATOM      5  O   UNL A   1      34.032  21.349  27.731  1.00  0.00    -0.269 OA
ATOM      6  H   UNL A   1      35.605  20.393  26.566  1.00  0.00     0.163 HD
BRANCH   4   7
ATOM      7  C   UNL A   1      33.632  23.161  26.266  1.00  0.00     0.044 A 
ATOM      8  C   UNL A   1      35.490  24.714  25.409  1.00  0.00     0.047 C 
ATOM      9  C   UNL A   1      34.060  24.404  25.705  1.00  0.00    -0.014 A 
ATOM     10  C   UNL A   1      33.119  25.460  25.534  1.00  0.00     0.053 A 
ATOM     11  C   UNL A   1      31.860  25.353  26.121  1.00  0.00     0.027 A 
ATOM     12  C   UNL A   1      32.270  23.071  26.657  1.00  0.00     0.014 A 
ATOM     13  C   UNL A   1      31.408  24.156  26.635  1.00  0.00     0.003 A 
BRANCH  10  14
ATOM     14  N   UNL A   1      33.454  26.728  24.922  1.00  0.00    -0.278 N 
ATOM     15  H   UNL A   1      33.967  27.401  25.423  1.00  0.00     0.180 HD
BRANCH  14  16
ATOM     16  S   UNL A   1      32.947  27.046  23.314  1.00  0.00     0.282 S 
ATOM     17  O   UNL A   1      33.864  28.031  22.796  1.00  0.00    -0.199 OA
ATOM     18  O   UNL A   1      32.783  25.769  22.640  1.00  0.00    -0.199 OA
BRANCH  16  19
ATOM     19  C   UNL A   1      31.387  27.814  23.318  1.00  0.00     0.213 A 
ATOM     20  N   UNL A   1      30.461  27.626  22.293  1.00  0.00    -0.222 NA
ATOM     21  C   UNL A   1      30.982  28.857  24.120  1.00  0.00     0.149 A 
ATOM     22  C   UNL A   1      29.570  28.578  22.450  1.00  0.00     0.202 A 
ATOM     23  N   UNL A   1      29.903  29.412  23.488  1.00  0.00    -0.324 N 
ATOM     24  Cl  UNL A   1      31.680  29.613  25.476  1.00  0.00    -0.061 Cl
ATOM     25  C   UNL A   1      29.360  30.740  23.636  1.00  0.00     0.152 C 
ENDBRANCH  16  19
ENDBRANCH  14  16
ENDBRANCH  10  14
ENDBRANCH   4   7
ENDBRANCH   2   3
ENDBRANCH   1   2
BRANCH   1  26
ATOM     26  C   UNL A   1      38.220  22.543  25.982  1.00  0.00     0.023 C 
BRANCH  26  27
ATOM     27  C   UNL A   1      39.639  22.391  26.484  1.00  0.00     0.116 C 
BRANCH  27  28
ATOM     28  N   UNL A   1      40.337  21.195  26.027  1.00  0.00    -0.352 N 
ATOM     29  C   UNL A   1      41.695  20.917  26.059  1.00  0.00     0.251 C 
ATOM     30  H   UNL A   1      39.767  20.490  25.642  1.00  0.00     0.163 HD
ATOM     31  O   UNL A   1      42.127  19.874  25.580  1.00  0.00    -0.269 OA
BRANCH  29  32
ATOM     32  C   UNL A   1      42.603  21.815  26.821  1.00  0.00     0.039 A 
ATOM     33  C   UNL A   1      42.532  21.769  28.216  1.00  0.00     0.014 A 
ATOM     34  C   UNL A   1      43.248  22.873  26.192  1.00  0.00     0.014 A 
ATOM     35  C   UNL A   1      42.817  22.920  28.945  1.00  0.00     0.010 A 
ATOM     36  C   UNL A   1      43.375  24.059  26.889  1.00  0.00     0.010 A 
ATOM     37  C   UNL A   1      43.074  24.103  28.252  1.00  0.00    -0.014 A 
BRANCH  37  38
ATOM     38  C   UNL A   1      42.868  25.423  28.845  1.00  0.00     0.031 A 
ATOM     39  C   UNL A   1      41.693  26.243  28.468  1.00  0.00     0.074 A 
ATOM     40  C   UNL A   1      43.722  25.881  29.792  1.00  0.00     0.049 A 
ATOM     41  N   UNL A   1      41.649  27.533  28.540  1.00  0.00    -0.248 NA
ATOM     42  C   UNL A   1      40.475  25.663  27.913  1.00  0.00     0.031 C 
ATOM     43  C   UNL A   1      43.537  27.053  30.648  1.00  0.00     0.029 A 
ATOM     44  N   UNL A   1      45.049  25.507  30.034  1.00  0.00    -0.354 N 
ATOM     45  C   UNL A   1      40.334  27.908  28.376  1.00  0.00     0.074 A 
ATOM     46  C   UNL A   1      39.673  26.728  27.872  1.00  0.00     0.031 C 
ATOM     47  C   UNL A   1      44.743  27.485  31.049  1.00  0.00     0.029 A 
ATOM     48  C   UNL A   1      45.737  26.690  30.348  1.00  0.00     0.049 A 
ATOM     49  H   UNL A   1      45.424  24.598  29.993  1.00  0.00     0.167 HD
ATOM     50  C   UNL A   1      39.914  29.119  28.843  1.00  0.00     0.031 A 
ATOM     51  C   UNL A   1      46.765  27.193  29.602  1.00  0.00     0.031 A 
ATOM     52  C   UNL A   1      41.031  29.941  29.310  1.00  0.00     0.049 A 
ATOM     53  C   UNL A   1      46.510  28.602  29.099  1.00  0.00     0.074 A 
ATOM     54  C   UNL A   1      41.496  30.283  30.569  1.00  0.00     0.029 A 
ATOM     55  N   UNL A   1      42.023  30.318  28.411  1.00  0.00    -0.354 N 
ATOM     56  N   UNL A   1      45.342  29.180  29.122  1.00  0.00    -0.248 NA
ATOM     57  C   UNL A   1      47.525  29.433  28.454  1.00  0.00     0.031 C 
ATOM     58  C   UNL A   1      42.812  30.796  30.428  1.00  0.00     0.029 A 
ATOM     59  C   UNL A   1      43.134  30.790  29.083  1.00  0.00     0.049 A 
ATOM     60  H   UNL A   1      41.945  30.256  27.432  1.00  0.00     0.167 HD
ATOM     61  C   UNL A   1      45.419  30.401  28.504  1.00  0.00     0.074 A 
ATOM     62  C   UNL A   1      46.812  30.523  28.117  1.00  0.00     0.031 C 
ATOM     63  C   UNL A   1      44.321  31.192  28.341  1.00  0.00     0.031 A 
BRANCH  50  64
ATOM     64  C   UNL A   1      38.463  29.438  29.158  1.00  0.00    -0.014 A 
ATOM     65  C   UNL A   1      37.664  30.067  28.185  1.00  0.00     0.009 A 
ATOM     66  C   UNL A   1      37.843  29.231  30.402  1.00  0.00     0.009 A 
ATOM     67  C   UNL A   1      36.378  30.553  28.468  1.00  0.00     0.001 A 
ATOM     68  C   UNL A   1      36.571  29.738  30.706  1.00  0.00     0.001 A 
ATOM     69  C   UNL A   1      35.842  30.414  29.742  1.00  0.00     0.000 A 
ENDBRANCH  50  64
BRANCH  51  70
ATOM     70  C   UNL A   1      47.559  26.180  28.859  1.00  0.00    -0.014 A 
ATOM     71  C   UNL A   1      47.295  25.989  27.490  1.00  0.00     0.009 A 
ATOM     72  C   UNL A   1      48.753  25.669  29.389  1.00  0.00     0.009 A 
ATOM     73  C   UNL A   1      48.244  25.393  26.654  1.00  0.00     0.001 A 
ATOM     74  C   UNL A   1      49.700  25.070  28.547  1.00  0.00     0.001 A 
ATOM     75  C   UNL A   1      49.458  24.961  27.179  1.00  0.00     0.000 A 
ENDBRANCH  51  70
BRANCH  63  76
ATOM     76  C   UNL A   1      44.251  32.449  27.512  1.00  0.00    -0.014 A 
ATOM     77  C   UNL A   1      44.399  32.482  26.119  1.00  0.00     0.009 A 
ATOM     78  C   UNL A   1      43.875  33.657  28.141  1.00  0.00     0.009 A 
ATOM     79  C   UNL A   1      44.220  33.672  25.398  1.00  0.00     0.001 A 
ATOM     80  C   UNL A   1      43.656  34.833  27.422  1.00  0.00     0.001 A 
ATOM     81  C   UNL A   1      43.839  34.843  26.047  1.00  0.00     0.000 A 
ENDBRANCH  63  76
ENDBRANCH  37  38
ENDBRANCH  29  32
ENDBRANCH  27  28
ENDBRANCH  26  27
ENDBRANCH   1  26
TORSDOF 14
ENDMDL
MODEL 2
REMARK VINA RESULT:     -11.8      3.932      9.239
REMARK SMILES Cc1c(NS(=O)(=O)c2ncn(C)c2Cl)cccc1C(=O)NCCCCNC(=O)c1ccc(-c2c3nc(c(-c4ccccc4)c4ccc([nH]4)c(-c4ccccc4)c4nc(c(-c5ccccc5)c5ccc2[nH]5)C=C4)C=C3)cc1
REMARK SMILES IDX 23 1 22 2 21 3 19 4 20 5 18 7 1 8 2 9 3 10 15 11 17 12 16 13
REMARK SMILES IDX 4 14 5 16 6 17 7 18 8 19 9 20 13 21 10 22 11 23 14 24 12 25
REMARK SMILES IDX 24 26 25 27 26 28 27 29 28 31 29 32 30 33 76 34 31 35 75 36
REMARK SMILES IDX 32 37 33 38 34 39 69 40 35 41 74 42 68 43 70 44 36 45 73 46
REMARK SMILES IDX 67 47 66 48 37 50 59 51 44 52 58 53 45 54 48 55 57 56 71 57
REMARK SMILES IDX 46 58 47 59 56 61 72 62 49 63 38 64 39 65 43 66 40 67 42 68
REMARK SMILES IDX 41 69 60 70 61 71 65 72 62 73 64 74 63 75 50 76 51 77 55 78
REMARK SMILES IDX 52 79 54 80 53 81
REMARK H PARENT 21 6 4 15 26 30 70 49 48 60
REMARK Flexibility Score: inf
ROOT
ATOM      1  C   UNL A   1      33.666  29.703  26.235  1.00  0.00     0.023 C 
ENDROOT
BRANCH   1   2
ATOM      2  C   UNL A   1      32.149  29.948  26.197  1.00  0.00     0.116 C 
BRANCH   2   3
ATOM      3  N   UNL A   1      31.635  29.797  24.856  1.00  0.00    -0.352 N 
ATOM      4  C   UNL A   1      31.475  28.806  23.932  1.00  0.00     0.251 C 
ATOM      5  O   UNL A   1      30.998  29.249  22.874  1.00  0.00    -0.269 OA
ATOM      6  H   UNL A   1      31.304  30.656  24.509  1.00  0.00     0.163 HD
BRANCH   4   7
ATOM      7  C   UNL A   1      31.765  27.314  23.997  1.00  0.00     0.044 A 
ATOM      8  C   UNL A   1      29.537  26.286  24.756  1.00  0.00     0.047 C 
ATOM      9  C   UNL A   1      30.965  26.179  24.333  1.00  0.00    -0.014 A 
ATOM     10  C   UNL A   1      31.567  24.889  24.403  1.00  0.00     0.053 A 
ATOM     11  C   UNL A   1      32.955  24.783  24.372  1.00  0.00     0.027 A 
ATOM     12  C   UNL A   1      33.150  27.081  23.783  1.00  0.00     0.014 A 
ATOM     13  C   UNL A   1      33.749  25.852  24.013  1.00  0.00     0.003 A 
BRANCH  10  14
ATOM     14  N   UNL A   1      30.820  23.681  24.679  1.00  0.00    -0.278 N 
ATOM     15  H   UNL A   1      30.273  23.264  23.975  1.00  0.00     0.180 HD
BRANCH  14  16
ATOM     16  S   UNL A   1      30.897  22.984  26.245  1.00  0.00     0.282 S 
ATOM     17  O   UNL A   1      30.970  24.089  27.168  1.00  0.00    -0.199 OA
ATOM     18  O   UNL A   1      29.823  22.010  26.349  1.00  0.00    -0.199 OA
BRANCH  16  19
ATOM     19  C   UNL A   1      32.386  22.110  26.440  1.00  0.00     0.213 A 
ATOM     20  N   UNL A   1      33.340  22.465  27.392  1.00  0.00    -0.222 NA
ATOM     21  C   UNL A   1      32.926  21.191  25.567  1.00  0.00     0.149 A 
ATOM     22  C   UNL A   1      34.434  21.824  27.045  1.00  0.00     0.202 A 
ATOM     23  N   UNL A   1      34.255  21.118  25.883  1.00  0.00    -0.324 N 
ATOM     24  Cl  UNL A   1      32.317  20.419  24.178  1.00  0.00    -0.061 Cl
ATOM     25  C   UNL A   1      35.350  20.664  25.061  1.00  0.00     0.152 C 
ENDBRANCH  16  19
ENDBRANCH  14  16
ENDBRANCH  10  14
ENDBRANCH   4   7
ENDBRANCH   2   3
ENDBRANCH   1   2
BRANCH   1  26
ATOM     26  C   UNL A   1      34.331  29.826  27.600  1.00  0.00     0.023 C 
BRANCH  26  27
ATOM     27  C   UNL A   1      34.987  31.170  27.831  1.00  0.00     0.116 C 
BRANCH  27  28
ATOM     28  N   UNL A   1      34.069  32.282  28.048  1.00  0.00    -0.352 N 
ATOM     29  C   UNL A   1      34.079  33.231  29.060  1.00  0.00     0.251 C 
ATOM     30  H   UNL A   1      33.344  32.372  27.388  1.00  0.00     0.163 HD
ATOM     31  O   UNL A   1      33.193  34.077  29.126  1.00  0.00    -0.269 OA
BRANCH  29  32
ATOM     32  C   UNL A   1      35.255  33.316  29.966  1.00  0.00     0.039 A 
ATOM     33  C   UNL A   1      36.330  34.108  29.553  1.00  0.00     0.014 A 
ATOM     34  C   UNL A   1      35.420  32.406  31.003  1.00  0.00     0.014 A 
ATOM     35  C   UNL A   1      37.617  33.762  29.954  1.00  0.00     0.010 A 
ATOM     36  C   UNL A   1      36.698  31.959  31.273  1.00  0.00     0.010 A 
ATOM     37  C   UNL A   1      37.797  32.583  30.678  1.00  0.00    -0.014 A 
BRANCH  37  38
ATOM     38  C   UNL A   1      39.066  31.858  30.699  1.00  0.00     0.031 A 
ATOM     39  C   UNL A   1      39.203  30.559  29.999  1.00  0.00     0.074 A 
ATOM     40  C   UNL A   1      40.146  32.402  31.310  1.00  0.00     0.049 A 
ATOM     41  N   UNL A   1      40.056  29.643  30.320  1.00  0.00    -0.248 NA
ATOM     42  C   UNL A   1      38.329  30.161  28.900  1.00  0.00     0.031 C 
ATOM     43  C   UNL A   1      41.530  31.935  31.223  1.00  0.00     0.029 A 
ATOM     44  N   UNL A   1      40.191  33.368  32.321  1.00  0.00    -0.354 N 
ATOM     45  C   UNL A   1      40.075  28.723  29.295  1.00  0.00     0.074 A 
ATOM     46  C   UNL A   1      38.905  29.025  28.506  1.00  0.00     0.031 C 
ATOM     47  C   UNL A   1      42.192  32.351  32.315  1.00  0.00     0.029 A 
ATOM     48  C   UNL A   1      41.215  32.972  33.195  1.00  0.00     0.049 A 
ATOM     49  H   UNL A   1      39.620  34.165  32.402  1.00  0.00     0.167 HD
ATOM     50  C   UNL A   1      41.163  27.917  29.130  1.00  0.00     0.031 A 
ATOM     51  C   UNL A   1      41.013  32.641  34.504  1.00  0.00     0.031 A 
ATOM     52  C   UNL A   1      42.112  28.049  30.237  1.00  0.00     0.049 A 
ATOM     53  C   UNL A   1      41.477  31.238  34.850  1.00  0.00     0.074 A 
ATOM     54  C   UNL A   1      43.339  28.679  30.365  1.00  0.00     0.029 A 
ATOM     55  N   UNL A   1      41.709  27.712  31.525  1.00  0.00    -0.354 N 
ATOM     56  N   UNL A   1      41.777  30.334  33.960  1.00  0.00    -0.248 NA
ATOM     57  C   UNL A   1      41.556  30.719  36.214  1.00  0.00     0.031 C 
ATOM     58  C   UNL A   1      43.634  28.790  31.749  1.00  0.00     0.029 A 
ATOM     59  C   UNL A   1      42.600  28.205  32.457  1.00  0.00     0.049 A 
ATOM     60  H   UNL A   1      40.901  27.194  31.741  1.00  0.00     0.167 HD
ATOM     61  C   UNL A   1      42.058  29.147  34.585  1.00  0.00     0.074 A 
ATOM     62  C   UNL A   1      41.923  29.442  35.999  1.00  0.00     0.031 C 
ATOM     63  C   UNL A   1      42.349  28.017  33.879  1.00  0.00     0.031 A 
BRANCH  50  64
ATOM     64  C   UNL A   1      41.512  27.239  27.817  1.00  0.00    -0.014 A 
ATOM     65  C   UNL A   1      42.067  28.000  26.770  1.00  0.00     0.009 A 
ATOM     66  C   UNL A   1      41.247  25.894  27.507  1.00  0.00     0.009 A 
ATOM     67  C   UNL A   1      42.243  27.483  25.477  1.00  0.00     0.001 A 
ATOM     68  C   UNL A   1      41.391  25.375  26.212  1.00  0.00     0.001 A 
ATOM     69  C   UNL A   1      41.875  26.175  25.190  1.00  0.00     0.000 A 
ENDBRANCH  50  64
BRANCH  51  70
ATOM     70  C   UNL A   1      39.857  33.313  35.153  1.00  0.00    -0.014 A 
ATOM     71  C   UNL A   1      38.581  32.733  35.021  1.00  0.00     0.009 A 
ATOM     72  C   UNL A   1      40.050  34.289  36.140  1.00  0.00     0.009 A 
ATOM     73  C   UNL A   1      37.556  33.048  35.918  1.00  0.00     0.001 A 
ATOM     74  C   UNL A   1      39.018  34.603  37.035  1.00  0.00     0.001 A 
ATOM     75  C   UNL A   1      37.785  33.961  36.943  1.00  0.00     0.000 A 
ENDBRANCH  51  70
BRANCH  63  76
ATOM     76  C   UNL A   1      42.476  26.627  34.448  1.00  0.00    -0.014 A 
ATOM     77  C   UNL A   1      41.498  26.007  35.237  1.00  0.00     0.009 A 
ATOM     78  C   UNL A   1      43.578  25.833  34.058  1.00  0.00     0.009 A 
ATOM     79  C   UNL A   1      41.636  24.673  35.648  1.00  0.00     0.001 A 
ATOM     80  C   UNL A   1      43.698  24.493  34.431  1.00  0.00     0.001 A 
ATOM     81  C   UNL A   1      42.729  23.914  35.237  1.00  0.00     0.000 A 
ENDBRANCH  63  76
ENDBRANCH  37  38
ENDBRANCH  29  32
ENDBRANCH  27  28
ENDBRANCH  26  27
ENDBRANCH   1  26
TORSDOF 14
ENDMDL
MODEL 3
REMARK VINA RESULT:     -11.7      3.708      8.979
REMARK SMILES Cc1c(NS(=O)(=O)c2ncn(C)c2Cl)cccc1C(=O)NCCCCNC(=O)c1ccc(-c2c3nc(c(-c4ccccc4)c4ccc([nH]4)c(-c4ccccc4)c4nc(c(-c5ccccc5)c5ccc2[nH]5)C=C4)C=C3)cc1
REMARK SMILES IDX 23 1 22 2 21 3 19 4 20 5 18 7 1 8 2 9 3 10 15 11 17 12 16 13
REMARK SMILES IDX 4 14 5 16 6 17 7 18 8 19 9 20 13 21 10 22 11 23 14 24 12 25
REMARK SMILES IDX 24 26 25 27 26 28 27 29 28 31 29 32 30 33 76 34 31 35 75 36
REMARK SMILES IDX 32 37 33 38 34 39 69 40 35 41 74 42 68 43 70 44 36 45 73 46
REMARK SMILES IDX 67 47 66 48 37 50 59 51 44 52 58 53 45 54 48 55 57 56 71 57
REMARK SMILES IDX 46 58 47 59 56 61 72 62 49 63 38 64 39 65 43 66 40 67 42 68
REMARK SMILES IDX 41 69 60 70 61 71 65 72 62 73 64 74 63 75 50 76 51 77 55 78
REMARK SMILES IDX 52 79 54 80 53 81
REMARK H PARENT 21 6 4 15 26 30 70 49 48 60
REMARK Flexibility Score: inf
ROOT
ATOM      1  C   UNL A   1      34.076  28.825  26.957  1.00  0.00     0.023 C 
ENDROOT
BRANCH   1   2
ATOM      2  C   UNL A   1      32.591  28.738  27.343  1.00  0.00     0.116 C 
BRANCH   2   3
ATOM      3  N   UNL A   1      31.761  29.378  26.349  1.00  0.00    -0.352 N 
ATOM      4  C   UNL A   1      31.472  29.240  25.022  1.00  0.00     0.251 C 
ATOM      5  O   UNL A   1      30.688  30.124  24.639  1.00  0.00    -0.269 OA
ATOM      6  H   UNL A   1      31.259  30.128  26.741  1.00  0.00     0.163 HD
BRANCH   4   7
ATOM      7  C   UNL A   1      31.929  28.218  23.994  1.00  0.00     0.044 A 
ATOM      8  C   UNL A   1      30.517  26.138  24.522  1.00  0.00     0.047 C 
ATOM      9  C   UNL A   1      31.544  26.869  23.722  1.00  0.00    -0.014 A 
ATOM     10  C   UNL A   1      32.249  26.122  22.734  1.00  0.00     0.053 A 
ATOM     11  C   UNL A   1      33.437  26.629  22.215  1.00  0.00     0.027 A 
ATOM     12  C   UNL A   1      33.039  28.726  23.267  1.00  0.00     0.014 A 
ATOM     13  C   UNL A   1      33.813  27.938  22.430  1.00  0.00     0.003 A 
BRANCH  10  14
ATOM     14  N   UNL A   1      31.888  24.772  22.357  1.00  0.00    -0.278 N 
ATOM     15  H   UNL A   1      31.061  24.602  21.851  1.00  0.00     0.180 HD
BRANCH  14  16
ATOM     16  S   UNL A   1      32.915  23.471  22.799  1.00  0.00     0.282 S 
ATOM     17  O   UNL A   1      32.116  22.277  22.682  1.00  0.00    -0.199 OA
ATOM     18  O   UNL A   1      34.150  23.605  22.045  1.00  0.00    -0.199 OA
BRANCH  16  19
ATOM     19  C   UNL A   1      33.340  23.588  24.481  1.00  0.00     0.213 A 
ATOM     20  N   UNL A   1      34.653  23.778  24.907  1.00  0.00    -0.222 NA
ATOM     21  C   UNL A   1      32.549  23.252  25.558  1.00  0.00     0.149 A 
ATOM     22  C   UNL A   1      34.648  23.493  26.190  1.00  0.00     0.202 A 
ATOM     23  N   UNL A   1      33.411  23.070  26.606  1.00  0.00    -0.324 N 
ATOM     24  Cl  UNL A   1      30.904  22.843  25.703  1.00  0.00    -0.061 Cl
ATOM     25  C   UNL A   1      33.202  22.322  27.821  1.00  0.00     0.152 C 
ENDBRANCH  16  19
ENDBRANCH  14  16
ENDBRANCH  10  14
ENDBRANCH   4   7
ENDBRANCH   2   3
ENDBRANCH   1   2
BRANCH   1  26
ATOM     26  C   UNL A   1      34.997  29.481  27.978  1.00  0.00     0.023 C 
BRANCH  26  27
ATOM     27  C   UNL A   1      35.391  30.895  27.613  1.00  0.00     0.116 C 
BRANCH  27  28
ATOM     28  N   UNL A   1      34.380  31.912  27.879  1.00  0.00    -0.352 N 
ATOM     29  C   UNL A   1      34.353  32.866  28.885  1.00  0.00     0.251 C 
ATOM     30  H   UNL A   1      33.613  31.922  27.261  1.00  0.00     0.163 HD
ATOM     31  O   UNL A   1      33.392  33.621  28.998  1.00  0.00    -0.269 OA
BRANCH  29  32
ATOM     32  C   UNL A   1      35.565  33.078  29.720  1.00  0.00     0.039 A 
ATOM     33  C   UNL A   1      36.620  33.798  29.154  1.00  0.00     0.014 A 
ATOM     34  C   UNL A   1      35.774  32.326  30.870  1.00  0.00     0.014 A 
ATOM     35  C   UNL A   1      37.923  33.509  29.548  1.00  0.00     0.010 A 
ATOM     36  C   UNL A   1      37.064  31.918  31.150  1.00  0.00     0.010 A 
ATOM     37  C   UNL A   1      38.136  32.447  30.427  1.00  0.00    -0.014 A 
BRANCH  37  38
ATOM     38  C   UNL A   1      39.406  31.727  30.501  1.00  0.00     0.031 A 
ATOM     39  C   UNL A   1      39.584  30.438  29.792  1.00  0.00     0.074 A 
ATOM     40  C   UNL A   1      40.452  32.270  31.170  1.00  0.00     0.049 A 
ATOM     41  N   UNL A   1      40.427  29.523  30.144  1.00  0.00    -0.248 NA
ATOM     42  C   UNL A   1      38.767  30.050  28.648  1.00  0.00     0.031 C 
ATOM     43  C   UNL A   1      41.842  31.812  31.145  1.00  0.00     0.029 A 
ATOM     44  N   UNL A   1      40.442  33.224  32.194  1.00  0.00    -0.354 N 
ATOM     45  C   UNL A   1      40.500  28.616  29.110  1.00  0.00     0.074 A 
ATOM     46  C   UNL A   1      39.368  28.921  28.269  1.00  0.00     0.031 C 
ATOM     47  C   UNL A   1      42.447  32.218  32.272  1.00  0.00     0.029 A 
ATOM     48  C   UNL A   1      41.425  32.823  33.111  1.00  0.00     0.049 A 
ATOM     49  H   UNL A   1      39.863  34.017  32.256  1.00  0.00     0.167 HD
ATOM     50  C   UNL A   1      41.600  27.818  28.989  1.00  0.00     0.031 A 
ATOM     51  C   UNL A   1      41.162  32.475  34.405  1.00  0.00     0.031 A 
ATOM     52  C   UNL A   1      42.493  27.941  30.141  1.00  0.00     0.049 A 
ATOM     53  C   UNL A   1      41.617  31.070  34.756  1.00  0.00     0.074 A 
ATOM     54  C   UNL A   1      43.709  28.576  30.337  1.00  0.00     0.029 A 
ATOM     55  N   UNL A   1      42.031  27.586  31.404  1.00  0.00    -0.354 N 
ATOM     56  N   UNL A   1      41.965  30.178  33.871  1.00  0.00    -0.248 NA
ATOM     57  C   UNL A   1      41.633  30.534  36.116  1.00  0.00     0.031 C 
ATOM     58  C   UNL A   1      43.936  28.672  31.734  1.00  0.00     0.029 A 
ATOM     59  C   UNL A   1      42.872  28.072  32.384  1.00  0.00     0.049 A 
ATOM     60  H   UNL A   1      41.216  27.061  31.575  1.00  0.00     0.167 HD
ATOM     61  C   UNL A   1      42.222  28.985  34.495  1.00  0.00     0.074 A 
ATOM     62  C   UNL A   1      42.017  29.262  35.904  1.00  0.00     0.031 C 
ATOM     63  C   UNL A   1      42.553  27.866  33.791  1.00  0.00     0.031 A 
BRANCH  50  64
ATOM     64  C   UNL A   1      42.016  27.158  27.686  1.00  0.00    -0.014 A 
ATOM     65  C   UNL A   1      42.590  25.872  27.712  1.00  0.00     0.009 A 
ATOM     66  C   UNL A   1      41.956  27.763  26.419  1.00  0.00     0.009 A 
ATOM     67  C   UNL A   1      43.161  25.281  26.574  1.00  0.00     0.001 A 
ATOM     68  C   UNL A   1      42.550  27.196  25.281  1.00  0.00     0.001 A 
ATOM     69  C   UNL A   1      43.168  25.959  25.362  1.00  0.00     0.000 A 
ENDBRANCH  50  64
BRANCH  51  70
ATOM     70  C   UNL A   1      39.971  33.132  35.005  1.00  0.00    -0.014 A 
ATOM     71  C   UNL A   1      38.764  32.411  35.065  1.00  0.00     0.009 A 
ATOM     72  C   UNL A   1      40.103  34.286  35.790  1.00  0.00     0.009 A 
ATOM     73  C   UNL A   1      37.756  32.779  35.962  1.00  0.00     0.001 A 
ATOM     74  C   UNL A   1      39.089  34.651  36.685  1.00  0.00     0.001 A 
ATOM     75  C   UNL A   1      37.932  33.881  36.793  1.00  0.00     0.000 A 
ENDBRANCH  51  70
BRANCH  63  76
ATOM     76  C   UNL A   1      42.661  26.470  34.348  1.00  0.00    -0.014 A 
ATOM     77  C   UNL A   1      41.681  25.862  35.145  1.00  0.00     0.009 A 
ATOM     78  C   UNL A   1      43.743  25.657  33.939  1.00  0.00     0.009 A 
ATOM     79  C   UNL A   1      41.799  24.523  35.545  1.00  0.00     0.001 A 
ATOM     80  C   UNL A   1      43.842  24.313  34.301  1.00  0.00     0.001 A 
ATOM     81  C   UNL A   1      42.872  23.747  35.115  1.00  0.00     0.000 A 
ENDBRANCH  63  76
ENDBRANCH  37  38
ENDBRANCH  29  32
ENDBRANCH  27  28
ENDBRANCH  26  27
ENDBRANCH   1  26
TORSDOF 14
ENDMDL
