MODEL 1
REMARK VINA RESULT:      -8.7      0.000      0.000
REMARK SMILES [NH3+][C@H](Cc1cc(F)c(F)c(F)c1)C(=O)NCCCCNC(=O)c1ccc(-c2c3nc(c(-c4ccccc4)c4ccc([nH]4)c(-c4ccccc4)c4nc(c(-c5ccccc5)c5ccc2[nH]5)C=C4)C=C3)cc1
REMARK SMILES IDX 17 1 16 2 15 3 13 4 14 5 2 7 1 8 3 12 4 13 5 14 12 15 6 16
REMARK SMILES IDX 10 17 7 18 8 19 11 20 9 21 18 22 19 23 20 24 21 25 22 27
REMARK SMILES IDX 23 28 24 29 70 30 25 31 69 32 26 33 27 34 28 35 63 36 29 37
REMARK SMILES IDX 68 38 62 39 64 40 30 41 67 42 61 43 60 44 31 46 53 47 38 48
REMARK SMILES IDX 52 49 39 50 42 51 51 52 65 53 40 54 41 55 50 57 66 58 43 59
REMARK SMILES IDX 32 60 33 61 37 62 34 63 36 64 35 65 54 66 55 67 59 68 56 69
REMARK SMILES IDX 58 70 57 71 44 72 45 73 49 74 46 75 48 76 47 77
REMARK H PARENT 15 6 1 9 1 10 1 11 20 26 64 45 42 56
REMARK Flexibility Score: inf
ROOT
ATOM      1  C   UNL A   1      34.660  33.706  32.860  1.00  0.00     0.023 C 
ENDROOT
BRANCH   1   2
ATOM      2  C   UNL A   1      35.153  33.829  34.303  1.00  0.00     0.116 C 
BRANCH   2   3
ATOM      3  N   UNL A   1      36.414  34.522  34.377  1.00  0.00    -0.351 N 
ATOM      4  C   UNL A   1      37.565  34.215  35.033  1.00  0.00     0.278 C 
ATOM      5  O   UNL A   1      38.496  35.017  34.904  1.00  0.00    -0.268 OA
ATOM      6  H   UNL A   1      36.448  35.362  33.865  1.00  0.00     0.163 HD
BRANCH   4   7
ATOM      7  C   UNL A   1      37.751  32.923  35.873  1.00  0.00     0.275 C 
BRANCH   7   8
ATOM      8  N   UNL A   1      37.397  33.155  37.280  1.00  0.00    -0.347 N 
ATOM      9  H   UNL A   1      37.985  33.898  37.661  1.00  0.00     0.345 HD
ATOM     10  H   UNL A   1      37.545  32.299  37.814  1.00  0.00     0.345 HD
ATOM     11  H   UNL A   1      36.418  33.431  37.344  1.00  0.00     0.345 HD
ENDBRANCH   7   8
BRANCH   7  12
ATOM     12  C   UNL A   1      38.995  32.053  35.547  1.00  0.00     0.111 C 
BRANCH  12  13
ATOM     13  C   UNL A   1      39.035  30.913  34.542  1.00  0.00    -0.036 A 
ATOM     14  C   UNL A   1      40.251  30.213  34.405  1.00  0.00     0.046 A 
ATOM     15  C   UNL A   1      37.982  30.533  33.700  1.00  0.00     0.046 A 
ATOM     16  C   UNL A   1      40.368  29.128  33.531  1.00  0.00     0.162 A 
ATOM     17  C   UNL A   1      38.098  29.421  32.859  1.00  0.00     0.162 A 
ATOM     18  F   UNL A   1      41.538  28.483  33.444  1.00  0.00    -0.204 F 
ATOM     19  C   UNL A   1      39.284  28.713  32.777  1.00  0.00     0.194 A 
ATOM     20  F   UNL A   1      37.029  29.034  32.150  1.00  0.00    -0.204 F 
ATOM     21  F   UNL A   1      39.380  27.640  31.980  1.00  0.00    -0.200 F 
ENDBRANCH  12  13
ENDBRANCH   7  12
ENDBRANCH   4   7
ENDBRANCH   2   3
ENDBRANCH   1   2
BRANCH   1  22
ATOM     22  C   UNL A   1      33.523  34.669  32.514  1.00  0.00     0.023 C 
BRANCH  22  23
ATOM     23  C   UNL A   1      33.792  35.577  31.318  1.00  0.00     0.116 C 
BRANCH  23  24
ATOM     24  N   UNL A   1      32.983  35.274  30.145  1.00  0.00    -0.352 N 
ATOM     25  C   UNL A   1      33.273  34.403  29.120  1.00  0.00     0.251 C 
ATOM     26  H   UNL A   1      32.124  35.751  30.077  1.00  0.00     0.163 HD
ATOM     27  O   UNL A   1      32.528  34.297  28.151  1.00  0.00    -0.269 OA
BRANCH  25  28
ATOM     28  C   UNL A   1      34.531  33.631  29.179  1.00  0.00     0.039 A 
ATOM     29  C   UNL A   1      35.709  34.228  28.729  1.00  0.00     0.014 A 
ATOM     30  C   UNL A   1      34.553  32.364  29.768  1.00  0.00     0.014 A 
ATOM     31  C   UNL A   1      36.931  33.591  28.954  1.00  0.00     0.010 A 
ATOM     32  C   UNL A   1      35.775  31.769  30.061  1.00  0.00     0.010 A 
ATOM     33  C   UNL A   1      36.976  32.382  29.668  1.00  0.00    -0.014 A 
BRANCH  33  34
ATOM     34  C   UNL A   1      38.268  31.749  30.035  1.00  0.00     0.031 A 
ATOM     35  C   UNL A   1      39.221  32.460  30.953  1.00  0.00     0.074 A 
ATOM     36  C   UNL A   1      38.618  30.574  29.476  1.00  0.00     0.049 A 
ATOM     37  N   UNL A   1      40.427  32.108  31.323  1.00  0.00    -0.248 NA
ATOM     38  C   UNL A   1      38.776  33.750  31.503  1.00  0.00     0.031 C 
ATOM     39  C   UNL A   1      37.808  29.805  28.528  1.00  0.00     0.029 A 
ATOM     40  N   UNL A   1      39.759  29.824  29.618  1.00  0.00    -0.354 N 
ATOM     41  C   UNL A   1      40.890  33.142  32.125  1.00  0.00     0.074 A 
ATOM     42  C   UNL A   1      39.857  34.156  32.149  1.00  0.00     0.031 C 
ATOM     43  C   UNL A   1      38.462  28.679  28.200  1.00  0.00     0.029 A 
ATOM     44  C   UNL A   1      39.752  28.664  28.882  1.00  0.00     0.049 A 
ATOM     45  H   UNL A   1      40.511  30.091  30.195  1.00  0.00     0.167 HD
ATOM     46  C   UNL A   1      42.060  33.235  32.799  1.00  0.00     0.031 A 
ATOM     47  C   UNL A   1      40.682  27.698  28.765  1.00  0.00     0.031 A 
ATOM     48  C   UNL A   1      43.077  32.219  32.797  1.00  0.00     0.049 A 
ATOM     49  C   UNL A   1      41.969  27.818  29.531  1.00  0.00     0.074 A 
ATOM     50  C   UNL A   1      44.268  32.190  33.503  1.00  0.00     0.029 A 
ATOM     51  N   UNL A   1      43.021  31.049  32.056  1.00  0.00    -0.354 N 
ATOM     52  N   UNL A   1      42.362  28.771  30.340  1.00  0.00    -0.248 NA
ATOM     53  C   UNL A   1      42.936  26.721  29.376  1.00  0.00     0.031 C 
ATOM     54  C   UNL A   1      44.952  31.020  33.156  1.00  0.00     0.029 A 
ATOM     55  C   UNL A   1      44.165  30.299  32.272  1.00  0.00     0.049 A 
ATOM     56  H   UNL A   1      42.279  30.791  31.464  1.00  0.00     0.167 HD
ATOM     57  C   UNL A   1      43.608  28.378  30.811  1.00  0.00     0.074 A 
ATOM     58  C   UNL A   1      43.899  27.093  30.208  1.00  0.00     0.031 C 
ATOM     59  C   UNL A   1      44.437  29.022  31.667  1.00  0.00     0.031 A 
BRANCH  46  60
ATOM     60  C   UNL A   1      42.299  34.485  33.597  1.00  0.00    -0.014 A 
ATOM     61  C   UNL A   1      41.926  34.566  34.949  1.00  0.00     0.009 A 
ATOM     62  C   UNL A   1      42.922  35.590  32.996  1.00  0.00     0.009 A 
ATOM     63  C   UNL A   1      42.138  35.741  35.671  1.00  0.00     0.001 A 
ATOM     64  C   UNL A   1      43.158  36.754  33.730  1.00  0.00     0.001 A 
ATOM     65  C   UNL A   1      42.757  36.832  35.063  1.00  0.00     0.000 A 
ENDBRANCH  46  60
BRANCH  47  66
ATOM     66  C   UNL A   1      40.424  26.513  27.905  1.00  0.00    -0.014 A 
ATOM     67  C   UNL A   1      40.944  26.456  26.603  1.00  0.00     0.009 A 
ATOM     68  C   UNL A   1      39.653  25.440  28.376  1.00  0.00     0.009 A 
ATOM     69  C   UNL A   1      40.673  25.360  25.780  1.00  0.00     0.001 A 
ATOM     70  C   UNL A   1      39.406  24.333  27.560  1.00  0.00     0.001 A 
ATOM     71  C   UNL A   1      39.908  24.300  26.260  1.00  0.00     0.000 A 
ENDBRANCH  47  66
BRANCH  59  72
ATOM     72  C   UNL A   1      45.720  28.333  32.029  1.00  0.00    -0.014 A 
ATOM     73  C   UNL A   1      45.785  27.435  33.105  1.00  0.00     0.009 A 
ATOM     74  C   UNL A   1      46.869  28.554  31.254  1.00  0.00     0.009 A 
ATOM     75  C   UNL A   1      46.986  26.793  33.416  1.00  0.00     0.001 A 
ATOM     76  C   UNL A   1      48.062  27.892  31.552  1.00  0.00     0.001 A 
ATOM     77  C   UNL A   1      48.120  27.019  32.636  1.00  0.00     0.000 A 
ENDBRANCH  59  72
ENDBRANCH  33  34
ENDBRANCH  25  28
ENDBRANCH  23  24
ENDBRANCH  22  23
ENDBRANCH   1  22
TORSDOF 14
ENDMDL
MODEL 2
REMARK VINA RESULT:      -8.7      2.588      4.365
REMARK SMILES [NH3+][C@H](Cc1cc(F)c(F)c(F)c1)C(=O)NCCCCNC(=O)c1ccc(-c2c3nc(c(-c4ccccc4)c4ccc([nH]4)c(-c4ccccc4)c4nc(c(-c5ccccc5)c5ccc2[nH]5)C=C4)C=C3)cc1
REMARK SMILES IDX 17 1 16 2 15 3 13 4 14 5 2 7 1 8 3 12 4 13 5 14 12 15 6 16
REMARK SMILES IDX 10 17 7 18 8 19 11 20 9 21 18 22 19 23 20 24 21 25 22 27
REMARK SMILES IDX 23 28 24 29 70 30 25 31 69 32 26 33 27 34 28 35 63 36 29 37
REMARK SMILES IDX 68 38 62 39 64 40 30 41 67 42 61 43 60 44 31 46 53 47 38 48
REMARK SMILES IDX 52 49 39 50 42 51 51 52 65 53 40 54 41 55 50 57 66 58 43 59
REMARK SMILES IDX 32 60 33 61 37 62 34 63 36 64 35 65 54 66 55 67 59 68 56 69
REMARK SMILES IDX 58 70 57 71 44 72 45 73 49 74 46 75 48 76 47 77
REMARK H PARENT 15 6 1 9 1 10 1 11 20 26 64 45 42 56
REMARK Flexibility Score: inf
ROOT
ATOM      1  C   UNL A   1      34.362  34.694  28.042  1.00  0.00     0.023 C 
ENDROOT
BRANCH   1   2
ATOM      2  C   UNL A   1      33.210  34.737  29.047  1.00  0.00     0.116 C 
BRANCH   2   3
ATOM      3  N   UNL A   1      33.090  36.035  29.662  1.00  0.00    -0.351 N 
ATOM      4  C   UNL A   1      33.000  36.399  30.969  1.00  0.00     0.278 C 
ATOM      5  O   UNL A   1      32.906  37.611  31.192  1.00  0.00    -0.268 OA
ATOM      6  H   UNL A   1      33.068  36.787  29.027  1.00  0.00     0.163 HD
BRANCH   4   7
ATOM      7  C   UNL A   1      33.049  35.385  32.144  1.00  0.00     0.275 C 
BRANCH   7   8
ATOM      8  N   UNL A   1      31.770  35.356  32.867  1.00  0.00    -0.347 N 
ATOM      9  H   UNL A   1      31.945  35.419  33.871  1.00  0.00     0.345 HD
ATOM     10  H   UNL A   1      31.282  34.484  32.662  1.00  0.00     0.345 HD
ATOM     11  H   UNL A   1      31.195  36.144  32.573  1.00  0.00     0.345 HD
ENDBRANCH   7   8
BRANCH   7  12
ATOM     12  C   UNL A   1      34.370  35.323  32.957  1.00  0.00     0.111 C 
BRANCH  12  13
ATOM     13  C   UNL A   1      35.458  34.274  32.793  1.00  0.00    -0.036 A 
ATOM     14  C   UNL A   1      35.922  33.633  33.960  1.00  0.00     0.046 A 
ATOM     15  C   UNL A   1      36.079  33.928  31.586  1.00  0.00     0.046 A 
ATOM     16  C   UNL A   1      36.895  32.632  33.898  1.00  0.00     0.162 A 
ATOM     17  C   UNL A   1      37.022  32.895  31.532  1.00  0.00     0.162 A 
ATOM     18  F   UNL A   1      37.295  32.040  35.031  1.00  0.00    -0.204 F 
ATOM     19  C   UNL A   1      37.426  32.241  32.682  1.00  0.00     0.194 A 
ATOM     20  F   UNL A   1      37.510  32.530  30.339  1.00  0.00    -0.204 F 
ATOM     21  F   UNL A   1      38.319  31.244  32.617  1.00  0.00    -0.200 F 
ENDBRANCH  12  13
ENDBRANCH   7  12
ENDBRANCH   4   7
ENDBRANCH   2   3
ENDBRANCH   1   2
BRANCH   1  22
ATOM     22  C   UNL A   1      35.089  33.349  27.998  1.00  0.00     0.023 C 
BRANCH  22  23
ATOM     23  C   UNL A   1      34.527  32.282  28.933  1.00  0.00     0.116 C 
BRANCH  23  24
ATOM     24  N   UNL A   1      33.996  31.110  28.250  1.00  0.00    -0.352 N 
ATOM     25  C   UNL A   1      34.664  29.956  27.909  1.00  0.00     0.251 C 
ATOM     26  H   UNL A   1      33.044  31.149  28.003  1.00  0.00     0.163 HD
ATOM     27  O   UNL A   1      34.107  29.071  27.267  1.00  0.00    -0.269 OA
BRANCH  25  28
ATOM     28  C   UNL A   1      36.086  29.822  28.282  1.00  0.00     0.039 A 
ATOM     29  C   UNL A   1      36.407  29.328  29.546  1.00  0.00     0.014 A 
ATOM     30  C   UNL A   1      37.088  30.094  27.347  1.00  0.00     0.014 A 
ATOM     31  C   UNL A   1      37.735  29.015  29.844  1.00  0.00     0.010 A 
ATOM     32  C   UNL A   1      38.396  29.707  27.616  1.00  0.00     0.010 A 
ATOM     33  C   UNL A   1      38.731  29.153  28.863  1.00  0.00    -0.014 A 
BRANCH  33  34
ATOM     34  C   UNL A   1      40.125  28.706  29.108  1.00  0.00     0.031 A 
ATOM     35  C   UNL A   1      41.115  29.641  29.743  1.00  0.00     0.074 A 
ATOM     36  C   UNL A   1      40.521  27.491  28.682  1.00  0.00     0.049 A 
ATOM     37  N   UNL A   1      42.393  29.462  29.963  1.00  0.00    -0.248 NA
ATOM     38  C   UNL A   1      40.611  30.959  30.158  1.00  0.00     0.031 C 
ATOM     39  C   UNL A   1      39.674  26.507  28.003  1.00  0.00     0.029 A 
ATOM     40  N   UNL A   1      41.748  26.878  28.750  1.00  0.00    -0.354 N 
ATOM     41  C   UNL A   1      42.848  30.652  30.516  1.00  0.00     0.074 A 
ATOM     42  C   UNL A   1      41.722  31.560  30.554  1.00  0.00     0.031 C 
ATOM     43  C   UNL A   1      40.396  25.404  27.746  1.00  0.00     0.029 A 
ATOM     44  C   UNL A   1      41.765  25.616  28.206  1.00  0.00     0.049 A 
ATOM     45  H   UNL A   1      42.540  27.303  29.151  1.00  0.00     0.167 HD
ATOM     46  C   UNL A   1      44.086  30.958  30.972  1.00  0.00     0.031 A 
ATOM     47  C   UNL A   1      42.771  24.730  28.087  1.00  0.00     0.031 A 
ATOM     48  C   UNL A   1      45.199  30.049  30.959  1.00  0.00     0.049 A 
ATOM     49  C   UNL A   1      44.134  25.088  28.610  1.00  0.00     0.074 A 
ATOM     50  C   UNL A   1      46.475  30.243  31.460  1.00  0.00     0.029 A 
ATOM     51  N   UNL A   1      45.169  28.773  30.420  1.00  0.00    -0.354 N 
ATOM     52  N   UNL A   1      44.530  26.194  29.193  1.00  0.00    -0.248 NA
ATOM     53  C   UNL A   1      45.185  24.071  28.468  1.00  0.00     0.031 C 
ATOM     54  C   UNL A   1      47.230  29.096  31.187  1.00  0.00     0.029 A 
ATOM     55  C   UNL A   1      46.409  28.173  30.559  1.00  0.00     0.049 A 
ATOM     56  H   UNL A   1      44.383  28.356  30.000  1.00  0.00     0.167 HD
ATOM     57  C   UNL A   1      45.867  25.995  29.511  1.00  0.00     0.074 A 
ATOM     58  C   UNL A   1      46.211  24.659  29.069  1.00  0.00     0.031 C 
ATOM     59  C   UNL A   1      46.733  26.843  30.116  1.00  0.00     0.031 A 
BRANCH  46  60
ATOM     60  C   UNL A   1      44.294  32.339  31.525  1.00  0.00    -0.014 A 
ATOM     61  C   UNL A   1      44.775  33.381  30.713  1.00  0.00     0.009 A 
ATOM     62  C   UNL A   1      43.988  32.609  32.866  1.00  0.00     0.009 A 
ATOM     63  C   UNL A   1      44.980  34.654  31.246  1.00  0.00     0.001 A 
ATOM     64  C   UNL A   1      44.167  33.891  33.389  1.00  0.00     0.001 A 
ATOM     65  C   UNL A   1      44.673  34.909  32.582  1.00  0.00     0.000 A 
ENDBRANCH  46  60
BRANCH  47  66
ATOM     66  C   UNL A   1      42.527  23.402  27.468  1.00  0.00    -0.014 A 
ATOM     67  C   UNL A   1      42.808  23.192  26.109  1.00  0.00     0.009 A 
ATOM     68  C   UNL A   1      42.006  22.342  28.225  1.00  0.00     0.009 A 
ATOM     69  C   UNL A   1      42.545  21.955  25.515  1.00  0.00     0.001 A 
ATOM     70  C   UNL A   1      41.769  21.098  27.635  1.00  0.00     0.001 A 
ATOM     71  C   UNL A   1      42.030  20.909  26.279  1.00  0.00     0.000 A 
ENDBRANCH  47  66
BRANCH  59  72
ATOM     72  C   UNL A   1      48.124  26.339  30.367  1.00  0.00    -0.014 A 
ATOM     73  C   UNL A   1      48.467  25.716  31.577  1.00  0.00     0.009 A 
ATOM     74  C   UNL A   1      49.094  26.450  29.359  1.00  0.00     0.009 A 
ATOM     75  C   UNL A   1      49.764  25.242  31.783  1.00  0.00     0.001 A 
ATOM     76  C   UNL A   1      50.383  25.952  29.558  1.00  0.00     0.001 A 
ATOM     77  C   UNL A   1      50.718  25.356  30.773  1.00  0.00     0.000 A 
ENDBRANCH  59  72
ENDBRANCH  33  34
ENDBRANCH  25  28
ENDBRANCH  23  24
ENDBRANCH  22  23
ENDBRANCH   1  22
TORSDOF 14
ENDMDL
MODEL 3
REMARK VINA RESULT:      -8.6      0.294      6.110
REMARK SMILES [NH3+][C@H](Cc1cc(F)c(F)c(F)c1)C(=O)NCCCCNC(=O)c1ccc(-c2c3nc(c(-c4ccccc4)c4ccc([nH]4)c(-c4ccccc4)c4nc(c(-c5ccccc5)c5ccc2[nH]5)C=C4)C=C3)cc1
REMARK SMILES IDX 17 1 16 2 15 3 13 4 14 5 2 7 1 8 3 12 4 13 5 14 12 15 6 16
REMARK SMILES IDX 10 17 7 18 8 19 11 20 9 21 18 22 19 23 20 24 21 25 22 27
REMARK SMILES IDX 23 28 24 29 70 30 25 31 69 32 26 33 27 34 28 35 63 36 29 37
REMARK SMILES IDX 68 38 62 39 64 40 30 41 67 42 61 43 60 44 31 46 53 47 38 48
REMARK SMILES IDX 52 49 39 50 42 51 51 52 65 53 40 54 41 55 50 57 66 58 43 59
REMARK SMILES IDX 32 60 33 61 37 62 34 63 36 64 35 65 54 66 55 67 59 68 56 69
REMARK SMILES IDX 58 70 57 71 44 72 45 73 49 74 46 75 48 76 47 77
REMARK H PARENT 15 6 1 9 1 10 1 11 20 26 64 45 42 56
REMARK Flexibility Score: inf
ROOT
ATOM      1  C   UNL A   1      34.771  33.753  32.741  1.00  0.00     0.023 C 
ENDROOT
BRANCH   1   2
ATOM      2  C   UNL A   1      35.166  33.853  34.214  1.00  0.00     0.116 C 
BRANCH   2   3
ATOM      3  N   UNL A   1      36.398  34.580  34.386  1.00  0.00    -0.351 N 
ATOM      4  C   UNL A   1      37.553  34.243  35.021  1.00  0.00     0.278 C 
ATOM      5  O   UNL A   1      38.454  35.089  34.998  1.00  0.00    -0.268 OA
ATOM      6  H   UNL A   1      36.406  35.473  33.973  1.00  0.00     0.163 HD
BRANCH   4   7
ATOM      7  C   UNL A   1      37.779  32.871  35.713  1.00  0.00     0.275 C 
BRANCH   7   8
ATOM      8  N   UNL A   1      37.475  32.950  37.149  1.00  0.00    -0.347 N 
ATOM      9  H   UNL A   1      38.054  33.672  37.579  1.00  0.00     0.345 HD
ATOM     10  H   UNL A   1      37.672  32.051  37.588  1.00  0.00     0.345 HD
ATOM     11  H   UNL A   1      36.491  33.183  37.276  1.00  0.00     0.345 HD
ENDBRANCH   7   8
BRANCH   7  12
ATOM     12  C   UNL A   1      39.016  32.054  35.253  1.00  0.00     0.111 C 
BRANCH  12  13
ATOM     13  C   UNL A   1      38.989  30.884  34.282  1.00  0.00    -0.036 A 
ATOM     14  C   UNL A   1      40.157  30.102  34.177  1.00  0.00     0.046 A 
ATOM     15  C   UNL A   1      37.920  30.550  33.441  1.00  0.00     0.046 A 
ATOM     16  C   UNL A   1      40.209  28.987  33.337  1.00  0.00     0.162 A 
ATOM     17  C   UNL A   1      37.969  29.407  32.635  1.00  0.00     0.162 A 
ATOM     18  F   UNL A   1      41.335  28.264  33.280  1.00  0.00    -0.204 F 
ATOM     19  C   UNL A   1      39.106  28.621  32.585  1.00  0.00     0.194 A 
ATOM     20  F   UNL A   1      36.882  29.070  31.927  1.00  0.00    -0.204 F 
ATOM     21  F   UNL A   1      39.137  27.521  31.820  1.00  0.00    -0.200 F 
ENDBRANCH  12  13
ENDBRANCH   7  12
ENDBRANCH   4   7
ENDBRANCH   2   3
ENDBRANCH   1   2
BRANCH   1  22
ATOM     22  C   UNL A   1      33.532  34.573  32.379  1.00  0.00     0.023 C 
BRANCH  22  23
ATOM     23  C   UNL A   1      33.705  35.509  31.186  1.00  0.00     0.116 C 
BRANCH  23  24
ATOM     24  N   UNL A   1      32.916  35.141  30.019  1.00  0.00    -0.352 N 
ATOM     25  C   UNL A   1      33.259  34.279  29.003  1.00  0.00     0.251 C 
ATOM     26  H   UNL A   1      32.028  35.562  29.948  1.00  0.00     0.163 HD
ATOM     27  O   UNL A   1      32.521  34.116  28.037  1.00  0.00    -0.269 OA
BRANCH  25  28
ATOM     28  C   UNL A   1      34.563  33.591  29.067  1.00  0.00     0.039 A 
ATOM     29  C   UNL A   1      35.695  34.242  28.574  1.00  0.00     0.014 A 
ATOM     30  C   UNL A   1      34.675  32.350  29.700  1.00  0.00     0.014 A 
ATOM     31  C   UNL A   1      36.957  33.692  28.800  1.00  0.00     0.010 A 
ATOM     32  C   UNL A   1      35.937  31.844  29.993  1.00  0.00     0.010 A 
ATOM     33  C   UNL A   1      37.090  32.515  29.556  1.00  0.00    -0.014 A 
BRANCH  33  34
ATOM     34  C   UNL A   1      38.425  31.979  29.923  1.00  0.00     0.031 A 
ATOM     35  C   UNL A   1      38.876  30.650  29.386  1.00  0.00     0.074 A 
ATOM     36  C   UNL A   1      39.194  32.647  30.805  1.00  0.00     0.049 A 
ATOM     37  N   UNL A   1      39.968  29.980  29.655  1.00  0.00    -0.248 NA
ATOM     38  C   UNL A   1      37.969  29.971  28.447  1.00  0.00     0.031 C 
ATOM     39  C   UNL A   1      38.852  33.921  31.442  1.00  0.00     0.029 A 
ATOM     40  N   UNL A   1      40.426  32.338  31.326  1.00  0.00    -0.354 N 
ATOM     41  C   UNL A   1      39.865  28.793  28.941  1.00  0.00     0.074 A 
ATOM     42  C   UNL A   1      38.585  28.814  28.267  1.00  0.00     0.031 C 
ATOM     43  C   UNL A   1      39.861  34.300  32.242  1.00  0.00     0.029 A 
ATOM     44  C   UNL A   1      40.904  33.280  32.206  1.00  0.00     0.049 A 
ATOM     45  H   UNL A   1      40.921  31.520  31.092  1.00  0.00     0.167 HD
ATOM     46  C   UNL A   1      40.761  27.784  28.838  1.00  0.00     0.031 A 
ATOM     47  C   UNL A   1      42.052  33.316  32.909  1.00  0.00     0.031 A 
ATOM     48  C   UNL A   1      42.044  27.772  29.486  1.00  0.00     0.049 A 
ATOM     49  C   UNL A   1      43.037  32.189  32.769  1.00  0.00     0.074 A 
ATOM     50  C   UNL A   1      43.051  26.827  29.389  1.00  0.00     0.029 A 
ATOM     51  N   UNL A   1      42.499  28.756  30.350  1.00  0.00    -0.354 N 
ATOM     52  N   UNL A   1      42.953  31.106  32.035  1.00  0.00    -0.248 NA
ATOM     53  C   UNL A   1      44.279  32.297  33.547  1.00  0.00     0.031 C 
ATOM     54  C   UNL A   1      44.100  27.219  30.228  1.00  0.00     0.029 A 
ATOM     55  C   UNL A   1      43.764  28.431  30.809  1.00  0.00     0.049 A 
ATOM     56  H   UNL A   1      41.997  29.563  30.602  1.00  0.00     0.167 HD
ATOM     57  C   UNL A   1      44.141  30.417  32.242  1.00  0.00     0.074 A 
ATOM     58  C   UNL A   1      44.934  31.210  33.158  1.00  0.00     0.031 C 
ATOM     59  C   UNL A   1      44.540  29.233  31.718  1.00  0.00     0.031 A 
BRANCH  46  60
ATOM     60  C   UNL A   1      40.379  26.607  27.986  1.00  0.00    -0.014 A 
ATOM     61  C   UNL A   1      40.839  26.487  26.664  1.00  0.00     0.009 A 
ATOM     62  C   UNL A   1      39.566  25.595  28.517  1.00  0.00     0.009 A 
ATOM     63  C   UNL A   1      40.460  25.396  25.881  1.00  0.00     0.001 A 
ATOM     64  C   UNL A   1      39.211  24.491  27.740  1.00  0.00     0.001 A 
ATOM     65  C   UNL A   1      39.650  24.398  26.420  1.00  0.00     0.000 A 
ENDBRANCH  46  60
BRANCH  47  66
ATOM     66  C   UNL A   1      42.350  34.473  33.792  1.00  0.00    -0.014 A 
ATOM     67  C   UNL A   1      43.005  35.604  33.280  1.00  0.00     0.009 A 
ATOM     68  C   UNL A   1      41.991  34.451  35.148  1.00  0.00     0.009 A 
ATOM     69  C   UNL A   1      43.319  36.679  34.115  1.00  0.00     0.001 A 
ATOM     70  C   UNL A   1      42.283  35.539  35.975  1.00  0.00     0.001 A 
ATOM     71  C   UNL A   1      42.955  36.646  35.460  1.00  0.00     0.000 A 
ENDBRANCH  47  66
BRANCH  59  72
ATOM     72  C   UNL A   1      45.907  28.742  32.096  1.00  0.00    -0.014 A 
ATOM     73  C   UNL A   1      46.103  27.927  33.221  1.00  0.00     0.009 A 
ATOM     74  C   UNL A   1      47.008  29.065  31.288  1.00  0.00     0.009 A 
ATOM     75  C   UNL A   1      47.382  27.471  33.546  1.00  0.00     0.001 A 
ATOM     76  C   UNL A   1      48.281  28.586  31.601  1.00  0.00     0.001 A 
ATOM     77  C   UNL A   1      48.468  27.797  32.734  1.00  0.00     0.000 A 
ENDBRANCH  59  72
ENDBRANCH  33  34
ENDBRANCH  25  28
ENDBRANCH  23  24
ENDBRANCH  22  23
ENDBRANCH   1  22
TORSDOF 14
ENDMDL
