MODEL 1
REMARK VINA RESULT:     -10.1      0.000      0.000
REMARK SMILES C[C@@H](O)[C@@H](NC(=O)CSc1ccncc1)C(=O)NCCCCNC(=O)c1ccc(-c2c3nc(c(-c4ccccc4)c4ccc([nH]4)c(-c4ccccc4)c4nc(c(-c5ccccc5)c5ccc2[nH]5)C=C4)C=C3)cc1
REMARK SMILES IDX 19 1 18 2 16 3 17 4 4 6 2 7 1 8 3 9 5 11 6 12 7 14 8 15 9 16
REMARK SMILES IDX 10 17 11 18 15 19 12 20 14 21 13 22 20 23 21 24 22 25 23 26
REMARK SMILES IDX 24 27 25 29 26 30 27 31 73 32 28 33 72 34 29 35 30 36 31 37
REMARK SMILES IDX 66 38 32 39 71 40 65 41 67 42 33 43 70 44 64 45 63 46 34 48
REMARK SMILES IDX 56 49 41 50 55 51 42 52 45 53 54 54 68 55 43 56 44 57 53 59
REMARK SMILES IDX 69 60 46 61 35 62 36 63 40 64 37 65 39 66 38 67 57 68 58 69
REMARK SMILES IDX 62 70 59 71 61 72 60 73 47 74 48 75 52 76 49 77 51 78 50 79
REMARK H PARENT 18 5 3 10 5 13 23 28 67 47 45 58
REMARK Flexibility Score: inf
ROOT
ATOM      1  C   UNL A   1      31.322  29.637  25.024  1.00  0.00     0.116 C 
ENDROOT
BRANCH   1   2
ATOM      2  N   UNL A   1      30.827  29.785  23.675  1.00  0.00    -0.354 N 
ATOM      3  C   UNL A   1      30.681  28.829  22.710  1.00  0.00     0.245 C 
ATOM      4  O   UNL A   1      30.003  29.119  21.721  1.00  0.00    -0.273 OA
ATOM      5  H   UNL A   1      30.559  30.696  23.416  1.00  0.00     0.163 HD
BRANCH   3   6
ATOM      6  C   UNL A   1      31.343  27.439  22.840  1.00  0.00     0.200 C 
BRANCH   6   7
ATOM      7  C   UNL A   1      30.205  26.420  23.184  1.00  0.00     0.143 C 
ATOM      8  C   UNL A   1      30.519  25.494  24.356  1.00  0.00     0.041 C 
BRANCH   7   9
ATOM      9  O   UNL A   1      28.998  27.112  23.514  1.00  0.00    -0.391 OA
ATOM     10  H   UNL A   1      29.130  28.066  23.393  1.00  0.00     0.211 HD
ENDBRANCH   7   9
ENDBRANCH   6   7
BRANCH   6  11
ATOM     11  N   UNL A   1      32.151  26.980  21.684  1.00  0.00    -0.341 N 
ATOM     12  C   UNL A   1      32.887  25.844  21.489  1.00  0.00     0.231 C 
ATOM     13  H   UNL A   1      32.158  27.603  20.922  1.00  0.00     0.164 HD
ATOM     14  O   UNL A   1      32.934  25.419  20.331  1.00  0.00    -0.274 OA
BRANCH  12  15
ATOM     15  C   UNL A   1      33.706  25.232  22.594  1.00  0.00     0.174 C 
BRANCH  15  16
ATOM     16  S   UNL A   1      33.680  23.390  22.671  1.00  0.00    -0.116 SA
BRANCH  16  17
ATOM     17  C   UNL A   1      34.064  22.779  24.312  1.00  0.00     0.011 A 
ATOM     18  C   UNL A   1      34.107  23.754  25.318  1.00  0.00     0.035 A 
ATOM     19  C   UNL A   1      34.220  21.456  24.714  1.00  0.00     0.035 A 
ATOM     20  C   UNL A   1      34.288  23.369  26.640  1.00  0.00     0.112 A 
ATOM     21  C   UNL A   1      34.409  21.163  26.058  1.00  0.00     0.112 A 
ATOM     22  N   UNL A   1      34.449  22.091  27.027  1.00  0.00    -0.265 NA
ENDBRANCH  16  17
ENDBRANCH  15  16
ENDBRANCH  12  15
ENDBRANCH   6  11
ENDBRANCH   3   6
ENDBRANCH   1   2
BRANCH   1  23
ATOM     23  C   UNL A   1      32.840  29.676  25.105  1.00  0.00     0.023 C 
BRANCH  23  24
ATOM     24  C   UNL A   1      33.453  28.509  25.883  1.00  0.00     0.023 C 
BRANCH  24  25
ATOM     25  C   UNL A   1      33.554  28.712  27.394  1.00  0.00     0.116 C 
BRANCH  25  26
ATOM     26  N   UNL A   1      33.579  30.108  27.792  1.00  0.00    -0.352 N 
ATOM     27  C   UNL A   1      34.581  30.822  28.397  1.00  0.00     0.251 C 
ATOM     28  H   UNL A   1      32.757  30.616  27.599  1.00  0.00     0.163 HD
ATOM     29  O   UNL A   1      34.367  31.961  28.806  1.00  0.00    -0.269 OA
BRANCH  27  30
ATOM     30  C   UNL A   1      35.919  30.226  28.597  1.00  0.00     0.039 A 
ATOM     31  C   UNL A   1      36.804  30.230  27.515  1.00  0.00     0.014 A 
ATOM     32  C   UNL A   1      36.308  29.655  29.814  1.00  0.00     0.014 A 
ATOM     33  C   UNL A   1      38.095  29.734  27.673  1.00  0.00     0.010 A 
ATOM     34  C   UNL A   1      37.621  29.228  29.993  1.00  0.00     0.010 A 
ATOM     35  C   UNL A   1      38.528  29.269  28.926  1.00  0.00    -0.014 A 
BRANCH  35  36
ATOM     36  C   UNL A   1      39.939  28.862  29.118  1.00  0.00     0.031 A 
ATOM     37  C   UNL A   1      40.924  29.790  29.768  1.00  0.00     0.074 A 
ATOM     38  C   UNL A   1      40.330  27.647  28.686  1.00  0.00     0.049 A 
ATOM     39  N   UNL A   1      42.177  29.572  30.075  1.00  0.00    -0.248 NA
ATOM     40  C   UNL A   1      40.448  31.142  30.100  1.00  0.00     0.031 C 
ATOM     41  C   UNL A   1      39.473  26.679  27.996  1.00  0.00     0.029 A 
ATOM     42  N   UNL A   1      41.542  27.013  28.776  1.00  0.00    -0.354 N 
ATOM     43  C   UNL A   1      42.639  30.756  30.638  1.00  0.00     0.074 A 
ATOM     44  C   UNL A   1      41.550  31.706  30.574  1.00  0.00     0.031 C 
ATOM     45  C   UNL A   1      40.173  25.558  27.767  1.00  0.00     0.029 A 
ATOM     46  C   UNL A   1      41.534  25.738  28.261  1.00  0.00     0.049 A 
ATOM     47  H   UNL A   1      42.342  27.430  29.172  1.00  0.00     0.167 HD
ATOM     48  C   UNL A   1      43.852  31.020  31.178  1.00  0.00     0.031 A 
ATOM     49  C   UNL A   1      42.512  24.816  28.200  1.00  0.00     0.031 A 
ATOM     50  C   UNL A   1      44.936  30.074  31.225  1.00  0.00     0.049 A 
ATOM     51  C   UNL A   1      43.853  25.139  28.797  1.00  0.00     0.074 A 
ATOM     52  C   UNL A   1      46.194  30.228  31.782  1.00  0.00     0.029 A 
ATOM     53  N   UNL A   1      44.892  28.797  30.686  1.00  0.00    -0.354 N 
ATOM     54  N   UNL A   1      44.250  26.236  29.396  1.00  0.00    -0.248 NA
ATOM     55  C   UNL A   1      44.874  24.086  28.728  1.00  0.00     0.031 C 
ATOM     56  C   UNL A   1      46.929  29.066  31.530  1.00  0.00     0.029 A 
ATOM     57  C   UNL A   1      46.107  28.159  30.879  1.00  0.00     0.049 A 
ATOM     58  H   UNL A   1      44.113  28.401  30.233  1.00  0.00     0.167 HD
ATOM     59  C   UNL A   1      45.552  25.991  29.810  1.00  0.00     0.074 A 
ATOM     60  C   UNL A   1      45.870  24.636  29.408  1.00  0.00     0.031 C 
ATOM     61  C   UNL A   1      46.406  26.811  30.471  1.00  0.00     0.031 A 
BRANCH  48  62
ATOM     62  C   UNL A   1      44.071  32.395  31.750  1.00  0.00    -0.014 A 
ATOM     63  C   UNL A   1      43.799  32.675  33.099  1.00  0.00     0.009 A 
ATOM     64  C   UNL A   1      44.579  33.419  30.937  1.00  0.00     0.009 A 
ATOM     65  C   UNL A   1      43.995  33.960  33.611  1.00  0.00     0.001 A 
ATOM     66  C   UNL A   1      44.806  34.694  31.458  1.00  0.00     0.001 A 
ATOM     67  C   UNL A   1      44.503  34.966  32.791  1.00  0.00     0.000 A 
ENDBRANCH  48  62
BRANCH  49  68
ATOM     68  C   UNL A   1      42.251  23.488  27.584  1.00  0.00    -0.014 A 
ATOM     69  C   UNL A   1      42.542  23.257  26.230  1.00  0.00     0.009 A 
ATOM     70  C   UNL A   1      41.696  22.447  28.344  1.00  0.00     0.009 A 
ATOM     71  C   UNL A   1      42.250  22.025  25.643  1.00  0.00     0.001 A 
ATOM     72  C   UNL A   1      41.436  21.205  27.762  1.00  0.00     0.001 A 
ATOM     73  C   UNL A   1      41.701  20.998  26.410  1.00  0.00     0.000 A 
ENDBRANCH  49  68
BRANCH  61  74
ATOM     74  C   UNL A   1      47.748  26.241  30.846  1.00  0.00    -0.014 A 
ATOM     75  C   UNL A   1      48.825  26.234  29.946  1.00  0.00     0.009 A 
ATOM     76  C   UNL A   1      47.938  25.720  32.135  1.00  0.00     0.009 A 
ATOM     77  C   UNL A   1      50.049  25.670  30.314  1.00  0.00     0.001 A 
ATOM     78  C   UNL A   1      49.172  25.190  32.513  1.00  0.00     0.001 A 
ATOM     79  C   UNL A   1      50.222  25.153  31.597  1.00  0.00     0.000 A 
ENDBRANCH  61  74
ENDBRANCH  35  36
ENDBRANCH  27  30
ENDBRANCH  25  26
ENDBRANCH  24  25
ENDBRANCH  23  24
ENDBRANCH   1  23
TORSDOF 17
ENDMDL
MODEL 2
REMARK VINA RESULT:     -10.0      2.889      8.001
REMARK SMILES C[C@@H](O)[C@@H](NC(=O)CSc1ccncc1)C(=O)NCCCCNC(=O)c1ccc(-c2c3nc(c(-c4ccccc4)c4ccc([nH]4)c(-c4ccccc4)c4nc(c(-c5ccccc5)c5ccc2[nH]5)C=C4)C=C3)cc1
REMARK SMILES IDX 19 1 18 2 16 3 17 4 4 6 2 7 1 8 3 9 5 11 6 12 7 14 8 15 9 16
REMARK SMILES IDX 10 17 11 18 15 19 12 20 14 21 13 22 20 23 21 24 22 25 23 26
REMARK SMILES IDX 24 27 25 29 26 30 27 31 73 32 28 33 72 34 29 35 30 36 31 37
REMARK SMILES IDX 66 38 32 39 71 40 65 41 67 42 33 43 70 44 64 45 63 46 34 48
REMARK SMILES IDX 56 49 41 50 55 51 42 52 45 53 54 54 68 55 43 56 44 57 53 59
REMARK SMILES IDX 69 60 46 61 35 62 36 63 40 64 37 65 39 66 38 67 57 68 58 69
REMARK SMILES IDX 62 70 59 71 61 72 60 73 47 74 48 75 52 76 49 77 51 78 50 79
REMARK H PARENT 18 5 3 10 5 13 23 28 67 47 45 58
REMARK Flexibility Score: inf
ROOT
ATOM      1  C   UNL A   1      35.573  21.736  24.663  1.00  0.00     0.116 C 
ENDROOT
BRANCH   1   2
ATOM      2  N   UNL A   1      35.354  21.779  26.090  1.00  0.00    -0.354 N 
ATOM      3  C   UNL A   1      34.176  21.690  26.775  1.00  0.00     0.245 C 
ATOM      4  O   UNL A   1      34.240  21.490  27.992  1.00  0.00    -0.273 OA
ATOM      5  H   UNL A   1      36.162  21.886  26.643  1.00  0.00     0.163 HD
BRANCH   3   6
ATOM      6  C   UNL A   1      32.812  21.839  26.066  1.00  0.00     0.200 C 
BRANCH   6   7
ATOM      7  C   UNL A   1      32.421  20.425  25.521  1.00  0.00     0.143 C 
ATOM      8  C   UNL A   1      32.562  20.268  24.010  1.00  0.00     0.041 C 
BRANCH   7   9
ATOM      9  O   UNL A   1      33.237  19.416  26.120  1.00  0.00    -0.391 OA
ATOM     10  H   UNL A   1      33.964  19.190  25.518  1.00  0.00     0.211 HD
ENDBRANCH   7   9
ENDBRANCH   6   7
BRANCH   6  11
ATOM     11  N   UNL A   1      31.714  22.437  26.862  1.00  0.00    -0.341 N 
ATOM     12  C   UNL A   1      31.089  23.650  26.775  1.00  0.00     0.231 C 
ATOM     13  H   UNL A   1      31.373  21.857  27.582  1.00  0.00     0.164 HD
ATOM     14  O   UNL A   1      29.895  23.671  27.086  1.00  0.00    -0.274 OA
BRANCH  12  15
ATOM     15  C   UNL A   1      31.849  24.911  26.459  1.00  0.00     0.174 C 
BRANCH  15  16
ATOM     16  S   UNL A   1      31.075  26.004  25.192  1.00  0.00    -0.116 SA
BRANCH  16  17
ATOM     17  C   UNL A   1      32.104  26.180  23.734  1.00  0.00     0.011 A 
ATOM     18  C   UNL A   1      32.050  25.108  22.833  1.00  0.00     0.035 A 
ATOM     19  C   UNL A   1      32.857  27.285  23.351  1.00  0.00     0.035 A 
ATOM     20  C   UNL A   1      32.725  25.196  21.623  1.00  0.00     0.112 A 
ATOM     21  C   UNL A   1      33.510  27.281  22.126  1.00  0.00     0.112 A 
ATOM     22  N   UNL A   1      33.461  26.260  21.257  1.00  0.00    -0.265 NA
ENDBRANCH  16  17
ENDBRANCH  15  16
ENDBRANCH  12  15
ENDBRANCH   6  11
ENDBRANCH   3   6
ENDBRANCH   1   2
BRANCH   1  23
ATOM     23  C   UNL A   1      37.048  21.691  24.291  1.00  0.00     0.023 C 
BRANCH  23  24
ATOM     24  C   UNL A   1      37.742  20.375  24.650  1.00  0.00     0.023 C 
BRANCH  24  25
ATOM     25  C   UNL A   1      38.704  20.445  25.835  1.00  0.00     0.116 C 
BRANCH  25  26
ATOM     26  N   UNL A   1      39.740  19.429  25.801  1.00  0.00    -0.352 N 
ATOM     27  C   UNL A   1      41.084  19.551  26.046  1.00  0.00     0.251 C 
ATOM     28  H   UNL A   1      39.435  18.522  25.569  1.00  0.00     0.163 HD
ATOM     29  O   UNL A   1      41.841  18.610  25.814  1.00  0.00    -0.269 OA
BRANCH  27  30
ATOM     30  C   UNL A   1      41.649  20.818  26.556  1.00  0.00     0.039 A 
ATOM     31  C   UNL A   1      42.105  21.752  25.623  1.00  0.00     0.014 A 
ATOM     32  C   UNL A   1      41.751  21.092  27.924  1.00  0.00     0.014 A 
ATOM     33  C   UNL A   1      42.590  22.984  26.053  1.00  0.00     0.010 A 
ATOM     34  C   UNL A   1      42.165  22.351  28.352  1.00  0.00     0.010 A 
ATOM     35  C   UNL A   1      42.583  23.310  27.419  1.00  0.00    -0.014 A 
BRANCH  35  36
ATOM     36  C   UNL A   1      42.980  24.668  27.859  1.00  0.00     0.031 A 
ATOM     37  C   UNL A   1      44.424  25.079  27.872  1.00  0.00     0.074 A 
ATOM     38  C   UNL A   1      42.023  25.526  28.264  1.00  0.00     0.049 A 
ATOM     39  N   UNL A   1      44.943  26.244  28.162  1.00  0.00    -0.248 NA
ATOM     40  C   UNL A   1      45.414  24.046  27.533  1.00  0.00     0.031 C 
ATOM     41  C   UNL A   1      40.592  25.222  28.341  1.00  0.00     0.029 A 
ATOM     42  N   UNL A   1      42.108  26.833  28.671  1.00  0.00    -0.354 N 
ATOM     43  C   UNL A   1      46.318  26.086  28.039  1.00  0.00     0.074 A 
ATOM     44  C   UNL A   1      46.555  24.698  27.707  1.00  0.00     0.031 C 
ATOM     45  C   UNL A   1      39.929  26.323  28.725  1.00  0.00     0.029 A 
ATOM     46  C   UNL A   1      40.887  27.399  28.953  1.00  0.00     0.049 A 
ATOM     47  H   UNL A   1      42.960  27.319  28.753  1.00  0.00     0.167 HD
ATOM     48  C   UNL A   1      47.292  27.018  28.169  1.00  0.00     0.031 A 
ATOM     49  C   UNL A   1      40.576  28.648  29.345  1.00  0.00     0.031 A 
ATOM     50  C   UNL A   1      47.050  28.394  28.513  1.00  0.00     0.049 A 
ATOM     51  C   UNL A   1      41.678  29.659  29.493  1.00  0.00     0.074 A 
ATOM     52  C   UNL A   1      47.962  29.428  28.635  1.00  0.00     0.029 A 
ATOM     53  N   UNL A   1      45.802  28.928  28.799  1.00  0.00    -0.354 N 
ATOM     54  N   UNL A   1      42.966  29.515  29.296  1.00  0.00    -0.248 NA
ATOM     55  C   UNL A   1      41.277  31.014  29.895  1.00  0.00     0.031 C 
ATOM     56  C   UNL A   1      47.274  30.572  29.050  1.00  0.00     0.029 A 
ATOM     57  C   UNL A   1      45.923  30.271  29.117  1.00  0.00     0.049 A 
ATOM     58  H   UNL A   1      44.954  28.426  28.780  1.00  0.00     0.167 HD
ATOM     59  C   UNL A   1      43.525  30.767  29.512  1.00  0.00     0.074 A 
ATOM     60  C   UNL A   1      42.433  31.660  29.838  1.00  0.00     0.031 C 
ATOM     61  C   UNL A   1      44.825  31.146  29.440  1.00  0.00     0.031 A 
BRANCH  48  62
ATOM     62  C   UNL A   1      48.711  26.569  27.948  1.00  0.00    -0.014 A 
ATOM     63  C   UNL A   1      49.303  26.619  26.675  1.00  0.00     0.009 A 
ATOM     64  C   UNL A   1      49.479  26.116  29.032  1.00  0.00     0.009 A 
ATOM     65  C   UNL A   1      50.617  26.186  26.485  1.00  0.00     0.001 A 
ATOM     66  C   UNL A   1      50.803  25.715  28.846  1.00  0.00     0.001 A 
ATOM     67  C   UNL A   1      51.367  25.740  27.572  1.00  0.00     0.000 A 
ENDBRANCH  48  62
BRANCH  49  68
ATOM     68  C   UNL A   1      39.157  29.023  29.591  1.00  0.00    -0.014 A 
ATOM     69  C   UNL A   1      38.575  28.835  30.855  1.00  0.00     0.009 A 
ATOM     70  C   UNL A   1      38.374  29.560  28.558  1.00  0.00     0.009 A 
ATOM     71  C   UNL A   1      37.230  29.142  31.068  1.00  0.00     0.001 A 
ATOM     72  C   UNL A   1      37.038  29.898  28.784  1.00  0.00     0.001 A 
ATOM     73  C   UNL A   1      36.463  29.677  30.033  1.00  0.00     0.000 A 
ENDBRANCH  49  68
BRANCH  61  74
ATOM     74  C   UNL A   1      45.126  32.603  29.667  1.00  0.00    -0.014 A 
ATOM     75  C   UNL A   1      45.541  33.085  30.918  1.00  0.00     0.009 A 
ATOM     76  C   UNL A   1      45.009  33.503  28.597  1.00  0.00     0.009 A 
ATOM     77  C   UNL A   1      45.783  34.448  31.104  1.00  0.00     0.001 A 
ATOM     78  C   UNL A   1      45.287  34.859  28.776  1.00  0.00     0.001 A 
ATOM     79  C   UNL A   1      45.660  35.332  30.033  1.00  0.00     0.000 A 
ENDBRANCH  61  74
ENDBRANCH  35  36
ENDBRANCH  27  30
ENDBRANCH  25  26
ENDBRANCH  24  25
ENDBRANCH  23  24
ENDBRANCH   1  23
TORSDOF 17
ENDMDL
MODEL 3
REMARK VINA RESULT:     -10.0      2.623      7.857
REMARK SMILES C[C@@H](O)[C@@H](NC(=O)CSc1ccncc1)C(=O)NCCCCNC(=O)c1ccc(-c2c3nc(c(-c4ccccc4)c4ccc([nH]4)c(-c4ccccc4)c4nc(c(-c5ccccc5)c5ccc2[nH]5)C=C4)C=C3)cc1
REMARK SMILES IDX 19 1 18 2 16 3 17 4 4 6 2 7 1 8 3 9 5 11 6 12 7 14 8 15 9 16
REMARK SMILES IDX 10 17 11 18 15 19 12 20 14 21 13 22 20 23 21 24 22 25 23 26
REMARK SMILES IDX 24 27 25 29 26 30 27 31 73 32 28 33 72 34 29 35 30 36 31 37
REMARK SMILES IDX 66 38 32 39 71 40 65 41 67 42 33 43 70 44 64 45 63 46 34 48
REMARK SMILES IDX 56 49 41 50 55 51 42 52 45 53 54 54 68 55 43 56 44 57 53 59
REMARK SMILES IDX 69 60 46 61 35 62 36 63 40 64 37 65 39 66 38 67 57 68 58 69
REMARK SMILES IDX 62 70 59 71 61 72 60 73 47 74 48 75 52 76 49 77 51 78 50 79
REMARK H PARENT 18 5 3 10 5 13 23 28 67 47 45 58
REMARK Flexibility Score: inf
ROOT
ATOM      1  C   UNL A   1      35.458  20.491  25.014  1.00  0.00     0.116 C 
ENDROOT
BRANCH   1   2
ATOM      2  N   UNL A   1      34.289  19.703  25.330  1.00  0.00    -0.354 N 
ATOM      3  C   UNL A   1      32.988  20.107  25.417  1.00  0.00     0.245 C 
ATOM      4  O   UNL A   1      32.121  19.229  25.444  1.00  0.00    -0.273 OA
ATOM      5  H   UNL A   1      34.453  18.749  25.505  1.00  0.00     0.163 HD
BRANCH   3   6
ATOM      6  C   UNL A   1      32.606  21.603  25.489  1.00  0.00     0.200 C 
BRANCH   6   7
ATOM      7  C   UNL A   1      32.021  21.993  24.090  1.00  0.00     0.143 C 
ATOM      8  C   UNL A   1      32.745  23.147  23.402  1.00  0.00     0.041 C 
BRANCH   7   9
ATOM      9  O   UNL A   1      32.076  20.878  23.197  1.00  0.00    -0.391 OA
ATOM     10  H   UNL A   1      32.385  20.094  23.678  1.00  0.00     0.211 HD
ENDBRANCH   7   9
ENDBRANCH   6   7
BRANCH   6  11
ATOM     11  N   UNL A   1      31.694  22.001  26.588  1.00  0.00    -0.341 N 
ATOM     12  C   UNL A   1      31.051  23.180  26.848  1.00  0.00     0.231 C 
ATOM     13  H   UNL A   1      31.520  21.291  27.248  1.00  0.00     0.164 HD
ATOM     14  O   UNL A   1      29.949  23.088  27.397  1.00  0.00    -0.274 OA
BRANCH  12  15
ATOM     15  C   UNL A   1      31.711  24.511  26.609  1.00  0.00     0.174 C 
BRANCH  15  16
ATOM     16  S   UNL A   1      30.669  25.770  25.756  1.00  0.00    -0.116 SA
BRANCH  16  17
ATOM     17  C   UNL A   1      31.279  27.436  26.010  1.00  0.00     0.011 A 
ATOM     18  C   UNL A   1      31.240  28.266  24.881  1.00  0.00     0.035 A 
ATOM     19  C   UNL A   1      31.685  28.022  27.205  1.00  0.00     0.035 A 
ATOM     20  C   UNL A   1      31.588  29.604  25.001  1.00  0.00     0.112 A 
ATOM     21  C   UNL A   1      32.028  29.367  27.230  1.00  0.00     0.112 A 
ATOM     22  N   UNL A   1      31.989  30.168  26.154  1.00  0.00    -0.265 NA
ENDBRANCH  16  17
ENDBRANCH  15  16
ENDBRANCH  12  15
ENDBRANCH   6  11
ENDBRANCH   3   6
ENDBRANCH   1   2
BRANCH   1  23
ATOM     23  C   UNL A   1      36.716  19.648  24.859  1.00  0.00     0.023 C 
BRANCH  23  24
ATOM     24  C   UNL A   1      37.996  20.467  24.678  1.00  0.00     0.023 C 
BRANCH  24  25
ATOM     25  C   UNL A   1      38.921  20.511  25.894  1.00  0.00     0.116 C 
BRANCH  25  26
ATOM     26  N   UNL A   1      39.991  19.531  25.846  1.00  0.00    -0.352 N 
ATOM     27  C   UNL A   1      41.330  19.694  26.093  1.00  0.00     0.251 C 
ATOM     28  H   UNL A   1      39.716  18.618  25.600  1.00  0.00     0.163 HD
ATOM     29  O   UNL A   1      42.118  18.782  25.847  1.00  0.00    -0.269 OA
BRANCH  27  30
ATOM     30  C   UNL A   1      41.852  20.972  26.623  1.00  0.00     0.039 A 
ATOM     31  C   UNL A   1      42.301  21.924  25.704  1.00  0.00     0.014 A 
ATOM     32  C   UNL A   1      41.921  21.239  27.994  1.00  0.00     0.014 A 
ATOM     33  C   UNL A   1      42.745  23.165  26.152  1.00  0.00     0.010 A 
ATOM     34  C   UNL A   1      42.295  22.504  28.438  1.00  0.00     0.010 A 
ATOM     35  C   UNL A   1      42.705  23.480  27.520  1.00  0.00    -0.014 A 
BRANCH  35  36
ATOM     36  C   UNL A   1      43.059  24.844  27.977  1.00  0.00     0.031 A 
ATOM     37  C   UNL A   1      41.996  25.882  28.191  1.00  0.00     0.074 A 
ATOM     38  C   UNL A   1      44.356  25.145  28.184  1.00  0.00     0.049 A 
ATOM     39  N   UNL A   1      42.119  27.102  28.651  1.00  0.00    -0.248 NA
ATOM     40  C   UNL A   1      40.619  25.513  27.827  1.00  0.00     0.031 C 
ATOM     41  C   UNL A   1      45.481  24.232  27.962  1.00  0.00     0.029 A 
ATOM     42  N   UNL A   1      44.946  26.295  28.641  1.00  0.00    -0.354 N 
ATOM     43  C   UNL A   1      40.840  27.643  28.633  1.00  0.00     0.074 A 
ATOM     44  C   UNL A   1      39.966  26.642  28.061  1.00  0.00     0.031 C 
ATOM     45  C   UNL A   1      46.619  24.842  28.327  1.00  0.00     0.029 A 
ATOM     46  C   UNL A   1      46.311  26.195  28.775  1.00  0.00     0.049 A 
ATOM     47  H   UNL A   1      44.442  27.113  28.854  1.00  0.00     0.167 HD
ATOM     48  C   UNL A   1      40.428  28.856  29.073  1.00  0.00     0.031 A 
ATOM     49  C   UNL A   1      47.211  27.092  29.216  1.00  0.00     0.031 A 
ATOM     50  C   UNL A   1      41.305  29.852  29.627  1.00  0.00     0.049 A 
ATOM     51  C   UNL A   1      46.728  28.435  29.687  1.00  0.00     0.074 A 
ATOM     52  C   UNL A   1      40.985  31.099  30.136  1.00  0.00     0.029 A 
ATOM     53  N   UNL A   1      42.681  29.718  29.738  1.00  0.00    -0.354 N 
ATOM     54  N   UNL A   1      45.504  28.904  29.738  1.00  0.00    -0.248 NA
ATOM     55  C   UNL A   1      47.751  29.365  30.185  1.00  0.00     0.031 C 
ATOM     56  C   UNL A   1      42.172  31.741  30.502  1.00  0.00     0.029 A 
ATOM     57  C   UNL A   1      43.226  30.867  30.288  1.00  0.00     0.049 A 
ATOM     58  H   UNL A   1      43.196  28.923  29.466  1.00  0.00     0.167 HD
ATOM     59  C   UNL A   1      45.605  30.166  30.308  1.00  0.00     0.074 A 
ATOM     60  C   UNL A   1      47.008  30.380  30.600  1.00  0.00     0.031 C 
ATOM     61  C   UNL A   1      44.625  31.064  30.573  1.00  0.00     0.031 A 
BRANCH  48  62
ATOM     62  C   UNL A   1      38.961  29.171  28.958  1.00  0.00    -0.014 A 
ATOM     63  C   UNL A   1      38.407  29.637  27.754  1.00  0.00     0.009 A 
ATOM     64  C   UNL A   1      38.114  28.974  30.059  1.00  0.00     0.009 A 
ATOM     65  C   UNL A   1      37.045  29.937  27.668  1.00  0.00     0.001 A 
ATOM     66  C   UNL A   1      36.747  29.244  29.962  1.00  0.00     0.001 A 
ATOM     67  C   UNL A   1      36.217  29.735  28.770  1.00  0.00     0.000 A 
ENDBRANCH  48  62
BRANCH  49  68
ATOM     68  C   UNL A   1      48.655  26.740  29.266  1.00  0.00    -0.014 A 
ATOM     69  C   UNL A   1      49.503  27.035  28.187  1.00  0.00     0.009 A 
ATOM     70  C   UNL A   1      49.191  26.093  30.391  1.00  0.00     0.009 A 
ATOM     71  C   UNL A   1      50.847  26.659  28.219  1.00  0.00     0.001 A 
ATOM     72  C   UNL A   1      50.543  25.748  30.433  1.00  0.00     0.001 A 
ATOM     73  C   UNL A   1      51.368  26.019  29.343  1.00  0.00     0.000 A 
ENDBRANCH  49  68
BRANCH  61  74
ATOM     74  C   UNL A   1      45.033  32.339  31.261  1.00  0.00    -0.014 A 
ATOM     75  C   UNL A   1      45.306  33.512  30.540  1.00  0.00     0.009 A 
ATOM     76  C   UNL A   1      45.125  32.365  32.660  1.00  0.00     0.009 A 
ATOM     77  C   UNL A   1      45.713  34.670  31.206  1.00  0.00     0.001 A 
ATOM     78  C   UNL A   1      45.496  33.533  33.326  1.00  0.00     0.001 A 
ATOM     79  C   UNL A   1      45.803  34.681  32.598  1.00  0.00     0.000 A 
ENDBRANCH  61  74
ENDBRANCH  35  36
ENDBRANCH  27  30
ENDBRANCH  25  26
ENDBRANCH  24  25
ENDBRANCH  23  24
ENDBRANCH   1  23
TORSDOF 17
ENDMDL
