MODEL 1
REMARK VINA RESULT:     -11.7      0.000      0.000
REMARK SMILES Cc1cc(O[C@@H]2C[C@H](C)C[C@H](C)C2)cc(C(=O)NCCCCNC(=O)c2ccc(-c3c4nc(c(-c5ccccc5)c5ccc([nH]5)c(-c5ccccc5)c5nc(c(-c6ccccc6)c6ccc3[nH]6)C=C5)C=C4)cc2)c1N
REMARK SMILES IDX 20 1 19 2 18 3 16 4 17 5 15 7 1 8 2 9 3 10 74 11 4 12 14 13
REMARK SMILES IDX 75 14 5 17 6 18 13 19 7 20 11 21 8 22 12 23 10 24 9 25 21 26
REMARK SMILES IDX 22 27 23 28 24 29 25 31 26 32 27 33 73 34 28 35 72 36 29 37
REMARK SMILES IDX 30 38 31 39 66 40 32 41 71 42 65 43 67 44 33 45 70 46 64 47
REMARK SMILES IDX 63 48 34 50 56 51 41 52 55 53 42 54 45 55 54 56 68 57 43 58
REMARK SMILES IDX 44 59 53 61 69 62 46 63 35 64 36 65 40 66 37 67 39 68 38 69
REMARK SMILES IDX 57 70 58 71 62 72 59 73 61 74 60 75 47 76 48 77 52 78 49 79
REMARK SMILES IDX 51 80 50 81
REMARK H PARENT 18 6 75 15 75 16 23 30 67 49 45 60
REMARK Flexibility Score: inf
ROOT
ATOM      1  C   UNL A   1      37.346  21.345  24.595  1.00  0.00     0.023 C 
ENDROOT
BRANCH   1   2
ATOM      2  C   UNL A   1      37.485  22.533  25.540  1.00  0.00     0.116 C 
BRANCH   2   3
ATOM      3  N   UNL A   1      36.411  22.651  26.501  1.00  0.00    -0.352 N 
ATOM      4  C   UNL A   1      35.054  22.799  26.347  1.00  0.00     0.253 C 
ATOM      5  O   UNL A   1      34.400  22.867  27.392  1.00  0.00    -0.269 OA
ATOM      6  H   UNL A   1      36.707  22.617  27.440  1.00  0.00     0.163 HD
BRANCH   4   7
ATOM      7  C   UNL A   1      34.353  22.910  25.023  1.00  0.00     0.066 A 
ATOM      8  C   UNL A   1      32.153  20.742  22.747  1.00  0.00     0.047 C 
ATOM      9  C   UNL A   1      33.071  21.824  23.254  1.00  0.00    -0.024 A 
ATOM     10  C   UNL A   1      33.199  22.984  22.481  1.00  0.00     0.052 A 
ATOM     11  C   UNL A   1      33.662  21.765  24.533  1.00  0.00     0.048 A 
ATOM     12  C   UNL A   1      33.557  24.162  23.102  1.00  0.00     0.120 A 
ATOM     13  C   UNL A   1      34.308  24.097  24.275  1.00  0.00     0.062 A 
BRANCH  11  14
ATOM     14  N   UNL A   1      33.366  20.681  25.370  1.00  0.00    -0.398 N 
ATOM     15  H   UNL A   1      32.659  20.763  26.051  1.00  0.00     0.156 HD
ATOM     16  H   UNL A   1      33.863  19.836  25.278  1.00  0.00     0.156 HD
ENDBRANCH  11  14
BRANCH  12  17
ATOM     17  O   UNL A   1      33.095  25.395  22.721  1.00  0.00    -0.490 OA
BRANCH  17  18
ATOM     18  C   UNL A   1      31.676  25.593  22.399  1.00  0.00     0.173 C 
ATOM     19  C   UNL A   1      30.583  24.937  23.249  1.00  0.00     0.048 C 
ATOM     20  C   UNL A   1      31.382  27.130  22.315  1.00  0.00     0.048 C 
ATOM     21  C   UNL A   1      30.249  25.689  24.537  1.00  0.00    -0.010 C 
ATOM     22  C   UNL A   1      30.069  27.695  22.982  1.00  0.00    -0.010 C 
ATOM     23  C   UNL A   1      31.404  26.199  25.401  1.00  0.00     0.008 C 
ATOM     24  C   UNL A   1      29.394  26.853  24.086  1.00  0.00     0.007 C 
ATOM     25  C   UNL A   1      30.278  29.126  23.501  1.00  0.00     0.008 C 
ENDBRANCH  17  18
ENDBRANCH  12  17
ENDBRANCH   4   7
ENDBRANCH   2   3
ENDBRANCH   1   2
BRANCH   1  26
ATOM     26  C   UNL A   1      38.069  20.062  25.001  1.00  0.00     0.023 C 
BRANCH  26  27
ATOM     27  C   UNL A   1      39.232  20.228  25.970  1.00  0.00     0.116 C 
BRANCH  27  28
ATOM     28  N   UNL A   1      40.209  19.149  25.895  1.00  0.00    -0.352 N 
ATOM     29  C   UNL A   1      41.575  19.191  26.043  1.00  0.00     0.251 C 
ATOM     30  H   UNL A   1      39.833  18.258  25.710  1.00  0.00     0.163 HD
ATOM     31  O   UNL A   1      42.253  18.186  25.844  1.00  0.00    -0.269 OA
BRANCH  29  32
ATOM     32  C   UNL A   1      42.233  20.464  26.397  1.00  0.00     0.039 A 
ATOM     33  C   UNL A   1      42.756  21.261  25.376  1.00  0.00     0.014 A 
ATOM     34  C   UNL A   1      42.278  20.898  27.724  1.00  0.00     0.014 A 
ATOM     35  C   UNL A   1      43.226  22.541  25.673  1.00  0.00     0.010 A 
ATOM     36  C   UNL A   1      42.668  22.203  28.006  1.00  0.00     0.010 A 
ATOM     37  C   UNL A   1      43.130  23.044  26.981  1.00  0.00    -0.014 A 
BRANCH  37  38
ATOM     38  C   UNL A   1      43.470  24.456  27.293  1.00  0.00     0.031 A 
ATOM     39  C   UNL A   1      44.897  24.925  27.234  1.00  0.00     0.074 A 
ATOM     40  C   UNL A   1      42.502  25.296  27.710  1.00  0.00     0.049 A 
ATOM     41  N   UNL A   1      45.391  26.099  27.533  1.00  0.00    -0.248 NA
ATOM     42  C   UNL A   1      45.902  23.939  26.808  1.00  0.00     0.031 C 
ATOM     43  C   UNL A   1      41.086  24.952  27.862  1.00  0.00     0.029 A 
ATOM     44  N   UNL A   1      42.565  26.613  28.093  1.00  0.00    -0.354 N 
ATOM     45  C   UNL A   1      46.763  25.986  27.353  1.00  0.00     0.074 A 
ATOM     46  C   UNL A   1      47.028  24.617  26.967  1.00  0.00     0.031 C 
ATOM     47  C   UNL A   1      40.412  26.037  28.276  1.00  0.00     0.029 A 
ATOM     48  C   UNL A   1      41.349  27.139  28.459  1.00  0.00     0.049 A 
ATOM     49  H   UNL A   1      43.402  27.131  28.105  1.00  0.00     0.167 HD
ATOM     50  C   UNL A   1      47.717  26.940  27.477  1.00  0.00     0.031 A 
ATOM     51  C   UNL A   1      41.025  28.370  28.898  1.00  0.00     0.031 A 
ATOM     52  C   UNL A   1      47.455  28.303  27.853  1.00  0.00     0.049 A 
ATOM     53  C   UNL A   1      42.102  29.410  29.034  1.00  0.00     0.074 A 
ATOM     54  C   UNL A   1      48.346  29.358  27.946  1.00  0.00     0.029 A 
ATOM     55  N   UNL A   1      46.208  28.799  28.201  1.00  0.00    -0.354 N 
ATOM     56  N   UNL A   1      43.385  29.306  28.785  1.00  0.00    -0.248 NA
ATOM     57  C   UNL A   1      41.683  30.738  29.501  1.00  0.00     0.031 C 
ATOM     58  C   UNL A   1      47.646  30.481  28.400  1.00  0.00     0.029 A 
ATOM     59  C   UNL A   1      46.310  30.139  28.533  1.00  0.00     0.049 A 
ATOM     60  H   UNL A   1      45.375  28.276  28.211  1.00  0.00     0.167 HD
ATOM     61  C   UNL A   1      43.921  30.563  29.038  1.00  0.00     0.074 A 
ATOM     62  C   UNL A   1      42.822  31.414  29.444  1.00  0.00     0.031 C 
ATOM     63  C   UNL A   1      45.209  30.973  28.937  1.00  0.00     0.031 A 
BRANCH  50  64
ATOM     64  C   UNL A   1      49.139  26.530  27.209  1.00  0.00    -0.014 A 
ATOM     65  C   UNL A   1      49.983  26.110  28.249  1.00  0.00     0.009 A 
ATOM     66  C   UNL A   1      49.634  26.542  25.896  1.00  0.00     0.009 A 
ATOM     67  C   UNL A   1      51.307  25.752  27.986  1.00  0.00     0.001 A 
ATOM     68  C   UNL A   1      50.949  26.154  25.632  1.00  0.00     0.001 A 
ATOM     69  C   UNL A   1      51.788  25.770  26.677  1.00  0.00     0.000 A 
ENDBRANCH  50  64
BRANCH  51  70
ATOM     70  C   UNL A   1      39.611  28.696  29.220  1.00  0.00    -0.014 A 
ATOM     71  C   UNL A   1      38.759  29.214  28.232  1.00  0.00     0.009 A 
ATOM     72  C   UNL A   1      39.106  28.493  30.513  1.00  0.00     0.009 A 
ATOM     73  C   UNL A   1      37.438  29.545  28.539  1.00  0.00     0.001 A 
ATOM     74  C   UNL A   1      37.776  28.800  30.810  1.00  0.00     0.001 A 
ATOM     75  C   UNL A   1      36.946  29.333  29.825  1.00  0.00     0.000 A 
ENDBRANCH  51  70
BRANCH  63  76
ATOM     76  C   UNL A   1      45.494  32.418  29.238  1.00  0.00    -0.014 A 
ATOM     77  C   UNL A   1      45.863  32.838  30.525  1.00  0.00     0.009 A 
ATOM     78  C   UNL A   1      45.435  33.365  28.203  1.00  0.00     0.009 A 
ATOM     79  C   UNL A   1      46.135  34.185  30.777  1.00  0.00     0.001 A 
ATOM     80  C   UNL A   1      45.736  34.705  28.451  1.00  0.00     0.001 A 
ATOM     81  C   UNL A   1      46.077  35.115  29.739  1.00  0.00     0.000 A 
ENDBRANCH  63  76
ENDBRANCH  37  38
ENDBRANCH  29  32
ENDBRANCH  27  28
ENDBRANCH  26  27
ENDBRANCH   1  26
TORSDOF 14
ENDMDL
MODEL 2
REMARK VINA RESULT:     -11.6      1.471      1.971
REMARK SMILES Cc1cc(O[C@@H]2C[C@H](C)C[C@H](C)C2)cc(C(=O)NCCCCNC(=O)c2ccc(-c3c4nc(c(-c5ccccc5)c5ccc([nH]5)c(-c5ccccc5)c5nc(c(-c6ccccc6)c6ccc3[nH]6)C=C5)C=C4)cc2)c1N
REMARK SMILES IDX 20 1 19 2 18 3 16 4 17 5 15 7 1 8 2 9 3 10 74 11 4 12 14 13
REMARK SMILES IDX 75 14 5 17 6 18 13 19 7 20 11 21 8 22 12 23 10 24 9 25 21 26
REMARK SMILES IDX 22 27 23 28 24 29 25 31 26 32 27 33 73 34 28 35 72 36 29 37
REMARK SMILES IDX 30 38 31 39 66 40 32 41 71 42 65 43 67 44 33 45 70 46 64 47
REMARK SMILES IDX 63 48 34 50 56 51 41 52 55 53 42 54 45 55 54 56 68 57 43 58
REMARK SMILES IDX 44 59 53 61 69 62 46 63 35 64 36 65 40 66 37 67 39 68 38 69
REMARK SMILES IDX 57 70 58 71 62 72 59 73 61 74 60 75 47 76 48 77 52 78 49 79
REMARK SMILES IDX 51 80 50 81
REMARK H PARENT 18 6 75 15 75 16 23 30 67 49 45 60
REMARK Flexibility Score: inf
ROOT
ATOM      1  C   UNL A   1      37.054  21.803  24.307  1.00  0.00     0.023 C 
ENDROOT
BRANCH   1   2
ATOM      2  C   UNL A   1      36.694  22.879  25.325  1.00  0.00     0.116 C 
BRANCH   2   3
ATOM      3  N   UNL A   1      35.966  22.384  26.473  1.00  0.00    -0.352 N 
ATOM      4  C   UNL A   1      34.673  21.947  26.620  1.00  0.00     0.253 C 
ATOM      5  O   UNL A   1      34.357  21.580  27.756  1.00  0.00    -0.269 OA
ATOM      6  H   UNL A   1      36.497  22.355  27.302  1.00  0.00     0.163 HD
BRANCH   4   7
ATOM      7  C   UNL A   1      33.650  21.923  25.520  1.00  0.00     0.066 A 
ATOM      8  C   UNL A   1      32.239  19.433  22.965  1.00  0.00     0.047 C 
ATOM      9  C   UNL A   1      32.608  20.708  23.679  1.00  0.00    -0.024 A 
ATOM     10  C   UNL A   1      31.912  21.872  23.335  1.00  0.00     0.052 A 
ATOM     11  C   UNL A   1      33.502  20.721  24.770  1.00  0.00     0.048 A 
ATOM     12  C   UNL A   1      31.811  22.886  24.264  1.00  0.00     0.120 A 
ATOM     13  C   UNL A   1      32.806  23.007  25.233  1.00  0.00     0.062 A 
BRANCH  11  14
ATOM     14  N   UNL A   1      34.043  19.510  25.222  1.00  0.00    -0.398 N 
ATOM     15  H   UNL A   1      33.464  18.721  25.326  1.00  0.00     0.156 HD
ATOM     16  H   UNL A   1      35.002  19.448  25.436  1.00  0.00     0.156 HD
ENDBRANCH  11  14
BRANCH  12  17
ATOM     17  O   UNL A   1      30.711  23.697  24.389  1.00  0.00    -0.490 OA
BRANCH  17  18
ATOM     18  C   UNL A   1      30.414  24.712  23.370  1.00  0.00     0.173 C 
ATOM     19  C   UNL A   1      29.636  25.981  23.735  1.00  0.00     0.048 C 
ATOM     20  C   UNL A   1      31.750  25.135  22.668  1.00  0.00     0.048 C 
ATOM     21  C   UNL A   1      30.485  27.078  24.376  1.00  0.00    -0.010 C 
ATOM     22  C   UNL A   1      32.015  26.664  22.386  1.00  0.00    -0.010 C 
ATOM     23  C   UNL A   1      31.468  26.685  25.481  1.00  0.00     0.008 C 
ATOM     24  C   UNL A   1      31.235  27.703  23.221  1.00  0.00     0.007 C 
ATOM     25  C   UNL A   1      33.515  26.992  22.454  1.00  0.00     0.008 C 
ENDBRANCH  17  18
ENDBRANCH  12  17
ENDBRANCH   4   7
ENDBRANCH   2   3
ENDBRANCH   1   2
BRANCH   1  26
ATOM     26  C   UNL A   1      37.719  20.541  24.853  1.00  0.00     0.023 C 
BRANCH  26  27
ATOM     27  C   UNL A   1      38.896  20.759  25.794  1.00  0.00     0.116 C 
BRANCH  27  28
ATOM     28  N   UNL A   1      39.887  19.692  25.742  1.00  0.00    -0.352 N 
ATOM     29  C   UNL A   1      41.224  19.719  26.058  1.00  0.00     0.251 C 
ATOM     30  H   UNL A   1      39.546  18.821  25.434  1.00  0.00     0.163 HD
ATOM     31  O   UNL A   1      41.932  18.737  25.854  1.00  0.00    -0.269 OA
BRANCH  29  32
ATOM     32  C   UNL A   1      41.821  20.956  26.602  1.00  0.00     0.039 A 
ATOM     33  C   UNL A   1      42.380  21.881  25.717  1.00  0.00     0.014 A 
ATOM     34  C   UNL A   1      41.772  21.229  27.971  1.00  0.00     0.014 A 
ATOM     35  C   UNL A   1      42.793  23.126  26.194  1.00  0.00     0.010 A 
ATOM     36  C   UNL A   1      42.105  22.499  28.430  1.00  0.00     0.010 A 
ATOM     37  C   UNL A   1      42.603  23.466  27.543  1.00  0.00    -0.014 A 
BRANCH  37  38
ATOM     38  C   UNL A   1      42.880  24.838  28.040  1.00  0.00     0.031 A 
ATOM     39  C   UNL A   1      44.274  25.235  28.438  1.00  0.00     0.074 A 
ATOM     40  C   UNL A   1      41.859  25.702  28.213  1.00  0.00     0.049 A 
ATOM     41  N   UNL A   1      44.695  26.363  28.953  1.00  0.00    -0.248 NA
ATOM     42  C   UNL A   1      45.328  24.225  28.259  1.00  0.00     0.031 C 
ATOM     43  C   UNL A   1      40.452  25.424  27.915  1.00  0.00     0.029 A 
ATOM     44  N   UNL A   1      41.848  26.989  28.690  1.00  0.00    -0.354 N 
ATOM     45  C   UNL A   1      46.054  26.189  29.178  1.00  0.00     0.074 A 
ATOM     46  C   UNL A   1      46.377  24.833  28.791  1.00  0.00     0.031 C 
ATOM     47  C   UNL A   1      39.721  26.516  28.189  1.00  0.00     0.029 A 
ATOM     48  C   UNL A   1      40.597  27.556  28.718  1.00  0.00     0.049 A 
ATOM     49  H   UNL A   1      42.660  27.462  28.985  1.00  0.00     0.167 HD
ATOM     50  C   UNL A   1      46.958  27.083  29.645  1.00  0.00     0.031 A 
ATOM     51  C   UNL A   1      40.197  28.774  29.128  1.00  0.00     0.031 A 
ATOM     52  C   UNL A   1      46.640  28.434  30.023  1.00  0.00     0.049 A 
ATOM     53  C   UNL A   1      41.217  29.747  29.649  1.00  0.00     0.074 A 
ATOM     54  C   UNL A   1      47.497  29.434  30.450  1.00  0.00     0.029 A 
ATOM     55  N   UNL A   1      45.363  28.973  30.023  1.00  0.00    -0.354 N 
ATOM     56  N   UNL A   1      42.512  29.592  29.783  1.00  0.00    -0.248 NA
ATOM     57  C   UNL A   1      40.721  31.066  30.065  1.00  0.00     0.031 C 
ATOM     58  C   UNL A   1      46.731  30.563  30.756  1.00  0.00     0.029 A 
ATOM     59  C   UNL A   1      45.405  30.284  30.465  1.00  0.00     0.049 A 
ATOM     60  H   UNL A   1      44.548  28.494  29.750  1.00  0.00     0.167 HD
ATOM     61  C   UNL A   1      42.989  30.801  30.271  1.00  0.00     0.074 A 
ATOM     62  C   UNL A   1      41.847  31.684  30.395  1.00  0.00     0.031 C 
ATOM     63  C   UNL A   1      44.261  31.150  30.584  1.00  0.00     0.031 A 
BRANCH  50  64
ATOM     64  C   UNL A   1      48.381  26.616  29.780  1.00  0.00    -0.014 A 
ATOM     65  C   UNL A   1      49.310  26.809  28.745  1.00  0.00     0.009 A 
ATOM     66  C   UNL A   1      48.805  25.997  30.965  1.00  0.00     0.009 A 
ATOM     67  C   UNL A   1      50.623  26.352  28.877  1.00  0.00     0.001 A 
ATOM     68  C   UNL A   1      50.127  25.568  31.107  1.00  0.00     0.001 A 
ATOM     69  C   UNL A   1      51.031  25.736  30.060  1.00  0.00     0.000 A 
ENDBRANCH  50  64
BRANCH  51  70
ATOM     70  C   UNL A   1      38.762  29.155  29.041  1.00  0.00    -0.014 A 
ATOM     71  C   UNL A   1      38.238  29.680  27.850  1.00  0.00     0.009 A 
ATOM     72  C   UNL A   1      37.910  28.995  30.145  1.00  0.00     0.009 A 
ATOM     73  C   UNL A   1      36.897  30.062  27.774  1.00  0.00     0.001 A 
ATOM     74  C   UNL A   1      36.563  29.352  30.057  1.00  0.00     0.001 A 
ATOM     75  C   UNL A   1      36.059  29.893  28.876  1.00  0.00     0.000 A 
ENDBRANCH  51  70
BRANCH  63  76
ATOM     76  C   UNL A   1      44.490  32.558  31.058  1.00  0.00    -0.014 A 
ATOM     77  C   UNL A   1      44.724  33.604  30.154  1.00  0.00     0.009 A 
ATOM     78  C   UNL A   1      44.425  32.844  32.431  1.00  0.00     0.009 A 
ATOM     79  C   UNL A   1      44.921  34.907  30.618  1.00  0.00     0.001 A 
ATOM     80  C   UNL A   1      44.594  34.152  32.890  1.00  0.00     0.001 A 
ATOM     81  C   UNL A   1      44.851  35.180  31.984  1.00  0.00     0.000 A 
ENDBRANCH  63  76
ENDBRANCH  37  38
ENDBRANCH  29  32
ENDBRANCH  27  28
ENDBRANCH  26  27
ENDBRANCH   1  26
TORSDOF 14
ENDMDL
MODEL 3
REMARK VINA RESULT:     -11.6      1.413      6.066
REMARK SMILES Cc1cc(O[C@@H]2C[C@H](C)C[C@H](C)C2)cc(C(=O)NCCCCNC(=O)c2ccc(-c3c4nc(c(-c5ccccc5)c5ccc([nH]5)c(-c5ccccc5)c5nc(c(-c6ccccc6)c6ccc3[nH]6)C=C5)C=C4)cc2)c1N
REMARK SMILES IDX 20 1 19 2 18 3 16 4 17 5 15 7 1 8 2 9 3 10 74 11 4 12 14 13
REMARK SMILES IDX 75 14 5 17 6 18 13 19 7 20 11 21 8 22 12 23 10 24 9 25 21 26
REMARK SMILES IDX 22 27 23 28 24 29 25 31 26 32 27 33 73 34 28 35 72 36 29 37
REMARK SMILES IDX 30 38 31 39 66 40 32 41 71 42 65 43 67 44 33 45 70 46 64 47
REMARK SMILES IDX 63 48 34 50 56 51 41 52 55 53 42 54 45 55 54 56 68 57 43 58
REMARK SMILES IDX 44 59 53 61 69 62 46 63 35 64 36 65 40 66 37 67 39 68 38 69
REMARK SMILES IDX 57 70 58 71 62 72 59 73 61 74 60 75 47 76 48 77 52 78 49 79
REMARK SMILES IDX 51 80 50 81
REMARK H PARENT 18 6 75 15 75 16 23 30 67 49 45 60
REMARK Flexibility Score: inf
ROOT
ATOM      1  C   UNL A   1      36.902  22.222  24.351  1.00  0.00     0.023 C 
ENDROOT
BRANCH   1   2
ATOM      2  C   UNL A   1      36.479  23.208  25.434  1.00  0.00     0.116 C 
BRANCH   2   3
ATOM      3  N   UNL A   1      35.767  22.600  26.538  1.00  0.00    -0.352 N 
ATOM      4  C   UNL A   1      34.536  21.995  26.614  1.00  0.00     0.253 C 
ATOM      5  O   UNL A   1      34.217  21.568  27.727  1.00  0.00    -0.269 OA
ATOM      6  H   UNL A   1      36.257  22.624  27.392  1.00  0.00     0.163 HD
BRANCH   4   7
ATOM      7  C   UNL A   1      33.581  21.859  25.463  1.00  0.00     0.066 A 
ATOM      8  C   UNL A   1      32.367  19.141  23.044  1.00  0.00     0.047 C 
ATOM      9  C   UNL A   1      32.670  20.476  23.671  1.00  0.00    -0.024 A 
ATOM     10  C   UNL A   1      31.974  21.593  23.195  1.00  0.00     0.052 A 
ATOM     11  C   UNL A   1      33.498  20.598  24.806  1.00  0.00     0.048 A 
ATOM     12  C   UNL A   1      31.800  22.676  24.030  1.00  0.00     0.120 A 
ATOM     13  C   UNL A   1      32.735  22.897  25.041  1.00  0.00     0.062 A 
BRANCH  11  14
ATOM     14  N   UNL A   1      34.034  19.440  25.386  1.00  0.00    -0.398 N 
ATOM     15  H   UNL A   1      33.824  19.215  26.321  1.00  0.00     0.156 HD
ATOM     16  H   UNL A   1      34.620  18.850  24.858  1.00  0.00     0.156 HD
ENDBRANCH  11  14
BRANCH  12  17
ATOM     17  O   UNL A   1      30.681  23.469  24.026  1.00  0.00    -0.490 OA
BRANCH  17  18
ATOM     18  C   UNL A   1      30.675  24.746  23.303  1.00  0.00     0.173 C 
ATOM     19  C   UNL A   1      29.784  25.904  23.768  1.00  0.00     0.048 C 
ATOM     20  C   UNL A   1      32.147  25.272  23.186  1.00  0.00     0.048 C 
ATOM     21  C   UNL A   1      30.364  26.722  24.921  1.00  0.00    -0.010 C 
ATOM     22  C   UNL A   1      32.438  26.799  23.449  1.00  0.00    -0.010 C 
ATOM     23  C   UNL A   1      30.977  25.974  26.107  1.00  0.00     0.008 C 
ATOM     24  C   UNL A   1      31.410  27.603  24.275  1.00  0.00     0.007 C 
ATOM     25  C   UNL A   1      33.835  27.005  24.055  1.00  0.00     0.008 C 
ENDBRANCH  17  18
ENDBRANCH  12  17
ENDBRANCH   4   7
ENDBRANCH   2   3
ENDBRANCH   1   2
BRANCH   1  26
ATOM     26  C   UNL A   1      37.570  20.932  24.823  1.00  0.00     0.023 C 
BRANCH  26  27
ATOM     27  C   UNL A   1      38.787  21.101  25.723  1.00  0.00     0.116 C 
BRANCH  27  28
ATOM     28  N   UNL A   1      39.699  19.965  25.684  1.00  0.00    -0.352 N 
ATOM     29  C   UNL A   1      41.026  19.893  26.036  1.00  0.00     0.251 C 
ATOM     30  H   UNL A   1      39.305  19.124  25.358  1.00  0.00     0.163 HD
ATOM     31  O   UNL A   1      41.666  18.864  25.839  1.00  0.00    -0.269 OA
BRANCH  29  32
ATOM     32  C   UNL A   1      41.695  21.078  26.609  1.00  0.00     0.039 A 
ATOM     33  C   UNL A   1      42.251  22.023  25.744  1.00  0.00     0.014 A 
ATOM     34  C   UNL A   1      41.718  21.285  27.989  1.00  0.00     0.014 A 
ATOM     35  C   UNL A   1      42.734  23.227  26.258  1.00  0.00     0.010 A 
ATOM     36  C   UNL A   1      42.121  22.518  28.492  1.00  0.00     0.010 A 
ATOM     37  C   UNL A   1      42.618  23.508  27.630  1.00  0.00    -0.014 A 
BRANCH  37  38
ATOM     38  C   UNL A   1      42.972  24.842  28.178  1.00  0.00     0.031 A 
ATOM     39  C   UNL A   1      41.908  25.882  28.393  1.00  0.00     0.074 A 
ATOM     40  C   UNL A   1      44.266  25.147  28.402  1.00  0.00     0.049 A 
ATOM     41  N   UNL A   1      42.036  27.120  28.800  1.00  0.00    -0.248 NA
ATOM     42  C   UNL A   1      40.524  25.489  28.087  1.00  0.00     0.031 C 
ATOM     43  C   UNL A   1      45.401  24.246  28.184  1.00  0.00     0.029 A 
ATOM     44  N   UNL A   1      44.846  26.305  28.857  1.00  0.00    -0.354 N 
ATOM     45  C   UNL A   1      40.755  27.656  28.778  1.00  0.00     0.074 A 
ATOM     46  C   UNL A   1      39.874  26.627  28.270  1.00  0.00     0.031 C 
ATOM     47  C   UNL A   1      46.535  24.875  28.533  1.00  0.00     0.029 A 
ATOM     48  C   UNL A   1      46.215  26.234  28.959  1.00  0.00     0.049 A 
ATOM     49  H   UNL A   1      44.330  27.111  29.089  1.00  0.00     0.167 HD
ATOM     50  C   UNL A   1      40.344  28.888  29.163  1.00  0.00     0.031 A 
ATOM     51  C   UNL A   1      47.113  27.158  29.348  1.00  0.00     0.031 A 
ATOM     52  C   UNL A   1      41.217  29.910  29.676  1.00  0.00     0.049 A 
ATOM     53  C   UNL A   1      46.633  28.520  29.765  1.00  0.00     0.074 A 
ATOM     54  C   UNL A   1      40.887  31.168  30.150  1.00  0.00     0.029 A 
ATOM     55  N   UNL A   1      42.595  29.791  29.776  1.00  0.00    -0.354 N 
ATOM     56  N   UNL A   1      45.409  28.985  29.810  1.00  0.00    -0.248 NA
ATOM     57  C   UNL A   1      47.660  29.479  30.194  1.00  0.00     0.031 C 
ATOM     58  C   UNL A   1      42.071  31.829  30.491  1.00  0.00     0.029 A 
ATOM     59  C   UNL A   1      43.132  30.962  30.283  1.00  0.00     0.049 A 
ATOM     60  H   UNL A   1      43.113  28.994  29.524  1.00  0.00     0.167 HD
ATOM     61  C   UNL A   1      45.515  30.281  30.299  1.00  0.00     0.074 A 
ATOM     62  C   UNL A   1      46.922  30.521  30.550  1.00  0.00     0.031 C 
ATOM     63  C   UNL A   1      44.533  31.188  30.525  1.00  0.00     0.031 A 
BRANCH  50  64
ATOM     64  C   UNL A   1      38.878  29.195  29.036  1.00  0.00    -0.014 A 
ATOM     65  C   UNL A   1      38.002  29.024  30.120  1.00  0.00     0.009 A 
ATOM     66  C   UNL A   1      38.369  29.685  27.824  1.00  0.00     0.009 A 
ATOM     67  C   UNL A   1      36.639  29.295  29.979  1.00  0.00     0.001 A 
ATOM     68  C   UNL A   1      37.011  29.985  27.695  1.00  0.00     0.001 A 
ATOM     69  C   UNL A   1      36.146  29.779  28.768  1.00  0.00     0.000 A 
ENDBRANCH  50  64
BRANCH  51  70
ATOM     70  C   UNL A   1      48.560  26.820  29.382  1.00  0.00    -0.014 A 
ATOM     71  C   UNL A   1      49.374  27.069  28.266  1.00  0.00     0.009 A 
ATOM     72  C   UNL A   1      49.136  26.248  30.527  1.00  0.00     0.009 A 
ATOM     73  C   UNL A   1      50.728  26.729  28.287  1.00  0.00     0.001 A 
ATOM     74  C   UNL A   1      50.496  25.935  30.555  1.00  0.00     0.001 A 
ATOM     75  C   UNL A   1      51.289  26.168  29.433  1.00  0.00     0.000 A 
ENDBRANCH  51  70
BRANCH  63  76
ATOM     76  C   UNL A   1      44.943  32.513  31.104  1.00  0.00    -0.014 A 
ATOM     77  C   UNL A   1      45.254  33.606  30.282  1.00  0.00     0.009 A 
ATOM     78  C   UNL A   1      44.972  32.679  32.498  1.00  0.00     0.009 A 
ATOM     79  C   UNL A   1      45.619  34.831  30.844  1.00  0.00     0.001 A 
ATOM     80  C   UNL A   1      45.310  33.912  33.057  1.00  0.00     0.001 A 
ATOM     81  C   UNL A   1      45.641  34.984  32.230  1.00  0.00     0.000 A 
ENDBRANCH  63  76
ENDBRANCH  37  38
ENDBRANCH  29  32
ENDBRANCH  27  28
ENDBRANCH  26  27
ENDBRANCH   1  26
TORSDOF 14
ENDMDL
