MODEL 1
REMARK VINA RESULT:     -12.4      0.000      0.000
REMARK SMILES Cc1cc(C(=O)NCCCCNC(=O)c2ccc(-c3c4nc(c(-c5ccccc5)c5ccc([nH]5)c(-c5ccccc5)c5nc(c(-c6ccccc6)c6ccc3[nH]6)C=C5)C=C4)cc2)ccc1NC(=O)c1ccc(=O)n(CCOc2ccccc2)n1
REMARK SMILES IDX 5 1 6 2 7 3 4 5 1 6 2 7 3 8 65 9 64 10 63 11 66 12 67 13
REMARK SMILES IDX 68 15 69 16 70 17 84 18 71 19 74 20 72 21 73 22 75 23 76 24
REMARK SMILES IDX 77 25 78 26 79 27 83 28 80 29 82 30 81 31 8 32 9 33 10 34
REMARK SMILES IDX 11 35 12 36 13 37 14 39 15 40 16 41 62 42 17 43 61 44 18 45
REMARK SMILES IDX 19 46 20 47 55 48 21 49 60 50 54 51 56 52 22 53 59 54 53 55
REMARK SMILES IDX 52 56 23 58 45 59 30 60 44 61 31 62 34 63 43 64 57 65 32 66
REMARK SMILES IDX 33 67 42 69 58 70 35 71 24 72 25 73 29 74 26 75 28 76 27 77
REMARK SMILES IDX 46 78 47 79 51 80 48 81 50 82 49 83 36 84 37 85 41 86 38 87
REMARK SMILES IDX 40 88 39 89
REMARK H PARENT 7 4 66 14 12 38 56 57 34 68
REMARK Flexibility Score: inf
ROOT
ATOM      1  C   UNL A   1      32.769  29.326  24.639  1.00  0.00     0.251 C 
ATOM      2  O   UNL A   1      33.255  29.401  23.511  1.00  0.00    -0.269 OA
ATOM      3  N   UNL A   1      32.780  30.449  25.440  1.00  0.00    -0.352 N 
ATOM      4  H   UNL A   1      33.361  31.171  25.107  1.00  0.00     0.163 HD
ENDROOT
BRANCH   1   5
ATOM      5  C   UNL A   1      32.178  28.037  25.081  1.00  0.00     0.040 A 
ATOM      6  C   UNL A   1      29.342  25.728  24.030  1.00  0.00     0.046 C 
ATOM      7  C   UNL A   1      30.421  26.322  24.894  1.00  0.00    -0.027 A 
ATOM      8  C   UNL A   1      31.044  27.514  24.442  1.00  0.00     0.019 A 
ATOM      9  C   UNL A   1      30.908  25.709  26.057  1.00  0.00     0.044 A 
ATOM     10  C   UNL A   1      32.171  26.094  26.492  1.00  0.00     0.027 A 
ATOM     11  C   UNL A   1      32.796  27.245  26.028  1.00  0.00     0.016 A 
BRANCH   9  12
ATOM     12  N   UNL A   1      30.149  24.746  26.762  1.00  0.00    -0.320 N 
ATOM     13  C   UNL A   1      30.347  23.373  26.866  1.00  0.00     0.276 C 
ATOM     14  H   UNL A   1      29.369  25.098  27.249  1.00  0.00     0.170 HD
ATOM     15  O   UNL A   1      29.590  22.650  27.504  1.00  0.00    -0.267 OA
BRANCH  13  16
ATOM     16  C   UNL A   1      31.546  22.741  26.183  1.00  0.00     0.149 A 
ATOM     17  C   UNL A   1      32.642  22.336  27.087  1.00  0.00     0.042 A 
ATOM     18  N   UNL A   1      31.530  22.534  24.897  1.00  0.00    -0.164 NA
ATOM     19  C   UNL A   1      33.389  21.325  26.642  1.00  0.00     0.076 A 
ATOM     20  N   UNL A   1      32.504  21.658  24.423  1.00  0.00    -0.226 N 
ATOM     21  C   UNL A   1      33.158  20.785  25.282  1.00  0.00     0.266 A 
ATOM     22  O   UNL A   1      33.599  19.679  24.989  1.00  0.00    -0.268 OA
BRANCH  20  23
ATOM     23  C   UNL A   1      32.655  21.533  22.972  1.00  0.00     0.190 C 
BRANCH  23  24
ATOM     24  C   UNL A   1      32.917  22.897  22.305  1.00  0.00     0.253 C 
BRANCH  24  25
ATOM     25  O   UNL A   1      34.328  23.145  22.125  1.00  0.00    -0.492 OA
BRANCH  25  26
ATOM     26  C   UNL A   1      34.973  23.396  23.302  1.00  0.00     0.119 A 
ATOM     27  C   UNL A   1      34.541  24.394  24.168  1.00  0.00     0.046 A 
ATOM     28  C   UNL A   1      36.144  22.701  23.578  1.00  0.00     0.046 A 
ATOM     29  C   UNL A   1      35.229  24.606  25.368  1.00  0.00     0.004 A 
ATOM     30  C   UNL A   1      36.793  22.861  24.799  1.00  0.00     0.004 A 
ATOM     31  C   UNL A   1      36.329  23.812  25.701  1.00  0.00     0.000 A 
ENDBRANCH  25  26
ENDBRANCH  24  25
ENDBRANCH  23  24
ENDBRANCH  20  23
ENDBRANCH  13  16
ENDBRANCH   9  12
ENDBRANCH   1   5
BRANCH   3  32
ATOM     32  C   UNL A   1      32.091  30.772  26.689  1.00  0.00     0.116 C 
BRANCH  32  33
ATOM     33  C   UNL A   1      31.844  32.278  26.897  1.00  0.00     0.023 C 
BRANCH  33  34
ATOM     34  C   UNL A   1      32.904  33.018  27.711  1.00  0.00     0.023 C 
BRANCH  34  35
ATOM     35  C   UNL A   1      34.049  32.130  28.176  1.00  0.00     0.116 C 
BRANCH  35  36
ATOM     36  N   UNL A   1      34.829  32.667  29.288  1.00  0.00    -0.352 N 
ATOM     37  C   UNL A   1      35.873  32.094  30.000  1.00  0.00     0.251 C 
ATOM     38  H   UNL A   1      34.575  33.575  29.575  1.00  0.00     0.163 HD
ATOM     39  O   UNL A   1      36.368  32.685  30.949  1.00  0.00    -0.269 OA
BRANCH  37  40
ATOM     40  C   UNL A   1      36.496  30.835  29.510  1.00  0.00     0.039 A 
ATOM     41  C   UNL A   1      36.581  29.767  30.413  1.00  0.00     0.014 A 
ATOM     42  C   UNL A   1      37.227  30.805  28.331  1.00  0.00     0.014 A 
ATOM     43  C   UNL A   1      37.622  28.854  30.286  1.00  0.00     0.010 A 
ATOM     44  C   UNL A   1      38.341  29.995  28.278  1.00  0.00     0.010 A 
ATOM     45  C   UNL A   1      38.586  29.085  29.309  1.00  0.00    -0.014 A 
BRANCH  45  46
ATOM     46  C   UNL A   1      39.949  28.575  29.397  1.00  0.00     0.031 A 
ATOM     47  C   UNL A   1      40.286  27.238  28.871  1.00  0.00     0.074 A 
ATOM     48  C   UNL A   1      40.926  29.400  29.842  1.00  0.00     0.049 A 
ATOM     49  N   UNL A   1      41.325  26.556  29.218  1.00  0.00    -0.248 NA
ATOM     50  C   UNL A   1      39.418  26.528  27.937  1.00  0.00     0.031 C 
ATOM     51  C   UNL A   1      42.370  29.215  29.709  1.00  0.00     0.029 A 
ATOM     52  N   UNL A   1      40.812  30.491  30.710  1.00  0.00    -0.354 N 
ATOM     53  C   UNL A   1      41.440  25.512  28.328  1.00  0.00     0.074 A 
ATOM     54  C   UNL A   1      40.173  25.468  27.639  1.00  0.00     0.031 C 
ATOM     55  C   UNL A   1      42.982  29.920  30.675  1.00  0.00     0.029 A 
ATOM     56  C   UNL A   1      41.939  30.442  31.543  1.00  0.00     0.049 A 
ATOM     57  H   UNL A   1      40.088  31.157  30.731  1.00  0.00     0.167 HD
ATOM     58  C   UNL A   1      42.654  24.915  28.151  1.00  0.00     0.031 A 
ATOM     59  C   UNL A   1      41.869  30.243  32.892  1.00  0.00     0.031 A 
ATOM     60  C   UNL A   1      43.638  25.398  29.121  1.00  0.00     0.049 A 
ATOM     61  C   UNL A   1      42.650  29.029  33.352  1.00  0.00     0.074 A 
ATOM     62  C   UNL A   1      44.694  26.290  29.030  1.00  0.00     0.029 A 
ATOM     63  N   UNL A   1      43.423  25.180  30.477  1.00  0.00    -0.354 N 
ATOM     64  N   UNL A   1      43.029  28.069  32.555  1.00  0.00    -0.248 NA
ATOM     65  C   UNL A   1      43.015  28.775  34.743  1.00  0.00     0.031 C 
ATOM     66  C   UNL A   1      45.053  26.677  30.348  1.00  0.00     0.029 A 
ATOM     67  C   UNL A   1      44.240  25.995  31.234  1.00  0.00     0.049 A 
ATOM     68  H   UNL A   1      42.778  24.534  30.845  1.00  0.00     0.167 HD
ATOM     69  C   UNL A   1      43.669  27.099  33.278  1.00  0.00     0.074 A 
ATOM     70  C   UNL A   1      43.639  27.587  34.644  1.00  0.00     0.031 C 
ATOM     71  C   UNL A   1      44.158  25.970  32.689  1.00  0.00     0.031 A 
BRANCH  58  72
ATOM     72  C   UNL A   1      43.030  24.132  26.906  1.00  0.00    -0.014 A 
ATOM     73  C   UNL A   1      43.015  22.725  26.944  1.00  0.00     0.009 A 
ATOM     74  C   UNL A   1      43.485  24.698  25.704  1.00  0.00     0.009 A 
ATOM     75  C   UNL A   1      43.515  21.942  25.893  1.00  0.00     0.001 A 
ATOM     76  C   UNL A   1      44.011  23.926  24.658  1.00  0.00     0.001 A 
ATOM     77  C   UNL A   1      44.040  22.545  24.759  1.00  0.00     0.000 A 
ENDBRANCH  58  72
BRANCH  59  78
ATOM     78  C   UNL A   1      40.610  30.711  33.529  1.00  0.00    -0.014 A 
ATOM     79  C   UNL A   1      40.374  32.094  33.595  1.00  0.00     0.009 A 
ATOM     80  C   UNL A   1      39.529  29.839  33.721  1.00  0.00     0.009 A 
ATOM     81  C   UNL A   1      39.077  32.598  33.736  1.00  0.00     0.001 A 
ATOM     82  C   UNL A   1      38.230  30.346  33.872  1.00  0.00     0.001 A 
ATOM     83  C   UNL A   1      38.002  31.722  33.843  1.00  0.00     0.000 A 
ENDBRANCH  59  78
BRANCH  71  84
ATOM     84  C   UNL A   1      44.662  24.748  33.410  1.00  0.00    -0.014 A 
ATOM     85  C   UNL A   1      43.879  23.620  33.687  1.00  0.00     0.009 A 
ATOM     86  C   UNL A   1      46.042  24.652  33.701  1.00  0.00     0.009 A 
ATOM     87  C   UNL A   1      44.438  22.470  34.260  1.00  0.00     0.001 A 
ATOM     88  C   UNL A   1      46.610  23.492  34.231  1.00  0.00     0.001 A 
ATOM     89  C   UNL A   1      45.804  22.401  34.521  1.00  0.00     0.000 A 
ENDBRANCH  71  84
ENDBRANCH  45  46
ENDBRANCH  37  40
ENDBRANCH  35  36
ENDBRANCH  34  35
ENDBRANCH  33  34
ENDBRANCH  32  33
ENDBRANCH   3  32
TORSDOF 17
ENDMDL
MODEL 2
REMARK VINA RESULT:     -12.3      1.972      3.169
REMARK SMILES Cc1cc(C(=O)NCCCCNC(=O)c2ccc(-c3c4nc(c(-c5ccccc5)c5ccc([nH]5)c(-c5ccccc5)c5nc(c(-c6ccccc6)c6ccc3[nH]6)C=C5)C=C4)cc2)ccc1NC(=O)c1ccc(=O)n(CCOc2ccccc2)n1
REMARK SMILES IDX 5 1 6 2 7 3 4 5 1 6 2 7 3 8 65 9 64 10 63 11 66 12 67 13
REMARK SMILES IDX 68 15 69 16 70 17 84 18 71 19 74 20 72 21 73 22 75 23 76 24
REMARK SMILES IDX 77 25 78 26 79 27 83 28 80 29 82 30 81 31 8 32 9 33 10 34
REMARK SMILES IDX 11 35 12 36 13 37 14 39 15 40 16 41 62 42 17 43 61 44 18 45
REMARK SMILES IDX 19 46 20 47 55 48 21 49 60 50 54 51 56 52 22 53 59 54 53 55
REMARK SMILES IDX 52 56 23 58 45 59 30 60 44 61 31 62 34 63 43 64 57 65 32 66
REMARK SMILES IDX 33 67 42 69 58 70 35 71 24 72 25 73 29 74 26 75 28 76 27 77
REMARK SMILES IDX 46 78 47 79 51 80 48 81 50 82 49 83 36 84 37 85 41 86 38 87
REMARK SMILES IDX 40 88 39 89
REMARK H PARENT 7 4 66 14 12 38 56 57 34 68
REMARK Flexibility Score: inf
ROOT
ATOM      1  C   UNL A   1      33.104  29.299  24.887  1.00  0.00     0.251 C 
ATOM      2  O   UNL A   1      33.257  29.576  23.698  1.00  0.00    -0.269 OA
ATOM      3  N   UNL A   1      33.570  30.184  25.837  1.00  0.00    -0.352 N 
ATOM      4  H   UNL A   1      34.168  30.878  25.477  1.00  0.00     0.163 HD
ENDROOT
BRANCH   1   5
ATOM      5  C   UNL A   1      32.413  28.034  25.246  1.00  0.00     0.040 A 
ATOM      6  C   UNL A   1      29.263  26.157  24.228  1.00  0.00     0.046 C 
ATOM      7  C   UNL A   1      30.468  26.537  25.045  1.00  0.00    -0.027 A 
ATOM      8  C   UNL A   1      31.180  27.704  24.663  1.00  0.00     0.019 A 
ATOM      9  C   UNL A   1      30.977  25.751  26.088  1.00  0.00     0.044 A 
ATOM     10  C   UNL A   1      32.306  25.955  26.442  1.00  0.00     0.027 A 
ATOM     11  C   UNL A   1      33.014  27.082  26.044  1.00  0.00     0.016 A 
BRANCH   9  12
ATOM     12  N   UNL A   1      30.175  24.796  26.757  1.00  0.00    -0.320 N 
ATOM     13  C   UNL A   1      30.260  23.408  26.737  1.00  0.00     0.276 C 
ATOM     14  H   UNL A   1      29.455  25.167  27.316  1.00  0.00     0.170 HD
ATOM     15  O   UNL A   1      29.478  22.696  27.358  1.00  0.00    -0.267 OA
BRANCH  13  16
ATOM     16  C   UNL A   1      31.362  22.741  25.935  1.00  0.00     0.149 A 
ATOM     17  C   UNL A   1      32.448  22.141  26.738  1.00  0.00     0.042 A 
ATOM     18  N   UNL A   1      31.276  22.673  24.637  1.00  0.00    -0.164 NA
ATOM     19  C   UNL A   1      33.073  21.116  26.156  1.00  0.00     0.076 A 
ATOM     20  N   UNL A   1      32.138  21.765  24.029  1.00  0.00    -0.226 N 
ATOM     21  C   UNL A   1      32.736  20.748  24.761  1.00  0.00     0.266 A 
ATOM     22  O   UNL A   1      33.054  19.643  24.336  1.00  0.00    -0.268 OA
BRANCH  20  23
ATOM     23  C   UNL A   1      32.219  21.781  22.567  1.00  0.00     0.190 C 
BRANCH  23  24
ATOM     24  C   UNL A   1      33.296  22.762  22.065  1.00  0.00     0.253 C 
BRANCH  24  25
ATOM     25  O   UNL A   1      33.557  23.810  23.023  1.00  0.00    -0.492 OA
BRANCH  25  26
ATOM     26  C   UNL A   1      34.718  23.615  23.714  1.00  0.00     0.119 A 
ATOM     27  C   UNL A   1      34.931  24.200  24.957  1.00  0.00     0.046 A 
ATOM     28  C   UNL A   1      35.740  22.897  23.104  1.00  0.00     0.046 A 
ATOM     29  C   UNL A   1      36.133  23.961  25.631  1.00  0.00     0.004 A 
ATOM     30  C   UNL A   1      36.910  22.600  23.797  1.00  0.00     0.004 A 
ATOM     31  C   UNL A   1      37.104  23.128  25.069  1.00  0.00     0.000 A 
ENDBRANCH  25  26
ENDBRANCH  24  25
ENDBRANCH  23  24
ENDBRANCH  20  23
ENDBRANCH  13  16
ENDBRANCH   9  12
ENDBRANCH   1   5
BRANCH   3  32
ATOM     32  C   UNL A   1      33.342  30.288  27.278  1.00  0.00     0.116 C 
BRANCH  32  33
ATOM     33  C   UNL A   1      33.632  31.684  27.859  1.00  0.00     0.023 C 
BRANCH  33  34
ATOM     34  C   UNL A   1      35.093  32.128  27.822  1.00  0.00     0.023 C 
BRANCH  34  35
ATOM     35  C   UNL A   1      35.287  33.620  28.052  1.00  0.00     0.116 C 
BRANCH  35  36
ATOM     36  N   UNL A   1      34.175  34.285  28.726  1.00  0.00    -0.352 N 
ATOM     37  C   UNL A   1      33.865  34.350  30.077  1.00  0.00     0.251 C 
ATOM     38  H   UNL A   1      33.551  34.762  28.131  1.00  0.00     0.163 HD
ATOM     39  O   UNL A   1      32.846  34.913  30.448  1.00  0.00    -0.269 OA
BRANCH  37  40
ATOM     40  C   UNL A   1      34.853  33.875  31.083  1.00  0.00     0.039 A 
ATOM     41  C   UNL A   1      35.997  34.660  31.280  1.00  0.00     0.014 A 
ATOM     42  C   UNL A   1      34.806  32.581  31.585  1.00  0.00     0.014 A 
ATOM     43  C   UNL A   1      37.180  34.045  31.679  1.00  0.00     0.010 A 
ATOM     44  C   UNL A   1      35.999  31.940  31.840  1.00  0.00     0.010 A 
ATOM     45  C   UNL A   1      37.196  32.659  31.791  1.00  0.00    -0.014 A 
BRANCH  45  46
ATOM     46  C   UNL A   1      38.410  31.862  31.663  1.00  0.00     0.031 A 
ATOM     47  C   UNL A   1      38.387  30.566  30.956  1.00  0.00     0.074 A 
ATOM     48  C   UNL A   1      39.584  32.391  32.081  1.00  0.00     0.049 A 
ATOM     49  N   UNL A   1      39.271  29.638  31.103  1.00  0.00    -0.248 NA
ATOM     50  C   UNL A   1      37.303  30.190  30.056  1.00  0.00     0.031 C 
ATOM     51  C   UNL A   1      40.931  31.921  31.763  1.00  0.00     0.029 A 
ATOM     52  N   UNL A   1      39.797  33.355  33.072  1.00  0.00    -0.354 N 
ATOM     53  C   UNL A   1      39.068  28.722  30.095  1.00  0.00     0.074 A 
ATOM     54  C   UNL A   1      37.768  29.043  29.557  1.00  0.00     0.031 C 
ATOM     55  C   UNL A   1      41.769  32.343  32.723  1.00  0.00     0.029 A 
ATOM     56  C   UNL A   1      40.952  32.955  33.759  1.00  0.00     0.049 A 
ATOM     57  H   UNL A   1      39.247  34.152  33.251  1.00  0.00     0.167 HD
ATOM     58  C   UNL A   1      40.095  27.909  29.713  1.00  0.00     0.031 A 
ATOM     59  C   UNL A   1      40.959  32.596  35.076  1.00  0.00     0.031 A 
ATOM     60  C   UNL A   1      41.244  28.036  30.611  1.00  0.00     0.049 A 
ATOM     61  C   UNL A   1      41.482  31.193  35.305  1.00  0.00     0.074 A 
ATOM     62  C   UNL A   1      42.463  28.685  30.498  1.00  0.00     0.029 A 
ATOM     63  N   UNL A   1      41.106  27.689  31.950  1.00  0.00    -0.354 N 
ATOM     64  N   UNL A   1      41.561  30.290  34.368  1.00  0.00    -0.248 NA
ATOM     65  C   UNL A   1      41.900  30.682  36.608  1.00  0.00     0.031 C 
ATOM     66  C   UNL A   1      43.015  28.807  31.800  1.00  0.00     0.029 A 
ATOM     67  C   UNL A   1      42.150  28.201  32.693  1.00  0.00     0.049 A 
ATOM     68  H   UNL A   1      40.366  27.152  32.316  1.00  0.00     0.167 HD
ATOM     69  C   UNL A   1      42.027  29.117  34.899  1.00  0.00     0.074 A 
ATOM     70  C   UNL A   1      42.228  29.412  36.306  1.00  0.00     0.031 C 
ATOM     71  C   UNL A   1      42.192  27.999  34.136  1.00  0.00     0.031 A 
BRANCH  58  72
ATOM     72  C   UNL A   1      40.173  27.238  28.354  1.00  0.00    -0.014 A 
ATOM     73  C   UNL A   1      39.561  25.984  28.167  1.00  0.00     0.009 A 
ATOM     74  C   UNL A   1      40.890  27.730  27.252  1.00  0.00     0.009 A 
ATOM     75  C   UNL A   1      39.740  25.230  26.997  1.00  0.00     0.001 A 
ATOM     76  C   UNL A   1      41.097  26.974  26.088  1.00  0.00     0.001 A 
ATOM     77  C   UNL A   1      40.533  25.715  25.966  1.00  0.00     0.000 A 
ENDBRANCH  58  72
BRANCH  59  78
ATOM     78  C   UNL A   1      39.899  33.233  35.903  1.00  0.00    -0.014 A 
ATOM     79  C   UNL A   1      38.716  32.512  36.135  1.00  0.00     0.009 A 
ATOM     80  C   UNL A   1      40.187  34.328  36.730  1.00  0.00     0.009 A 
ATOM     81  C   UNL A   1      37.898  32.803  37.230  1.00  0.00     0.001 A 
ATOM     82  C   UNL A   1      39.359  34.625  37.822  1.00  0.00     0.001 A 
ATOM     83  C   UNL A   1      38.237  33.841  38.092  1.00  0.00     0.000 A 
ENDBRANCH  59  78
BRANCH  71  84
ATOM     84  C   UNL A   1      42.469  26.612  34.654  1.00  0.00    -0.014 A 
ATOM     85  C   UNL A   1      41.571  25.873  35.434  1.00  0.00     0.009 A 
ATOM     86  C   UNL A   1      43.632  25.942  34.214  1.00  0.00     0.009 A 
ATOM     87  C   UNL A   1      41.840  24.544  35.788  1.00  0.00     0.001 A 
ATOM     88  C   UNL A   1      43.883  24.605  34.528  1.00  0.00     0.001 A 
ATOM     89  C   UNL A   1      42.989  23.906  35.326  1.00  0.00     0.000 A 
ENDBRANCH  71  84
ENDBRANCH  45  46
ENDBRANCH  37  40
ENDBRANCH  35  36
ENDBRANCH  34  35
ENDBRANCH  33  34
ENDBRANCH  32  33
ENDBRANCH   3  32
TORSDOF 17
ENDMDL
MODEL 3
REMARK VINA RESULT:     -12.2      1.514      2.505
REMARK SMILES Cc1cc(C(=O)NCCCCNC(=O)c2ccc(-c3c4nc(c(-c5ccccc5)c5ccc([nH]5)c(-c5ccccc5)c5nc(c(-c6ccccc6)c6ccc3[nH]6)C=C5)C=C4)cc2)ccc1NC(=O)c1ccc(=O)n(CCOc2ccccc2)n1
REMARK SMILES IDX 5 1 6 2 7 3 4 5 1 6 2 7 3 8 65 9 64 10 63 11 66 12 67 13
REMARK SMILES IDX 68 15 69 16 70 17 84 18 71 19 74 20 72 21 73 22 75 23 76 24
REMARK SMILES IDX 77 25 78 26 79 27 83 28 80 29 82 30 81 31 8 32 9 33 10 34
REMARK SMILES IDX 11 35 12 36 13 37 14 39 15 40 16 41 62 42 17 43 61 44 18 45
REMARK SMILES IDX 19 46 20 47 55 48 21 49 60 50 54 51 56 52 22 53 59 54 53 55
REMARK SMILES IDX 52 56 23 58 45 59 30 60 44 61 31 62 34 63 43 64 57 65 32 66
REMARK SMILES IDX 33 67 42 69 58 70 35 71 24 72 25 73 29 74 26 75 28 76 27 77
REMARK SMILES IDX 46 78 47 79 51 80 48 81 50 82 49 83 36 84 37 85 41 86 38 87
REMARK SMILES IDX 40 88 39 89
REMARK H PARENT 7 4 66 14 12 38 56 57 34 68
REMARK Flexibility Score: inf
ROOT
ATOM      1  C   UNL A   1      32.229  28.196  27.197  1.00  0.00     0.251 C 
ATOM      2  O   UNL A   1      31.272  27.686  27.776  1.00  0.00    -0.269 OA
ATOM      3  N   UNL A   1      33.187  28.845  27.949  1.00  0.00    -0.352 N 
ATOM      4  H   UNL A   1      32.916  29.015  28.879  1.00  0.00     0.163 HD
ENDROOT
BRANCH   1   5
ATOM      5  C   UNL A   1      32.319  28.079  25.719  1.00  0.00     0.040 A 
ATOM      6  C   UNL A   1      29.944  28.011  22.747  1.00  0.00     0.046 C 
ATOM      7  C   UNL A   1      31.219  27.846  23.528  1.00  0.00    -0.027 A 
ATOM      8  C   UNL A   1      31.158  28.031  24.934  1.00  0.00     0.019 A 
ATOM      9  C   UNL A   1      32.469  27.624  22.935  1.00  0.00     0.044 A 
ATOM     10  C   UNL A   1      33.593  27.945  23.687  1.00  0.00     0.027 A 
ATOM     11  C   UNL A   1      33.530  28.157  25.059  1.00  0.00     0.016 A 
BRANCH   9  12
ATOM     12  N   UNL A   1      32.586  27.090  21.629  1.00  0.00    -0.320 N 
ATOM     13  C   UNL A   1      32.803  25.774  21.233  1.00  0.00     0.276 C 
ATOM     14  H   UNL A   1      32.502  27.743  20.897  1.00  0.00     0.170 HD
ATOM     15  O   UNL A   1      32.903  25.455  20.054  1.00  0.00    -0.267 OA
BRANCH  13  16
ATOM     16  C   UNL A   1      32.909  24.687  22.287  1.00  0.00     0.149 A 
ATOM     17  C   UNL A   1      31.619  24.207  22.824  1.00  0.00     0.042 A 
ATOM     18  N   UNL A   1      34.073  24.204  22.612  1.00  0.00    -0.164 NA
ATOM     19  C   UNL A   1      31.633  22.950  23.272  1.00  0.00     0.076 A 
ATOM     20  N   UNL A   1      34.044  23.003  23.316  1.00  0.00    -0.226 N 
ATOM     21  C   UNL A   1      32.911  22.201  23.315  1.00  0.00     0.266 A 
ATOM     22  O   UNL A   1      32.890  20.979  23.412  1.00  0.00    -0.268 OA
BRANCH  20  23
ATOM     23  C   UNL A   1      35.308  22.510  23.870  1.00  0.00     0.190 C 
BRANCH  23  24
ATOM     24  C   UNL A   1      36.035  23.594  24.687  1.00  0.00     0.253 C 
BRANCH  24  25
ATOM     25  O   UNL A   1      35.815  23.436  26.106  1.00  0.00    -0.492 OA
BRANCH  25  26
ATOM     26  C   UNL A   1      34.493  23.481  26.442  1.00  0.00     0.119 A 
ATOM     27  C   UNL A   1      33.702  24.582  26.136  1.00  0.00     0.046 A 
ATOM     28  C   UNL A   1      33.965  22.440  27.196  1.00  0.00     0.046 A 
ATOM     29  C   UNL A   1      32.349  24.576  26.491  1.00  0.00     0.004 A 
ATOM     30  C   UNL A   1      32.605  22.397  27.493  1.00  0.00     0.004 A 
ATOM     31  C   UNL A   1      31.793  23.466  27.133  1.00  0.00     0.000 A 
ENDBRANCH  25  26
ENDBRANCH  24  25
ENDBRANCH  23  24
ENDBRANCH  20  23
ENDBRANCH  13  16
ENDBRANCH   9  12
ENDBRANCH   1   5
BRANCH   3  32
ATOM     32  C   UNL A   1      34.529  29.328  27.624  1.00  0.00     0.116 C 
BRANCH  32  33
ATOM     33  C   UNL A   1      34.572  30.795  27.158  1.00  0.00     0.023 C 
BRANCH  33  34
ATOM     34  C   UNL A   1      34.028  31.822  28.149  1.00  0.00     0.023 C 
BRANCH  34  35
ATOM     35  C   UNL A   1      34.973  32.987  28.404  1.00  0.00     0.116 C 
BRANCH  35  36
ATOM     36  N   UNL A   1      35.435  33.110  29.784  1.00  0.00    -0.352 N 
ATOM     37  C   UNL A   1      36.189  32.232  30.551  1.00  0.00     0.251 C 
ATOM     38  H   UNL A   1      35.174  33.944  30.239  1.00  0.00     0.163 HD
ATOM     39  O   UNL A   1      36.429  32.489  31.721  1.00  0.00    -0.269 OA
BRANCH  37  40
ATOM     40  C   UNL A   1      36.837  31.060  29.905  1.00  0.00     0.039 A 
ATOM     41  C   UNL A   1      36.803  29.843  30.599  1.00  0.00     0.014 A 
ATOM     42  C   UNL A   1      37.693  31.216  28.822  1.00  0.00     0.014 A 
ATOM     43  C   UNL A   1      37.835  28.929  30.415  1.00  0.00     0.010 A 
ATOM     44  C   UNL A   1      38.791  30.386  28.737  1.00  0.00     0.010 A 
ATOM     45  C   UNL A   1      38.904  29.296  29.603  1.00  0.00    -0.014 A 
BRANCH  45  46
ATOM     46  C   UNL A   1      40.239  28.726  29.736  1.00  0.00     0.031 A 
ATOM     47  C   UNL A   1      40.557  27.411  29.146  1.00  0.00     0.074 A 
ATOM     48  C   UNL A   1      41.218  29.482  30.289  1.00  0.00     0.049 A 
ATOM     49  N   UNL A   1      41.548  26.668  29.509  1.00  0.00    -0.248 NA
ATOM     50  C   UNL A   1      39.722  26.797  28.121  1.00  0.00     0.031 C 
ATOM     51  C   UNL A   1      42.659  29.247  30.228  1.00  0.00     0.029 A 
ATOM     52  N   UNL A   1      41.092  30.521  31.216  1.00  0.00    -0.354 N 
ATOM     53  C   UNL A   1      41.678  25.677  28.561  1.00  0.00     0.074 A 
ATOM     54  C   UNL A   1      40.453  25.727  27.800  1.00  0.00     0.031 C 
ATOM     55  C   UNL A   1      43.237  29.865  31.271  1.00  0.00     0.029 A 
ATOM     56  C   UNL A   1      42.164  30.375  32.108  1.00  0.00     0.049 A 
ATOM     57  H   UNL A   1      40.393  31.214  31.238  1.00  0.00     0.167 HD
ATOM     58  C   UNL A   1      42.877  25.043  28.417  1.00  0.00     0.031 A 
ATOM     59  C   UNL A   1      42.006  30.096  33.436  1.00  0.00     0.031 A 
ATOM     60  C   UNL A   1      43.818  25.425  29.471  1.00  0.00     0.049 A 
ATOM     61  C   UNL A   1      42.712  28.826  33.861  1.00  0.00     0.074 A 
ATOM     62  C   UNL A   1      44.910  26.277  29.499  1.00  0.00     0.029 A 
ATOM     63  N   UNL A   1      43.514  25.133  30.796  1.00  0.00    -0.354 N 
ATOM     64  N   UNL A   1      43.103  27.902  33.029  1.00  0.00    -0.248 NA
ATOM     65  C   UNL A   1      42.983  28.471  35.252  1.00  0.00     0.031 C 
ATOM     66  C   UNL A   1      45.203  26.568  30.857  1.00  0.00     0.029 A 
ATOM     67  C   UNL A   1      44.314  25.865  31.650  1.00  0.00     0.049 A 
ATOM     68  H   UNL A   1      42.825  24.492  31.084  1.00  0.00     0.167 HD
ATOM     69  C   UNL A   1      43.662  26.864  33.723  1.00  0.00     0.074 A 
ATOM     70  C   UNL A   1      43.568  27.267  35.114  1.00  0.00     0.031 C 
ATOM     71  C   UNL A   1      44.143  25.754  33.092  1.00  0.00     0.031 A 
BRANCH  58  72
ATOM     72  C   UNL A   1      43.298  24.324  27.149  1.00  0.00    -0.014 A 
ATOM     73  C   UNL A   1      43.558  25.071  25.985  1.00  0.00     0.009 A 
ATOM     74  C   UNL A   1      43.377  22.929  27.000  1.00  0.00     0.009 A 
ATOM     75  C   UNL A   1      43.781  24.465  24.739  1.00  0.00     0.001 A 
ATOM     76  C   UNL A   1      43.572  22.313  25.756  1.00  0.00     0.001 A 
ATOM     77  C   UNL A   1      43.760  23.083  24.619  1.00  0.00     0.000 A 
ENDBRANCH  58  72
BRANCH  59  78
ATOM     78  C   UNL A   1      40.729  30.575  34.028  1.00  0.00    -0.014 A 
ATOM     79  C   UNL A   1      40.664  31.904  34.480  1.00  0.00     0.009 A 
ATOM     80  C   UNL A   1      39.529  29.882  33.816  1.00  0.00     0.009 A 
ATOM     81  C   UNL A   1      39.437  32.561  34.608  1.00  0.00     0.001 A 
ATOM     82  C   UNL A   1      38.299  30.541  33.956  1.00  0.00     0.001 A 
ATOM     83  C   UNL A   1      38.256  31.888  34.316  1.00  0.00     0.000 A 
ENDBRANCH  59  78
BRANCH  71  84
ATOM     84  C   UNL A   1      44.558  24.470  33.762  1.00  0.00    -0.014 A 
ATOM     85  C   UNL A   1      43.681  23.417  34.050  1.00  0.00     0.009 A 
ATOM     86  C   UNL A   1      45.933  24.234  33.987  1.00  0.00     0.009 A 
ATOM     87  C   UNL A   1      44.150  22.203  34.571  1.00  0.00     0.001 A 
ATOM     88  C   UNL A   1      46.409  23.012  34.463  1.00  0.00     0.001 A 
ATOM     89  C   UNL A   1      45.513  21.996  34.766  1.00  0.00     0.000 A 
ENDBRANCH  71  84
ENDBRANCH  45  46
ENDBRANCH  37  40
ENDBRANCH  35  36
ENDBRANCH  34  35
ENDBRANCH  33  34
ENDBRANCH  32  33
ENDBRANCH   3  32
TORSDOF 17
ENDMDL
