MODEL 1
REMARK VINA RESULT:      -9.1      0.000      0.000
REMARK SMILES Cc1c(Cl)ccc2c(OCC(=O)NCCCCNC(=O)c3ccc(-c4c5nc(c(-c6ccccc6)c6ccc([nH]6)c(-c6ccccc6)c6nc(c(-c7ccccc7)c7ccc4[nH]7)C=C6)C=C5)cc3)ccnc12
REMARK SMILES IDX 15 1 14 2 13 3 11 4 12 5 10 7 9 8 8 9 1 10 2 11 3 12 72 13
REMARK SMILES IDX 4 14 5 15 7 16 71 17 6 18 70 19 69 20 16 21 17 22 18 23
REMARK SMILES IDX 19 24 20 26 21 27 22 28 68 29 23 30 67 31 24 32 25 33 26 34
REMARK SMILES IDX 61 35 27 36 66 37 60 38 62 39 28 40 65 41 59 42 58 43 29 45
REMARK SMILES IDX 51 46 36 47 50 48 37 49 40 50 49 51 63 52 38 53 39 54 48 56
REMARK SMILES IDX 64 57 41 58 30 59 31 60 35 61 32 62 34 63 33 64 52 65 53 66
REMARK SMILES IDX 57 67 54 68 56 69 55 70 42 71 43 72 47 73 44 74 46 75 45 76
REMARK H PARENT 13 6 18 25 62 44 40 55
REMARK Flexibility Score: inf
ROOT
ATOM      1  C   UNL A   1      45.705  20.512  24.990  1.00  0.00     0.023 C 
ENDROOT
BRANCH   1   2
ATOM      2  C   UNL A   1      45.411  22.010  24.941  1.00  0.00     0.116 C 
BRANCH   2   3
ATOM      3  N   UNL A   1      46.282  22.716  24.020  1.00  0.00    -0.353 N 
ATOM      4  C   UNL A   1      46.937  23.898  24.200  1.00  0.00     0.257 C 
ATOM      5  O   UNL A   1      47.640  24.331  23.284  1.00  0.00    -0.271 OA
ATOM      6  H   UNL A   1      46.419  22.281  23.146  1.00  0.00     0.163 HD
BRANCH   4   7
ATOM      7  C   UNL A   1      46.821  24.639  25.536  1.00  0.00     0.329 C 
BRANCH   7   8
ATOM      8  O   UNL A   1      46.964  26.049  25.499  1.00  0.00    -0.483 OA
BRANCH   8   9
ATOM      9  C   UNL A   1      45.849  26.836  25.654  1.00  0.00     0.131 A 
ATOM     10  C   UNL A   1      43.972  31.169  27.148  1.00  0.00     0.048 C 
ATOM     11  C   UNL A   1      45.157  30.268  26.904  1.00  0.00    -0.006 A 
ATOM     12  C   UNL A   1      46.463  30.729  27.152  1.00  0.00     0.046 A 
ATOM     13  C   UNL A   1      44.957  28.977  26.383  1.00  0.00     0.078 A 
ATOM     14  Cl  UNL A   1      46.773  32.329  27.734  1.00  0.00    -0.084 Cl
ATOM     15  C   UNL A   1      47.563  29.911  26.924  1.00  0.00     0.022 A 
ATOM     16  C   UNL A   1      46.075  28.140  26.158  1.00  0.00     0.043 A 
ATOM     17  N   UNL A   1      43.709  28.553  26.107  1.00  0.00    -0.256 NA
ATOM     18  C   UNL A   1      47.370  28.624  26.439  1.00  0.00     0.016 A 
ATOM     19  C   UNL A   1      43.530  27.316  25.603  1.00  0.00     0.115 A 
ATOM     20  C   UNL A   1      44.555  26.429  25.358  1.00  0.00     0.067 A 
ENDBRANCH   8   9
ENDBRANCH   7   8
ENDBRANCH   4   7
ENDBRANCH   2   3
ENDBRANCH   1   2
BRANCH   1  21
ATOM     21  C   UNL A   1      44.536  19.604  24.597  1.00  0.00     0.023 C 
BRANCH  21  22
ATOM     22  C   UNL A   1      43.842  18.890  25.751  1.00  0.00     0.116 C 
BRANCH  22  23
ATOM     23  N   UNL A   1      42.402  18.790  25.572  1.00  0.00    -0.352 N 
ATOM     24  C   UNL A   1      41.429  19.683  25.950  1.00  0.00     0.251 C 
ATOM     25  H   UNL A   1      42.083  17.977  25.118  1.00  0.00     0.163 HD
ATOM     26  O   UNL A   1      40.241  19.406  25.828  1.00  0.00    -0.269 OA
BRANCH  24  27
ATOM     27  C   UNL A   1      41.830  20.974  26.542  1.00  0.00     0.039 A 
ATOM     28  C   UNL A   1      41.981  22.080  25.703  1.00  0.00     0.014 A 
ATOM     29  C   UNL A   1      42.017  21.095  27.923  1.00  0.00     0.014 A 
ATOM     30  C   UNL A   1      42.259  23.329  26.258  1.00  0.00     0.010 A 
ATOM     31  C   UNL A   1      42.247  22.351  28.479  1.00  0.00     0.010 A 
ATOM     32  C   UNL A   1      42.367  23.476  27.651  1.00  0.00    -0.014 A 
BRANCH  32  33
ATOM     33  C   UNL A   1      42.622  24.809  28.246  1.00  0.00     0.031 A 
ATOM     34  C   UNL A   1      44.007  25.182  28.685  1.00  0.00     0.074 A 
ATOM     35  C   UNL A   1      41.605  25.676  28.405  1.00  0.00     0.049 A 
ATOM     36  N   UNL A   1      44.430  26.310  29.195  1.00  0.00    -0.248 NA
ATOM     37  C   UNL A   1      45.052  24.155  28.544  1.00  0.00     0.031 C 
ATOM     38  C   UNL A   1      40.208  25.419  28.045  1.00  0.00     0.029 A 
ATOM     39  N   UNL A   1      41.592  26.955  28.903  1.00  0.00    -0.354 N 
ATOM     40  C   UNL A   1      45.785  26.129  29.431  1.00  0.00     0.074 A 
ATOM     41  C   UNL A   1      46.108  24.770  29.057  1.00  0.00     0.031 C 
ATOM     42  C   UNL A   1      39.482  26.522  28.298  1.00  0.00     0.029 A 
ATOM     43  C   UNL A   1      40.354  27.551  28.856  1.00  0.00     0.049 A 
ATOM     44  H   UNL A   1      42.393  27.403  29.259  1.00  0.00     0.167 HD
ATOM     45  C   UNL A   1      46.687  27.024  29.894  1.00  0.00     0.031 A 
ATOM     46  C   UNL A   1      39.969  28.792  29.209  1.00  0.00     0.031 A 
ATOM     47  C   UNL A   1      46.376  28.380  30.245  1.00  0.00     0.049 A 
ATOM     48  C   UNL A   1      40.983  29.759  29.748  1.00  0.00     0.074 A 
ATOM     49  C   UNL A   1      47.241  29.378  30.663  1.00  0.00     0.029 A 
ATOM     50  N   UNL A   1      45.106  28.929  30.219  1.00  0.00    -0.354 N 
ATOM     51  N   UNL A   1      42.273  29.590  29.911  1.00  0.00    -0.248 NA
ATOM     52  C   UNL A   1      40.494  31.087  30.150  1.00  0.00     0.031 C 
ATOM     53  C   UNL A   1      46.485  30.524  30.922  1.00  0.00     0.029 A 
ATOM     54  C   UNL A   1      45.158  30.246  30.635  1.00  0.00     0.049 A 
ATOM     55  H   UNL A   1      44.289  28.454  29.945  1.00  0.00     0.167 HD
ATOM     56  C   UNL A   1      42.751  30.791  30.416  1.00  0.00     0.074 A 
ATOM     57  C   UNL A   1      41.617  31.683  30.534  1.00  0.00     0.031 C 
ATOM     58  C   UNL A   1      44.021  31.120  30.748  1.00  0.00     0.031 A 
BRANCH  45  59
ATOM     59  C   UNL A   1      48.110  26.571  30.024  1.00  0.00    -0.014 A 
ATOM     60  C   UNL A   1      48.544  25.909  31.182  1.00  0.00     0.009 A 
ATOM     61  C   UNL A   1      49.004  26.748  28.959  1.00  0.00     0.009 A 
ATOM     62  C   UNL A   1      49.856  25.444  31.277  1.00  0.00     0.001 A 
ATOM     63  C   UNL A   1      50.310  26.266  29.050  1.00  0.00     0.001 A 
ATOM     64  C   UNL A   1      50.736  25.618  30.209  1.00  0.00     0.000 A 
ENDBRANCH  45  59
BRANCH  46  65
ATOM     65  C   UNL A   1      38.555  29.200  29.018  1.00  0.00    -0.014 A 
ATOM     66  C   UNL A   1      37.650  29.124  30.086  1.00  0.00     0.009 A 
ATOM     67  C   UNL A   1      38.113  29.699  27.783  1.00  0.00     0.009 A 
ATOM     68  C   UNL A   1      36.327  29.536  29.921  1.00  0.00     0.001 A 
ATOM     69  C   UNL A   1      36.792  30.124  27.626  1.00  0.00     0.001 A 
ATOM     70  C   UNL A   1      35.900  30.040  28.694  1.00  0.00     0.000 A 
ENDBRANCH  46  65
BRANCH  58  71
ATOM     71  C   UNL A   1      44.279  32.502  31.270  1.00  0.00    -0.014 A 
ATOM     72  C   UNL A   1      44.285  32.752  32.649  1.00  0.00     0.009 A 
ATOM     73  C   UNL A   1      44.664  33.520  30.383  1.00  0.00     0.009 A 
ATOM     74  C   UNL A   1      44.679  33.999  33.134  1.00  0.00     0.001 A 
ATOM     75  C   UNL A   1      45.072  34.761  30.873  1.00  0.00     0.001 A 
ATOM     76  C   UNL A   1      45.081  34.999  32.248  1.00  0.00     0.000 A 
ENDBRANCH  58  71
ENDBRANCH  32  33
ENDBRANCH  24  27
ENDBRANCH  22  23
ENDBRANCH  21  22
ENDBRANCH   1  21
TORSDOF 13
ENDMDL
MODEL 2
REMARK VINA RESULT:      -8.6      0.335      6.046
REMARK SMILES Cc1c(Cl)ccc2c(OCC(=O)NCCCCNC(=O)c3ccc(-c4c5nc(c(-c6ccccc6)c6ccc([nH]6)c(-c6ccccc6)c6nc(c(-c7ccccc7)c7ccc4[nH]7)C=C6)C=C5)cc3)ccnc12
REMARK SMILES IDX 15 1 14 2 13 3 11 4 12 5 10 7 9 8 8 9 1 10 2 11 3 12 72 13
REMARK SMILES IDX 4 14 5 15 7 16 71 17 6 18 70 19 69 20 16 21 17 22 18 23
REMARK SMILES IDX 19 24 20 26 21 27 22 28 68 29 23 30 67 31 24 32 25 33 26 34
REMARK SMILES IDX 61 35 27 36 66 37 60 38 62 39 28 40 65 41 59 42 58 43 29 45
REMARK SMILES IDX 51 46 36 47 50 48 37 49 40 50 49 51 63 52 38 53 39 54 48 56
REMARK SMILES IDX 64 57 41 58 30 59 31 60 35 61 32 62 34 63 33 64 52 65 53 66
REMARK SMILES IDX 57 67 54 68 56 69 55 70 42 71 43 72 47 73 44 74 46 75 45 76
REMARK H PARENT 13 6 18 25 62 44 40 55
REMARK Flexibility Score: inf
ROOT
ATOM      1  C   UNL A   1      45.612  20.503  25.034  1.00  0.00     0.023 C 
ENDROOT
BRANCH   1   2
ATOM      2  C   UNL A   1      45.396  22.015  25.003  1.00  0.00     0.116 C 
BRANCH   2   3
ATOM      3  N   UNL A   1      46.258  22.679  24.044  1.00  0.00    -0.353 N 
ATOM      4  C   UNL A   1      46.941  23.851  24.178  1.00  0.00     0.257 C 
ATOM      5  O   UNL A   1      47.630  24.246  23.235  1.00  0.00    -0.271 OA
ATOM      6  H   UNL A   1      46.364  22.220  23.179  1.00  0.00     0.163 HD
BRANCH   4   7
ATOM      7  C   UNL A   1      46.873  24.628  25.497  1.00  0.00     0.329 C 
BRANCH   7   8
ATOM      8  O   UNL A   1      47.016  26.036  25.418  1.00  0.00    -0.483 OA
BRANCH   8   9
ATOM      9  C   UNL A   1      45.907  26.828  25.593  1.00  0.00     0.131 A 
ATOM     10  C   UNL A   1      44.037  31.060  27.361  1.00  0.00     0.048 C 
ATOM     11  C   UNL A   1      45.217  30.160  27.090  1.00  0.00    -0.006 A 
ATOM     12  C   UNL A   1      46.519  30.576  27.424  1.00  0.00     0.046 A 
ATOM     13  C   UNL A   1      45.019  28.919  26.459  1.00  0.00     0.078 A 
ATOM     14  Cl  UNL A   1      46.830  32.118  28.146  1.00  0.00    -0.084 Cl
ATOM     15  C   UNL A   1      47.615  29.759  27.174  1.00  0.00     0.022 A 
ATOM     16  C   UNL A   1      46.133  28.083  26.209  1.00  0.00     0.043 A 
ATOM     17  N   UNL A   1      43.777  28.541  26.101  1.00  0.00    -0.256 NA
ATOM     18  C   UNL A   1      47.422  28.519  26.578  1.00  0.00     0.016 A 
ATOM     19  C   UNL A   1      43.599  27.353  25.492  1.00  0.00     0.115 A 
ATOM     20  C   UNL A   1      44.620  26.470  25.216  1.00  0.00     0.067 A 
ENDBRANCH   8   9
ENDBRANCH   7   8
ENDBRANCH   4   7
ENDBRANCH   2   3
ENDBRANCH   1   2
BRANCH   1  21
ATOM     21  C   UNL A   1      44.386  19.661  24.666  1.00  0.00     0.023 C 
BRANCH  21  22
ATOM     22  C   UNL A   1      43.695  18.963  25.832  1.00  0.00     0.116 C 
BRANCH  22  23
ATOM     23  N   UNL A   1      42.247  18.935  25.698  1.00  0.00    -0.352 N 
ATOM     24  C   UNL A   1      41.333  19.882  26.089  1.00  0.00     0.251 C 
ATOM     25  H   UNL A   1      41.874  18.132  25.268  1.00  0.00     0.163 HD
ATOM     26  O   UNL A   1      40.129  19.665  26.008  1.00  0.00    -0.269 OA
BRANCH  24  27
ATOM     27  C   UNL A   1      41.818  21.160  26.645  1.00  0.00     0.039 A 
ATOM     28  C   UNL A   1      42.014  22.239  25.781  1.00  0.00     0.014 A 
ATOM     29  C   UNL A   1      42.037  21.298  28.020  1.00  0.00     0.014 A 
ATOM     30  C   UNL A   1      42.372  23.481  26.303  1.00  0.00     0.010 A 
ATOM     31  C   UNL A   1      42.348  22.551  28.545  1.00  0.00     0.010 A 
ATOM     32  C   UNL A   1      42.515  23.650  27.691  1.00  0.00    -0.014 A 
BRANCH  32  33
ATOM     33  C   UNL A   1      42.855  24.978  28.253  1.00  0.00     0.031 A 
ATOM     34  C   UNL A   1      41.787  26.019  28.418  1.00  0.00     0.074 A 
ATOM     35  C   UNL A   1      44.126  25.252  28.602  1.00  0.00     0.049 A 
ATOM     36  N   UNL A   1      41.885  27.222  28.920  1.00  0.00    -0.248 NA
ATOM     37  C   UNL A   1      40.436  25.670  27.948  1.00  0.00     0.031 C 
ATOM     38  C   UNL A   1      45.259  24.334  28.463  1.00  0.00     0.029 A 
ATOM     39  N   UNL A   1      44.677  26.381  29.154  1.00  0.00    -0.354 N 
ATOM     40  C   UNL A   1      40.614  27.770  28.831  1.00  0.00     0.074 A 
ATOM     41  C   UNL A   1      39.770  26.791  28.182  1.00  0.00     0.031 C 
ATOM     42  C   UNL A   1      46.363  24.924  28.955  1.00  0.00     0.029 A 
ATOM     43  C   UNL A   1      46.020  26.264  29.422  1.00  0.00     0.049 A 
ATOM     44  H   UNL A   1      44.159  27.198  29.341  1.00  0.00     0.167 HD
ATOM     45  C   UNL A   1      40.180  28.972  29.274  1.00  0.00     0.031 A 
ATOM     46  C   UNL A   1      46.876  27.134  29.993  1.00  0.00     0.031 A 
ATOM     47  C   UNL A   1      41.008  29.938  29.938  1.00  0.00     0.049 A 
ATOM     48  C   UNL A   1      46.377  28.474  30.450  1.00  0.00     0.074 A 
ATOM     49  C   UNL A   1      40.638  31.157  30.479  1.00  0.00     0.029 A 
ATOM     50  N   UNL A   1      42.368  29.794  30.153  1.00  0.00    -0.354 N 
ATOM     51  N   UNL A   1      45.158  28.953  30.410  1.00  0.00    -0.248 NA
ATOM     52  C   UNL A   1      47.367  29.392  31.032  1.00  0.00     0.031 C 
ATOM     53  C   UNL A   1      41.785  31.768  30.993  1.00  0.00     0.029 A 
ATOM     54  C   UNL A   1      42.859  30.914  30.799  1.00  0.00     0.049 A 
ATOM     55  H   UNL A   1      42.904  29.013  29.887  1.00  0.00     0.167 HD
ATOM     56  C   UNL A   1      45.230  30.218  30.976  1.00  0.00     0.074 A 
ATOM     57  C   UNL A   1      46.611  30.436  31.353  1.00  0.00     0.031 C 
ATOM     58  C   UNL A   1      44.234  31.115  31.166  1.00  0.00     0.031 A 
BRANCH  45  59
ATOM     59  C   UNL A   1      38.732  29.303  29.077  1.00  0.00    -0.014 A 
ATOM     60  C   UNL A   1      38.265  29.746  27.830  1.00  0.00     0.009 A 
ATOM     61  C   UNL A   1      37.818  29.108  30.122  1.00  0.00     0.009 A 
ATOM     62  C   UNL A   1      36.907  30.004  27.638  1.00  0.00     0.001 A 
ATOM     63  C   UNL A   1      36.458  29.349  29.921  1.00  0.00     0.001 A 
ATOM     64  C   UNL A   1      36.004  29.800  28.682  1.00  0.00     0.000 A 
ENDBRANCH  45  59
BRANCH  46  65
ATOM     65  C   UNL A   1      48.289  26.735  30.202  1.00  0.00    -0.014 A 
ATOM     66  C   UNL A   1      48.665  26.068  31.377  1.00  0.00     0.009 A 
ATOM     67  C   UNL A   1      49.258  26.984  29.219  1.00  0.00     0.009 A 
ATOM     68  C   UNL A   1      49.988  25.661  31.566  1.00  0.00     0.001 A 
ATOM     69  C   UNL A   1      50.577  26.562  29.404  1.00  0.00     0.001 A 
ATOM     70  C   UNL A   1      50.941  25.904  30.578  1.00  0.00     0.000 A 
ENDBRANCH  46  65
BRANCH  58  71
ATOM     71  C   UNL A   1      44.576  32.423  31.815  1.00  0.00    -0.014 A 
ATOM     72  C   UNL A   1      44.925  33.534  31.034  1.00  0.00     0.009 A 
ATOM     73  C   UNL A   1      44.404  32.580  33.199  1.00  0.00     0.009 A 
ATOM     74  C   UNL A   1      45.088  34.785  31.630  1.00  0.00     0.001 A 
ATOM     75  C   UNL A   1      44.554  33.835  33.789  1.00  0.00     0.001 A 
ATOM     76  C   UNL A   1      44.893  34.937  33.003  1.00  0.00     0.000 A 
ENDBRANCH  58  71
ENDBRANCH  32  33
ENDBRANCH  24  27
ENDBRANCH  22  23
ENDBRANCH  21  22
ENDBRANCH   1  21
TORSDOF 13
ENDMDL
MODEL 3
REMARK VINA RESULT:      -8.2      4.320      6.972
REMARK SMILES Cc1c(Cl)ccc2c(OCC(=O)NCCCCNC(=O)c3ccc(-c4c5nc(c(-c6ccccc6)c6ccc([nH]6)c(-c6ccccc6)c6nc(c(-c7ccccc7)c7ccc4[nH]7)C=C6)C=C5)cc3)ccnc12
REMARK SMILES IDX 15 1 14 2 13 3 11 4 12 5 10 7 9 8 8 9 1 10 2 11 3 12 72 13
REMARK SMILES IDX 4 14 5 15 7 16 71 17 6 18 70 19 69 20 16 21 17 22 18 23
REMARK SMILES IDX 19 24 20 26 21 27 22 28 68 29 23 30 67 31 24 32 25 33 26 34
REMARK SMILES IDX 61 35 27 36 66 37 60 38 62 39 28 40 65 41 59 42 58 43 29 45
REMARK SMILES IDX 51 46 36 47 50 48 37 49 40 50 49 51 63 52 38 53 39 54 48 56
REMARK SMILES IDX 64 57 41 58 30 59 31 60 35 61 32 62 34 63 33 64 52 65 53 66
REMARK SMILES IDX 57 67 54 68 56 69 55 70 42 71 43 72 47 73 44 74 46 75 45 76
REMARK H PARENT 13 6 18 25 62 44 40 55
REMARK Flexibility Score: inf
ROOT
ATOM      1  C   UNL A   1      36.551  20.145  25.015  1.00  0.00     0.023 C 
ENDROOT
BRANCH   1   2
ATOM      2  C   UNL A   1      36.115  21.603  25.153  1.00  0.00     0.116 C 
BRANCH   2   3
ATOM      3  N   UNL A   1      35.534  21.887  26.452  1.00  0.00    -0.353 N 
ATOM      4  C   UNL A   1      34.228  21.816  26.836  1.00  0.00     0.257 C 
ATOM      5  O   UNL A   1      33.938  22.098  28.001  1.00  0.00    -0.271 OA
ATOM      6  H   UNL A   1      36.170  22.168  27.150  1.00  0.00     0.163 HD
BRANCH   4   7
ATOM      7  C   UNL A   1      33.162  21.355  25.837  1.00  0.00     0.329 C 
BRANCH   7   8
ATOM      8  O   UNL A   1      32.293  22.351  25.324  1.00  0.00    -0.483 OA
BRANCH   8   9
ATOM      9  C   UNL A   1      32.699  23.095  24.243  1.00  0.00     0.131 A 
ATOM     10  C   UNL A   1      33.861  27.564  22.452  1.00  0.00     0.048 C 
ATOM     11  C   UNL A   1      33.463  26.677  23.605  1.00  0.00    -0.006 A 
ATOM     12  C   UNL A   1      33.324  27.213  24.899  1.00  0.00     0.046 A 
ATOM     13  C   UNL A   1      33.276  25.299  23.394  1.00  0.00     0.078 A 
ATOM     14  Cl  UNL A   1      33.602  28.888  25.229  1.00  0.00    -0.084 Cl
ATOM     15  C   UNL A   1      32.965  26.404  25.971  1.00  0.00     0.022 A 
ATOM     16  C   UNL A   1      32.905  24.476  24.483  1.00  0.00     0.043 A 
ATOM     17  N   UNL A   1      33.452  24.781  22.164  1.00  0.00    -0.256 NA
ATOM     18  C   UNL A   1      32.749  25.048  25.763  1.00  0.00     0.016 A 
ATOM     19  C   UNL A   1      33.276  23.458  21.974  1.00  0.00     0.115 A 
ATOM     20  C   UNL A   1      32.906  22.581  22.970  1.00  0.00     0.067 A 
ENDBRANCH   8   9
ENDBRANCH   7   8
ENDBRANCH   4   7
ENDBRANCH   2   3
ENDBRANCH   1   2
BRANCH   1  21
ATOM     21  C   UNL A   1      38.017  19.937  24.624  1.00  0.00     0.023 C 
BRANCH  21  22
ATOM     22  C   UNL A   1      39.030  20.116  25.748  1.00  0.00     0.116 C 
BRANCH  22  23
ATOM     23  N   UNL A   1      40.061  19.090  25.751  1.00  0.00    -0.352 N 
ATOM     24  C   UNL A   1      41.407  19.231  25.989  1.00  0.00     0.251 C 
ATOM     25  H   UNL A   1      39.754  18.175  25.559  1.00  0.00     0.163 HD
ATOM     26  O   UNL A   1      42.172  18.284  25.846  1.00  0.00    -0.269 OA
BRANCH  24  27
ATOM     27  C   UNL A   1      41.931  20.551  26.387  1.00  0.00     0.039 A 
ATOM     28  C   UNL A   1      42.250  21.476  25.391  1.00  0.00     0.014 A 
ATOM     29  C   UNL A   1      42.068  20.883  27.739  1.00  0.00     0.014 A 
ATOM     30  C   UNL A   1      42.649  22.763  25.751  1.00  0.00     0.010 A 
ATOM     31  C   UNL A   1      42.420  22.182  28.096  1.00  0.00     0.010 A 
ATOM     32  C   UNL A   1      42.711  23.131  27.106  1.00  0.00    -0.014 A 
BRANCH  32  33
ATOM     33  C   UNL A   1      43.094  24.509  27.492  1.00  0.00     0.031 A 
ATOM     34  C   UNL A   1      44.534  24.930  27.435  1.00  0.00     0.074 A 
ATOM     35  C   UNL A   1      42.151  25.375  27.906  1.00  0.00     0.049 A 
ATOM     36  N   UNL A   1      45.056  26.100  27.700  1.00  0.00    -0.248 NA
ATOM     37  C   UNL A   1      45.515  23.907  27.040  1.00  0.00     0.031 C 
ATOM     38  C   UNL A   1      40.723  25.076  28.032  1.00  0.00     0.029 A 
ATOM     39  N   UNL A   1      42.252  26.689  28.289  1.00  0.00    -0.354 N 
ATOM     40  C   UNL A   1      46.422  25.952  27.502  1.00  0.00     0.074 A 
ATOM     41  C   UNL A   1      46.656  24.572  27.142  1.00  0.00     0.031 C 
ATOM     42  C   UNL A   1      40.077  26.187  28.425  1.00  0.00     0.029 A 
ATOM     43  C   UNL A   1      41.045  27.267  28.599  1.00  0.00     0.049 A 
ATOM     44  H   UNL A   1      43.109  27.173  28.337  1.00  0.00     0.167 HD
ATOM     45  C   UNL A   1      47.392  26.891  27.586  1.00  0.00     0.031 A 
ATOM     46  C   UNL A   1      40.748  28.528  28.968  1.00  0.00     0.031 A 
ATOM     47  C   UNL A   1      47.162  28.267  27.921  1.00  0.00     0.049 A 
ATOM     48  C   UNL A   1      41.847  29.545  29.082  1.00  0.00     0.074 A 
ATOM     49  C   UNL A   1      48.079  29.303  27.966  1.00  0.00     0.029 A 
ATOM     50  N   UNL A   1      45.930  28.798  28.264  1.00  0.00    -0.354 N 
ATOM     51  N   UNL A   1      43.126  29.403  28.834  1.00  0.00    -0.248 NA
ATOM     52  C   UNL A   1      41.464  30.894  29.524  1.00  0.00     0.031 C 
ATOM     53  C   UNL A   1      47.405  30.458  28.372  1.00  0.00     0.029 A 
ATOM     54  C   UNL A   1      46.066  30.145  28.546  1.00  0.00     0.049 A 
ATOM     55  H   UNL A   1      45.087  28.294  28.301  1.00  0.00     0.167 HD
ATOM     56  C   UNL A   1      43.697  30.645  29.072  1.00  0.00     0.074 A 
ATOM     57  C   UNL A   1      42.629  31.531  29.484  1.00  0.00     0.031 C 
ATOM     58  C   UNL A   1      44.995  31.013  28.955  1.00  0.00     0.031 A 
BRANCH  45  59
ATOM     59  C   UNL A   1      48.797  26.465  27.285  1.00  0.00    -0.014 A 
ATOM     60  C   UNL A   1      49.643  26.023  28.313  1.00  0.00     0.009 A 
ATOM     61  C   UNL A   1      49.256  26.442  25.960  1.00  0.00     0.009 A 
ATOM     62  C   UNL A   1      50.934  25.579  28.020  1.00  0.00     0.001 A 
ATOM     63  C   UNL A   1      50.540  25.981  25.669  1.00  0.00     0.001 A 
ATOM     64  C   UNL A   1      51.379  25.553  26.698  1.00  0.00     0.000 A 
ENDBRANCH  45  59
BRANCH  46  65
ATOM     65  C   UNL A   1      39.334  28.904  29.211  1.00  0.00    -0.014 A 
ATOM     66  C   UNL A   1      38.540  29.375  28.155  1.00  0.00     0.009 A 
ATOM     67  C   UNL A   1      38.761  28.759  30.483  1.00  0.00     0.009 A 
ATOM     68  C   UNL A   1      37.199  29.699  28.370  1.00  0.00     0.001 A 
ATOM     69  C   UNL A   1      37.416  29.071  30.691  1.00  0.00     0.001 A 
ATOM     70  C   UNL A   1      36.637  29.543  29.636  1.00  0.00     0.000 A 
ENDBRANCH  46  65
BRANCH  58  71
ATOM     71  C   UNL A   1      45.357  32.434  29.266  1.00  0.00    -0.014 A 
ATOM     72  C   UNL A   1      45.249  33.427  28.283  1.00  0.00     0.009 A 
ATOM     73  C   UNL A   1      45.663  32.801  30.586  1.00  0.00     0.009 A 
ATOM     74  C   UNL A   1      45.435  34.768  28.619  1.00  0.00     0.001 A 
ATOM     75  C   UNL A   1      45.834  34.145  30.920  1.00  0.00     0.001 A 
ATOM     76  C   UNL A   1      45.717  35.127  29.937  1.00  0.00     0.000 A 
ENDBRANCH  58  71
ENDBRANCH  32  33
ENDBRANCH  24  27
ENDBRANCH  22  23
ENDBRANCH  21  22
ENDBRANCH   1  21
TORSDOF 13
ENDMDL
