MODEL 1
REMARK VINA RESULT:     -11.2      0.000      0.000
REMARK SMILES O=C(NCCCCNC(=O)c1cnc2c(ccn2C2CCCCC2)c1)c1ccc(-c2c3nc(c(-c4ccccc4)c4ccc([nH]4)c(-c4ccccc4)c4nc(c(-c5ccccc5)c5ccc2[nH]5)C=C4)C=C3)cc1
REMARK SMILES IDX 5 1 4 2 3 3 1 4 2 5 26 7 27 8 73 9 28 10 72 11 29 12 30 13
REMARK SMILES IDX 31 14 66 15 32 16 71 17 65 18 67 19 33 20 70 21 64 22 63 23
REMARK SMILES IDX 34 25 56 26 41 27 55 28 42 29 45 30 54 31 68 32 43 33 44 34
REMARK SMILES IDX 53 36 69 37 46 38 35 39 36 40 40 41 37 42 39 43 38 44 57 45
REMARK SMILES IDX 58 46 62 47 59 48 61 49 60 50 47 51 48 52 52 53 49 54 51 55
REMARK SMILES IDX 50 56 6 57 7 58 8 59 9 60 10 62 11 63 12 64 25 65 13 66
REMARK SMILES IDX 15 67 14 68 16 69 18 70 17 71 19 72 20 73 24 74 21 75 23 76
REMARK SMILES IDX 22 77
REMARK H PARENT 3 6 67 24 45 35 8 61
REMARK Flexibility Score: inf
ROOT
ATOM      1  C   UNL A   1      38.520  22.712  25.751  1.00  0.00     0.023 C 
ENDROOT
BRANCH   1   2
ATOM      2  C   UNL A   1      39.683  22.186  26.592  1.00  0.00     0.116 C 
BRANCH   2   3
ATOM      3  N   UNL A   1      40.995  22.279  25.979  1.00  0.00    -0.352 N 
ATOM      4  O   UNL A   1      43.058  22.948  25.465  1.00  0.00    -0.269 OA
ATOM      5  C   UNL A   1      41.994  23.216  26.024  1.00  0.00     0.251 C 
ATOM      6  H   UNL A   1      41.214  21.506  25.409  1.00  0.00     0.163 HD
BRANCH   5   7
ATOM      7  C   UNL A   1      41.831  24.556  26.640  1.00  0.00     0.039 A 
ATOM      8  C   UNL A   1      42.376  24.922  27.869  1.00  0.00     0.014 A 
ATOM      9  C   UNL A   1      41.084  25.502  25.916  1.00  0.00     0.014 A 
ATOM     10  C   UNL A   1      42.073  26.156  28.428  1.00  0.00     0.010 A 
ATOM     11  C   UNL A   1      40.819  26.762  26.450  1.00  0.00     0.010 A 
ATOM     12  C   UNL A   1      41.287  27.074  27.725  1.00  0.00    -0.014 A 
BRANCH  12  13
ATOM     13  C   UNL A   1      41.133  28.395  28.326  1.00  0.00     0.031 A 
ATOM     14  C   UNL A   1      42.267  29.338  28.104  1.00  0.00     0.074 A 
ATOM     15  C   UNL A   1      40.018  28.848  28.928  1.00  0.00     0.049 A 
ATOM     16  N   UNL A   1      42.991  29.953  28.984  1.00  0.00    -0.248 NA
ATOM     17  C   UNL A   1      42.660  29.589  26.708  1.00  0.00     0.031 C 
ATOM     18  C   UNL A   1      38.693  28.229  28.948  1.00  0.00     0.029 A 
ATOM     19  N   UNL A   1      39.824  30.042  29.562  1.00  0.00    -0.354 N 
ATOM     20  C   UNL A   1      43.836  30.787  28.257  1.00  0.00     0.074 A 
ATOM     21  C   UNL A   1      43.655  30.459  26.864  1.00  0.00     0.031 C 
ATOM     22  C   UNL A   1      37.790  29.146  29.362  1.00  0.00     0.029 A 
ATOM     23  C   UNL A   1      38.490  30.362  29.748  1.00  0.00     0.049 A 
ATOM     24  H   UNL A   1      40.564  30.620  29.859  1.00  0.00     0.167 HD
ATOM     25  C   UNL A   1      44.504  31.836  28.804  1.00  0.00     0.031 A 
ATOM     26  C   UNL A   1      37.997  31.570  30.111  1.00  0.00     0.031 A 
ATOM     27  C   UNL A   1      44.605  31.780  30.230  1.00  0.00     0.049 A 
ATOM     28  C   UNL A   1      39.090  32.354  30.731  1.00  0.00     0.074 A 
ATOM     29  C   UNL A   1      45.165  30.910  31.142  1.00  0.00     0.029 A 
ATOM     30  N   UNL A   1      43.800  32.621  30.956  1.00  0.00    -0.354 N 
ATOM     31  N   UNL A   1      39.631  32.086  31.884  1.00  0.00    -0.248 NA
ATOM     32  C   UNL A   1      39.805  33.328  29.919  1.00  0.00     0.031 C 
ATOM     33  C   UNL A   1      44.333  30.986  32.296  1.00  0.00     0.029 A 
ATOM     34  C   UNL A   1      43.312  31.896  32.013  1.00  0.00     0.049 A 
ATOM     35  H   UNL A   1      43.610  33.566  30.758  1.00  0.00     0.167 HD
ATOM     36  C   UNL A   1      40.931  32.552  31.786  1.00  0.00     0.074 A 
ATOM     37  C   UNL A   1      40.933  33.429  30.623  1.00  0.00     0.031 C 
ATOM     38  C   UNL A   1      41.947  31.970  32.486  1.00  0.00     0.031 A 
BRANCH  25  39
ATOM     39  C   UNL A   1      44.758  33.100  28.032  1.00  0.00    -0.014 A 
ATOM     40  C   UNL A   1      43.709  33.994  27.773  1.00  0.00     0.009 A 
ATOM     41  C   UNL A   1      45.965  33.300  27.331  1.00  0.00     0.009 A 
ATOM     42  C   UNL A   1      43.868  35.043  26.857  1.00  0.00     0.001 A 
ATOM     43  C   UNL A   1      46.139  34.366  26.448  1.00  0.00     0.001 A 
ATOM     44  C   UNL A   1      45.082  35.231  26.201  1.00  0.00     0.000 A 
ENDBRANCH  25  39
BRANCH  26  45
ATOM     45  C   UNL A   1      36.708  32.192  29.728  1.00  0.00    -0.014 A 
ATOM     46  C   UNL A   1      35.684  32.342  30.678  1.00  0.00     0.009 A 
ATOM     47  C   UNL A   1      36.567  32.875  28.506  1.00  0.00     0.009 A 
ATOM     48  C   UNL A   1      34.589  33.180  30.433  1.00  0.00     0.001 A 
ATOM     49  C   UNL A   1      35.465  33.698  28.254  1.00  0.00     0.001 A 
ATOM     50  C   UNL A   1      34.486  33.866  29.225  1.00  0.00     0.000 A 
ENDBRANCH  26  45
BRANCH  38  51
ATOM     51  C   UNL A   1      41.587  31.057  33.629  1.00  0.00    -0.014 A 
ATOM     52  C   UNL A   1      41.360  29.682  33.452  1.00  0.00     0.009 A 
ATOM     53  C   UNL A   1      41.645  31.565  34.935  1.00  0.00     0.009 A 
ATOM     54  C   UNL A   1      41.176  28.842  34.553  1.00  0.00     0.001 A 
ATOM     55  C   UNL A   1      41.479  30.722  36.037  1.00  0.00     0.001 A 
ATOM     56  C   UNL A   1      41.243  29.361  35.845  1.00  0.00     0.000 A 
ENDBRANCH  38  51
ENDBRANCH  12  13
ENDBRANCH   5   7
ENDBRANCH   2   3
ENDBRANCH   1   2
BRANCH   1  57
ATOM     57  C   UNL A   1      37.416  21.697  25.452  1.00  0.00     0.023 C 
BRANCH  57  58
ATOM     58  C   UNL A   1      36.537  22.019  24.248  1.00  0.00     0.116 C 
BRANCH  58  59
ATOM     59  N   UNL A   1      35.214  21.416  24.339  1.00  0.00    -0.352 N 
ATOM     60  C   UNL A   1      34.001  22.011  24.571  1.00  0.00     0.252 C 
ATOM     61  H   UNL A   1      35.188  20.441  24.217  1.00  0.00     0.163 HD
ATOM     62  O   UNL A   1      32.997  21.322  24.735  1.00  0.00    -0.269 OA
BRANCH  60  63
ATOM     63  C   UNL A   1      33.902  23.473  24.650  1.00  0.00     0.058 A 
ATOM     64  C   UNL A   1      33.904  24.120  25.878  1.00  0.00     0.127 A 
ATOM     65  C   UNL A   1      33.813  24.223  23.476  1.00  0.00     0.027 A 
ATOM     66  N   UNL A   1      33.727  25.446  26.063  1.00  0.00    -0.238 NA
ATOM     67  C   UNL A   1      33.647  25.609  23.616  1.00  0.00     0.020 A 
ATOM     68  C   UNL A   1      33.596  26.132  24.908  1.00  0.00     0.140 A 
ATOM     69  C   UNL A   1      33.495  26.700  22.721  1.00  0.00     0.030 A 
ATOM     70  N   UNL A   1      33.372  27.484  24.806  1.00  0.00    -0.329 N 
ATOM     71  C   UNL A   1      33.327  27.840  23.477  1.00  0.00     0.088 A 
BRANCH  70  72
ATOM     72  C   UNL A   1      33.157  28.407  25.919  1.00  0.00     0.088 C 
ATOM     73  C   UNL A   1      34.485  28.928  26.494  1.00  0.00     0.025 C 
ATOM     74  C   UNL A   1      32.193  29.551  25.569  1.00  0.00     0.025 C 
ATOM     75  C   UNL A   1      34.256  29.876  27.668  1.00  0.00     0.002 C 
ATOM     76  C   UNL A   1      31.987  30.493  26.754  1.00  0.00     0.002 C 
ATOM     77  C   UNL A   1      33.316  31.018  27.292  1.00  0.00     0.000 C 
ENDBRANCH  70  72
ENDBRANCH  60  63
ENDBRANCH  58  59
ENDBRANCH  57  58
ENDBRANCH   1  57
TORSDOF 12
ENDMDL
MODEL 2
REMARK VINA RESULT:     -11.1      3.064      8.355
REMARK SMILES O=C(NCCCCNC(=O)c1cnc2c(ccn2C2CCCCC2)c1)c1ccc(-c2c3nc(c(-c4ccccc4)c4ccc([nH]4)c(-c4ccccc4)c4nc(c(-c5ccccc5)c5ccc2[nH]5)C=C4)C=C3)cc1
REMARK SMILES IDX 5 1 4 2 3 3 1 4 2 5 26 7 27 8 73 9 28 10 72 11 29 12 30 13
REMARK SMILES IDX 31 14 66 15 32 16 71 17 65 18 67 19 33 20 70 21 64 22 63 23
REMARK SMILES IDX 34 25 56 26 41 27 55 28 42 29 45 30 54 31 68 32 43 33 44 34
REMARK SMILES IDX 53 36 69 37 46 38 35 39 36 40 40 41 37 42 39 43 38 44 57 45
REMARK SMILES IDX 58 46 62 47 59 48 61 49 60 50 47 51 48 52 52 53 49 54 51 55
REMARK SMILES IDX 50 56 6 57 7 58 8 59 9 60 10 62 11 63 12 64 25 65 13 66
REMARK SMILES IDX 15 67 14 68 16 69 18 70 17 71 19 72 20 73 24 74 21 75 23 76
REMARK SMILES IDX 22 77
REMARK H PARENT 3 6 67 24 45 35 8 61
REMARK Flexibility Score: inf
ROOT
ATOM      1  C   UNL A   1      32.566  29.925  27.239  1.00  0.00     0.023 C 
ENDROOT
BRANCH   1   2
ATOM      2  C   UNL A   1      33.978  30.508  27.277  1.00  0.00     0.116 C 
BRANCH   2   3
ATOM      3  N   UNL A   1      34.231  31.474  28.330  1.00  0.00    -0.352 N 
ATOM      4  O   UNL A   1      35.243  32.689  29.901  1.00  0.00    -0.269 OA
ATOM      5  C   UNL A   1      35.291  31.700  29.169  1.00  0.00     0.251 C 
ATOM      6  H   UNL A   1      33.483  32.098  28.473  1.00  0.00     0.163 HD
BRANCH   5   7
ATOM      7  C   UNL A   1      36.446  30.777  29.294  1.00  0.00     0.039 A 
ATOM      8  C   UNL A   1      36.373  29.508  29.866  1.00  0.00     0.014 A 
ATOM      9  C   UNL A   1      37.679  31.228  28.790  1.00  0.00     0.014 A 
ATOM     10  C   UNL A   1      37.526  28.759  30.054  1.00  0.00     0.010 A 
ATOM     11  C   UNL A   1      38.831  30.458  28.930  1.00  0.00     0.010 A 
ATOM     12  C   UNL A   1      38.758  29.237  29.596  1.00  0.00    -0.014 A 
BRANCH  12  13
ATOM     13  C   UNL A   1      39.893  28.326  29.711  1.00  0.00     0.031 A 
ATOM     14  C   UNL A   1      40.517  28.242  31.063  1.00  0.00     0.074 A 
ATOM     15  C   UNL A   1      40.314  27.485  28.748  1.00  0.00     0.049 A 
ATOM     16  N   UNL A   1      41.746  28.467  31.403  1.00  0.00    -0.248 NA
ATOM     17  C   UNL A   1      39.627  27.900  32.184  1.00  0.00     0.031 C 
ATOM     18  C   UNL A   1      39.646  27.154  27.490  1.00  0.00     0.029 A 
ATOM     19  N   UNL A   1      41.398  26.655  28.764  1.00  0.00    -0.354 N 
ATOM     20  C   UNL A   1      41.825  28.150  32.755  1.00  0.00     0.074 A 
ATOM     21  C   UNL A   1      40.479  27.893  33.207  1.00  0.00     0.031 C 
ATOM     22  C   UNL A   1      40.215  26.042  26.974  1.00  0.00     0.029 A 
ATOM     23  C   UNL A   1      41.353  25.664  27.797  1.00  0.00     0.049 A 
ATOM     24  H   UNL A   1      42.142  26.753  29.401  1.00  0.00     0.167 HD
ATOM     25  C   UNL A   1      42.997  27.922  33.403  1.00  0.00     0.031 A 
ATOM     26  C   UNL A   1      42.144  24.567  27.735  1.00  0.00     0.031 A 
ATOM     27  C   UNL A   1      44.147  28.426  32.717  1.00  0.00     0.049 A 
ATOM     28  C   UNL A   1      43.352  24.814  28.555  1.00  0.00     0.074 A 
ATOM     29  C   UNL A   1      44.580  29.670  32.307  1.00  0.00     0.029 A 
ATOM     30  N   UNL A   1      44.954  27.518  32.082  1.00  0.00    -0.354 N 
ATOM     31  N   UNL A   1      44.290  25.665  28.254  1.00  0.00    -0.248 NA
ATOM     32  C   UNL A   1      43.402  24.290  29.912  1.00  0.00     0.031 C 
ATOM     33  C   UNL A   1      45.326  29.436  31.116  1.00  0.00     0.029 A 
ATOM     34  C   UNL A   1      45.296  28.062  30.870  1.00  0.00     0.049 A 
ATOM     35  H   UNL A   1      45.237  26.641  32.430  1.00  0.00     0.167 HD
ATOM     36  C   UNL A   1      44.809  26.073  29.471  1.00  0.00     0.074 A 
ATOM     37  C   UNL A   1      44.329  25.092  30.435  1.00  0.00     0.031 C 
ATOM     38  C   UNL A   1      45.346  27.317  29.631  1.00  0.00     0.031 A 
BRANCH  25  39
ATOM     39  C   UNL A   1      43.104  26.915  34.513  1.00  0.00    -0.014 A 
ATOM     40  C   UNL A   1      43.129  25.542  34.223  1.00  0.00     0.009 A 
ATOM     41  C   UNL A   1      42.921  27.287  35.861  1.00  0.00     0.009 A 
ATOM     42  C   UNL A   1      42.982  24.590  35.240  1.00  0.00     0.001 A 
ATOM     43  C   UNL A   1      42.814  26.340  36.880  1.00  0.00     0.001 A 
ATOM     44  C   UNL A   1      42.831  24.989  36.566  1.00  0.00     0.000 A 
ENDBRANCH  25  39
BRANCH  26  45
ATOM     45  C   UNL A   1      41.811  23.218  27.222  1.00  0.00    -0.014 A 
ATOM     46  C   UNL A   1      42.537  22.667  26.154  1.00  0.00     0.009 A 
ATOM     47  C   UNL A   1      40.956  22.360  27.938  1.00  0.00     0.009 A 
ATOM     48  C   UNL A   1      42.448  21.303  25.847  1.00  0.00     0.001 A 
ATOM     49  C   UNL A   1      40.853  21.002  27.622  1.00  0.00     0.001 A 
ATOM     50  C   UNL A   1      41.615  20.470  26.589  1.00  0.00     0.000 A 
ENDBRANCH  26  45
BRANCH  38  51
ATOM     51  C   UNL A   1      45.693  28.103  28.394  1.00  0.00    -0.014 A 
ATOM     52  C   UNL A   1      44.807  29.027  27.816  1.00  0.00     0.009 A 
ATOM     53  C   UNL A   1      47.005  28.033  27.902  1.00  0.00     0.009 A 
ATOM     54  C   UNL A   1      45.218  29.845  26.760  1.00  0.00     0.001 A 
ATOM     55  C   UNL A   1      47.421  28.864  26.859  1.00  0.00     0.001 A 
ATOM     56  C   UNL A   1      46.527  29.767  26.287  1.00  0.00     0.000 A 
ENDBRANCH  38  51
ENDBRANCH  12  13
ENDBRANCH   5   7
ENDBRANCH   2   3
ENDBRANCH   1   2
BRANCH   1  57
ATOM     57  C   UNL A   1      31.764  30.231  25.973  1.00  0.00     0.023 C 
BRANCH  57  58
ATOM     58  C   UNL A   1      32.353  29.686  24.676  1.00  0.00     0.116 C 
BRANCH  58  59
ATOM     59  N   UNL A   1      31.336  29.168  23.770  1.00  0.00    -0.352 N 
ATOM     60  C   UNL A   1      31.122  27.883  23.346  1.00  0.00     0.252 C 
ATOM     61  H   UNL A   1      30.713  29.839  23.411  1.00  0.00     0.163 HD
ATOM     62  O   UNL A   1      30.283  27.650  22.478  1.00  0.00    -0.269 OA
BRANCH  60  63
ATOM     63  C   UNL A   1      31.913  26.782  23.908  1.00  0.00     0.058 A 
ATOM     64  C   UNL A   1      33.271  26.672  23.638  1.00  0.00     0.127 A 
ATOM     65  C   UNL A   1      31.296  25.837  24.729  1.00  0.00     0.027 A 
ATOM     66  N   UNL A   1      34.065  25.653  24.029  1.00  0.00    -0.238 NA
ATOM     67  C   UNL A   1      32.086  24.767  25.177  1.00  0.00     0.020 A 
ATOM     68  C   UNL A   1      33.423  24.734  24.780  1.00  0.00     0.140 A 
ATOM     69  C   UNL A   1      31.863  23.618  25.978  1.00  0.00     0.030 A 
ATOM     70  N   UNL A   1      33.981  23.583  25.280  1.00  0.00    -0.329 N 
ATOM     71  C   UNL A   1      33.042  22.907  26.026  1.00  0.00     0.088 A 
BRANCH  70  72
ATOM     72  C   UNL A   1      35.339  23.105  25.027  1.00  0.00     0.088 C 
ATOM     73  C   UNL A   1      36.368  23.796  25.938  1.00  0.00     0.025 C 
ATOM     74  C   UNL A   1      35.455  21.573  25.087  1.00  0.00     0.025 C 
ATOM     75  C   UNL A   1      37.786  23.307  25.656  1.00  0.00     0.002 C 
ATOM     76  C   UNL A   1      36.884  21.108  24.813  1.00  0.00     0.002 C 
ATOM     77  C   UNL A   1      37.884  21.787  25.745  1.00  0.00     0.000 C 
ENDBRANCH  70  72
ENDBRANCH  60  63
ENDBRANCH  58  59
ENDBRANCH  57  58
ENDBRANCH   1  57
TORSDOF 12
ENDMDL
MODEL 3
REMARK VINA RESULT:     -10.9      3.157      8.409
REMARK SMILES O=C(NCCCCNC(=O)c1cnc2c(ccn2C2CCCCC2)c1)c1ccc(-c2c3nc(c(-c4ccccc4)c4ccc([nH]4)c(-c4ccccc4)c4nc(c(-c5ccccc5)c5ccc2[nH]5)C=C4)C=C3)cc1
REMARK SMILES IDX 5 1 4 2 3 3 1 4 2 5 26 7 27 8 73 9 28 10 72 11 29 12 30 13
REMARK SMILES IDX 31 14 66 15 32 16 71 17 65 18 67 19 33 20 70 21 64 22 63 23
REMARK SMILES IDX 34 25 56 26 41 27 55 28 42 29 45 30 54 31 68 32 43 33 44 34
REMARK SMILES IDX 53 36 69 37 46 38 35 39 36 40 40 41 37 42 39 43 38 44 57 45
REMARK SMILES IDX 58 46 62 47 59 48 61 49 60 50 47 51 48 52 52 53 49 54 51 55
REMARK SMILES IDX 50 56 6 57 7 58 8 59 9 60 10 62 11 63 12 64 25 65 13 66
REMARK SMILES IDX 15 67 14 68 16 69 18 70 17 71 19 72 20 73 24 74 21 75 23 76
REMARK SMILES IDX 22 77
REMARK H PARENT 3 6 67 24 45 35 8 61
REMARK Flexibility Score: inf
ROOT
ATOM      1  C   UNL A   1      33.651  30.236  27.529  1.00  0.00     0.023 C 
ENDROOT
BRANCH   1   2
ATOM      2  C   UNL A   1      34.455  31.534  27.611  1.00  0.00     0.116 C 
BRANCH   2   3
ATOM      3  N   UNL A   1      34.505  32.161  28.919  1.00  0.00    -0.352 N 
ATOM      4  O   UNL A   1      35.222  32.894  30.898  1.00  0.00    -0.269 OA
ATOM      5  C   UNL A   1      35.428  32.158  29.932  1.00  0.00     0.251 C 
ATOM      6  H   UNL A   1      33.708  32.702  29.121  1.00  0.00     0.163 HD
BRANCH   5   7
ATOM      7  C   UNL A   1      36.610  31.262  29.959  1.00  0.00     0.039 A 
ATOM      8  C   UNL A   1      37.928  31.704  29.854  1.00  0.00     0.014 A 
ATOM      9  C   UNL A   1      36.363  29.886  30.111  1.00  0.00     0.014 A 
ATOM     10  C   UNL A   1      38.967  30.789  29.766  1.00  0.00     0.010 A 
ATOM     11  C   UNL A   1      37.408  28.965  30.075  1.00  0.00     0.010 A 
ATOM     12  C   UNL A   1      38.709  29.418  29.866  1.00  0.00    -0.014 A 
BRANCH  12  13
ATOM     13  C   UNL A   1      39.872  28.537  29.902  1.00  0.00     0.031 A 
ATOM     14  C   UNL A   1      40.531  28.395  31.232  1.00  0.00     0.074 A 
ATOM     15  C   UNL A   1      40.291  27.765  28.883  1.00  0.00     0.049 A 
ATOM     16  N   UNL A   1      41.762  28.637  31.554  1.00  0.00    -0.248 NA
ATOM     17  C   UNL A   1      39.681  27.964  32.353  1.00  0.00     0.031 C 
ATOM     18  C   UNL A   1      39.601  27.486  27.624  1.00  0.00     0.029 A 
ATOM     19  N   UNL A   1      41.398  26.967  28.825  1.00  0.00    -0.354 N 
ATOM     20  C   UNL A   1      41.885  28.246  32.884  1.00  0.00     0.074 A 
ATOM     21  C   UNL A   1      40.559  27.925  33.353  1.00  0.00     0.031 C 
ATOM     22  C   UNL A   1      40.187  26.421  27.032  1.00  0.00     0.029 A 
ATOM     23  C   UNL A   1      41.357  26.032  27.804  1.00  0.00     0.049 A 
ATOM     24  H   UNL A   1      42.155  27.051  29.449  1.00  0.00     0.167 HD
ATOM     25  C   UNL A   1      43.079  28.017  33.490  1.00  0.00     0.031 A 
ATOM     26  C   UNL A   1      42.177  24.964  27.661  1.00  0.00     0.031 A 
ATOM     27  C   UNL A   1      44.196  28.593  32.806  1.00  0.00     0.049 A 
ATOM     28  C   UNL A   1      43.398  25.200  28.465  1.00  0.00     0.074 A 
ATOM     29  C   UNL A   1      44.583  29.870  32.458  1.00  0.00     0.029 A 
ATOM     30  N   UNL A   1      45.013  27.746  32.101  1.00  0.00    -0.354 N 
ATOM     31  N   UNL A   1      44.303  26.094  28.190  1.00  0.00    -0.248 NA
ATOM     32  C   UNL A   1      43.497  24.601  29.788  1.00  0.00     0.031 C 
ATOM     33  C   UNL A   1      45.305  29.726  31.238  1.00  0.00     0.029 A 
ATOM     34  C   UNL A   1      45.307  28.368  30.915  1.00  0.00     0.049 A 
ATOM     35  H   UNL A   1      45.329  26.861  32.391  1.00  0.00     0.167 HD
ATOM     36  C   UNL A   1      44.841  26.447  29.416  1.00  0.00     0.074 A 
ATOM     37  C   UNL A   1      44.414  25.400  30.333  1.00  0.00     0.031 C 
ATOM     38  C   UNL A   1      45.347  27.696  29.634  1.00  0.00     0.031 A 
BRANCH  25  39
ATOM     39  C   UNL A   1      43.243  26.952  34.537  1.00  0.00    -0.014 A 
ATOM     40  C   UNL A   1      43.356  25.605  34.164  1.00  0.00     0.009 A 
ATOM     41  C   UNL A   1      43.029  27.229  35.903  1.00  0.00     0.009 A 
ATOM     42  C   UNL A   1      43.264  24.584  35.120  1.00  0.00     0.001 A 
ATOM     43  C   UNL A   1      42.976  26.217  36.862  1.00  0.00     0.001 A 
ATOM     44  C   UNL A   1      43.080  24.891  36.467  1.00  0.00     0.000 A 
ENDBRANCH  25  39
BRANCH  26  45
ATOM     45  C   UNL A   1      41.868  23.637  27.080  1.00  0.00    -0.014 A 
ATOM     46  C   UNL A   1      42.722  23.068  26.120  1.00  0.00     0.009 A 
ATOM     47  C   UNL A   1      40.883  22.807  27.646  1.00  0.00     0.009 A 
ATOM     48  C   UNL A   1      42.624  21.713  25.779  1.00  0.00     0.001 A 
ATOM     49  C   UNL A   1      40.773  21.459  27.294  1.00  0.00     0.001 A 
ATOM     50  C   UNL A   1      41.657  20.907  26.374  1.00  0.00     0.000 A 
ENDBRANCH  26  45
BRANCH  38  51
ATOM     51  C   UNL A   1      45.639  28.560  28.436  1.00  0.00    -0.014 A 
ATOM     52  C   UNL A   1      44.667  29.386  27.847  1.00  0.00     0.009 A 
ATOM     53  C   UNL A   1      46.968  28.671  27.999  1.00  0.00     0.009 A 
ATOM     54  C   UNL A   1      45.013  30.284  26.834  1.00  0.00     0.001 A 
ATOM     55  C   UNL A   1      47.316  29.582  26.998  1.00  0.00     0.001 A 
ATOM     56  C   UNL A   1      46.338  30.386  26.415  1.00  0.00     0.000 A 
ENDBRANCH  38  51
ENDBRANCH  12  13
ENDBRANCH   5   7
ENDBRANCH   2   3
ENDBRANCH   1   2
BRANCH   1  57
ATOM     57  C   UNL A   1      32.314  30.339  26.794  1.00  0.00     0.023 C 
BRANCH  57  58
ATOM     58  C   UNL A   1      32.320  29.844  25.351  1.00  0.00     0.116 C 
BRANCH  58  59
ATOM     59  N   UNL A   1      31.052  30.075  24.672  1.00  0.00    -0.352 N 
ATOM     60  C   UNL A   1      30.356  29.252  23.825  1.00  0.00     0.252 C 
ATOM     61  H   UNL A   1      30.635  30.948  24.847  1.00  0.00     0.163 HD
ATOM     62  O   UNL A   1      29.354  29.666  23.246  1.00  0.00    -0.269 OA
BRANCH  60  63
ATOM     63  C   UNL A   1      30.822  27.881  23.585  1.00  0.00     0.058 A 
ATOM     64  C   UNL A   1      30.605  26.883  24.526  1.00  0.00     0.127 A 
ATOM     65  C   UNL A   1      31.483  27.574  22.396  1.00  0.00     0.027 A 
ATOM     66  N   UNL A   1      31.070  25.618  24.444  1.00  0.00    -0.238 NA
ATOM     67  C   UNL A   1      31.970  26.265  22.255  1.00  0.00     0.020 A 
ATOM     68  C   UNL A   1      31.746  25.371  23.302  1.00  0.00     0.140 A 
ATOM     69  C   UNL A   1      32.693  25.562  21.257  1.00  0.00     0.030 A 
ATOM     70  N   UNL A   1      32.353  24.182  22.976  1.00  0.00    -0.329 N 
ATOM     71  C   UNL A   1      32.916  24.285  21.724  1.00  0.00     0.088 A 
BRANCH  70  72
ATOM     72  C   UNL A   1      32.445  23.001  23.832  1.00  0.00     0.088 C 
ATOM     73  C   UNL A   1      32.460  21.700  23.011  1.00  0.00     0.025 C 
ATOM     74  C   UNL A   1      33.619  23.070  24.822  1.00  0.00     0.025 C 
ATOM     75  C   UNL A   1      32.537  20.469  23.909  1.00  0.00     0.002 C 
ATOM     76  C   UNL A   1      33.683  21.824  25.703  1.00  0.00     0.002 C 
ATOM     77  C   UNL A   1      33.723  20.547  24.867  1.00  0.00     0.000 C 
ENDBRANCH  70  72
ENDBRANCH  60  63
ENDBRANCH  58  59
ENDBRANCH  57  58
ENDBRANCH   1  57
TORSDOF 12
ENDMDL
