MODEL 1
REMARK VINA RESULT:     -11.3      0.000      0.000
REMARK SMILES Cc1cc(C[NH+]2C[C@@H](C)[C@H](C)C2)oc1C(=O)NCCCCNC(=O)c1ccc(-c2c3nc(c(-c4ccccc4)c4ccc([nH]4)c(-c4ccccc4)c4nc(c(-c5ccccc5)c5ccc2[nH]5)C=C4)C=C3)cc1
REMARK SMILES IDX 19 1 18 2 17 3 15 4 16 5 14 7 1 8 2 9 3 10 4 11 13 12 5 13
REMARK SMILES IDX 6 14 7 15 12 16 8 18 10 19 9 20 11 21 20 22 21 23 22 24
REMARK SMILES IDX 23 25 24 27 25 28 26 29 72 30 27 31 71 32 28 33 29 34 30 35
REMARK SMILES IDX 65 36 31 37 70 38 64 39 66 40 32 41 69 42 63 43 62 44 33 46
REMARK SMILES IDX 55 47 40 48 54 49 41 50 44 51 53 52 67 53 42 54 43 55 52 57
REMARK SMILES IDX 68 58 45 59 34 60 35 61 39 62 36 63 38 64 37 65 56 66 57 67
REMARK SMILES IDX 61 68 58 69 60 70 59 71 46 72 47 73 51 74 48 75 50 76 49 77
REMARK H PARENT 17 6 6 17 22 26 66 45 44 56
REMARK Flexibility Score: inf
ROOT
ATOM      1  C   UNL A   1      37.058  21.503  24.396  1.00  0.00     0.023 C 
ENDROOT
BRANCH   1   2
ATOM      2  C   UNL A   1      37.244  22.791  25.191  1.00  0.00     0.116 C 
BRANCH   2   3
ATOM      3  N   UNL A   1      36.377  22.918  26.335  1.00  0.00    -0.349 N 
ATOM      4  C   UNL A   1      35.008  22.772  26.410  1.00  0.00     0.287 C 
ATOM      5  O   UNL A   1      34.506  23.031  27.505  1.00  0.00    -0.266 OA
ATOM      6  H   UNL A   1      36.826  23.142  27.182  1.00  0.00     0.163 HD
BRANCH   4   7
ATOM      7  C   UNL A   1      34.216  22.376  25.253  1.00  0.00     0.194 A 
ATOM      8  C   UNL A   1      33.820  24.402  23.641  1.00  0.00     0.049 C 
ATOM      9  C   UNL A   1      33.721  22.997  24.105  1.00  0.00     0.001 A 
ATOM     10  C   UNL A   1      33.063  21.980  23.355  1.00  0.00     0.056 A 
ATOM     11  C   UNL A   1      33.146  20.818  24.082  1.00  0.00     0.159 A 
ATOM     12  O   UNL A   1      33.871  21.042  25.210  1.00  0.00    -0.450 OA
BRANCH  11  13
ATOM     13  C   UNL A   1      32.610  19.439  23.877  1.00  0.00     0.338 C 
BRANCH  13  14
ATOM     14  N   UNL A   1      33.129  18.433  24.809  1.00  0.00    -0.328 N 
ATOM     15  C   UNL A   1      32.216  17.319  25.068  1.00  0.00     0.266 C 
ATOM     16  C   UNL A   1      34.461  17.904  24.511  1.00  0.00     0.266 C 
ATOM     17  H   UNL A   1      33.216  18.993  25.658  1.00  0.00     0.348 HD
ATOM     18  C   UNL A   1      33.141  16.237  25.616  1.00  0.00     0.049 C 
ATOM     19  C   UNL A   1      34.360  16.388  24.706  1.00  0.00     0.049 C 
ATOM     20  C   UNL A   1      32.505  14.855  25.570  1.00  0.00     0.014 C 
ATOM     21  C   UNL A   1      35.638  15.778  25.259  1.00  0.00     0.014 C 
ENDBRANCH  13  14
ENDBRANCH  11  13
ENDBRANCH   4   7
ENDBRANCH   2   3
ENDBRANCH   1   2
BRANCH   1  22
ATOM     22  C   UNL A   1      37.768  20.265  24.936  1.00  0.00     0.023 C 
BRANCH  22  23
ATOM     23  C   UNL A   1      38.923  20.510  25.904  1.00  0.00     0.116 C 
BRANCH  23  24
ATOM     24  N   UNL A   1      39.991  19.524  25.814  1.00  0.00    -0.352 N 
ATOM     25  C   UNL A   1      41.333  19.633  26.095  1.00  0.00     0.251 C 
ATOM     26  H   UNL A   1      39.706  18.635  25.501  1.00  0.00     0.163 HD
ATOM     27  O   UNL A   1      42.083  18.686  25.876  1.00  0.00    -0.269 OA
BRANCH  25  28
ATOM     28  C   UNL A   1      41.887  20.904  26.610  1.00  0.00     0.039 A 
ATOM     29  C   UNL A   1      42.344  21.858  25.698  1.00  0.00     0.014 A 
ATOM     30  C   UNL A   1      41.926  21.170  27.979  1.00  0.00     0.014 A 
ATOM     31  C   UNL A   1      42.735  23.120  26.152  1.00  0.00     0.010 A 
ATOM     32  C   UNL A   1      42.228  22.455  28.423  1.00  0.00     0.010 A 
ATOM     33  C   UNL A   1      42.624  23.447  27.513  1.00  0.00    -0.014 A 
BRANCH  33  34
ATOM     34  C   UNL A   1      42.891  24.825  28.004  1.00  0.00     0.031 A 
ATOM     35  C   UNL A   1      44.284  25.235  28.395  1.00  0.00     0.074 A 
ATOM     36  C   UNL A   1      41.866  25.682  28.180  1.00  0.00     0.049 A 
ATOM     37  N   UNL A   1      44.697  26.360  28.923  1.00  0.00    -0.248 NA
ATOM     38  C   UNL A   1      45.349  24.238  28.196  1.00  0.00     0.031 C 
ATOM     39  C   UNL A   1      40.459  25.398  27.889  1.00  0.00     0.029 A 
ATOM     40  N   UNL A   1      41.850  26.971  28.656  1.00  0.00    -0.354 N 
ATOM     41  C   UNL A   1      46.059  26.197  29.140  1.00  0.00     0.074 A 
ATOM     42  C   UNL A   1      46.394  24.848  28.735  1.00  0.00     0.031 C 
ATOM     43  C   UNL A   1      39.723  26.487  28.165  1.00  0.00     0.029 A 
ATOM     44  C   UNL A   1      40.596  27.531  28.690  1.00  0.00     0.049 A 
ATOM     45  H   UNL A   1      42.661  27.448  28.947  1.00  0.00     0.167 HD
ATOM     46  C   UNL A   1      46.957  27.093  29.613  1.00  0.00     0.031 A 
ATOM     47  C   UNL A   1      40.190  28.748  29.102  1.00  0.00     0.031 A 
ATOM     48  C   UNL A   1      46.633  28.440  29.998  1.00  0.00     0.049 A 
ATOM     49  C   UNL A   1      41.206  29.724  29.624  1.00  0.00     0.074 A 
ATOM     50  C   UNL A   1      47.485  29.443  30.426  1.00  0.00     0.029 A 
ATOM     51  N   UNL A   1      45.354  28.973  30.001  1.00  0.00    -0.354 N 
ATOM     52  N   UNL A   1      42.503  29.577  29.755  1.00  0.00    -0.248 NA
ATOM     53  C   UNL A   1      40.703  31.039  30.048  1.00  0.00     0.031 C 
ATOM     54  C   UNL A   1      46.715  30.570  30.733  1.00  0.00     0.029 A 
ATOM     55  C   UNL A   1      45.390  30.283  30.444  1.00  0.00     0.049 A 
ATOM     56  H   UNL A   1      44.540  28.490  29.728  1.00  0.00     0.167 HD
ATOM     57  C   UNL A   1      42.971  30.786  30.252  1.00  0.00     0.074 A 
ATOM     58  C   UNL A   1      41.825  31.661  30.382  1.00  0.00     0.031 C 
ATOM     59  C   UNL A   1      44.240  31.140  30.570  1.00  0.00     0.031 A 
BRANCH  46  60
ATOM     60  C   UNL A   1      48.384  26.637  29.743  1.00  0.00    -0.014 A 
ATOM     61  C   UNL A   1      49.311  26.849  28.709  1.00  0.00     0.009 A 
ATOM     62  C   UNL A   1      48.814  26.010  30.921  1.00  0.00     0.009 A 
ATOM     63  C   UNL A   1      50.629  26.406  28.838  1.00  0.00     0.001 A 
ATOM     64  C   UNL A   1      50.139  25.595  31.060  1.00  0.00     0.001 A 
ATOM     65  C   UNL A   1      51.043  25.784  30.014  1.00  0.00     0.000 A 
ENDBRANCH  46  60
BRANCH  47  66
ATOM     66  C   UNL A   1      38.755  29.123  29.022  1.00  0.00    -0.014 A 
ATOM     67  C   UNL A   1      38.214  29.607  27.820  1.00  0.00     0.009 A 
ATOM     68  C   UNL A   1      37.921  29.011  30.145  1.00  0.00     0.009 A 
ATOM     69  C   UNL A   1      36.875  29.995  27.752  1.00  0.00     0.001 A 
ATOM     70  C   UNL A   1      36.574  29.375  30.066  1.00  0.00     0.001 A 
ATOM     71  C   UNL A   1      36.055  29.876  28.873  1.00  0.00     0.000 A 
ENDBRANCH  47  66
BRANCH  59  72
ATOM     72  C   UNL A   1      44.458  32.543  31.063  1.00  0.00    -0.014 A 
ATOM     73  C   UNL A   1      44.423  32.848  32.432  1.00  0.00     0.009 A 
ATOM     74  C   UNL A   1      44.744  33.565  30.143  1.00  0.00     0.009 A 
ATOM     75  C   UNL A   1      44.638  34.157  32.868  1.00  0.00     0.001 A 
ATOM     76  C   UNL A   1      44.985  34.866  30.585  1.00  0.00     0.001 A 
ATOM     77  C   UNL A   1      44.924  35.163  31.945  1.00  0.00     0.000 A 
ENDBRANCH  59  72
ENDBRANCH  33  34
ENDBRANCH  25  28
ENDBRANCH  23  24
ENDBRANCH  22  23
ENDBRANCH   1  22
TORSDOF 13
ENDMDL
MODEL 2
REMARK VINA RESULT:     -11.3      6.020     10.620
REMARK SMILES Cc1cc(C[NH+]2C[C@@H](C)[C@H](C)C2)oc1C(=O)NCCCCNC(=O)c1ccc(-c2c3nc(c(-c4ccccc4)c4ccc([nH]4)c(-c4ccccc4)c4nc(c(-c5ccccc5)c5ccc2[nH]5)C=C4)C=C3)cc1
REMARK SMILES IDX 19 1 18 2 17 3 15 4 16 5 14 7 1 8 2 9 3 10 4 11 13 12 5 13
REMARK SMILES IDX 6 14 7 15 12 16 8 18 10 19 9 20 11 21 20 22 21 23 22 24
REMARK SMILES IDX 23 25 24 27 25 28 26 29 72 30 27 31 71 32 28 33 29 34 30 35
REMARK SMILES IDX 65 36 31 37 70 38 64 39 66 40 32 41 69 42 63 43 62 44 33 46
REMARK SMILES IDX 55 47 40 48 54 49 41 50 44 51 53 52 67 53 42 54 43 55 52 57
REMARK SMILES IDX 68 58 45 59 34 60 35 61 39 62 36 63 38 64 37 65 56 66 57 67
REMARK SMILES IDX 61 68 58 69 60 70 59 71 46 72 47 73 51 74 48 75 50 76 49 77
REMARK H PARENT 17 6 6 17 22 26 66 45 44 56
REMARK Flexibility Score: inf
ROOT
ATOM      1  C   UNL A   1      31.783  30.329  26.890  1.00  0.00     0.023 C 
ENDROOT
BRANCH   1   2
ATOM      2  C   UNL A   1      33.110  29.632  26.611  1.00  0.00     0.116 C 
BRANCH   2   3
ATOM      3  N   UNL A   1      33.024  28.195  26.532  1.00  0.00    -0.349 N 
ATOM      4  C   UNL A   1      32.416  27.411  25.574  1.00  0.00     0.287 C 
ATOM      5  O   UNL A   1      32.414  26.201  25.804  1.00  0.00    -0.266 OA
ATOM      6  H   UNL A   1      33.461  27.705  27.266  1.00  0.00     0.163 HD
BRANCH   4   7
ATOM      7  C   UNL A   1      31.788  27.992  24.395  1.00  0.00     0.194 A 
ATOM      8  C   UNL A   1      33.581  28.961  22.750  1.00  0.00     0.049 C 
ATOM      9  C   UNL A   1      32.218  28.619  23.224  1.00  0.00     0.001 A 
ATOM     10  C   UNL A   1      31.044  28.887  22.463  1.00  0.00     0.056 A 
ATOM     11  C   UNL A   1      29.970  28.461  23.205  1.00  0.00     0.159 A 
ATOM     12  O   UNL A   1      30.414  27.888  24.354  1.00  0.00    -0.450 OA
BRANCH  11  13
ATOM     13  C   UNL A   1      28.492  28.518  22.995  1.00  0.00     0.338 C 
BRANCH  13  14
ATOM     14  N   UNL A   1      27.963  29.857  22.718  1.00  0.00    -0.328 N 
ATOM     15  C   UNL A   1      28.543  30.920  23.539  1.00  0.00     0.266 C 
ATOM     16  C   UNL A   1      27.968  30.275  21.314  1.00  0.00     0.266 C 
ATOM     17  H   UNL A   1      26.986  29.729  22.984  1.00  0.00     0.348 HD
ATOM     18  C   UNL A   1      28.223  32.182  22.743  1.00  0.00     0.049 C 
ATOM     19  C   UNL A   1      28.488  31.716  21.312  1.00  0.00     0.049 C 
ATOM     20  C   UNL A   1      29.074  33.368  23.172  1.00  0.00     0.014 C 
ATOM     21  C   UNL A   1      27.838  32.575  20.239  1.00  0.00     0.014 C 
ENDBRANCH  13  14
ENDBRANCH  11  13
ENDBRANCH   4   7
ENDBRANCH   2   3
ENDBRANCH   1   2
BRANCH   1  22
ATOM     22  C   UNL A   1      31.742  31.835  26.639  1.00  0.00     0.023 C 
BRANCH  22  23
ATOM     23  C   UNL A   1      32.849  32.662  27.286  1.00  0.00     0.116 C 
BRANCH  23  24
ATOM     24  N   UNL A   1      32.447  34.018  27.637  1.00  0.00    -0.352 N 
ATOM     25  C   UNL A   1      32.983  34.902  28.544  1.00  0.00     0.251 C 
ATOM     26  H   UNL A   1      31.664  34.356  27.144  1.00  0.00     0.163 HD
ATOM     27  O   UNL A   1      32.437  35.984  28.740  1.00  0.00    -0.269 OA
BRANCH  25  28
ATOM     28  C   UNL A   1      34.186  34.535  29.322  1.00  0.00     0.039 A 
ATOM     29  C   UNL A   1      34.024  34.061  30.626  1.00  0.00     0.014 A 
ATOM     30  C   UNL A   1      35.461  34.626  28.763  1.00  0.00     0.014 A 
ATOM     31  C   UNL A   1      35.130  33.572  31.328  1.00  0.00     0.010 A 
ATOM     32  C   UNL A   1      36.545  34.056  29.425  1.00  0.00     0.010 A 
ATOM     33  C   UNL A   1      36.389  33.512  30.709  1.00  0.00    -0.014 A 
BRANCH  33  34
ATOM     34  C   UNL A   1      37.550  32.863  31.375  1.00  0.00     0.031 A 
ATOM     35  C   UNL A   1      38.210  31.664  30.751  1.00  0.00     0.074 A 
ATOM     36  C   UNL A   1      37.957  33.299  32.583  1.00  0.00     0.049 A 
ATOM     37  N   UNL A   1      39.176  30.915  31.221  1.00  0.00    -0.248 NA
ATOM     38  C   UNL A   1      37.697  31.232  29.440  1.00  0.00     0.031 C 
ATOM     39  C   UNL A   1      37.373  34.419  33.325  1.00  0.00     0.029 A 
ATOM     40  N   UNL A   1      38.957  32.844  33.407  1.00  0.00    -0.354 N 
ATOM     41  C   UNL A   1      39.367  29.913  30.278  1.00  0.00     0.074 A 
ATOM     42  C   UNL A   1      38.385  30.119  29.235  1.00  0.00     0.031 C 
ATOM     43  C   UNL A   1      38.043  34.581  34.478  1.00  0.00     0.029 A 
ATOM     44  C   UNL A   1      39.074  33.554  34.577  1.00  0.00     0.049 A 
ATOM     45  H   UNL A   1      39.535  32.080  33.181  1.00  0.00     0.167 HD
ATOM     46  C   UNL A   1      40.289  28.922  30.268  1.00  0.00     0.031 A 
ATOM     47  C   UNL A   1      39.914  33.396  35.619  1.00  0.00     0.031 A 
ATOM     48  C   UNL A   1      41.280  28.724  31.292  1.00  0.00     0.049 A 
ATOM     49  C   UNL A   1      40.928  32.287  35.584  1.00  0.00     0.074 A 
ATOM     50  C   UNL A   1      42.299  27.789  31.337  1.00  0.00     0.029 A 
ATOM     51  N   UNL A   1      41.374  29.477  32.452  1.00  0.00    -0.354 N 
ATOM     52  N   UNL A   1      41.142  31.392  34.650  1.00  0.00    -0.248 NA
ATOM     53  C   UNL A   1      41.823  32.173  36.745  1.00  0.00     0.031 C 
ATOM     54  C   UNL A   1      42.983  27.946  32.547  1.00  0.00     0.029 A 
ATOM     55  C   UNL A   1      42.421  29.013  33.230  1.00  0.00     0.049 A 
ATOM     56  H   UNL A   1      40.785  30.229  32.687  1.00  0.00     0.167 HD
ATOM     57  C   UNL A   1      42.210  30.626  35.099  1.00  0.00     0.074 A 
ATOM     58  C   UNL A   1      42.611  31.172  36.379  1.00  0.00     0.031 C 
ATOM     59  C   UNL A   1      42.806  29.566  34.503  1.00  0.00     0.031 A 
BRANCH  46  60
ATOM     60  C   UNL A   1      40.265  27.969  29.105  1.00  0.00    -0.014 A 
ATOM     61  C   UNL A   1      39.554  26.760  29.171  1.00  0.00     0.009 A 
ATOM     62  C   UNL A   1      40.940  28.296  27.919  1.00  0.00     0.009 A 
ATOM     63  C   UNL A   1      39.555  25.879  28.087  1.00  0.00     0.001 A 
ATOM     64  C   UNL A   1      40.914  27.428  26.827  1.00  0.00     0.001 A 
ATOM     65  C   UNL A   1      40.230  26.216  26.916  1.00  0.00     0.000 A 
ENDBRANCH  46  60
BRANCH  47  66
ATOM     66  C   UNL A   1      39.847  34.321  36.780  1.00  0.00    -0.014 A 
ATOM     67  C   UNL A   1      39.115  33.969  37.926  1.00  0.00     0.009 A 
ATOM     68  C   UNL A   1      40.504  35.560  36.748  1.00  0.00     0.009 A 
ATOM     69  C   UNL A   1      39.021  34.852  39.003  1.00  0.00     0.001 A 
ATOM     70  C   UNL A   1      40.429  36.429  37.839  1.00  0.00     0.001 A 
ATOM     71  C   UNL A   1      39.680  36.079  38.961  1.00  0.00     0.000 A 
ENDBRANCH  47  66
BRANCH  59  72
ATOM     72  C   UNL A   1      43.974  28.944  35.215  1.00  0.00    -0.014 A 
ATOM     73  C   UNL A   1      43.797  27.884  36.116  1.00  0.00     0.009 A 
ATOM     74  C   UNL A   1      45.274  29.402  34.947  1.00  0.00     0.009 A 
ATOM     75  C   UNL A   1      44.898  27.315  36.760  1.00  0.00     0.001 A 
ATOM     76  C   UNL A   1      46.374  28.813  35.571  1.00  0.00     0.001 A 
ATOM     77  C   UNL A   1      46.185  27.776  36.483  1.00  0.00     0.000 A 
ENDBRANCH  59  72
ENDBRANCH  33  34
ENDBRANCH  25  28
ENDBRANCH  23  24
ENDBRANCH  22  23
ENDBRANCH   1  22
TORSDOF 13
ENDMDL
MODEL 3
REMARK VINA RESULT:     -11.2      0.907      6.098
REMARK SMILES Cc1cc(C[NH+]2C[C@@H](C)[C@H](C)C2)oc1C(=O)NCCCCNC(=O)c1ccc(-c2c3nc(c(-c4ccccc4)c4ccc([nH]4)c(-c4ccccc4)c4nc(c(-c5ccccc5)c5ccc2[nH]5)C=C4)C=C3)cc1
REMARK SMILES IDX 19 1 18 2 17 3 15 4 16 5 14 7 1 8 2 9 3 10 4 11 13 12 5 13
REMARK SMILES IDX 6 14 7 15 12 16 8 18 10 19 9 20 11 21 20 22 21 23 22 24
REMARK SMILES IDX 23 25 24 27 25 28 26 29 72 30 27 31 71 32 28 33 29 34 30 35
REMARK SMILES IDX 65 36 31 37 70 38 64 39 66 40 32 41 69 42 63 43 62 44 33 46
REMARK SMILES IDX 55 47 40 48 54 49 41 50 44 51 53 52 67 53 42 54 43 55 52 57
REMARK SMILES IDX 68 58 45 59 34 60 35 61 39 62 36 63 38 64 37 65 56 66 57 67
REMARK SMILES IDX 61 68 58 69 60 70 59 71 46 72 47 73 51 74 48 75 50 76 49 77
REMARK H PARENT 17 6 6 17 22 26 66 45 44 56
REMARK Flexibility Score: inf
ROOT
ATOM      1  C   UNL A   1      36.899  22.142  24.166  1.00  0.00     0.023 C 
ENDROOT
BRANCH   1   2
ATOM      2  C   UNL A   1      36.277  23.117  25.159  1.00  0.00     0.116 C 
BRANCH   2   3
ATOM      3  N   UNL A   1      35.461  24.143  24.558  1.00  0.00    -0.349 N 
ATOM      4  C   UNL A   1      34.107  24.138  24.301  1.00  0.00     0.287 C 
ATOM      5  O   UNL A   1      33.680  25.118  23.688  1.00  0.00    -0.266 OA
ATOM      6  H   UNL A   1      35.940  24.962  24.293  1.00  0.00     0.163 HD
BRANCH   4   7
ATOM      7  C   UNL A   1      33.256  23.024  24.698  1.00  0.00     0.194 A 
ATOM      8  C   UNL A   1      31.574  23.740  26.573  1.00  0.00     0.049 C 
ATOM      9  C   UNL A   1      32.213  22.819  25.603  1.00  0.00     0.001 A 
ATOM     10  C   UNL A   1      31.790  21.470  25.424  1.00  0.00     0.056 A 
ATOM     11  C   UNL A   1      32.605  20.911  24.471  1.00  0.00     0.159 A 
ATOM     12  O   UNL A   1      33.466  21.852  24.003  1.00  0.00    -0.450 OA
BRANCH  11  13
ATOM     13  C   UNL A   1      32.715  19.537  23.895  1.00  0.00     0.338 C 
BRANCH  13  14
ATOM     14  N   UNL A   1      33.200  18.517  24.830  1.00  0.00    -0.328 N 
ATOM     15  C   UNL A   1      32.266  17.414  25.061  1.00  0.00     0.266 C 
ATOM     16  C   UNL A   1      34.531  17.971  24.557  1.00  0.00     0.266 C 
ATOM     17  H   UNL A   1      33.277  19.069  25.685  1.00  0.00     0.348 HD
ATOM     18  C   UNL A   1      33.164  16.314  25.620  1.00  0.00     0.049 C 
ATOM     19  C   UNL A   1      34.404  16.455  24.738  1.00  0.00     0.049 C 
ATOM     20  C   UNL A   1      32.510  14.942  25.550  1.00  0.00     0.014 C 
ATOM     21  C   UNL A   1      35.661  15.823  25.313  1.00  0.00     0.014 C 
ENDBRANCH  13  14
ENDBRANCH  11  13
ENDBRANCH   4   7
ENDBRANCH   2   3
ENDBRANCH   1   2
BRANCH   1  22
ATOM     22  C   UNL A   1      37.441  20.838  24.746  1.00  0.00     0.023 C 
BRANCH  22  23
ATOM     23  C   UNL A   1      38.586  20.962  25.747  1.00  0.00     0.116 C 
BRANCH  23  24
ATOM     24  N   UNL A   1      39.545  19.867  25.689  1.00  0.00    -0.352 N 
ATOM     25  C   UNL A   1      40.875  19.826  26.038  1.00  0.00     0.251 C 
ATOM     26  H   UNL A   1      39.183  19.019  25.343  1.00  0.00     0.163 HD
ATOM     27  O   UNL A   1      41.529  18.807  25.837  1.00  0.00    -0.269 OA
BRANCH  25  28
ATOM     28  C   UNL A   1      41.534  21.020  26.608  1.00  0.00     0.039 A 
ATOM     29  C   UNL A   1      42.113  21.949  25.739  1.00  0.00     0.014 A 
ATOM     30  C   UNL A   1      41.556  21.243  27.985  1.00  0.00     0.014 A 
ATOM     31  C   UNL A   1      42.611  23.153  26.243  1.00  0.00     0.010 A 
ATOM     32  C   UNL A   1      41.968  22.479  28.477  1.00  0.00     0.010 A 
ATOM     33  C   UNL A   1      42.489  23.452  27.610  1.00  0.00    -0.014 A 
BRANCH  33  34
ATOM     34  C   UNL A   1      42.875  24.782  28.151  1.00  0.00     0.031 A 
ATOM     35  C   UNL A   1      41.831  25.840  28.381  1.00  0.00     0.074 A 
ATOM     36  C   UNL A   1      44.176  25.068  28.355  1.00  0.00     0.049 A 
ATOM     37  N   UNL A   1      41.985  27.082  28.765  1.00  0.00    -0.248 NA
ATOM     38  C   UNL A   1      40.433  25.461  28.115  1.00  0.00     0.031 C 
ATOM     39  C   UNL A   1      45.296  24.153  28.125  1.00  0.00     0.029 A 
ATOM     40  N   UNL A   1      44.779  26.221  28.796  1.00  0.00    -0.354 N 
ATOM     41  C   UNL A   1      40.712  27.637  28.762  1.00  0.00     0.074 A 
ATOM     42  C   UNL A   1      39.804  26.613  28.291  1.00  0.00     0.031 C 
ATOM     43  C   UNL A   1      46.443  24.768  28.454  1.00  0.00     0.029 A 
ATOM     44  C   UNL A   1      46.147  26.132  28.878  1.00  0.00     0.049 A 
ATOM     45  H   UNL A   1      44.277  27.035  29.032  1.00  0.00     0.167 HD
ATOM     46  C   UNL A   1      40.326  28.880  29.137  1.00  0.00     0.031 A 
ATOM     47  C   UNL A   1      47.065  27.046  29.248  1.00  0.00     0.031 A 
ATOM     48  C   UNL A   1      41.221  29.894  29.625  1.00  0.00     0.049 A 
ATOM     49  C   UNL A   1      46.611  28.419  29.660  1.00  0.00     0.074 A 
ATOM     50  C   UNL A   1      40.916  31.161  30.093  1.00  0.00     0.029 A 
ATOM     51  N   UNL A   1      42.597  29.757  29.708  1.00  0.00    -0.354 N 
ATOM     52  N   UNL A   1      45.394  28.904  29.719  1.00  0.00    -0.248 NA
ATOM     53  C   UNL A   1      47.659  29.368  30.063  1.00  0.00     0.031 C 
ATOM     54  C   UNL A   1      42.113  31.807  30.416  1.00  0.00     0.029 A 
ATOM     55  C   UNL A   1      43.158  30.923  30.199  1.00  0.00     0.049 A 
ATOM     56  H   UNL A   1      43.101  28.950  29.456  1.00  0.00     0.167 HD
ATOM     57  C   UNL A   1      45.529  30.204  30.190  1.00  0.00     0.074 A 
ATOM     58  C   UNL A   1      46.942  30.426  30.416  1.00  0.00     0.031 C 
ATOM     59  C   UNL A   1      44.566  31.130  30.416  1.00  0.00     0.031 A 
BRANCH  46  60
ATOM     60  C   UNL A   1      38.863  29.209  29.031  1.00  0.00    -0.014 A 
ATOM     61  C   UNL A   1      38.311  29.685  27.830  1.00  0.00     0.009 A 
ATOM     62  C   UNL A   1      38.020  29.017  30.136  1.00  0.00     0.009 A 
ATOM     63  C   UNL A   1      36.952  30.001  27.752  1.00  0.00     0.001 A 
ATOM     64  C   UNL A   1      36.657  29.305  30.047  1.00  0.00     0.001 A 
ATOM     65  C   UNL A   1      36.127  29.807  28.858  1.00  0.00     0.000 A 
ENDBRANCH  46  60
BRANCH  47  66
ATOM     66  C   UNL A   1      48.508  26.692  29.265  1.00  0.00    -0.014 A 
ATOM     67  C   UNL A   1      49.084  26.120  30.410  1.00  0.00     0.009 A 
ATOM     68  C   UNL A   1      49.318  26.931  28.145  1.00  0.00     0.009 A 
ATOM     69  C   UNL A   1      50.447  25.820  30.442  1.00  0.00     0.001 A 
ATOM     70  C   UNL A   1      50.676  26.605  28.171  1.00  0.00     0.001 A 
ATOM     71  C   UNL A   1      51.241  26.059  29.322  1.00  0.00     0.000 A 
ENDBRANCH  47  66
BRANCH  59  72
ATOM     72  C   UNL A   1      45.007  32.458  30.962  1.00  0.00    -0.014 A 
ATOM     73  C   UNL A   1      45.206  32.651  32.337  1.00  0.00     0.009 A 
ATOM     74  C   UNL A   1      45.264  33.520  30.080  1.00  0.00     0.009 A 
ATOM     75  C   UNL A   1      45.624  33.892  32.821  1.00  0.00     0.001 A 
ATOM     76  C   UNL A   1      45.709  34.750  30.564  1.00  0.00     0.001 A 
ATOM     77  C   UNL A   1      45.880  34.938  31.935  1.00  0.00     0.000 A 
ENDBRANCH  59  72
ENDBRANCH  33  34
ENDBRANCH  25  28
ENDBRANCH  23  24
ENDBRANCH  22  23
ENDBRANCH   1  22
TORSDOF 13
ENDMDL
