MODEL 1
REMARK VINA RESULT:     -10.3      0.000      0.000
REMARK SMILES O=C(CCCNC(=O)Cc1csc(-c2ccsc2)n1)NCCCCNC(=O)c1ccc(-c2c3nc(c(-c4ccccc4)c4ccc([nH]4)c(-c4ccccc4)c4nc(c(-c5ccccc5)c5ccc2[nH]5)C=C4)C=C3)cc1
REMARK SMILES IDX 1 1 2 2 20 3 3 5 4 6 5 7 6 8 7 9 8 11 9 12 10 13 11 14 19 15
REMARK SMILES IDX 12 16 13 17 14 18 15 19 18 20 16 21 17 22 21 23 22 24 23 25
REMARK SMILES IDX 24 26 25 27 26 28 27 30 28 31 29 32 75 33 30 34 74 35 31 36
REMARK SMILES IDX 32 37 33 38 68 39 34 40 73 41 67 42 69 43 35 44 72 45 66 46
REMARK SMILES IDX 65 47 36 49 58 50 43 51 57 52 44 53 47 54 56 55 70 56 45 57
REMARK SMILES IDX 46 58 55 60 71 61 48 62 37 63 38 64 42 65 39 66 41 67 40 68
REMARK SMILES IDX 59 69 60 70 64 71 61 72 63 73 62 74 49 75 50 76 54 77 51 78
REMARK SMILES IDX 53 79 52 80
REMARK H PARENT 20 4 6 10 25 29 69 48 47 59
REMARK Flexibility Score: inf
ROOT
ATOM      1  O   UNL A   1      33.197  27.871  22.378  1.00  0.00    -0.275 OA
ATOM      2  C   UNL A   1      32.228  27.303  22.873  1.00  0.00     0.220 C 
ATOM      3  N   UNL A   1      31.348  27.902  23.742  1.00  0.00    -0.356 N 
ATOM      4  H   UNL A   1      30.571  27.388  24.061  1.00  0.00     0.163 HD
ENDROOT
BRANCH   2   5
ATOM      5  C   UNL A   1      31.928  25.846  22.611  1.00  0.00     0.102 C 
BRANCH   5   6
ATOM      6  C   UNL A   1      30.741  25.358  23.444  1.00  0.00     0.031 C 
BRANCH   6   7
ATOM      7  C   UNL A   1      30.746  23.863  23.788  1.00  0.00     0.116 C 
BRANCH   7   8
ATOM      8  N   UNL A   1      30.507  23.620  25.203  1.00  0.00    -0.356 N 
ATOM      9  C   UNL A   1      31.372  23.665  26.260  1.00  0.00     0.226 C 
ATOM     10  H   UNL A   1      29.579  23.387  25.435  1.00  0.00     0.163 HD
ATOM     11  O   UNL A   1      30.913  23.408  27.375  1.00  0.00    -0.275 OA
BRANCH   9  12
ATOM     12  C   UNL A   1      32.825  24.054  26.070  1.00  0.00     0.157 C 
BRANCH  12  13
ATOM     13  C   UNL A   1      33.713  22.923  25.662  1.00  0.00     0.061 A 
ATOM     14  C   UNL A   1      35.077  22.794  25.850  1.00  0.00     0.091 A 
ATOM     15  N   UNL A   1      33.124  21.833  25.033  1.00  0.00    -0.241 NA
ATOM     16  S   UNL A   1      35.563  21.185  25.525  1.00  0.00    -0.122 S 
ATOM     17  C   UNL A   1      33.986  20.842  24.934  1.00  0.00     0.124 A 
BRANCH  17  18
ATOM     18  C   UNL A   1      33.608  19.529  24.320  1.00  0.00     0.021 A 
ATOM     19  C   UNL A   1      32.473  19.337  23.477  1.00  0.00     0.023 A 
ATOM     20  C   UNL A   1      34.321  18.362  24.499  1.00  0.00     0.076 A 
ATOM     21  C   UNL A   1      32.401  18.048  22.994  1.00  0.00     0.065 A 
ATOM     22  S   UNL A   1      33.635  17.051  23.634  1.00  0.00    -0.152 S 
ENDBRANCH  17  18
ENDBRANCH  12  13
ENDBRANCH   9  12
ENDBRANCH   7   8
ENDBRANCH   6   7
ENDBRANCH   5   6
ENDBRANCH   2   5
BRANCH   3  23
ATOM     23  C   UNL A   1      31.526  29.262  24.205  1.00  0.00     0.116 C 
BRANCH  23  24
ATOM     24  C   UNL A   1      31.765  29.328  25.711  1.00  0.00     0.023 C 
BRANCH  24  25
ATOM     25  C   UNL A   1      32.541  28.147  26.306  1.00  0.00     0.023 C 
BRANCH  25  26
ATOM     26  C   UNL A   1      33.548  28.505  27.395  1.00  0.00     0.116 C 
BRANCH  26  27
ATOM     27  N   UNL A   1      33.570  29.929  27.686  1.00  0.00    -0.352 N 
ATOM     28  C   UNL A   1      34.567  30.699  28.230  1.00  0.00     0.251 C 
ATOM     29  H   UNL A   1      32.744  30.414  27.459  1.00  0.00     0.163 HD
ATOM     30  O   UNL A   1      34.327  31.863  28.561  1.00  0.00    -0.269 OA
BRANCH  28  31
ATOM     31  C   UNL A   1      35.921  30.147  28.448  1.00  0.00     0.039 A 
ATOM     32  C   UNL A   1      36.834  30.163  27.390  1.00  0.00     0.014 A 
ATOM     33  C   UNL A   1      36.290  29.591  29.676  1.00  0.00     0.014 A 
ATOM     34  C   UNL A   1      38.134  29.686  27.581  1.00  0.00     0.010 A 
ATOM     35  C   UNL A   1      37.606  29.180  29.888  1.00  0.00     0.010 A 
ATOM     36  C   UNL A   1      38.542  29.224  28.844  1.00  0.00    -0.014 A 
BRANCH  36  37
ATOM     37  C   UNL A   1      39.944  28.798  29.090  1.00  0.00     0.031 A 
ATOM     38  C   UNL A   1      40.937  29.749  29.701  1.00  0.00     0.074 A 
ATOM     39  C   UNL A   1      40.346  27.569  28.706  1.00  0.00     0.049 A 
ATOM     40  N   UNL A   1      42.214  29.575  29.930  1.00  0.00    -0.248 NA
ATOM     41  C   UNL A   1      40.433  31.077  30.086  1.00  0.00     0.031 C 
ATOM     42  C   UNL A   1      39.496  26.561  28.070  1.00  0.00     0.029 A 
ATOM     43  N   UNL A   1      41.576  26.964  28.787  1.00  0.00    -0.354 N 
ATOM     44  C   UNL A   1      42.669  30.772  30.469  1.00  0.00     0.074 A 
ATOM     45  C   UNL A   1      41.542  31.680  30.489  1.00  0.00     0.031 C 
ATOM     46  C   UNL A   1      40.224  25.456  27.838  1.00  0.00     0.029 A 
ATOM     47  C   UNL A   1      41.598  25.692  28.269  1.00  0.00     0.049 A 
ATOM     48  H   UNL A   1      42.366  27.402  29.178  1.00  0.00     0.167 HD
ATOM     49  C   UNL A   1      43.906  31.085  30.924  1.00  0.00     0.031 A 
ATOM     50  C   UNL A   1      42.612  24.814  28.144  1.00  0.00     0.031 A 
ATOM     51  C   UNL A   1      45.030  30.184  30.910  1.00  0.00     0.049 A 
ATOM     52  C   UNL A   1      43.981  25.193  28.635  1.00  0.00     0.074 A 
ATOM     53  C   UNL A   1      46.309  30.395  31.393  1.00  0.00     0.029 A 
ATOM     54  N   UNL A   1      45.008  28.903  30.383  1.00  0.00    -0.354 N 
ATOM     55  N   UNL A   1      44.377  26.307  29.200  1.00  0.00    -0.248 NA
ATOM     56  C   UNL A   1      45.040  24.185  28.483  1.00  0.00     0.031 C 
ATOM     57  C   UNL A   1      47.077  29.260  31.113  1.00  0.00     0.029 A 
ATOM     58  C   UNL A   1      46.258  28.320  30.508  1.00  0.00     0.049 A 
ATOM     59  H   UNL A   1      44.220  28.471  29.979  1.00  0.00     0.167 HD
ATOM     60  C   UNL A   1      45.723  26.124  29.494  1.00  0.00     0.074 A 
ATOM     61  C   UNL A   1      46.070  24.787  29.061  1.00  0.00     0.031 C 
ATOM     62  C   UNL A   1      46.592  26.989  30.073  1.00  0.00     0.031 A 
BRANCH  49  63
ATOM     63  C   UNL A   1      44.111  32.470  31.472  1.00  0.00    -0.014 A 
ATOM     64  C   UNL A   1      44.470  33.538  30.634  1.00  0.00     0.009 A 
ATOM     65  C   UNL A   1      43.907  32.719  32.839  1.00  0.00     0.009 A 
ATOM     66  C   UNL A   1      44.657  34.818  31.160  1.00  0.00     0.001 A 
ATOM     67  C   UNL A   1      44.066  34.006  33.355  1.00  0.00     0.001 A 
ATOM     68  C   UNL A   1      44.450  35.052  32.518  1.00  0.00     0.000 A 
ENDBRANCH  49  63
BRANCH  50  69
ATOM     69  C   UNL A   1      42.371  23.483  27.529  1.00  0.00    -0.014 A 
ATOM     70  C   UNL A   1      42.695  23.250  26.184  1.00  0.00     0.009 A 
ATOM     71  C   UNL A   1      41.808  22.440  28.281  1.00  0.00     0.009 A 
ATOM     72  C   UNL A   1      42.436  22.010  25.597  1.00  0.00     0.001 A 
ATOM     73  C   UNL A   1      41.578  21.191  27.700  1.00  0.00     0.001 A 
ATOM     74  C   UNL A   1      41.881  20.980  26.357  1.00  0.00     0.000 A 
ENDBRANCH  50  69
BRANCH  62  75
ATOM     75  C   UNL A   1      47.995  26.502  30.304  1.00  0.00    -0.014 A 
ATOM     76  C   UNL A   1      48.342  25.797  31.468  1.00  0.00     0.009 A 
ATOM     77  C   UNL A   1      48.975  26.719  29.323  1.00  0.00     0.009 A 
ATOM     78  C   UNL A   1      49.651  25.350  31.658  1.00  0.00     0.001 A 
ATOM     79  C   UNL A   1      50.276  26.245  29.503  1.00  0.00     0.001 A 
ATOM     80  C   UNL A   1      50.615  25.570  30.674  1.00  0.00     0.000 A 
ENDBRANCH  62  75
ENDBRANCH  36  37
ENDBRANCH  28  31
ENDBRANCH  26  27
ENDBRANCH  25  26
ENDBRANCH  24  25
ENDBRANCH  23  24
ENDBRANCH   3  23
TORSDOF 17
ENDMDL
MODEL 2
REMARK VINA RESULT:     -10.0      3.529      8.313
REMARK SMILES O=C(CCCNC(=O)Cc1csc(-c2ccsc2)n1)NCCCCNC(=O)c1ccc(-c2c3nc(c(-c4ccccc4)c4ccc([nH]4)c(-c4ccccc4)c4nc(c(-c5ccccc5)c5ccc2[nH]5)C=C4)C=C3)cc1
REMARK SMILES IDX 1 1 2 2 20 3 3 5 4 6 5 7 6 8 7 9 8 11 9 12 10 13 11 14 19 15
REMARK SMILES IDX 12 16 13 17 14 18 15 19 18 20 16 21 17 22 21 23 22 24 23 25
REMARK SMILES IDX 24 26 25 27 26 28 27 30 28 31 29 32 75 33 30 34 74 35 31 36
REMARK SMILES IDX 32 37 33 38 68 39 34 40 73 41 67 42 69 43 35 44 72 45 66 46
REMARK SMILES IDX 65 47 36 49 58 50 43 51 57 52 44 53 47 54 56 55 70 56 45 57
REMARK SMILES IDX 46 58 55 60 71 61 48 62 37 63 38 64 42 65 39 66 41 67 40 68
REMARK SMILES IDX 59 69 60 70 64 71 61 72 63 73 62 74 49 75 50 76 54 77 51 78
REMARK SMILES IDX 53 79 52 80
REMARK H PARENT 20 4 6 10 25 29 69 48 47 59
REMARK Flexibility Score: inf
ROOT
ATOM      1  O   UNL A   1      38.119  20.721  25.357  1.00  0.00    -0.275 OA
ATOM      2  C   UNL A   1      38.287  21.929  25.491  1.00  0.00     0.220 C 
ATOM      3  N   UNL A   1      39.289  22.485  26.251  1.00  0.00    -0.356 N 
ATOM      4  H   UNL A   1      39.380  23.466  26.272  1.00  0.00     0.163 HD
ENDROOT
BRANCH   2   5
ATOM      5  C   UNL A   1      37.361  22.946  24.865  1.00  0.00     0.102 C 
BRANCH   5   6
ATOM      6  C   UNL A   1      36.484  23.628  25.916  1.00  0.00     0.031 C 
BRANCH   6   7
ATOM      7  C   UNL A   1      34.987  23.697  25.584  1.00  0.00     0.116 C 
BRANCH   7   8
ATOM      8  N   UNL A   1      34.151  23.350  26.722  1.00  0.00    -0.356 N 
ATOM      9  C   UNL A   1      32.792  23.241  26.811  1.00  0.00     0.226 C 
ATOM     10  H   UNL A   1      34.638  23.164  27.556  1.00  0.00     0.163 HD
ATOM     11  O   UNL A   1      32.321  22.934  27.910  1.00  0.00    -0.275 OA
BRANCH   9  12
ATOM     12  C   UNL A   1      31.905  23.451  25.599  1.00  0.00     0.157 C 
BRANCH  12  13
ATOM     13  C   UNL A   1      31.906  22.310  24.634  1.00  0.00     0.061 A 
ATOM     14  C   UNL A   1      31.663  22.340  23.273  1.00  0.00     0.091 A 
ATOM     15  N   UNL A   1      32.209  21.047  25.126  1.00  0.00    -0.241 NA
ATOM     16  S   UNL A   1      32.122  20.850  22.565  1.00  0.00    -0.122 S 
ATOM     17  C   UNL A   1      32.381  20.198  24.134  1.00  0.00     0.124 A 
BRANCH  17  18
ATOM     18  C   UNL A   1      32.744  18.766  24.377  1.00  0.00     0.021 A 
ATOM     19  C   UNL A   1      32.553  18.091  25.620  1.00  0.00     0.023 A 
ATOM     20  C   UNL A   1      33.302  17.941  23.424  1.00  0.00     0.076 A 
ATOM     21  C   UNL A   1      32.910  16.762  25.547  1.00  0.00     0.065 A 
ATOM     22  S   UNL A   1      33.568  16.357  24.020  1.00  0.00    -0.152 S 
ENDBRANCH  17  18
ENDBRANCH  12  13
ENDBRANCH   9  12
ENDBRANCH   7   8
ENDBRANCH   6   7
ENDBRANCH   5   6
ENDBRANCH   2   5
BRANCH   3  23
ATOM     23  C   UNL A   1      40.213  21.679  27.020  1.00  0.00     0.116 C 
BRANCH  23  24
ATOM     24  C   UNL A   1      41.437  21.275  26.203  1.00  0.00     0.023 C 
BRANCH  24  25
ATOM     25  C   UNL A   1      41.586  19.771  25.941  1.00  0.00     0.023 C 
BRANCH  25  26
ATOM     26  C   UNL A   1      42.988  19.205  26.149  1.00  0.00     0.116 C 
BRANCH  26  27
ATOM     27  N   UNL A   1      43.686  18.974  24.895  1.00  0.00    -0.352 N 
ATOM     28  C   UNL A   1      44.429  19.838  24.132  1.00  0.00     0.251 C 
ATOM     29  H   UNL A   1      43.614  18.058  24.540  1.00  0.00     0.163 HD
ATOM     30  O   UNL A   1      44.797  19.495  23.006  1.00  0.00    -0.269 OA
BRANCH  28  31
ATOM     31  C   UNL A   1      44.777  21.187  24.630  1.00  0.00     0.039 A 
ATOM     32  C   UNL A   1      44.423  22.300  23.863  1.00  0.00     0.014 A 
ATOM     33  C   UNL A   1      45.469  21.361  25.832  1.00  0.00     0.014 A 
ATOM     34  C   UNL A   1      44.700  23.587  24.331  1.00  0.00     0.010 A 
ATOM     35  C   UNL A   1      45.684  22.646  26.331  1.00  0.00     0.010 A 
ATOM     36  C   UNL A   1      45.301  23.772  25.588  1.00  0.00    -0.014 A 
BRANCH  36  37
ATOM     37  C   UNL A   1      45.523  25.133  26.142  1.00  0.00     0.031 A 
ATOM     38  C   UNL A   1      44.379  25.918  26.724  1.00  0.00     0.074 A 
ATOM     39  C   UNL A   1      46.747  25.694  26.065  1.00  0.00     0.049 A 
ATOM     40  N   UNL A   1      44.370  27.140  27.193  1.00  0.00    -0.248 NA
ATOM     41  C   UNL A   1      43.069  25.249  26.765  1.00  0.00     0.031 C 
ATOM     42  C   UNL A   1      47.936  25.058  25.494  1.00  0.00     0.029 A 
ATOM     43  N   UNL A   1      47.190  26.931  26.464  1.00  0.00    -0.354 N 
ATOM     44  C   UNL A   1      43.057  27.391  27.570  1.00  0.00     0.074 A 
ATOM     45  C   UNL A   1      42.289  26.213  27.231  1.00  0.00     0.031 C 
ATOM     46  C   UNL A   1      48.976  25.901  25.596  1.00  0.00     0.029 A 
ATOM     47  C   UNL A   1      48.521  27.149  26.201  1.00  0.00     0.049 A 
ATOM     48  H   UNL A   1      46.609  27.598  26.894  1.00  0.00     0.167 HD
ATOM     49  C   UNL A   1      42.538  28.495  28.160  1.00  0.00     0.031 A 
ATOM     50  C   UNL A   1      49.291  28.233  26.414  1.00  0.00     0.031 A 
ATOM     51  C   UNL A   1      43.298  29.668  28.503  1.00  0.00     0.049 A 
ATOM     52  C   UNL A   1      48.687  29.453  27.050  1.00  0.00     0.074 A 
ATOM     53  C   UNL A   1      42.869  30.815  29.148  1.00  0.00     0.029 A 
ATOM     54  N   UNL A   1      44.645  29.845  28.227  1.00  0.00    -0.354 N 
ATOM     55  N   UNL A   1      47.456  29.650  27.457  1.00  0.00    -0.248 NA
ATOM     56  C   UNL A   1      49.583  30.598  27.268  1.00  0.00     0.031 C 
ATOM     57  C   UNL A   1      43.944  31.708  29.216  1.00  0.00     0.029 A 
ATOM     58  C   UNL A   1      45.057  31.092  28.666  1.00  0.00     0.049 A 
ATOM     59  H   UNL A   1      45.222  29.182  27.784  1.00  0.00     0.167 HD
ATOM     60  C   UNL A   1      47.438  30.927  28.002  1.00  0.00     0.074 A 
ATOM     61  C   UNL A   1      48.782  31.453  27.890  1.00  0.00     0.031 C 
ATOM     62  C   UNL A   1      46.397  31.604  28.549  1.00  0.00     0.031 A 
BRANCH  49  63
ATOM     63  C   UNL A   1      41.066  28.486  28.469  1.00  0.00    -0.014 A 
ATOM     64  C   UNL A   1      40.576  27.928  29.662  1.00  0.00     0.009 A 
ATOM     65  C   UNL A   1      40.159  29.076  27.574  1.00  0.00     0.009 A 
ATOM     66  C   UNL A   1      39.207  27.927  29.932  1.00  0.00     0.001 A 
ATOM     67  C   UNL A   1      38.793  29.100  27.863  1.00  0.00     0.001 A 
ATOM     68  C   UNL A   1      38.317  28.517  29.036  1.00  0.00     0.000 A 
ENDBRANCH  49  63
BRANCH  50  69
ATOM     69  C   UNL A   1      50.725  28.215  26.025  1.00  0.00    -0.014 A 
ATOM     70  C   UNL A   1      51.118  28.597  24.733  1.00  0.00     0.009 A 
ATOM     71  C   UNL A   1      51.708  27.809  26.941  1.00  0.00     0.009 A 
ATOM     72  C   UNL A   1      52.462  28.546  24.358  1.00  0.00     0.001 A 
ATOM     73  C   UNL A   1      53.055  27.788  26.571  1.00  0.00     0.001 A 
ATOM     74  C   UNL A   1      53.429  28.146  25.278  1.00  0.00     0.000 A 
ENDBRANCH  50  69
BRANCH  62  75
ATOM     75  C   UNL A   1      46.681  32.973  29.100  1.00  0.00    -0.014 A 
ATOM     76  C   UNL A   1      47.006  33.165  30.452  1.00  0.00     0.009 A 
ATOM     77  C   UNL A   1      46.660  34.084  28.241  1.00  0.00     0.009 A 
ATOM     78  C   UNL A   1      47.271  34.446  30.940  1.00  0.00     0.001 A 
ATOM     79  C   UNL A   1      46.954  35.360  28.726  1.00  0.00     0.001 A 
ATOM     80  C   UNL A   1      47.249  35.541  30.075  1.00  0.00     0.000 A 
ENDBRANCH  62  75
ENDBRANCH  36  37
ENDBRANCH  28  31
ENDBRANCH  26  27
ENDBRANCH  25  26
ENDBRANCH  24  25
ENDBRANCH  23  24
ENDBRANCH   3  23
TORSDOF 17
ENDMDL
MODEL 3
REMARK VINA RESULT:      -9.8      3.761      8.792
REMARK SMILES O=C(CCCNC(=O)Cc1csc(-c2ccsc2)n1)NCCCCNC(=O)c1ccc(-c2c3nc(c(-c4ccccc4)c4ccc([nH]4)c(-c4ccccc4)c4nc(c(-c5ccccc5)c5ccc2[nH]5)C=C4)C=C3)cc1
REMARK SMILES IDX 1 1 2 2 20 3 3 5 4 6 5 7 6 8 7 9 8 11 9 12 10 13 11 14 19 15
REMARK SMILES IDX 12 16 13 17 14 18 15 19 18 20 16 21 17 22 21 23 22 24 23 25
REMARK SMILES IDX 24 26 25 27 26 28 27 30 28 31 29 32 75 33 30 34 74 35 31 36
REMARK SMILES IDX 32 37 33 38 68 39 34 40 73 41 67 42 69 43 35 44 72 45 66 46
REMARK SMILES IDX 65 47 36 49 58 50 43 51 57 52 44 53 47 54 56 55 70 56 45 57
REMARK SMILES IDX 46 58 55 60 71 61 48 62 37 63 38 64 42 65 39 66 41 67 40 68
REMARK SMILES IDX 59 69 60 70 64 71 61 72 63 73 62 74 49 75 50 76 54 77 51 78
REMARK SMILES IDX 53 79 52 80
REMARK H PARENT 20 4 6 10 25 29 69 48 47 59
REMARK Flexibility Score: inf
ROOT
ATOM      1  O   UNL A   1      37.898  20.600  25.356  1.00  0.00    -0.275 OA
ATOM      2  C   UNL A   1      38.128  21.806  25.335  1.00  0.00     0.220 C 
ATOM      3  N   UNL A   1      39.189  22.397  25.979  1.00  0.00    -0.356 N 
ATOM      4  H   UNL A   1      39.326  23.366  25.877  1.00  0.00     0.163 HD
ENDROOT
BRANCH   2   5
ATOM      5  C   UNL A   1      37.222  22.787  24.627  1.00  0.00     0.102 C 
BRANCH   5   6
ATOM      6  C   UNL A   1      36.562  23.753  25.613  1.00  0.00     0.031 C 
BRANCH   6   7
ATOM      7  C   UNL A   1      35.466  23.146  26.498  1.00  0.00     0.116 C 
BRANCH   7   8
ATOM      8  N   UNL A   1      34.660  22.165  25.789  1.00  0.00    -0.356 N 
ATOM      9  C   UNL A   1      33.340  21.844  25.932  1.00  0.00     0.226 C 
ATOM     10  H   UNL A   1      35.139  21.652  25.099  1.00  0.00     0.163 HD
ATOM     11  O   UNL A   1      32.892  20.957  25.202  1.00  0.00    -0.275 OA
BRANCH   9  12
ATOM     12  C   UNL A   1      32.456  22.577  26.923  1.00  0.00     0.157 C 
BRANCH  12  13
ATOM     13  C   UNL A   1      31.757  23.770  26.355  1.00  0.00     0.061 A 
ATOM     14  C   UNL A   1      30.549  23.815  25.683  1.00  0.00     0.091 A 
ATOM     15  N   UNL A   1      32.355  25.011  26.526  1.00  0.00    -0.241 NA
ATOM     16  S   UNL A   1      30.017  25.437  25.547  1.00  0.00    -0.122 S 
ATOM     17  C   UNL A   1      31.527  25.971  26.169  1.00  0.00     0.124 A 
BRANCH  17  18
ATOM     18  C   UNL A   1      31.904  27.417  26.275  1.00  0.00     0.021 A 
ATOM     19  C   UNL A   1      31.567  28.253  27.381  1.00  0.00     0.023 A 
ATOM     20  C   UNL A   1      32.624  28.097  25.316  1.00  0.00     0.076 A 
ATOM     21  C   UNL A   1      32.097  29.518  27.253  1.00  0.00     0.065 A 
ATOM     22  S   UNL A   1      32.909  29.727  25.762  1.00  0.00    -0.152 S 
ENDBRANCH  17  18
ENDBRANCH  12  13
ENDBRANCH   9  12
ENDBRANCH   7   8
ENDBRANCH   6   7
ENDBRANCH   5   6
ENDBRANCH   2   5
BRANCH   3  23
ATOM     23  C   UNL A   1      40.109  21.642  26.803  1.00  0.00     0.116 C 
BRANCH  23  24
ATOM     24  C   UNL A   1      41.347  21.203  26.024  1.00  0.00     0.023 C 
BRANCH  24  25
ATOM     25  C   UNL A   1      41.496  19.690  25.825  1.00  0.00     0.023 C 
BRANCH  25  26
ATOM     26  C   UNL A   1      42.828  19.098  26.273  1.00  0.00     0.116 C 
BRANCH  26  27
ATOM     27  N   UNL A   1      43.692  18.759  25.154  1.00  0.00    -0.352 N 
ATOM     28  C   UNL A   1      44.523  19.560  24.412  1.00  0.00     0.251 C 
ATOM     29  H   UNL A   1      43.678  17.812  24.887  1.00  0.00     0.163 HD
ATOM     30  O   UNL A   1      45.043  19.117  23.386  1.00  0.00    -0.269 OA
BRANCH  28  31
ATOM     31  C   UNL A   1      44.787  20.960  24.813  1.00  0.00     0.039 A 
ATOM     32  C   UNL A   1      44.479  21.987  23.917  1.00  0.00     0.014 A 
ATOM     33  C   UNL A   1      45.357  21.265  26.052  1.00  0.00     0.014 A 
ATOM     34  C   UNL A   1      44.678  23.320  24.287  1.00  0.00     0.010 A 
ATOM     35  C   UNL A   1      45.490  22.597  26.448  1.00  0.00     0.010 A 
ATOM     36  C   UNL A   1      45.151  23.638  25.571  1.00  0.00    -0.014 A 
BRANCH  36  37
ATOM     37  C   UNL A   1      45.284  25.050  26.014  1.00  0.00     0.031 A 
ATOM     38  C   UNL A   1      46.615  25.748  25.959  1.00  0.00     0.074 A 
ATOM     39  C   UNL A   1      44.214  25.691  26.529  1.00  0.00     0.049 A 
ATOM     40  N   UNL A   1      46.934  26.952  26.362  1.00  0.00    -0.248 NA
ATOM     41  C   UNL A   1      47.740  24.985  25.396  1.00  0.00     0.031 C 
ATOM     42  C   UNL A   1      42.874  25.120  26.674  1.00  0.00     0.029 A 
ATOM     43  N   UNL A   1      44.092  26.962  27.035  1.00  0.00    -0.354 N 
ATOM     44  C   UNL A   1      48.295  27.085  26.116  1.00  0.00     0.074 A 
ATOM     45  C   UNL A   1      48.750  25.824  25.574  1.00  0.00     0.031 C 
ATOM     46  C   UNL A   1      42.060  26.044  27.212  1.00  0.00     0.029 A 
ATOM     47  C   UNL A   1      42.828  27.254  27.488  1.00  0.00     0.049 A 
ATOM     48  H   UNL A   1      44.839  27.601  27.071  1.00  0.00     0.167 HD
ATOM     49  C   UNL A   1      49.091  28.164  26.307  1.00  0.00     0.031 A 
ATOM     50  C   UNL A   1      42.341  28.367  28.069  1.00  0.00     0.031 A 
ATOM     51  C   UNL A   1      48.642  29.423  26.842  1.00  0.00     0.049 A 
ATOM     52  C   UNL A   1      43.250  29.542  28.290  1.00  0.00     0.074 A 
ATOM     53  C   UNL A   1      49.366  30.588  27.026  1.00  0.00     0.029 A 
ATOM     54  N   UNL A   1      47.353  29.680  27.281  1.00  0.00    -0.354 N 
ATOM     55  N   UNL A   1      44.520  29.672  27.994  1.00  0.00    -0.248 NA
ATOM     56  C   UNL A   1      42.653  30.731  28.916  1.00  0.00     0.031 C 
ATOM     57  C   UNL A   1      48.527  31.535  27.624  1.00  0.00     0.029 A 
ATOM     58  C   UNL A   1      47.266  30.976  27.758  1.00  0.00     0.049 A 
ATOM     59  H   UNL A   1      46.610  29.035  27.258  1.00  0.00     0.167 HD
ATOM     60  C   UNL A   1      44.866  30.963  28.372  1.00  0.00     0.074 A 
ATOM     61  C   UNL A   1      43.670  31.582  28.903  1.00  0.00     0.031 C 
ATOM     62  C   UNL A   1      46.070  31.581  28.284  1.00  0.00     0.031 A 
BRANCH  49  63
ATOM     63  C   UNL A   1      50.542  28.026  25.937  1.00  0.00    -0.014 A 
ATOM     64  C   UNL A   1      51.495  27.595  26.875  1.00  0.00     0.009 A 
ATOM     65  C   UNL A   1      50.959  28.293  24.623  1.00  0.00     0.009 A 
ATOM     66  C   UNL A   1      52.838  27.471  26.515  1.00  0.00     0.001 A 
ATOM     67  C   UNL A   1      52.298  28.140  24.259  1.00  0.00     0.001 A 
ATOM     68  C   UNL A   1      53.238  27.740  25.207  1.00  0.00     0.000 A 
ENDBRANCH  49  63
BRANCH  50  69
ATOM     69  C   UNL A   1      40.914  28.426  28.481  1.00  0.00    -0.014 A 
ATOM     70  C   UNL A   1      39.943  28.948  27.612  1.00  0.00     0.009 A 
ATOM     71  C   UNL A   1      40.516  27.969  29.747  1.00  0.00     0.009 A 
ATOM     72  C   UNL A   1      38.608  29.035  28.013  1.00  0.00     0.001 A 
ATOM     73  C   UNL A   1      39.175  28.031  30.134  1.00  0.00     0.001 A 
ATOM     74  C   UNL A   1      38.225  28.573  29.271  1.00  0.00     0.000 A 
ENDBRANCH  50  69
BRANCH  62  75
ATOM     75  C   UNL A   1      46.144  33.011  28.741  1.00  0.00    -0.014 A 
ATOM     76  C   UNL A   1      46.516  33.341  30.055  1.00  0.00     0.009 A 
ATOM     77  C   UNL A   1      45.874  34.045  27.831  1.00  0.00     0.009 A 
ATOM     78  C   UNL A   1      46.583  34.677  30.454  1.00  0.00     0.001 A 
ATOM     79  C   UNL A   1      45.971  35.380  28.226  1.00  0.00     0.001 A 
ATOM     80  C   UNL A   1      46.315  35.695  29.539  1.00  0.00     0.000 A 
ENDBRANCH  62  75
ENDBRANCH  36  37
ENDBRANCH  28  31
ENDBRANCH  26  27
ENDBRANCH  25  26
ENDBRANCH  24  25
ENDBRANCH  23  24
ENDBRANCH   3  23
TORSDOF 17
ENDMDL
