MODEL 1
REMARK VINA RESULT:     -10.3      0.000      0.000
REMARK SMILES CCCc1nc2cc(C(=O)NCCCCNC(=O)c3ccc(-c4c5nc(c(-c6ccccc6)c6ccc([nH]6)c(-c6ccccc6)c6nc(c(-c7ccccc7)c7ccc4[nH]7)C=C6)C=C5)cc3)ccc2n1[C@H](CO)C(C)C
REMARK SMILES IDX 13 1 12 2 11 3 9 4 10 5 8 7 4 8 5 9 70 10 6 11 69 12 7 13
REMARK SMILES IDX 68 14 67 15 3 16 2 17 1 18 71 19 74 20 75 21 76 22 72 23
REMARK SMILES IDX 73 24 14 26 15 27 16 28 17 29 18 31 19 32 20 33 66 34 21 35
REMARK SMILES IDX 65 36 22 37 23 38 24 39 59 40 25 41 64 42 58 43 60 44 26 45
REMARK SMILES IDX 63 46 57 47 56 48 27 50 49 51 34 52 48 53 35 54 38 55 47 56
REMARK SMILES IDX 61 57 36 58 37 59 46 61 62 62 39 63 28 64 29 65 33 66 30 67
REMARK SMILES IDX 32 68 31 69 50 70 51 71 55 72 52 73 54 74 53 75 40 76 41 77
REMARK SMILES IDX 45 78 42 79 44 80 43 81
REMARK H PARENT 11 6 73 25 16 30 60 49 38 60
REMARK Flexibility Score: inf
ROOT
ATOM      1  C   UNL A   1      35.592  30.527  27.848  1.00  0.00     0.023 C 
ENDROOT
BRANCH   1   2
ATOM      2  C   UNL A   1      34.835  29.230  27.544  1.00  0.00     0.116 C 
BRANCH   2   3
ATOM      3  N   UNL A   1      33.572  29.512  26.898  1.00  0.00    -0.352 N 
ATOM      4  C   UNL A   1      32.639  28.738  26.253  1.00  0.00     0.251 C 
ATOM      5  O   UNL A   1      31.649  29.320  25.832  1.00  0.00    -0.269 OA
ATOM      6  H   UNL A   1      33.330  30.467  26.926  1.00  0.00     0.163 HD
BRANCH   4   7
ATOM      7  C   UNL A   1      32.748  27.255  26.076  1.00  0.00     0.042 A 
ATOM      8  C   UNL A   1      34.782  23.490  24.571  1.00  0.00     0.110 A 
ATOM      9  N   UNL A   1      35.078  24.775  24.570  1.00  0.00    -0.233 NA
ATOM     10  N   UNL A   1      33.672  23.219  25.364  1.00  0.00    -0.322 N 
ATOM     11  C   UNL A   1      34.064  25.412  25.192  1.00  0.00     0.090 A 
ATOM     12  C   UNL A   1      33.121  24.495  25.636  1.00  0.00     0.069 A 
ATOM     13  C   UNL A   1      33.877  26.791  25.384  1.00  0.00     0.044 A 
ATOM     14  C   UNL A   1      31.953  24.948  26.262  1.00  0.00     0.029 A 
ATOM     15  C   UNL A   1      31.837  26.316  26.551  1.00  0.00     0.016 A 
BRANCH   8  16
ATOM     16  C   UNL A   1      35.582  22.586  23.705  1.00  0.00     0.075 C 
BRANCH  16  17
ATOM     17  C   UNL A   1      36.981  22.324  24.273  1.00  0.00     0.005 C 
ATOM     18  C   UNL A   1      37.108  21.020  25.048  1.00  0.00     0.004 C 
ENDBRANCH  16  17
ENDBRANCH   8  16
BRANCH  10  19
ATOM     19  C   UNL A   1      33.024  21.966  25.837  1.00  0.00     0.117 C 
BRANCH  19  20
ATOM     20  C   UNL A   1      32.604  20.721  24.919  1.00  0.00     0.008 C 
ATOM     21  C   UNL A   1      32.232  21.209  23.483  1.00  0.00     0.009 C 
ATOM     22  C   UNL A   1      33.614  19.610  24.631  1.00  0.00     0.009 C 
ENDBRANCH  19  20
BRANCH  19  23
ATOM     23  C   UNL A   1      33.918  21.327  26.971  1.00  0.00     0.181 C 
BRANCH  23  24
ATOM     24  O   UNL A   1      34.521  22.332  27.793  1.00  0.00    -0.394 OA
ATOM     25  H   UNL A   1      34.062  23.177  27.659  1.00  0.00     0.210 HD
ENDBRANCH  23  24
ENDBRANCH  19  23
ENDBRANCH  10  19
ENDBRANCH   4   7
ENDBRANCH   2   3
ENDBRANCH   1   2
BRANCH   1  26
ATOM     26  C   UNL A   1      34.700  31.782  27.812  1.00  0.00     0.023 C 
BRANCH  26  27
ATOM     27  C   UNL A   1      35.483  33.098  27.876  1.00  0.00     0.116 C 
BRANCH  27  28
ATOM     28  N   UNL A   1      35.576  33.610  29.230  1.00  0.00    -0.352 N 
ATOM     29  C   UNL A   1      36.366  33.357  30.315  1.00  0.00     0.251 C 
ATOM     30  H   UNL A   1      34.908  34.310  29.411  1.00  0.00     0.163 HD
ATOM     31  O   UNL A   1      36.151  34.055  31.309  1.00  0.00    -0.269 OA
BRANCH  29  32
ATOM     32  C   UNL A   1      37.423  32.314  30.391  1.00  0.00     0.039 A 
ATOM     33  C   UNL A   1      38.746  32.468  29.981  1.00  0.00     0.014 A 
ATOM     34  C   UNL A   1      37.014  31.053  30.870  1.00  0.00     0.014 A 
ATOM     35  C   UNL A   1      39.621  31.387  30.007  1.00  0.00     0.010 A 
ATOM     36  C   UNL A   1      37.885  29.968  30.895  1.00  0.00     0.010 A 
ATOM     37  C   UNL A   1      39.183  30.127  30.425  1.00  0.00    -0.014 A 
BRANCH  37  38
ATOM     38  C   UNL A   1      40.146  29.032  30.344  1.00  0.00     0.031 A 
ATOM     39  C   UNL A   1      40.811  28.640  31.623  1.00  0.00     0.074 A 
ATOM     40  C   UNL A   1      40.437  28.372  29.207  1.00  0.00     0.049 A 
ATOM     41  N   UNL A   1      42.072  28.676  31.916  1.00  0.00    -0.248 NA
ATOM     42  C   UNL A   1      39.948  28.214  32.734  1.00  0.00     0.031 C 
ATOM     43  C   UNL A   1      39.735  28.392  27.922  1.00  0.00     0.029 A 
ATOM     44  N   UNL A   1      41.421  27.451  29.010  1.00  0.00    -0.354 N 
ATOM     45  C   UNL A   1      42.188  28.179  33.213  1.00  0.00     0.074 A 
ATOM     46  C   UNL A   1      40.844  27.974  33.693  1.00  0.00     0.031 C 
ATOM     47  C   UNL A   1      40.175  27.362  27.160  1.00  0.00     0.029 A 
ATOM     48  C   UNL A   1      41.295  26.732  27.835  1.00  0.00     0.049 A 
ATOM     49  H   UNL A   1      42.159  27.312  29.647  1.00  0.00     0.167 HD
ATOM     50  C   UNL A   1      43.385  27.861  33.783  1.00  0.00     0.031 A 
ATOM     51  C   UNL A   1      42.029  25.653  27.476  1.00  0.00     0.031 A 
ATOM     52  C   UNL A   1      44.493  28.457  33.094  1.00  0.00     0.049 A 
ATOM     53  C   UNL A   1      43.292  25.686  28.248  1.00  0.00     0.074 A 
ATOM     54  C   UNL A   1      44.939  29.749  32.908  1.00  0.00     0.029 A 
ATOM     55  N   UNL A   1      45.178  27.689  32.187  1.00  0.00    -0.354 N 
ATOM     56  N   UNL A   1      44.217  26.587  28.087  1.00  0.00    -0.248 NA
ATOM     57  C   UNL A   1      43.366  24.924  29.482  1.00  0.00     0.031 C 
ATOM     58  C   UNL A   1      45.491  29.761  31.596  1.00  0.00     0.029 A 
ATOM     59  C   UNL A   1      45.380  28.469  31.077  1.00  0.00     0.049 A 
ATOM     60  H   UNL A   1      45.470  26.756  32.309  1.00  0.00     0.167 HD
ATOM     61  C   UNL A   1      44.738  26.792  29.356  1.00  0.00     0.074 A 
ATOM     62  C   UNL A   1      44.255  25.665  30.148  1.00  0.00     0.031 C 
ATOM     63  C   UNL A   1      45.287  27.990  29.714  1.00  0.00     0.031 A 
BRANCH  50  64
ATOM     64  C   UNL A   1      43.577  26.803  34.835  1.00  0.00    -0.014 A 
ATOM     65  C   UNL A   1      43.347  25.436  34.594  1.00  0.00     0.009 A 
ATOM     66  C   UNL A   1      44.241  27.130  36.034  1.00  0.00     0.009 A 
ATOM     67  C   UNL A   1      43.751  24.447  35.495  1.00  0.00     0.001 A 
ATOM     68  C   UNL A   1      44.683  26.139  36.919  1.00  0.00     0.001 A 
ATOM     69  C   UNL A   1      44.439  24.797  36.648  1.00  0.00     0.000 A 
ENDBRANCH  50  64
BRANCH  51  70
ATOM     70  C   UNL A   1      41.530  24.417  26.840  1.00  0.00    -0.014 A 
ATOM     71  C   UNL A   1      40.288  23.882  27.232  1.00  0.00     0.009 A 
ATOM     72  C   UNL A   1      42.387  23.606  26.082  1.00  0.00     0.009 A 
ATOM     73  C   UNL A   1      39.933  22.568  26.916  1.00  0.00     0.001 A 
ATOM     74  C   UNL A   1      42.030  22.288  25.767  1.00  0.00     0.001 A 
ATOM     75  C   UNL A   1      40.812  21.765  26.197  1.00  0.00     0.000 A 
ENDBRANCH  51  70
BRANCH  63  76
ATOM     76  C   UNL A   1      45.526  29.025  28.638  1.00  0.00    -0.014 A 
ATOM     77  C   UNL A   1      44.447  29.820  28.221  1.00  0.00     0.009 A 
ATOM     78  C   UNL A   1      46.717  29.076  27.891  1.00  0.00     0.009 A 
ATOM     79  C   UNL A   1      44.543  30.623  27.083  1.00  0.00     0.001 A 
ATOM     80  C   UNL A   1      46.822  29.900  26.765  1.00  0.00     0.001 A 
ATOM     81  C   UNL A   1      45.730  30.662  26.354  1.00  0.00     0.000 A 
ENDBRANCH  63  76
ENDBRANCH  37  38
ENDBRANCH  29  32
ENDBRANCH  27  28
ENDBRANCH  26  27
ENDBRANCH   1  26
TORSDOF 17
ENDMDL
MODEL 2
REMARK VINA RESULT:     -10.3      2.727      8.096
REMARK SMILES CCCc1nc2cc(C(=O)NCCCCNC(=O)c3ccc(-c4c5nc(c(-c6ccccc6)c6ccc([nH]6)c(-c6ccccc6)c6nc(c(-c7ccccc7)c7ccc4[nH]7)C=C6)C=C5)cc3)ccc2n1[C@H](CO)C(C)C
REMARK SMILES IDX 13 1 12 2 11 3 9 4 10 5 8 7 4 8 5 9 70 10 6 11 69 12 7 13
REMARK SMILES IDX 68 14 67 15 3 16 2 17 1 18 71 19 74 20 75 21 76 22 72 23
REMARK SMILES IDX 73 24 14 26 15 27 16 28 17 29 18 31 19 32 20 33 66 34 21 35
REMARK SMILES IDX 65 36 22 37 23 38 24 39 59 40 25 41 64 42 58 43 60 44 26 45
REMARK SMILES IDX 63 46 57 47 56 48 27 50 49 51 34 52 48 53 35 54 38 55 47 56
REMARK SMILES IDX 61 57 36 58 37 59 46 61 62 62 39 63 28 64 29 65 33 66 30 67
REMARK SMILES IDX 32 68 31 69 50 70 51 71 55 72 52 73 54 74 53 75 40 76 41 77
REMARK SMILES IDX 45 78 42 79 44 80 43 81
REMARK H PARENT 11 6 73 25 16 30 60 49 38 60
REMARK Flexibility Score: inf
ROOT
ATOM      1  C   UNL A   1      37.736  21.130  25.100  1.00  0.00     0.023 C 
ENDROOT
BRANCH   1   2
ATOM      2  C   UNL A   1      36.235  21.347  24.882  1.00  0.00     0.116 C 
BRANCH   2   3
ATOM      3  N   UNL A   1      35.504  21.143  26.113  1.00  0.00    -0.352 N 
ATOM      4  C   UNL A   1      34.402  21.741  26.676  1.00  0.00     0.251 C 
ATOM      5  O   UNL A   1      34.031  21.291  27.750  1.00  0.00    -0.269 OA
ATOM      6  H   UNL A   1      35.876  20.419  26.668  1.00  0.00     0.163 HD
BRANCH   4   7
ATOM      7  C   UNL A   1      33.632  22.858  26.044  1.00  0.00     0.042 A 
ATOM      8  C   UNL A   1      32.947  27.212  24.969  1.00  0.00     0.110 A 
ATOM      9  N   UNL A   1      33.911  26.538  25.568  1.00  0.00    -0.233 NA
ATOM     10  N   UNL A   1      32.010  26.363  24.389  1.00  0.00    -0.322 N 
ATOM     11  C   UNL A   1      33.536  25.242  25.576  1.00  0.00     0.090 A 
ATOM     12  C   UNL A   1      32.320  25.089  24.925  1.00  0.00     0.069 A 
ATOM     13  C   UNL A   1      34.186  24.142  26.159  1.00  0.00     0.044 A 
ATOM     14  C   UNL A   1      31.717  23.826  24.866  1.00  0.00     0.029 A 
ATOM     15  C   UNL A   1      32.434  22.720  25.348  1.00  0.00     0.016 A 
BRANCH   8  16
ATOM     16  C   UNL A   1      32.962  28.694  25.071  1.00  0.00     0.075 C 
BRANCH  16  17
ATOM     17  C   UNL A   1      31.836  29.227  25.964  1.00  0.00     0.005 C 
ATOM     18  C   UNL A   1      31.754  28.564  27.331  1.00  0.00     0.004 C 
ENDBRANCH  16  17
ENDBRANCH   8  16
BRANCH  10  19
ATOM     19  C   UNL A   1      30.850  26.575  23.483  1.00  0.00     0.117 C 
BRANCH  19  20
ATOM     20  C   UNL A   1      29.752  27.734  23.616  1.00  0.00     0.008 C 
ATOM     21  C   UNL A   1      29.920  28.774  22.465  1.00  0.00     0.009 C 
ATOM     22  C   UNL A   1      28.265  27.390  23.524  1.00  0.00     0.009 C 
ENDBRANCH  19  20
BRANCH  19  23
ATOM     23  C   UNL A   1      31.379  26.711  22.001  1.00  0.00     0.181 C 
BRANCH  23  24
ATOM     24  O   UNL A   1      31.766  25.442  21.462  1.00  0.00    -0.394 OA
ATOM     25  H   UNL A   1      32.117  24.883  22.174  1.00  0.00     0.210 HD
ENDBRANCH  23  24
ENDBRANCH  19  23
ENDBRANCH  10  19
ENDBRANCH   4   7
ENDBRANCH   2   3
ENDBRANCH   1   2
BRANCH   1  26
ATOM     26  C   UNL A   1      38.461  22.369  25.659  1.00  0.00     0.023 C 
BRANCH  26  27
ATOM     27  C   UNL A   1      39.575  22.036  26.658  1.00  0.00     0.116 C 
BRANCH  27  28
ATOM     28  N   UNL A   1      40.889  22.099  26.049  1.00  0.00    -0.352 N 
ATOM     29  C   UNL A   1      41.892  23.024  25.990  1.00  0.00     0.251 C 
ATOM     30  H   UNL A   1      41.113  21.274  25.560  1.00  0.00     0.163 HD
ATOM     31  O   UNL A   1      42.909  22.675  25.385  1.00  0.00    -0.269 OA
BRANCH  29  32
ATOM     32  C   UNL A   1      41.841  24.394  26.566  1.00  0.00     0.039 A 
ATOM     33  C   UNL A   1      42.181  24.738  27.873  1.00  0.00     0.014 A 
ATOM     34  C   UNL A   1      41.349  25.405  25.716  1.00  0.00     0.014 A 
ATOM     35  C   UNL A   1      41.996  26.039  28.330  1.00  0.00     0.010 A 
ATOM     36  C   UNL A   1      41.159  26.707  26.169  1.00  0.00     0.010 A 
ATOM     37  C   UNL A   1      41.447  27.014  27.493  1.00  0.00    -0.014 A 
BRANCH  37  38
ATOM     38  C   UNL A   1      41.214  28.332  28.079  1.00  0.00     0.031 A 
ATOM     39  C   UNL A   1      42.309  29.333  27.913  1.00  0.00     0.074 A 
ATOM     40  C   UNL A   1      40.083  28.675  28.725  1.00  0.00     0.049 A 
ATOM     41  N   UNL A   1      43.005  29.922  28.834  1.00  0.00    -0.248 NA
ATOM     42  C   UNL A   1      42.718  29.671  26.543  1.00  0.00     0.031 C 
ATOM     43  C   UNL A   1      38.798  27.974  28.775  1.00  0.00     0.029 A 
ATOM     44  N   UNL A   1      39.842  29.817  29.427  1.00  0.00    -0.354 N 
ATOM     45  C   UNL A   1      43.876  30.789  28.174  1.00  0.00     0.074 A 
ATOM     46  C   UNL A   1      43.703  30.544  26.764  1.00  0.00     0.031 C 
ATOM     47  C   UNL A   1      37.856  28.809  29.273  1.00  0.00     0.029 A 
ATOM     48  C   UNL A   1      38.507  30.024  29.728  1.00  0.00     0.049 A 
ATOM     49  H   UNL A   1      40.555  30.439  29.699  1.00  0.00     0.167 HD
ATOM     50  C   UNL A   1      44.612  31.736  28.820  1.00  0.00     0.031 A 
ATOM     51  C   UNL A   1      37.974  31.147  30.264  1.00  0.00     0.031 A 
ATOM     52  C   UNL A   1      44.710  31.485  30.229  1.00  0.00     0.049 A 
ATOM     53  C   UNL A   1      39.059  31.883  30.949  1.00  0.00     0.074 A 
ATOM     54  C   UNL A   1      45.309  30.511  31.002  1.00  0.00     0.029 A 
ATOM     55  N   UNL A   1      43.855  32.155  31.067  1.00  0.00    -0.354 N 
ATOM     56  N   UNL A   1      39.666  31.453  32.017  1.00  0.00    -0.248 NA
ATOM     57  C   UNL A   1      39.742  32.939  30.222  1.00  0.00     0.031 C 
ATOM     58  C   UNL A   1      44.436  30.335  32.112  1.00  0.00     0.029 A 
ATOM     59  C   UNL A   1      43.379  31.238  31.967  1.00  0.00     0.049 A 
ATOM     60  H   UNL A   1      43.627  33.113  31.029  1.00  0.00     0.167 HD
ATOM     61  C   UNL A   1      40.978  31.881  31.877  1.00  0.00     0.074 A 
ATOM     62  C   UNL A   1      40.937  32.881  30.816  1.00  0.00     0.031 C 
ATOM     63  C   UNL A   1      42.013  31.196  32.446  1.00  0.00     0.031 A 
BRANCH  50  64
ATOM     64  C   UNL A   1      45.050  33.040  28.211  1.00  0.00    -0.014 A 
ATOM     65  C   UNL A   1      44.144  33.982  27.689  1.00  0.00     0.009 A 
ATOM     66  C   UNL A   1      46.382  33.469  28.376  1.00  0.00     0.009 A 
ATOM     67  C   UNL A   1      44.540  35.279  27.346  1.00  0.00     0.001 A 
ATOM     68  C   UNL A   1      46.772  34.779  28.072  1.00  0.00     0.001 A 
ATOM     69  C   UNL A   1      45.850  35.684  27.558  1.00  0.00     0.000 A 
ENDBRANCH  50  64
BRANCH  51  70
ATOM     70  C   UNL A   1      36.711  31.801  29.864  1.00  0.00    -0.014 A 
ATOM     71  C   UNL A   1      36.394  31.933  28.499  1.00  0.00     0.009 A 
ATOM     72  C   UNL A   1      35.973  32.555  30.789  1.00  0.00     0.009 A 
ATOM     73  C   UNL A   1      35.404  32.820  28.068  1.00  0.00     0.001 A 
ATOM     74  C   UNL A   1      34.982  33.445  30.354  1.00  0.00     0.001 A 
ATOM     75  C   UNL A   1      34.709  33.589  28.995  1.00  0.00     0.000 A 
ENDBRANCH  51  70
BRANCH  63  76
ATOM     76  C   UNL A   1      41.694  30.085  33.422  1.00  0.00    -0.014 A 
ATOM     77  C   UNL A   1      41.969  30.290  34.782  1.00  0.00     0.009 A 
ATOM     78  C   UNL A   1      41.341  28.790  33.002  1.00  0.00     0.009 A 
ATOM     79  C   UNL A   1      41.916  29.233  35.694  1.00  0.00     0.001 A 
ATOM     80  C   UNL A   1      41.263  27.736  33.919  1.00  0.00     0.001 A 
ATOM     81  C   UNL A   1      41.565  27.955  35.262  1.00  0.00     0.000 A 
ENDBRANCH  63  76
ENDBRANCH  37  38
ENDBRANCH  29  32
ENDBRANCH  27  28
ENDBRANCH  26  27
ENDBRANCH   1  26
TORSDOF 17
ENDMDL
MODEL 3
REMARK VINA RESULT:     -10.0      2.716      8.084
REMARK SMILES CCCc1nc2cc(C(=O)NCCCCNC(=O)c3ccc(-c4c5nc(c(-c6ccccc6)c6ccc([nH]6)c(-c6ccccc6)c6nc(c(-c7ccccc7)c7ccc4[nH]7)C=C6)C=C5)cc3)ccc2n1[C@H](CO)C(C)C
REMARK SMILES IDX 13 1 12 2 11 3 9 4 10 5 8 7 4 8 5 9 70 10 6 11 69 12 7 13
REMARK SMILES IDX 68 14 67 15 3 16 2 17 1 18 71 19 74 20 75 21 76 22 72 23
REMARK SMILES IDX 73 24 14 26 15 27 16 28 17 29 18 31 19 32 20 33 66 34 21 35
REMARK SMILES IDX 65 36 22 37 23 38 24 39 59 40 25 41 64 42 58 43 60 44 26 45
REMARK SMILES IDX 63 46 57 47 56 48 27 50 49 51 34 52 48 53 35 54 38 55 47 56
REMARK SMILES IDX 61 57 36 58 37 59 46 61 62 62 39 63 28 64 29 65 33 66 30 67
REMARK SMILES IDX 32 68 31 69 50 70 51 71 55 72 52 73 54 74 53 75 40 76 41 77
REMARK SMILES IDX 45 78 42 79 44 80 43 81
REMARK H PARENT 11 6 73 25 16 30 60 49 38 60
REMARK Flexibility Score: inf
ROOT
ATOM      1  C   UNL A   1      40.169  22.063  26.152  1.00  0.00     0.023 C 
ENDROOT
BRANCH   1   2
ATOM      2  C   UNL A   1      38.676  22.400  26.092  1.00  0.00     0.116 C 
BRANCH   2   3
ATOM      3  N   UNL A   1      37.908  21.254  25.660  1.00  0.00    -0.352 N 
ATOM      4  C   UNL A   1      36.582  21.055  25.359  1.00  0.00     0.251 C 
ATOM      5  O   UNL A   1      36.271  19.929  24.998  1.00  0.00    -0.269 OA
ATOM      6  H   UNL A   1      38.453  20.440  25.561  1.00  0.00     0.163 HD
BRANCH   4   7
ATOM      7  C   UNL A   1      35.533  22.122  25.413  1.00  0.00     0.042 A 
ATOM      8  C   UNL A   1      32.007  24.430  23.735  1.00  0.00     0.110 A 
ATOM      9  N   UNL A   1      32.700  23.375  23.351  1.00  0.00    -0.233 NA
ATOM     10  N   UNL A   1      32.328  24.812  25.033  1.00  0.00    -0.322 N 
ATOM     11  C   UNL A   1      33.636  23.156  24.298  1.00  0.00     0.090 A 
ATOM     12  C   UNL A   1      33.500  24.074  25.330  1.00  0.00     0.069 A 
ATOM     13  C   UNL A   1      34.661  22.195  24.316  1.00  0.00     0.044 A 
ATOM     14  C   UNL A   1      34.409  24.061  26.396  1.00  0.00     0.029 A 
ATOM     15  C   UNL A   1      35.351  23.023  26.458  1.00  0.00     0.016 A 
BRANCH   8  16
ATOM     16  C   UNL A   1      31.097  25.067  22.748  1.00  0.00     0.075 C 
BRANCH  16  17
ATOM     17  C   UNL A   1      31.786  26.187  21.961  1.00  0.00     0.005 C 
ATOM     18  C   UNL A   1      32.531  25.715  20.721  1.00  0.00     0.004 C 
ENDBRANCH  16  17
ENDBRANCH   8  16
BRANCH  10  19
ATOM     19  C   UNL A   1      31.755  25.796  25.989  1.00  0.00     0.117 C 
BRANCH  19  20
ATOM     20  C   UNL A   1      32.173  27.339  26.114  1.00  0.00     0.008 C 
ATOM     21  C   UNL A   1      31.407  28.194  25.056  1.00  0.00     0.009 C 
ATOM     22  C   UNL A   1      31.893  28.102  27.409  1.00  0.00     0.009 C 
ENDBRANCH  19  20
BRANCH  19  23
ATOM     23  C   UNL A   1      30.187  25.833  25.804  1.00  0.00     0.181 C 
BRANCH  23  24
ATOM     24  O   UNL A   1      29.550  24.758  26.502  1.00  0.00    -0.394 OA
ATOM     25  H   UNL A   1      28.856  25.113  27.080  1.00  0.00     0.210 HD
ENDBRANCH  23  24
ENDBRANCH  19  23
ENDBRANCH  10  19
ENDBRANCH   4   7
ENDBRANCH   2   3
ENDBRANCH   1   2
BRANCH   1  26
ATOM     26  C   UNL A   1      40.763  22.156  27.570  1.00  0.00     0.023 C 
BRANCH  26  27
ATOM     27  C   UNL A   1      42.049  21.343  27.756  1.00  0.00     0.116 C 
BRANCH  27  28
ATOM     28  N   UNL A   1      43.076  21.722  26.804  1.00  0.00    -0.352 N 
ATOM     29  C   UNL A   1      43.651  22.894  26.407  1.00  0.00     0.251 C 
ATOM     30  H   UNL A   1      43.448  20.944  26.329  1.00  0.00     0.163 HD
ATOM     31  O   UNL A   1      44.551  22.794  25.570  1.00  0.00    -0.269 OA
BRANCH  29  32
ATOM     32  C   UNL A   1      43.267  24.251  26.881  1.00  0.00     0.039 A 
ATOM     33  C   UNL A   1      43.556  24.784  28.136  1.00  0.00     0.014 A 
ATOM     34  C   UNL A   1      42.496  25.022  25.989  1.00  0.00     0.014 A 
ATOM     35  C   UNL A   1      43.056  26.029  28.504  1.00  0.00     0.010 A 
ATOM     36  C   UNL A   1      41.991  26.267  26.354  1.00  0.00     0.010 A 
ATOM     37  C   UNL A   1      42.240  26.754  27.631  1.00  0.00    -0.014 A 
BRANCH  37  38
ATOM     38  C   UNL A   1      41.695  28.013  28.129  1.00  0.00     0.031 A 
ATOM     39  C   UNL A   1      42.569  29.216  27.988  1.00  0.00     0.074 A 
ATOM     40  C   UNL A   1      40.470  28.135  28.676  1.00  0.00     0.049 A 
ATOM     41  N   UNL A   1      43.053  29.971  28.922  1.00  0.00    -0.248 NA
ATOM     42  C   UNL A   1      43.006  29.581  26.633  1.00  0.00     0.031 C 
ATOM     43  C   UNL A   1      39.358  27.183  28.673  1.00  0.00     0.029 A 
ATOM     44  N   UNL A   1      39.944  29.226  29.299  1.00  0.00    -0.354 N 
ATOM     45  C   UNL A   1      43.776  30.976  28.280  1.00  0.00     0.074 A 
ATOM     46  C   UNL A   1      43.769  30.648  26.875  1.00  0.00     0.031 C 
ATOM     47  C   UNL A   1      38.227  27.819  29.060  1.00  0.00     0.029 A 
ATOM     48  C   UNL A   1      38.575  29.159  29.496  1.00  0.00     0.049 A 
ATOM     49  H   UNL A   1      40.489  29.993  29.586  1.00  0.00     0.167 HD
ATOM     50  C   UNL A   1      44.247  32.080  28.925  1.00  0.00     0.031 A 
ATOM     51  C   UNL A   1      37.781  30.164  29.933  1.00  0.00     0.031 A 
ATOM     52  C   UNL A   1      44.284  31.907  30.348  1.00  0.00     0.049 A 
ATOM     53  C   UNL A   1      38.634  31.137  30.652  1.00  0.00     0.074 A 
ATOM     54  C   UNL A   1      45.008  31.109  31.211  1.00  0.00     0.029 A 
ATOM     55  N   UNL A   1      43.246  32.413  31.088  1.00  0.00    -0.354 N 
ATOM     56  N   UNL A   1      39.230  30.883  31.781  1.00  0.00    -0.248 NA
ATOM     57  C   UNL A   1      39.139  32.285  29.921  1.00  0.00     0.031 C 
ATOM     58  C   UNL A   1      44.105  30.796  32.265  1.00  0.00     0.029 A 
ATOM     59  C   UNL A   1      42.899  31.450  32.000  1.00  0.00     0.049 A 
ATOM     60  H   UNL A   1      42.829  33.300  30.985  1.00  0.00     0.167 HD
ATOM     61  C   UNL A   1      40.432  31.571  31.710  1.00  0.00     0.074 A 
ATOM     62  C   UNL A   1      40.269  32.501  30.598  1.00  0.00     0.031 C 
ATOM     63  C   UNL A   1      41.539  31.140  32.384  1.00  0.00     0.031 A 
BRANCH  50  64
ATOM     64  C   UNL A   1      44.454  33.424  28.280  1.00  0.00    -0.014 A 
ATOM     65  C   UNL A   1      45.677  33.815  27.705  1.00  0.00     0.009 A 
ATOM     66  C   UNL A   1      43.338  34.241  28.009  1.00  0.00     0.009 A 
ATOM     67  C   UNL A   1      45.788  34.958  26.907  1.00  0.00     0.001 A 
ATOM     68  C   UNL A   1      43.438  35.363  27.177  1.00  0.00     0.001 A 
ATOM     69  C   UNL A   1      44.663  35.720  26.626  1.00  0.00     0.000 A 
ENDBRANCH  50  64
BRANCH  51  70
ATOM     70  C   UNL A   1      36.446  30.524  29.413  1.00  0.00    -0.014 A 
ATOM     71  C   UNL A   1      35.977  29.934  28.225  1.00  0.00     0.009 A 
ATOM     72  C   UNL A   1      35.768  31.651  29.903  1.00  0.00     0.009 A 
ATOM     73  C   UNL A   1      34.895  30.476  27.525  1.00  0.00     0.001 A 
ATOM     74  C   UNL A   1      34.684  32.193  29.200  1.00  0.00     0.001 A 
ATOM     75  C   UNL A   1      34.260  31.616  28.004  1.00  0.00     0.000 A 
ENDBRANCH  51  70
BRANCH  63  76
ATOM     76  C   UNL A   1      41.380  30.024  33.393  1.00  0.00    -0.014 A 
ATOM     77  C   UNL A   1      41.386  30.349  34.758  1.00  0.00     0.009 A 
ATOM     78  C   UNL A   1      41.444  28.667  33.032  1.00  0.00     0.009 A 
ATOM     79  C   UNL A   1      41.476  29.353  35.734  1.00  0.00     0.001 A 
ATOM     80  C   UNL A   1      41.509  27.667  34.010  1.00  0.00     0.001 A 
ATOM     81  C   UNL A   1      41.540  28.013  35.360  1.00  0.00     0.000 A 
ENDBRANCH  63  76
ENDBRANCH  37  38
ENDBRANCH  29  32
ENDBRANCH  27  28
ENDBRANCH  26  27
ENDBRANCH   1  26
TORSDOF 17
ENDMDL
