MODEL 1
REMARK VINA RESULT:     -10.9      0.000      0.000
REMARK SMILES COc1ccc(C(=O)NC(=S)Nc2ccc(Br)cc2C(=O)NCCCCNC(=O)c2ccc(-c3c4nc(c(-c5ccccc5)c5ccc([nH]5)c(-c5ccccc5)c5nc(c(-c6ccccc6)c6ccc3[nH]6)C=C5)C=C4)cc2)cc1Br
REMARK SMILES IDX 23 1 22 2 20 3 21 4 19 6 13 7 14 8 15 9 18 10 16 11 17 12
REMARK SMILES IDX 12 13 10 15 11 16 9 17 7 18 8 19 6 21 3 22 4 23 79 24 5 25
REMARK SMILES IDX 78 26 80 27 2 28 1 29 24 30 25 31 26 32 27 33 28 34 29 36
REMARK SMILES IDX 30 37 31 38 77 39 32 40 76 41 33 42 34 43 35 44 70 45 36 46
REMARK SMILES IDX 75 47 69 48 71 49 37 50 74 51 68 52 67 53 38 55 60 56 45 57
REMARK SMILES IDX 59 58 46 59 49 60 58 61 72 62 47 63 48 64 57 66 73 67 50 68
REMARK SMILES IDX 39 69 40 70 44 71 41 72 43 73 42 74 61 75 62 76 66 77 63 78
REMARK SMILES IDX 65 79 64 80 51 81 52 82 56 83 53 84 55 85 54 86
REMARK H PARENT 22 5 12 14 9 20 27 35 71 54 49 65
REMARK Flexibility Score: inf
ROOT
ATOM      1  C   UNL A   1      35.363  20.256  24.778  1.00  0.00     0.116 C 
ENDROOT
BRANCH   1   2
ATOM      2  N   UNL A   1      34.050  19.719  24.892  1.00  0.00    -0.352 N 
ATOM      3  C   UNL A   1      32.938  20.506  24.760  1.00  0.00     0.253 C 
ATOM      4  O   UNL A   1      31.825  20.058  25.017  1.00  0.00    -0.269 OA
ATOM      5  H   UNL A   1      33.939  18.757  25.073  1.00  0.00     0.163 HD
BRANCH   3   6
ATOM      6  C   UNL A   1      33.082  21.939  24.365  1.00  0.00     0.064 A 
ATOM      7  C   UNL A   1      34.144  23.121  25.134  1.00  0.00     0.053 A 
ATOM      8  C   UNL A   1      34.815  24.552  24.258  1.00  0.00     0.028 A 
ATOM      9  C   UNL A   1      34.250  25.044  22.637  1.00  0.00     0.018 A 
ATOM     10  C   UNL A   1      32.416  22.328  22.772  1.00  0.00     0.031 A 
ATOM     11  C   UNL A   1      32.985  24.026  21.814  1.00  0.00     0.018 A 
ATOM     12  Br  UNL A   1      32.563  25.057  20.147  1.00  0.00    -0.051 Br
BRANCH   7  13
ATOM     13  N   UNL A   1      33.512  23.694  26.338  1.00  0.00    -0.332 N 
ATOM     14  H   UNL A   1      33.970  24.503  26.660  1.00  0.00     0.169 HD
BRANCH  13  15
ATOM     15  C   UNL A   1      32.416  23.349  27.120  1.00  0.00     0.177 C 
ATOM     16  S   UNL A   1      32.718  22.183  28.299  1.00  0.00    -0.040 S 
BRANCH  15  17
ATOM     17  N   UNL A   1      31.071  23.854  27.082  1.00  0.00    -0.299 N 
ATOM     18  C   UNL A   1      29.992  24.786  26.597  1.00  0.00     0.257 C 
ATOM     19  O   UNL A   1      28.847  24.672  27.021  1.00  0.00    -0.269 OA
ATOM     20  H   UNL A   1      30.595  23.275  27.720  1.00  0.00     0.172 HD
BRANCH  18  21
ATOM     21  C   UNL A   1      30.329  25.873  25.649  1.00  0.00     0.041 A 
ATOM     22  C   UNL A   1      32.330  28.540  23.961  1.00  0.00     0.133 A 
ATOM     23  C   UNL A   1      31.285  27.389  23.075  1.00  0.00     0.048 A 
ATOM     24  C   UNL A   1      32.395  28.425  25.772  1.00  0.00     0.060 A 
ATOM     25  C   UNL A   1      30.336  26.090  23.908  1.00  0.00     0.018 A 
ATOM     26  C   UNL A   1      31.225  26.993  26.577  1.00  0.00     0.033 A 
ATOM     27  Br  UNL A   1      33.595  29.859  26.466  1.00  0.00    -0.047 Br
BRANCH  22  28
ATOM     28  O   UNL A   1      33.122  29.396  23.255  1.00  0.00    -0.496 OA
ATOM     29  C   UNL A   1      34.211  28.660  22.689  1.00  0.00     0.278 C 
ENDBRANCH  22  28
ENDBRANCH  18  21
ENDBRANCH  15  17
ENDBRANCH  13  15
ENDBRANCH   7  13
ENDBRANCH   3   6
ENDBRANCH   1   2
BRANCH   1  30
ATOM     30  C   UNL A   1      36.524  19.302  24.719  1.00  0.00     0.023 C 
BRANCH  30  31
ATOM     31  C   UNL A   1      37.871  19.974  24.655  1.00  0.00     0.023 C 
BRANCH  31  32
ATOM     32  C   UNL A   1      38.680  19.863  25.935  1.00  0.00     0.116 C 
BRANCH  32  33
ATOM     33  N   UNL A   1      39.935  19.129  25.778  1.00  0.00    -0.352 N 
ATOM     34  C   UNL A   1      41.211  19.580  26.042  1.00  0.00     0.251 C 
ATOM     35  H   UNL A   1      39.861  18.206  25.444  1.00  0.00     0.163 HD
ATOM     36  O   UNL A   1      42.204  18.918  25.772  1.00  0.00    -0.269 OA
BRANCH  34  37
ATOM     37  C   UNL A   1      41.332  20.924  26.629  1.00  0.00     0.039 A 
ATOM     38  C   UNL A   1      41.628  21.048  27.987  1.00  0.00     0.014 A 
ATOM     39  C   UNL A   1      41.385  22.022  25.768  1.00  0.00     0.014 A 
ATOM     40  C   UNL A   1      42.078  22.276  28.470  1.00  0.00     0.010 A 
ATOM     41  C   UNL A   1      41.964  23.194  26.225  1.00  0.00     0.010 A 
ATOM     42  C   UNL A   1      42.304  23.339  27.582  1.00  0.00    -0.014 A 
BRANCH  42  43
ATOM     43  C   UNL A   1      42.852  24.642  28.028  1.00  0.00     0.031 A 
ATOM     44  C   UNL A   1      41.892  25.740  28.390  1.00  0.00     0.074 A 
ATOM     45  C   UNL A   1      44.179  24.877  28.016  1.00  0.00     0.049 A 
ATOM     46  N   UNL A   1      42.133  26.997  28.654  1.00  0.00    -0.248 NA
ATOM     47  C   UNL A   1      40.463  25.381  28.419  1.00  0.00     0.031 C 
ATOM     48  C   UNL A   1      45.215  23.903  27.672  1.00  0.00     0.029 A 
ATOM     49  N   UNL A   1      44.880  26.027  28.289  1.00  0.00    -0.354 N 
ATOM     50  C   UNL A   1      40.888  27.580  28.846  1.00  0.00     0.074 A 
ATOM     51  C   UNL A   1      39.894  26.561  28.601  1.00  0.00     0.031 C 
ATOM     52  C   UNL A   1      46.420  24.489  27.778  1.00  0.00     0.029 A 
ATOM     53  C   UNL A   1      46.238  25.895  28.131  1.00  0.00     0.049 A 
ATOM     54  H   UNL A   1      44.450  26.866  28.571  1.00  0.00     0.167 HD
ATOM     55  C   UNL A   1      40.597  28.849  29.212  1.00  0.00     0.031 A 
ATOM     56  C   UNL A   1      47.225  26.807  28.230  1.00  0.00     0.031 A 
ATOM     57  C   UNL A   1      41.589  29.859  29.446  1.00  0.00     0.049 A 
ATOM     58  C   UNL A   1      46.877  28.230  28.579  1.00  0.00     0.074 A 
ATOM     59  C   UNL A   1      41.402  31.163  29.866  1.00  0.00     0.029 A 
ATOM     60  N   UNL A   1      42.953  29.684  29.267  1.00  0.00    -0.354 N 
ATOM     61  N   UNL A   1      45.699  28.759  28.807  1.00  0.00    -0.248 NA
ATOM     62  C   UNL A   1      47.992  29.182  28.689  1.00  0.00     0.031 C 
ATOM     63  C   UNL A   1      42.642  31.803  29.849  1.00  0.00     0.029 A 
ATOM     64  C   UNL A   1      43.615  30.869  29.528  1.00  0.00     0.049 A 
ATOM     65  H   UNL A   1      43.385  28.841  28.995  1.00  0.00     0.167 HD
ATOM     66  C   UNL A   1      45.935  30.090  29.133  1.00  0.00     0.074 A 
ATOM     67  C   UNL A   1      47.368  30.289  29.068  1.00  0.00     0.031 C 
ATOM     68  C   UNL A   1      45.043  31.053  29.471  1.00  0.00     0.031 A 
BRANCH  55  69
ATOM     69  C   UNL A   1      39.142  29.216  29.333  1.00  0.00    -0.014 A 
ATOM     70  C   UNL A   1      38.421  29.751  28.253  1.00  0.00     0.009 A 
ATOM     71  C   UNL A   1      38.482  29.017  30.556  1.00  0.00     0.009 A 
ATOM     72  C   UNL A   1      37.088  30.133  28.412  1.00  0.00     0.001 A 
ATOM     73  C   UNL A   1      37.137  29.357  30.699  1.00  0.00     0.001 A 
ATOM     74  C   UNL A   1      36.446  29.930  29.634  1.00  0.00     0.000 A 
ENDBRANCH  55  69
BRANCH  56  75
ATOM     75  C   UNL A   1      48.637  26.404  27.988  1.00  0.00    -0.014 A 
ATOM     76  C   UNL A   1      49.149  26.328  26.683  1.00  0.00     0.009 A 
ATOM     77  C   UNL A   1      49.484  26.095  29.065  1.00  0.00     0.009 A 
ATOM     78  C   UNL A   1      50.470  25.928  26.462  1.00  0.00     0.001 A 
ATOM     79  C   UNL A   1      50.815  25.732  28.842  1.00  0.00     0.001 A 
ATOM     80  C   UNL A   1      51.304  25.639  27.542  1.00  0.00     0.000 A 
ENDBRANCH  56  75
BRANCH  68  81
ATOM     81  C   UNL A   1      45.574  32.401  29.876  1.00  0.00    -0.014 A 
ATOM     82  C   UNL A   1      45.968  32.682  31.192  1.00  0.00     0.009 A 
ATOM     83  C   UNL A   1      45.784  33.372  28.882  1.00  0.00     0.009 A 
ATOM     84  C   UNL A   1      46.546  33.915  31.505  1.00  0.00     0.001 A 
ATOM     85  C   UNL A   1      46.397  34.586  29.190  1.00  0.00     0.001 A 
ATOM     86  C   UNL A   1      46.771  34.860  30.502  1.00  0.00     0.000 A 
ENDBRANCH  68  81
ENDBRANCH  42  43
ENDBRANCH  34  37
ENDBRANCH  32  33
ENDBRANCH  31  32
ENDBRANCH  30  31
ENDBRANCH   1  30
TORSDOF 16
ENDMDL
MODEL 2
REMARK VINA RESULT:     -10.7      5.664      8.504
REMARK SMILES COc1ccc(C(=O)NC(=S)Nc2ccc(Br)cc2C(=O)NCCCCNC(=O)c2ccc(-c3c4nc(c(-c5ccccc5)c5ccc([nH]5)c(-c5ccccc5)c5nc(c(-c6ccccc6)c6ccc3[nH]6)C=C5)C=C4)cc2)cc1Br
REMARK SMILES IDX 23 1 22 2 20 3 21 4 19 6 13 7 14 8 15 9 18 10 16 11 17 12
REMARK SMILES IDX 12 13 10 15 11 16 9 17 7 18 8 19 6 21 3 22 4 23 79 24 5 25
REMARK SMILES IDX 78 26 80 27 2 28 1 29 24 30 25 31 26 32 27 33 28 34 29 36
REMARK SMILES IDX 30 37 31 38 77 39 32 40 76 41 33 42 34 43 35 44 70 45 36 46
REMARK SMILES IDX 75 47 69 48 71 49 37 50 74 51 68 52 67 53 38 55 60 56 45 57
REMARK SMILES IDX 59 58 46 59 49 60 58 61 72 62 47 63 48 64 57 66 73 67 50 68
REMARK SMILES IDX 39 69 40 70 44 71 41 72 43 73 42 74 61 75 62 76 66 77 63 78
REMARK SMILES IDX 65 79 64 80 51 81 52 82 56 83 53 84 55 85 54 86
REMARK H PARENT 22 5 12 14 9 20 27 35 71 54 49 65
REMARK Flexibility Score: inf
ROOT
ATOM      1  C   UNL A   1      39.257  28.454  30.121  1.00  0.00     0.116 C 
ENDROOT
BRANCH   1   2
ATOM      2  N   UNL A   1      39.175  28.441  31.542  1.00  0.00    -0.352 N 
ATOM      3  C   UNL A   1      40.057  29.142  32.319  1.00  0.00     0.253 C 
ATOM      4  O   UNL A   1      40.068  28.992  33.537  1.00  0.00    -0.269 OA
ATOM      5  H   UNL A   1      38.466  27.914  31.977  1.00  0.00     0.163 HD
BRANCH   3   6
ATOM      6  C   UNL A   1      41.059  30.046  31.680  1.00  0.00     0.064 A 
ATOM      7  C   UNL A   1      40.990  31.809  31.651  1.00  0.00     0.053 A 
ATOM      8  C   UNL A   1      42.465  32.847  31.529  1.00  0.00     0.028 A 
ATOM      9  C   UNL A   1      44.081  32.187  31.154  1.00  0.00     0.018 A 
ATOM     10  C   UNL A   1      42.596  29.265  31.280  1.00  0.00     0.031 A 
ATOM     11  C   UNL A   1      44.255  30.387  30.941  1.00  0.00     0.018 A 
ATOM     12  Br  UNL A   1      46.164  30.162  30.372  1.00  0.00    -0.051 Br
BRANCH   7  13
ATOM     13  N   UNL A   1      40.119  32.286  30.559  1.00  0.00    -0.332 N 
ATOM     14  H   UNL A   1      40.625  32.565  29.762  1.00  0.00     0.169 HD
BRANCH  13  15
ATOM     15  C   UNL A   1      38.745  32.429  30.402  1.00  0.00     0.177 C 
ATOM     16  S   UNL A   1      38.264  33.780  29.518  1.00  0.00    -0.040 S 
BRANCH  15  17
ATOM     17  N   UNL A   1      37.680  31.583  30.867  1.00  0.00    -0.299 N 
ATOM     18  C   UNL A   1      36.235  31.179  30.996  1.00  0.00     0.257 C 
ATOM     19  O   UNL A   1      35.932  30.176  31.633  1.00  0.00    -0.269 OA
ATOM     20  H   UNL A   1      38.152  30.890  31.381  1.00  0.00     0.172 HD
BRANCH  18  21
ATOM     21  C   UNL A   1      35.177  32.027  30.397  1.00  0.00     0.041 A 
ATOM     22  C   UNL A   1      33.187  35.088  29.602  1.00  0.00     0.133 A 
ATOM     23  C   UNL A   1      33.602  33.845  28.384  1.00  0.00     0.048 A 
ATOM     24  C   UNL A   1      33.733  34.832  31.315  1.00  0.00     0.060 A 
ATOM     25  C   UNL A   1      34.584  32.376  28.783  1.00  0.00     0.018 A 
ATOM     26  C   UNL A   1      34.741  33.116  31.639  1.00  0.00     0.033 A 
ATOM     27  Br  UNL A   1      33.081  36.349  32.433  1.00  0.00    -0.047 Br
BRANCH  22  28
ATOM     28  O   UNL A   1      32.569  36.234  29.197  1.00  0.00    -0.496 OA
ATOM     29  C   UNL A   1      33.553  37.136  28.685  1.00  0.00     0.278 C 
ENDBRANCH  22  28
ENDBRANCH  18  21
ENDBRANCH  15  17
ENDBRANCH  13  15
ENDBRANCH   7  13
ENDBRANCH   3   6
ENDBRANCH   1   2
BRANCH   1  30
ATOM     30  C   UNL A   1      39.574  27.167  29.411  1.00  0.00     0.023 C 
BRANCH  30  31
ATOM     31  C   UNL A   1      39.215  27.167  27.947  1.00  0.00     0.023 C 
BRANCH  31  32
ATOM     32  C   UNL A   1      40.319  26.653  27.040  1.00  0.00     0.116 C 
BRANCH  32  33
ATOM     33  N   UNL A   1      40.313  25.200  26.870  1.00  0.00    -0.352 N 
ATOM     34  C   UNL A   1      41.387  24.384  26.585  1.00  0.00     0.251 C 
ATOM     35  H   UNL A   1      39.443  24.753  26.971  1.00  0.00     0.163 HD
ATOM     36  O   UNL A   1      41.254  23.189  26.356  1.00  0.00    -0.269 OA
BRANCH  34  37
ATOM     37  C   UNL A   1      42.711  25.024  26.523  1.00  0.00     0.039 A 
ATOM     38  C   UNL A   1      43.140  25.579  25.316  1.00  0.00     0.014 A 
ATOM     39  C   UNL A   1      43.388  25.268  27.719  1.00  0.00     0.014 A 
ATOM     40  C   UNL A   1      44.212  26.470  25.328  1.00  0.00     0.010 A 
ATOM     41  C   UNL A   1      44.355  26.258  27.742  1.00  0.00     0.010 A 
ATOM     42  C   UNL A   1      44.788  26.860  26.547  1.00  0.00    -0.014 A 
BRANCH  42  43
ATOM     43  C   UNL A   1      45.879  27.861  26.625  1.00  0.00     0.031 A 
ATOM     44  C   UNL A   1      45.515  29.312  26.759  1.00  0.00     0.074 A 
ATOM     45  C   UNL A   1      47.167  27.494  26.480  1.00  0.00     0.049 A 
ATOM     46  N   UNL A   1      46.283  30.368  26.691  1.00  0.00    -0.248 NA
ATOM     47  C   UNL A   1      44.087  29.617  26.958  1.00  0.00     0.031 C 
ATOM     48  C   UNL A   1      47.652  26.122  26.328  1.00  0.00     0.029 A 
ATOM     49  N   UNL A   1      48.307  28.259  26.421  1.00  0.00    -0.354 N 
ATOM     50  C   UNL A   1      45.427  31.455  26.804  1.00  0.00     0.074 A 
ATOM     51  C   UNL A   1      44.081  30.937  26.875  1.00  0.00     0.031 C 
ATOM     52  C   UNL A   1      48.992  26.141  26.218  1.00  0.00     0.029 A 
ATOM     53  C   UNL A   1      49.453  27.526  26.222  1.00  0.00     0.049 A 
ATOM     54  H   UNL A   1      48.303  29.239  26.511  1.00  0.00     0.167 HD
ATOM     55  C   UNL A   1      45.736  32.771  26.861  1.00  0.00     0.031 A 
ATOM     56  C   UNL A   1      50.727  27.925  26.038  1.00  0.00     0.031 A 
ATOM     57  C   UNL A   1      47.076  33.280  26.782  1.00  0.00     0.049 A 
ATOM     58  C   UNL A   1      51.044  29.397  26.043  1.00  0.00     0.074 A 
ATOM     59  C   UNL A   1      47.500  34.592  26.877  1.00  0.00     0.029 A 
ATOM     60  N   UNL A   1      48.205  32.502  26.574  1.00  0.00    -0.354 N 
ATOM     61  N   UNL A   1      50.233  30.415  26.201  1.00  0.00    -0.248 NA
ATOM     62  C   UNL A   1      52.451  29.777  25.852  1.00  0.00     0.031 C 
ATOM     63  C   UNL A   1      48.874  34.618  26.631  1.00  0.00     0.029 A 
ATOM     64  C   UNL A   1      49.322  33.313  26.496  1.00  0.00     0.049 A 
ATOM     65  H   UNL A   1      48.210  31.521  26.494  1.00  0.00     0.167 HD
ATOM     66  C   UNL A   1      51.035  31.550  26.174  1.00  0.00     0.074 A 
ATOM     67  C   UNL A   1      52.396  31.096  25.980  1.00  0.00     0.031 C 
ATOM     68  C   UNL A   1      50.674  32.849  26.314  1.00  0.00     0.031 A 
BRANCH  55  69
ATOM     69  C   UNL A   1      44.593  33.744  26.971  1.00  0.00    -0.014 A 
ATOM     70  C   UNL A   1      44.088  34.155  28.216  1.00  0.00     0.009 A 
ATOM     71  C   UNL A   1      44.014  34.260  25.802  1.00  0.00     0.009 A 
ATOM     72  C   UNL A   1      42.991  35.015  28.285  1.00  0.00     0.001 A 
ATOM     73  C   UNL A   1      42.948  35.156  25.874  1.00  0.00     0.001 A 
ATOM     74  C   UNL A   1      42.426  35.519  27.113  1.00  0.00     0.000 A 
ENDBRANCH  55  69
BRANCH  56  75
ATOM     75  C   UNL A   1      51.798  26.914  25.822  1.00  0.00    -0.014 A 
ATOM     76  C   UNL A   1      52.494  26.362  26.910  1.00  0.00     0.009 A 
ATOM     77  C   UNL A   1      52.128  26.491  24.525  1.00  0.00     0.009 A 
ATOM     78  C   UNL A   1      53.513  25.429  26.699  1.00  0.00     0.001 A 
ATOM     79  C   UNL A   1      53.121  25.530  24.321  1.00  0.00     0.001 A 
ATOM     80  C   UNL A   1      53.819  25.008  25.406  1.00  0.00     0.000 A 
ENDBRANCH  56  75
BRANCH  68  81
ATOM     81  C   UNL A   1      51.762  33.888  26.343  1.00  0.00    -0.014 A 
ATOM     82  C   UNL A   1      52.436  34.228  27.524  1.00  0.00     0.009 A 
ATOM     83  C   UNL A   1      52.189  34.455  25.129  1.00  0.00     0.009 A 
ATOM     84  C   UNL A   1      53.505  35.128  27.490  1.00  0.00     0.001 A 
ATOM     85  C   UNL A   1      53.280  35.322  25.092  1.00  0.00     0.001 A 
ATOM     86  C   UNL A   1      53.934  35.662  26.274  1.00  0.00     0.000 A 
ENDBRANCH  68  81
ENDBRANCH  42  43
ENDBRANCH  34  37
ENDBRANCH  32  33
ENDBRANCH  31  32
ENDBRANCH  30  31
ENDBRANCH   1  30
TORSDOF 16
ENDMDL
MODEL 3
REMARK VINA RESULT:     -10.6      3.830      7.339
REMARK SMILES COc1ccc(C(=O)NC(=S)Nc2ccc(Br)cc2C(=O)NCCCCNC(=O)c2ccc(-c3c4nc(c(-c5ccccc5)c5ccc([nH]5)c(-c5ccccc5)c5nc(c(-c6ccccc6)c6ccc3[nH]6)C=C5)C=C4)cc2)cc1Br
REMARK SMILES IDX 23 1 22 2 20 3 21 4 19 6 13 7 14 8 15 9 18 10 16 11 17 12
REMARK SMILES IDX 12 13 10 15 11 16 9 17 7 18 8 19 6 21 3 22 4 23 79 24 5 25
REMARK SMILES IDX 78 26 80 27 2 28 1 29 24 30 25 31 26 32 27 33 28 34 29 36
REMARK SMILES IDX 30 37 31 38 77 39 32 40 76 41 33 42 34 43 35 44 70 45 36 46
REMARK SMILES IDX 75 47 69 48 71 49 37 50 74 51 68 52 67 53 38 55 60 56 45 57
REMARK SMILES IDX 59 58 46 59 49 60 58 61 72 62 47 63 48 64 57 66 73 67 50 68
REMARK SMILES IDX 39 69 40 70 44 71 41 72 43 73 42 74 61 75 62 76 66 77 63 78
REMARK SMILES IDX 65 79 64 80 51 81 52 82 56 83 53 84 55 85 54 86
REMARK H PARENT 22 5 12 14 9 20 27 35 71 54 49 65
REMARK Flexibility Score: inf
ROOT
ATOM      1  C   UNL A   1      35.959  23.050  24.108  1.00  0.00     0.116 C 
ENDROOT
BRANCH   1   2
ATOM      2  N   UNL A   1      35.210  21.918  24.536  1.00  0.00    -0.352 N 
ATOM      3  C   UNL A   1      33.881  22.013  24.850  1.00  0.00     0.253 C 
ATOM      4  O   UNL A   1      33.295  21.066  25.366  1.00  0.00    -0.269 OA
ATOM      5  H   UNL A   1      35.659  21.044  24.609  1.00  0.00     0.163 HD
BRANCH   3   6
ATOM      6  C   UNL A   1      33.153  23.297  24.629  1.00  0.00     0.064 A 
ATOM      7  C   UNL A   1      31.940  23.594  23.381  1.00  0.00     0.053 A 
ATOM      8  C   UNL A   1      30.625  24.821  23.563  1.00  0.00     0.028 A 
ATOM      9  C   UNL A   1      30.600  26.019  24.887  1.00  0.00     0.018 A 
ATOM     10  C   UNL A   1      33.262  24.441  25.974  1.00  0.00     0.031 A 
ATOM     11  C   UNL A   1      31.927  25.962  26.133  1.00  0.00     0.018 A 
ATOM     12  Br  UNL A   1      31.571  27.572  27.273  1.00  0.00    -0.051 Br
BRANCH   7  13
ATOM     13  N   UNL A   1      32.578  23.933  22.094  1.00  0.00    -0.332 N 
ATOM     14  H   UNL A   1      32.833  23.137  21.574  1.00  0.00     0.169 HD
BRANCH  13  15
ATOM     15  C   UNL A   1      32.898  25.122  21.450  1.00  0.00     0.177 C 
ATOM     16  S   UNL A   1      32.556  25.156  19.800  1.00  0.00    -0.040 S 
BRANCH  15  17
ATOM     17  N   UNL A   1      33.461  26.331  21.990  1.00  0.00    -0.299 N 
ATOM     18  C   UNL A   1      33.376  27.688  22.635  1.00  0.00     0.257 C 
ATOM     19  O   UNL A   1      34.400  28.314  22.884  1.00  0.00    -0.269 OA
ATOM     20  H   UNL A   1      34.429  26.198  21.874  1.00  0.00     0.172 HD
BRANCH  18  21
ATOM     21  C   UNL A   1      32.051  28.287  22.920  1.00  0.00     0.041 A 
ATOM     22  C   UNL A   1      29.513  30.852  23.890  1.00  0.00     0.133 A 
ATOM     23  C   UNL A   1      29.281  29.708  22.535  1.00  0.00     0.048 A 
ATOM     24  C   UNL A   1      31.044  30.740  24.860  1.00  0.00     0.060 A 
ATOM     25  C   UNL A   1      30.530  28.482  22.066  1.00  0.00     0.018 A 
ATOM     26  C   UNL A   1      32.309  29.277  24.288  1.00  0.00     0.033 A 
ATOM     27  Br  UNL A   1      30.986  32.102  26.316  1.00  0.00    -0.047 Br
BRANCH  22  28
ATOM     28  O   UNL A   1      28.592  31.838  24.091  1.00  0.00    -0.496 OA
ATOM     29  C   UNL A   1      28.786  32.861  23.111  1.00  0.00     0.278 C 
ENDBRANCH  22  28
ENDBRANCH  18  21
ENDBRANCH  15  17
ENDBRANCH  13  15
ENDBRANCH   7  13
ENDBRANCH   3   6
ENDBRANCH   1   2
BRANCH   1  30
ATOM     30  C   UNL A   1      37.132  23.488  24.941  1.00  0.00     0.023 C 
BRANCH  30  31
ATOM     31  C   UNL A   1      37.923  22.352  25.537  1.00  0.00     0.023 C 
BRANCH  31  32
ATOM     32  C   UNL A   1      39.191  22.787  26.250  1.00  0.00     0.116 C 
BRANCH  32  33
ATOM     33  N   UNL A   1      40.402  22.146  25.741  1.00  0.00    -0.352 N 
ATOM     34  C   UNL A   1      41.707  22.559  25.913  1.00  0.00     0.251 C 
ATOM     35  H   UNL A   1      40.272  21.326  25.214  1.00  0.00     0.163 HD
ATOM     36  O   UNL A   1      42.643  22.007  25.351  1.00  0.00    -0.269 OA
BRANCH  34  37
ATOM     37  C   UNL A   1      41.924  23.731  26.776  1.00  0.00     0.039 A 
ATOM     38  C   UNL A   1      42.139  24.977  26.185  1.00  0.00     0.014 A 
ATOM     39  C   UNL A   1      41.672  23.606  28.143  1.00  0.00     0.014 A 
ATOM     40  C   UNL A   1      42.004  26.125  26.965  1.00  0.00     0.010 A 
ATOM     41  C   UNL A   1      41.402  24.750  28.873  1.00  0.00     0.010 A 
ATOM     42  C   UNL A   1      41.578  26.021  28.298  1.00  0.00    -0.014 A 
BRANCH  42  43
ATOM     43  C   UNL A   1      41.345  27.211  29.152  1.00  0.00     0.031 A 
ATOM     44  C   UNL A   1      42.270  27.459  30.309  1.00  0.00     0.074 A 
ATOM     45  C   UNL A   1      40.271  28.002  28.960  1.00  0.00     0.049 A 
ATOM     46  N   UNL A   1      42.174  28.335  31.273  1.00  0.00    -0.248 NA
ATOM     47  C   UNL A   1      43.443  26.572  30.415  1.00  0.00     0.031 C 
ATOM     48  C   UNL A   1      39.288  27.862  27.884  1.00  0.00     0.029 A 
ATOM     49  N   UNL A   1      39.819  29.078  29.685  1.00  0.00    -0.354 N 
ATOM     50  C   UNL A   1      43.250  28.081  32.112  1.00  0.00     0.074 A 
ATOM     51  C   UNL A   1      43.945  26.930  31.584  1.00  0.00     0.031 C 
ATOM     52  C   UNL A   1      38.365  28.831  28.006  1.00  0.00     0.029 A 
ATOM     53  C   UNL A   1      38.650  29.616  29.204  1.00  0.00     0.049 A 
ATOM     54  H   UNL A   1      40.289  29.430  30.475  1.00  0.00     0.167 HD
ATOM     55  C   UNL A   1      43.638  28.758  33.218  1.00  0.00     0.031 A 
ATOM     56  C   UNL A   1      37.879  30.611  29.686  1.00  0.00     0.031 A 
ATOM     57  C   UNL A   1      42.938  29.897  33.742  1.00  0.00     0.049 A 
ATOM     58  C   UNL A   1      38.293  31.313  30.952  1.00  0.00     0.074 A 
ATOM     59  C   UNL A   1      43.274  30.682  34.829  1.00  0.00     0.029 A 
ATOM     60  N   UNL A   1      41.755  30.403  33.226  1.00  0.00    -0.354 N 
ATOM     61  N   UNL A   1      39.341  31.097  31.711  1.00  0.00    -0.248 NA
ATOM     62  C   UNL A   1      37.425  32.401  31.426  1.00  0.00     0.031 C 
ATOM     63  C   UNL A   1      42.245  31.604  35.028  1.00  0.00     0.029 A 
ATOM     64  C   UNL A   1      41.325  31.466  34.000  1.00  0.00     0.049 A 
ATOM     65  H   UNL A   1      41.290  30.057  32.430  1.00  0.00     0.167 HD
ATOM     66  C   UNL A   1      39.282  32.049  32.722  1.00  0.00     0.074 A 
ATOM     67  C   UNL A   1      38.094  32.840  32.484  1.00  0.00     0.031 C 
ATOM     68  C   UNL A   1      40.146  32.254  33.746  1.00  0.00     0.031 A 
BRANCH  55  69
ATOM     69  C   UNL A   1      44.849  28.247  33.951  1.00  0.00    -0.014 A 
ATOM     70  C   UNL A   1      46.134  28.756  33.702  1.00  0.00     0.009 A 
ATOM     71  C   UNL A   1      44.696  27.236  34.912  1.00  0.00     0.009 A 
ATOM     72  C   UNL A   1      47.245  28.223  34.357  1.00  0.00     0.001 A 
ATOM     73  C   UNL A   1      45.802  26.737  35.600  1.00  0.00     0.001 A 
ATOM     74  C   UNL A   1      47.077  27.218  35.310  1.00  0.00     0.000 A 
ENDBRANCH  55  69
BRANCH  56  75
ATOM     75  C   UNL A   1      36.631  30.996  28.973  1.00  0.00    -0.014 A 
ATOM     76  C   UNL A   1      35.657  30.034  28.658  1.00  0.00     0.009 A 
ATOM     77  C   UNL A   1      36.404  32.331  28.604  1.00  0.00     0.009 A 
ATOM     78  C   UNL A   1      34.497  30.399  27.969  1.00  0.00     0.001 A 
ATOM     79  C   UNL A   1      35.226  32.699  27.950  1.00  0.00     0.001 A 
ATOM     80  C   UNL A   1      34.279  31.732  27.624  1.00  0.00     0.000 A 
ENDBRANCH  56  75
BRANCH  68  81
ATOM     81  C   UNL A   1      39.900  33.426  34.658  1.00  0.00    -0.014 A 
ATOM     82  C   UNL A   1      39.253  33.285  35.894  1.00  0.00     0.009 A 
ATOM     83  C   UNL A   1      40.433  34.678  34.309  1.00  0.00     0.009 A 
ATOM     84  C   UNL A   1      39.131  34.381  36.752  1.00  0.00     0.001 A 
ATOM     85  C   UNL A   1      40.344  35.760  35.184  1.00  0.00     0.001 A 
ATOM     86  C   UNL A   1      39.688  35.612  36.403  1.00  0.00     0.000 A 
ENDBRANCH  68  81
ENDBRANCH  42  43
ENDBRANCH  34  37
ENDBRANCH  32  33
ENDBRANCH  31  32
ENDBRANCH  30  31
ENDBRANCH   1  30
TORSDOF 16
ENDMDL
