MODEL 1
REMARK VINA RESULT:     -10.4      0.000      0.000
REMARK SMILES CS(=O)(=O)CC[C@H](NC(=O)Cc1ccn[nH]1)C(=O)NCCCCNC(=O)c1ccc(-c2c3nc(c(-c4ccccc4)c4ccc([nH]4)c(-c4ccccc4)c4nc(c(-c5ccccc5)c5ccc2[nH]5)C=C4)C=C3)cc1
REMARK SMILES IDX 21 1 20 2 19 3 17 4 18 5 7 7 6 8 5 9 2 10 1 11 3 12 4 13
REMARK SMILES IDX 8 14 9 15 10 17 11 18 12 19 13 20 16 21 14 22 15 23 22 25
REMARK SMILES IDX 23 26 24 27 25 28 26 30 27 31 28 32 74 33 29 34 73 35 30 36
REMARK SMILES IDX 31 37 32 38 67 39 33 40 72 41 66 42 68 43 34 44 71 45 65 46
REMARK SMILES IDX 64 47 35 49 57 50 42 51 56 52 43 53 46 54 55 55 69 56 44 57
REMARK SMILES IDX 45 58 54 60 70 61 47 62 36 63 37 64 41 65 38 66 40 67 39 68
REMARK SMILES IDX 58 69 59 70 63 71 60 72 62 73 61 74 48 75 49 76 53 77 50 78
REMARK SMILES IDX 52 79 51 80
REMARK H PARENT 19 6 8 16 16 24 24 29 68 48 46 59
REMARK Flexibility Score: inf
ROOT
ATOM      1  C   UNL A   1      32.013  29.896  26.919  1.00  0.00     0.023 C 
ENDROOT
BRANCH   1   2
ATOM      2  C   UNL A   1      32.244  29.151  25.604  1.00  0.00     0.116 C 
BRANCH   2   3
ATOM      3  N   UNL A   1      31.279  28.087  25.388  1.00  0.00    -0.354 N 
ATOM      4  C   UNL A   1      30.772  27.602  24.220  1.00  0.00     0.242 C 
ATOM      5  O   UNL A   1      29.925  26.705  24.278  1.00  0.00    -0.273 OA
ATOM      6  H   UNL A   1      30.941  27.654  26.204  1.00  0.00     0.163 HD
BRANCH   4   7
ATOM      7  C   UNL A   1      31.286  28.103  22.857  1.00  0.00     0.172 C 
BRANCH   7   8
ATOM      8  C   UNL A   1      30.169  28.933  22.192  1.00  0.00     0.051 C 
BRANCH   8   9
ATOM      9  C   UNL A   1      29.580  30.056  23.041  1.00  0.00     0.139 C 
BRANCH   9  10
ATOM     10  S   UNL A   1      28.118  30.832  22.370  1.00  0.00     0.147 S 
ATOM     11  C   UNL A   1      28.569  32.546  22.229  1.00  0.00     0.158 C 
ATOM     12  O   UNL A   1      27.077  30.741  23.371  1.00  0.00    -0.229 OA
ATOM     13  O   UNL A   1      27.903  30.305  21.032  1.00  0.00    -0.229 OA
ENDBRANCH   9  10
ENDBRANCH   8   9
ENDBRANCH   7   8
BRANCH   7  14
ATOM     14  N   UNL A   1      31.770  27.001  22.033  1.00  0.00    -0.344 N 
ATOM     15  C   UNL A   1      33.026  26.460  21.986  1.00  0.00     0.226 C 
ATOM     16  H   UNL A   1      31.106  26.593  21.430  1.00  0.00     0.164 HD
ATOM     17  O   UNL A   1      33.312  25.736  21.031  1.00  0.00    -0.275 OA
BRANCH  15  18
ATOM     18  C   UNL A   1      34.002  26.665  23.137  1.00  0.00     0.155 C 
BRANCH  18  19
ATOM     19  C   UNL A   1      33.915  25.569  24.132  1.00  0.00     0.044 A 
ATOM     20  C   UNL A   1      33.890  25.589  25.509  1.00  0.00     0.045 A 
ATOM     21  N   UNL A   1      33.882  24.245  23.775  1.00  0.00    -0.282 N 
ATOM     22  C   UNL A   1      33.816  24.238  25.883  1.00  0.00     0.135 A 
ATOM     23  N   UNL A   1      33.786  23.420  24.830  1.00  0.00    -0.184 NA
ATOM     24  H   UNL A   1      33.925  23.932  22.842  1.00  0.00     0.190 HD
ENDBRANCH  18  19
ENDBRANCH  15  18
ENDBRANCH   7  14
ENDBRANCH   4   7
ENDBRANCH   2   3
ENDBRANCH   1   2
BRANCH   1  25
ATOM     25  C   UNL A   1      31.812  31.400  26.773  1.00  0.00     0.023 C 
BRANCH  25  26
ATOM     26  C   UNL A   1      32.975  32.238  27.276  1.00  0.00     0.116 C 
BRANCH  26  27
ATOM     27  N   UNL A   1      32.588  33.601  27.606  1.00  0.00    -0.352 N 
ATOM     28  C   UNL A   1      33.177  34.466  28.494  1.00  0.00     0.251 C 
ATOM     29  H   UNL A   1      31.800  33.949  27.131  1.00  0.00     0.163 HD
ATOM     30  O   UNL A   1      32.660  35.545  28.757  1.00  0.00    -0.269 OA
BRANCH  28  31
ATOM     31  C   UNL A   1      34.427  34.054  29.157  1.00  0.00     0.039 A 
ATOM     32  C   UNL A   1      34.351  33.312  30.336  1.00  0.00     0.014 A 
ATOM     33  C   UNL A   1      35.661  34.339  28.567  1.00  0.00     0.014 A 
ATOM     34  C   UNL A   1      35.520  32.799  30.893  1.00  0.00     0.010 A 
ATOM     35  C   UNL A   1      36.811  33.750  29.072  1.00  0.00     0.010 A 
ATOM     36  C   UNL A   1      36.753  32.981  30.245  1.00  0.00    -0.014 A 
BRANCH  36  37
ATOM     37  C   UNL A   1      37.998  32.384  30.782  1.00  0.00     0.031 A 
ATOM     38  C   UNL A   1      38.535  31.114  30.185  1.00  0.00     0.074 A 
ATOM     39  C   UNL A   1      38.608  32.951  31.840  1.00  0.00     0.049 A 
ATOM     40  N   UNL A   1      39.578  30.410  30.545  1.00  0.00    -0.248 NA
ATOM     41  C   UNL A   1      37.787  30.541  29.054  1.00  0.00     0.031 C 
ATOM     42  C   UNL A   1      38.159  34.162  32.533  1.00  0.00     0.029 A 
ATOM     43  N   UNL A   1      39.739  32.580  32.521  1.00  0.00    -0.354 N 
ATOM     44  C   UNL A   1      39.599  29.310  29.698  1.00  0.00     0.074 A 
ATOM     45  C   UNL A   1      38.432  29.405  28.849  1.00  0.00     0.031 C 
ATOM     46  C   UNL A   1      39.026  34.453  33.515  1.00  0.00     0.029 A 
ATOM     47  C   UNL A   1      40.065  33.429  33.551  1.00  0.00     0.049 A 
ATOM     48  H   UNL A   1      40.269  31.782  32.292  1.00  0.00     0.167 HD
ATOM     49  C   UNL A   1      40.520  28.322  29.616  1.00  0.00     0.031 A 
ATOM     50  C   UNL A   1      41.084  33.383  34.428  1.00  0.00     0.031 A 
ATOM     51  C   UNL A   1      41.683  28.235  30.456  1.00  0.00     0.049 A 
ATOM     52  C   UNL A   1      42.082  32.262  34.330  1.00  0.00     0.074 A 
ATOM     53  C   UNL A   1      42.705  27.304  30.419  1.00  0.00     0.029 A 
ATOM     54  N   UNL A   1      41.976  29.113  31.488  1.00  0.00    -0.354 N 
ATOM     55  N   UNL A   1      42.127  31.268  33.478  1.00  0.00    -0.248 NA
ATOM     56  C   UNL A   1      43.175  32.266  35.312  1.00  0.00     0.031 C 
ATOM     57  C   UNL A   1      43.588  27.585  31.466  1.00  0.00     0.029 A 
ATOM     58  C   UNL A   1      43.149  28.729  32.114  1.00  0.00     0.049 A 
ATOM     59  H   UNL A   1      41.431  29.894  31.739  1.00  0.00     0.167 HD
ATOM     60  C   UNL A   1      43.269  30.545  33.800  1.00  0.00     0.074 A 
ATOM     61  C   UNL A   1      43.895  31.227  34.914  1.00  0.00     0.031 C 
ATOM     62  C   UNL A   1      43.757  29.419  33.223  1.00  0.00     0.031 A 
BRANCH  49  63
ATOM     63  C   UNL A   1      40.294  27.252  28.583  1.00  0.00    -0.014 A 
ATOM     64  C   UNL A   1      39.543  26.102  28.875  1.00  0.00     0.009 A 
ATOM     65  C   UNL A   1      40.819  27.408  27.291  1.00  0.00     0.009 A 
ATOM     66  C   UNL A   1      39.359  25.111  27.909  1.00  0.00     0.001 A 
ATOM     67  C   UNL A   1      40.605  26.431  26.316  1.00  0.00     0.001 A 
ATOM     68  C   UNL A   1      39.884  25.279  26.629  1.00  0.00     0.000 A 
ENDBRANCH  49  63
BRANCH  50  69
ATOM     69  C   UNL A   1      41.225  34.438  35.465  1.00  0.00    -0.014 A 
ATOM     70  C   UNL A   1      40.582  34.309  36.706  1.00  0.00     0.009 A 
ATOM     71  C   UNL A   1      41.997  35.586  35.220  1.00  0.00     0.009 A 
ATOM     72  C   UNL A   1      40.685  35.318  37.667  1.00  0.00     0.001 A 
ATOM     73  C   UNL A   1      42.122  36.578  36.193  1.00  0.00     0.001 A 
ATOM     74  C   UNL A   1      41.457  36.449  37.411  1.00  0.00     0.000 A 
ENDBRANCH  50  69
BRANCH  62  75
ATOM     75  C   UNL A   1      45.050  28.876  33.763  1.00  0.00    -0.014 A 
ATOM     76  C   UNL A   1      46.290  29.330  33.288  1.00  0.00     0.009 A 
ATOM     77  C   UNL A   1      45.024  27.925  34.796  1.00  0.00     0.009 A 
ATOM     78  C   UNL A   1      47.477  28.815  33.812  1.00  0.00     0.001 A 
ATOM     79  C   UNL A   1      46.212  27.436  35.341  1.00  0.00     0.001 A 
ATOM     80  C   UNL A   1      47.437  27.874  34.841  1.00  0.00     0.000 A 
ENDBRANCH  62  75
ENDBRANCH  36  37
ENDBRANCH  28  31
ENDBRANCH  26  27
ENDBRANCH  25  26
ENDBRANCH   1  25
TORSDOF 17
ENDMDL
MODEL 2
REMARK VINA RESULT:     -10.4      0.645      6.003
REMARK SMILES CS(=O)(=O)CC[C@H](NC(=O)Cc1ccn[nH]1)C(=O)NCCCCNC(=O)c1ccc(-c2c3nc(c(-c4ccccc4)c4ccc([nH]4)c(-c4ccccc4)c4nc(c(-c5ccccc5)c5ccc2[nH]5)C=C4)C=C3)cc1
REMARK SMILES IDX 21 1 20 2 19 3 17 4 18 5 7 7 6 8 5 9 2 10 1 11 3 12 4 13
REMARK SMILES IDX 8 14 9 15 10 17 11 18 12 19 13 20 16 21 14 22 15 23 22 25
REMARK SMILES IDX 23 26 24 27 25 28 26 30 27 31 28 32 74 33 29 34 73 35 30 36
REMARK SMILES IDX 31 37 32 38 67 39 33 40 72 41 66 42 68 43 34 44 71 45 65 46
REMARK SMILES IDX 64 47 35 49 57 50 42 51 56 52 43 53 46 54 55 55 69 56 44 57
REMARK SMILES IDX 45 58 54 60 70 61 47 62 36 63 37 64 41 65 38 66 40 67 39 68
REMARK SMILES IDX 58 69 59 70 63 71 60 72 62 73 61 74 48 75 49 76 53 77 50 78
REMARK SMILES IDX 52 79 51 80
REMARK H PARENT 19 6 8 16 16 24 24 29 68 48 46 59
REMARK Flexibility Score: inf
ROOT
ATOM      1  C   UNL A   1      32.007  30.212  27.012  1.00  0.00     0.023 C 
ENDROOT
BRANCH   1   2
ATOM      2  C   UNL A   1      32.250  29.534  25.664  1.00  0.00     0.116 C 
BRANCH   2   3
ATOM      3  N   UNL A   1      31.387  28.384  25.452  1.00  0.00    -0.354 N 
ATOM      4  C   UNL A   1      30.917  27.857  24.288  1.00  0.00     0.242 C 
ATOM      5  O   UNL A   1      30.159  26.884  24.350  1.00  0.00    -0.273 OA
ATOM      6  H   UNL A   1      31.101  27.918  26.270  1.00  0.00     0.163 HD
BRANCH   4   7
ATOM      7  C   UNL A   1      31.366  28.411  22.921  1.00  0.00     0.172 C 
BRANCH   7   8
ATOM      8  C   UNL A   1      30.212  29.247  22.332  1.00  0.00     0.051 C 
BRANCH   8   9
ATOM      9  C   UNL A   1      29.477  30.152  23.317  1.00  0.00     0.139 C 
BRANCH   9  10
ATOM     10  S   UNL A   1      27.851  30.678  22.799  1.00  0.00     0.147 S 
ATOM     11  C   UNL A   1      27.929  30.627  21.023  1.00  0.00     0.158 C 
ATOM     12  O   UNL A   1      27.697  32.064  23.184  1.00  0.00    -0.229 OA
ATOM     13  O   UNL A   1      26.892  29.679  23.242  1.00  0.00    -0.229 OA
ENDBRANCH   9  10
ENDBRANCH   8   9
ENDBRANCH   7   8
BRANCH   7  14
ATOM     14  N   UNL A   1      31.828  27.343  22.041  1.00  0.00    -0.344 N 
ATOM     15  C   UNL A   1      33.047  26.721  22.023  1.00  0.00     0.226 C 
ATOM     16  H   UNL A   1      31.178  27.028  21.371  1.00  0.00     0.164 HD
ATOM     17  O   UNL A   1      33.344  26.053  21.030  1.00  0.00    -0.275 OA
BRANCH  15  18
ATOM     18  C   UNL A   1      33.961  26.770  23.239  1.00  0.00     0.155 C 
BRANCH  18  19
ATOM     19  C   UNL A   1      33.868  25.530  24.047  1.00  0.00     0.044 A 
ATOM     20  C   UNL A   1      33.597  25.332  25.383  1.00  0.00     0.045 A 
ATOM     21  N   UNL A   1      34.099  24.284  23.521  1.00  0.00    -0.282 N 
ATOM     22  C   UNL A   1      33.664  23.940  25.557  1.00  0.00     0.135 A 
ATOM     23  N   UNL A   1      33.945  23.299  24.421  1.00  0.00    -0.184 NA
ATOM     24  H   UNL A   1      34.352  24.129  22.583  1.00  0.00     0.190 HD
ENDBRANCH  18  19
ENDBRANCH  15  18
ENDBRANCH   7  14
ENDBRANCH   4   7
ENDBRANCH   2   3
ENDBRANCH   1   2
BRANCH   1  25
ATOM     25  C   UNL A   1      31.709  31.705  26.930  1.00  0.00     0.023 C 
BRANCH  25  26
ATOM     26  C   UNL A   1      32.910  32.597  27.196  1.00  0.00     0.116 C 
BRANCH  26  27
ATOM     27  N   UNL A   1      32.539  33.901  27.723  1.00  0.00    -0.352 N 
ATOM     28  C   UNL A   1      33.162  34.638  28.698  1.00  0.00     0.251 C 
ATOM     29  H   UNL A   1      31.735  34.309  27.328  1.00  0.00     0.163 HD
ATOM     30  O   UNL A   1      32.658  35.670  29.124  1.00  0.00    -0.269 OA
BRANCH  28  31
ATOM     31  C   UNL A   1      34.434  34.143  29.252  1.00  0.00     0.039 A 
ATOM     32  C   UNL A   1      34.417  33.458  30.467  1.00  0.00     0.014 A 
ATOM     33  C   UNL A   1      35.621  34.294  28.530  1.00  0.00     0.014 A 
ATOM     34  C   UNL A   1      35.590  32.865  30.930  1.00  0.00     0.010 A 
ATOM     35  C   UNL A   1      36.763  33.625  28.946  1.00  0.00     0.010 A 
ATOM     36  C   UNL A   1      36.761  32.910  30.154  1.00  0.00    -0.014 A 
BRANCH  36  37
ATOM     37  C   UNL A   1      37.999  32.226  30.593  1.00  0.00     0.031 A 
ATOM     38  C   UNL A   1      38.858  32.846  31.659  1.00  0.00     0.074 A 
ATOM     39  C   UNL A   1      38.380  31.083  29.992  1.00  0.00     0.049 A 
ATOM     40  N   UNL A   1      40.001  32.431  32.143  1.00  0.00    -0.248 NA
ATOM     41  C   UNL A   1      38.387  34.116  32.238  1.00  0.00     0.031 C 
ATOM     42  C   UNL A   1      37.652  30.405  28.915  1.00  0.00     0.029 A 
ATOM     43  N   UNL A   1      39.478  30.289  30.201  1.00  0.00    -0.354 N 
ATOM     44  C   UNL A   1      40.388  33.394  33.066  1.00  0.00     0.074 A 
ATOM     45  C   UNL A   1      39.394  34.443  33.030  1.00  0.00     0.031 C 
ATOM     46  C   UNL A   1      38.304  29.280  28.586  1.00  0.00     0.029 A 
ATOM     47  C   UNL A   1      39.516  29.178  29.393  1.00  0.00     0.049 A 
ATOM     48  H   UNL A   1      40.172  30.493  30.868  1.00  0.00     0.167 HD
ATOM     49  C   UNL A   1      41.463  33.393  33.889  1.00  0.00     0.031 A 
ATOM     50  C   UNL A   1      40.428  28.192  29.309  1.00  0.00     0.031 A 
ATOM     51  C   UNL A   1      42.445  32.345  33.927  1.00  0.00     0.049 A 
ATOM     52  C   UNL A   1      41.624  28.226  30.219  1.00  0.00     0.074 A 
ATOM     53  C   UNL A   1      43.543  32.221  34.760  1.00  0.00     0.029 A 
ATOM     54  N   UNL A   1      42.449  31.238  33.092  1.00  0.00    -0.354 N 
ATOM     55  N   UNL A   1      41.941  29.106  31.137  1.00  0.00    -0.248 NA
ATOM     56  C   UNL A   1      42.584  27.121  30.086  1.00  0.00     0.031 C 
ATOM     57  C   UNL A   1      44.243  31.069  34.392  1.00  0.00     0.029 A 
ATOM     58  C   UNL A   1      43.546  30.441  33.371  1.00  0.00     0.049 A 
ATOM     59  H   UNL A   1      41.773  31.047  32.402  1.00  0.00     0.167 HD
ATOM     60  C   UNL A   1      43.118  28.647  31.712  1.00  0.00     0.074 A 
ATOM     61  C   UNL A   1      43.449  27.401  31.050  1.00  0.00     0.031 C 
ATOM     62  C   UNL A   1      43.860  29.205  32.701  1.00  0.00     0.031 A 
BRANCH  49  63
ATOM     63  C   UNL A   1      41.630  34.573  34.807  1.00  0.00    -0.014 A 
ATOM     64  C   UNL A   1      42.377  35.698  34.422  1.00  0.00     0.009 A 
ATOM     65  C   UNL A   1      41.011  34.570  36.066  1.00  0.00     0.009 A 
ATOM     66  C   UNL A   1      42.536  36.776  35.294  1.00  0.00     0.001 A 
ATOM     67  C   UNL A   1      41.143  35.664  36.923  1.00  0.00     0.001 A 
ATOM     68  C   UNL A   1      41.914  36.761  36.542  1.00  0.00     0.000 A 
ENDBRANCH  49  63
BRANCH  50  69
ATOM     69  C   UNL A   1      40.239  27.080  28.342  1.00  0.00    -0.014 A 
ATOM     70  C   UNL A   1      40.779  27.160  27.049  1.00  0.00     0.009 A 
ATOM     71  C   UNL A   1      39.511  25.934  28.701  1.00  0.00     0.009 A 
ATOM     72  C   UNL A   1      40.570  26.131  26.128  1.00  0.00     0.001 A 
ATOM     73  C   UNL A   1      39.330  24.894  27.788  1.00  0.00     0.001 A 
ATOM     74  C   UNL A   1      39.850  24.997  26.499  1.00  0.00     0.000 A 
ENDBRANCH  50  69
BRANCH  62  75
ATOM     75  C   UNL A   1      45.080  28.452  33.153  1.00  0.00    -0.014 A 
ATOM     76  C   UNL A   1      46.338  28.685  32.580  1.00  0.00     0.009 A 
ATOM     77  C   UNL A   1      44.971  27.525  34.202  1.00  0.00     0.009 A 
ATOM     78  C   UNL A   1      47.458  27.979  33.024  1.00  0.00     0.001 A 
ATOM     79  C   UNL A   1      46.097  26.844  34.666  1.00  0.00     0.001 A 
ATOM     80  C   UNL A   1      47.337  27.064  34.070  1.00  0.00     0.000 A 
ENDBRANCH  62  75
ENDBRANCH  36  37
ENDBRANCH  28  31
ENDBRANCH  26  27
ENDBRANCH  25  26
ENDBRANCH   1  25
TORSDOF 17
ENDMDL
MODEL 3
REMARK VINA RESULT:     -10.2      4.819      9.250
REMARK SMILES CS(=O)(=O)CC[C@H](NC(=O)Cc1ccn[nH]1)C(=O)NCCCCNC(=O)c1ccc(-c2c3nc(c(-c4ccccc4)c4ccc([nH]4)c(-c4ccccc4)c4nc(c(-c5ccccc5)c5ccc2[nH]5)C=C4)C=C3)cc1
REMARK SMILES IDX 21 1 20 2 19 3 17 4 18 5 7 7 6 8 5 9 2 10 1 11 3 12 4 13
REMARK SMILES IDX 8 14 9 15 10 17 11 18 12 19 13 20 16 21 14 22 15 23 22 25
REMARK SMILES IDX 23 26 24 27 25 28 26 30 27 31 28 32 74 33 29 34 73 35 30 36
REMARK SMILES IDX 31 37 32 38 67 39 33 40 72 41 66 42 68 43 34 44 71 45 65 46
REMARK SMILES IDX 64 47 35 49 57 50 42 51 56 52 43 53 46 54 55 55 69 56 44 57
REMARK SMILES IDX 45 58 54 60 70 61 47 62 36 63 37 64 41 65 38 66 40 67 39 68
REMARK SMILES IDX 58 69 59 70 63 71 60 72 62 73 61 74 48 75 49 76 53 77 50 78
REMARK SMILES IDX 52 79 51 80
REMARK H PARENT 19 6 8 16 16 24 24 29 68 48 46 59
REMARK Flexibility Score: inf
ROOT
ATOM      1  C   UNL A   1      36.695  20.393  25.011  1.00  0.00     0.023 C 
ENDROOT
BRANCH   1   2
ATOM      2  C   UNL A   1      36.580  21.863  25.413  1.00  0.00     0.116 C 
BRANCH   2   3
ATOM      3  N   UNL A   1      35.678  22.068  26.533  1.00  0.00    -0.354 N 
ATOM      4  C   UNL A   1      34.607  22.904  26.640  1.00  0.00     0.242 C 
ATOM      5  O   UNL A   1      33.997  22.938  27.713  1.00  0.00    -0.273 OA
ATOM      6  H   UNL A   1      35.867  21.524  27.330  1.00  0.00     0.163 HD
BRANCH   4   7
ATOM      7  C   UNL A   1      34.121  23.738  25.439  1.00  0.00     0.172 C 
BRANCH   7   8
ATOM      8  C   UNL A   1      34.300  25.231  25.780  1.00  0.00     0.051 C 
BRANCH   8   9
ATOM      9  C   UNL A   1      33.013  26.024  25.986  1.00  0.00     0.139 C 
BRANCH   9  10
ATOM     10  S   UNL A   1      32.414  26.891  24.543  1.00  0.00     0.147 S 
ATOM     11  C   UNL A   1      33.618  28.175  24.285  1.00  0.00     0.158 C 
ATOM     12  O   UNL A   1      31.169  27.534  24.906  1.00  0.00    -0.229 OA
ATOM     13  O   UNL A   1      32.471  25.979  23.413  1.00  0.00    -0.229 OA
ENDBRANCH   9  10
ENDBRANCH   8   9
ENDBRANCH   7   8
BRANCH   7  14
ATOM     14  N   UNL A   1      32.758  23.380  25.060  1.00  0.00    -0.344 N 
ATOM     15  C   UNL A   1      32.345  22.472  24.123  1.00  0.00     0.226 C 
ATOM     16  H   UNL A   1      32.041  23.854  25.541  1.00  0.00     0.164 HD
ATOM     17  O   UNL A   1      31.173  22.518  23.746  1.00  0.00    -0.275 OA
BRANCH  15  18
ATOM     18  C   UNL A   1      33.282  21.373  23.641  1.00  0.00     0.155 C 
BRANCH  18  19
ATOM     19  C   UNL A   1      32.911  20.051  24.201  1.00  0.00     0.044 A 
ATOM     20  C   UNL A   1      32.552  18.871  23.588  1.00  0.00     0.045 A 
ATOM     21  N   UNL A   1      32.832  19.813  25.550  1.00  0.00    -0.282 N 
ATOM     22  C   UNL A   1      32.302  17.982  24.646  1.00  0.00     0.135 A 
ATOM     23  N   UNL A   1      32.495  18.546  25.839  1.00  0.00    -0.184 NA
ATOM     24  H   UNL A   1      33.003  20.500  26.234  1.00  0.00     0.190 HD
ENDBRANCH  18  19
ENDBRANCH  15  18
ENDBRANCH   7  14
ENDBRANCH   4   7
ENDBRANCH   2   3
ENDBRANCH   1   2
BRANCH   1  25
ATOM     25  C   UNL A   1      38.106  19.936  24.659  1.00  0.00     0.023 C 
BRANCH  25  26
ATOM     26  C   UNL A   1      39.123  20.138  25.770  1.00  0.00     0.116 C 
BRANCH  26  27
ATOM     27  N   UNL A   1      40.104  19.065  25.839  1.00  0.00    -0.352 N 
ATOM     28  C   UNL A   1      41.448  19.152  26.104  1.00  0.00     0.251 C 
ATOM     29  H   UNL A   1      39.759  18.159  25.672  1.00  0.00     0.163 HD
ATOM     30  O   UNL A   1      42.172  18.168  26.005  1.00  0.00    -0.269 OA
BRANCH  28  31
ATOM     31  C   UNL A   1      42.011  20.461  26.475  1.00  0.00     0.039 A 
ATOM     32  C   UNL A   1      42.488  21.299  25.466  1.00  0.00     0.014 A 
ATOM     33  C   UNL A   1      41.994  20.882  27.808  1.00  0.00     0.014 A 
ATOM     34  C   UNL A   1      42.892  22.592  25.790  1.00  0.00     0.010 A 
ATOM     35  C   UNL A   1      42.308  22.198  28.112  1.00  0.00     0.010 A 
ATOM     36  C   UNL A   1      42.768  23.064  27.108  1.00  0.00    -0.014 A 
BRANCH  36  37
ATOM     37  C   UNL A   1      43.125  24.458  27.461  1.00  0.00     0.031 A 
ATOM     38  C   UNL A   1      44.564  24.889  27.438  1.00  0.00     0.074 A 
ATOM     39  C   UNL A   1      42.164  25.313  27.859  1.00  0.00     0.049 A 
ATOM     40  N   UNL A   1      45.084  26.046  27.761  1.00  0.00    -0.248 NA
ATOM     41  C   UNL A   1      45.555  23.880  27.026  1.00  0.00     0.031 C 
ATOM     42  C   UNL A   1      40.736  24.999  27.962  1.00  0.00     0.029 A 
ATOM     43  N   UNL A   1      42.245  26.624  28.252  1.00  0.00    -0.354 N 
ATOM     44  C   UNL A   1      46.456  25.897  27.607  1.00  0.00     0.074 A 
ATOM     45  C   UNL A   1      46.694  24.524  27.223  1.00  0.00     0.031 C 
ATOM     46  C   UNL A   1      40.073  26.097  28.355  1.00  0.00     0.029 A 
ATOM     47  C   UNL A   1      41.029  27.177  28.574  1.00  0.00     0.049 A 
ATOM     48  H   UNL A   1      43.092  27.122  28.298  1.00  0.00     0.167 HD
ATOM     49  C   UNL A   1      47.430  26.827  27.747  1.00  0.00     0.031 A 
ATOM     50  C   UNL A   1      40.722  28.416  29.002  1.00  0.00     0.031 A 
ATOM     51  C   UNL A   1      47.188  28.193  28.121  1.00  0.00     0.049 A 
ATOM     52  C   UNL A   1      41.824  29.424  29.171  1.00  0.00     0.074 A 
ATOM     53  C   UNL A   1      48.098  29.228  28.239  1.00  0.00     0.029 A 
ATOM     54  N   UNL A   1      45.944  28.714  28.440  1.00  0.00    -0.354 N 
ATOM     55  N   UNL A   1      43.110  29.289  28.953  1.00  0.00    -0.248 NA
ATOM     56  C   UNL A   1      41.429  30.761  29.636  1.00  0.00     0.031 C 
ATOM     57  C   UNL A   1      47.413  30.362  28.685  1.00  0.00     0.029 A 
ATOM     58  C   UNL A   1      46.066  30.050  28.782  1.00  0.00     0.049 A 
ATOM     59  H   UNL A   1      45.098  28.210  28.425  1.00  0.00     0.167 HD
ATOM     60  C   UNL A   1      43.673  30.529  29.224  1.00  0.00     0.074 A 
ATOM     61  C   UNL A   1      42.586  31.407  29.606  1.00  0.00     0.031 C 
ATOM     62  C   UNL A   1      44.973  30.908  29.161  1.00  0.00     0.031 A 
BRANCH  49  63
ATOM     63  C   UNL A   1      48.846  26.385  27.502  1.00  0.00    -0.014 A 
ATOM     64  C   UNL A   1      49.409  26.419  26.215  1.00  0.00     0.009 A 
ATOM     65  C   UNL A   1      49.638  25.951  28.576  1.00  0.00     0.009 A 
ATOM     66  C   UNL A   1      50.720  25.988  26.004  1.00  0.00     0.001 A 
ATOM     67  C   UNL A   1      50.960  25.553  28.367  1.00  0.00     0.001 A 
ATOM     68  C   UNL A   1      51.496  25.561  27.080  1.00  0.00     0.000 A 
ENDBRANCH  49  63
BRANCH  50  69
ATOM     69  C   UNL A   1      39.309  28.780  29.283  1.00  0.00    -0.014 A 
ATOM     70  C   UNL A   1      38.766  28.593  30.564  1.00  0.00     0.009 A 
ATOM     71  C   UNL A   1      38.490  29.309  28.273  1.00  0.00     0.009 A 
ATOM     72  C   UNL A   1      37.428  28.900  30.819  1.00  0.00     0.001 A 
ATOM     73  C   UNL A   1      37.161  29.644  28.538  1.00  0.00     0.001 A 
ATOM     74  C   UNL A   1      36.628  29.429  29.809  1.00  0.00     0.000 A 
ENDBRANCH  50  69
BRANCH  62  75
ATOM     75  C   UNL A   1      45.286  32.344  29.476  1.00  0.00    -0.014 A 
ATOM     76  C   UNL A   1      45.263  33.333  28.481  1.00  0.00     0.009 A 
ATOM     77  C   UNL A   1      45.564  32.717  30.800  1.00  0.00     0.009 A 
ATOM     78  C   UNL A   1      45.550  34.662  28.801  1.00  0.00     0.001 A 
ATOM     79  C   UNL A   1      45.818  34.051  31.123  1.00  0.00     0.001 A 
ATOM     80  C   UNL A   1      45.821  35.020  30.122  1.00  0.00     0.000 A 
ENDBRANCH  62  75
ENDBRANCH  36  37
ENDBRANCH  28  31
ENDBRANCH  26  27
ENDBRANCH  25  26
ENDBRANCH   1  25
TORSDOF 17
ENDMDL
