MODEL 1
REMARK VINA RESULT:     -10.4      0.000      0.000
REMARK SMILES CC[C@@](CC(F)(F)F)(C(=O)NCCCCNC(=O)c1ccc(-c2c3nc(c(-c4ccccc4)c4ccc([nH]4)c(-c4ccccc4)c4nc(c(-c5ccccc5)c5ccc2[nH]5)C=C4)C=C3)cc1)c1ccccc1
REMARK SMILES IDX 13 1 12 2 11 3 9 4 10 5 3 7 2 8 1 9 4 10 5 11 6 12 7 13 8 14
REMARK SMILES IDX 67 15 68 16 72 17 69 18 71 19 70 20 14 21 15 22 16 23 17 24
REMARK SMILES IDX 18 26 19 27 20 28 66 29 21 30 65 31 22 32 23 33 24 34 59 35
REMARK SMILES IDX 25 36 64 37 58 38 60 39 26 40 63 41 57 42 56 43 27 45 49 46
REMARK SMILES IDX 34 47 48 48 35 49 38 50 47 51 61 52 36 53 37 54 46 56 62 57
REMARK SMILES IDX 39 58 28 59 29 60 33 61 30 62 32 63 31 64 50 65 51 66 55 67
REMARK SMILES IDX 52 68 54 69 53 70 40 71 41 72 45 73 42 74 44 75 43 76
REMARK H PARENT 11 6 16 25 60 44 38 55
REMARK Flexibility Score: inf
ROOT
ATOM      1  C   UNL A   1      36.990  21.839  24.281  1.00  0.00     0.023 C 
ENDROOT
BRANCH   1   2
ATOM      2  C   UNL A   1      36.531  22.910  25.265  1.00  0.00     0.116 C 
BRANCH   2   3
ATOM      3  N   UNL A   1      35.771  22.369  26.381  1.00  0.00    -0.355 N 
ATOM      4  C   UNL A   1      34.442  22.202  26.647  1.00  0.00     0.230 C 
ATOM      5  O   UNL A   1      34.253  21.512  27.652  1.00  0.00    -0.274 OA
ATOM      6  H   UNL A   1      36.347  22.052  27.113  1.00  0.00     0.163 HD
BRANCH   4   7
ATOM      7  C   UNL A   1      33.278  22.774  25.747  1.00  0.00     0.082 C 
BRANCH   7   8
ATOM      8  C   UNL A   1      33.199  21.870  24.460  1.00  0.00     0.019 C 
ATOM      9  C   UNL A   1      32.835  20.395  24.600  1.00  0.00     0.005 C 
ENDBRANCH   7   8
BRANCH   7  10
ATOM     10  C   UNL A   1      32.006  22.968  26.633  1.00  0.00     0.137 C 
BRANCH  10  11
ATOM     11  C   UNL A   1      30.632  23.111  26.031  1.00  0.00     0.390 C 
ATOM     12  F   UNL A   1      29.800  22.115  26.384  1.00  0.00    -0.171 F 
ATOM     13  F   UNL A   1      30.066  24.263  26.471  1.00  0.00    -0.171 F 
ATOM     14  F   UNL A   1      30.663  23.192  24.687  1.00  0.00    -0.171 F 
ENDBRANCH  10  11
ENDBRANCH   7  10
BRANCH   7  15
ATOM     15  C   UNL A   1      33.502  24.257  25.209  1.00  0.00    -0.032 A 
ATOM     16  C   UNL A   1      33.534  25.408  26.014  1.00  0.00     0.005 A 
ATOM     17  C   UNL A   1      33.559  24.484  23.812  1.00  0.00     0.005 A 
ATOM     18  C   UNL A   1      33.654  26.693  25.463  1.00  0.00     0.000 A 
ATOM     19  C   UNL A   1      33.683  25.764  23.259  1.00  0.00     0.000 A 
ATOM     20  C   UNL A   1      33.733  26.872  24.088  1.00  0.00     0.000 A 
ENDBRANCH   7  15
ENDBRANCH   4   7
ENDBRANCH   2   3
ENDBRANCH   1   2
BRANCH   1  21
ATOM     21  C   UNL A   1      37.633  20.604  24.911  1.00  0.00     0.023 C 
BRANCH  21  22
ATOM     22  C   UNL A   1      38.902  20.854  25.718  1.00  0.00     0.116 C 
BRANCH  22  23
ATOM     23  N   UNL A   1      39.843  19.744  25.685  1.00  0.00    -0.352 N 
ATOM     24  C   UNL A   1      41.174  19.732  26.033  1.00  0.00     0.251 C 
ATOM     25  H   UNL A   1      39.477  18.886  25.370  1.00  0.00     0.163 HD
ATOM     26  O   UNL A   1      41.855  18.729  25.871  1.00  0.00    -0.269 OA
BRANCH  24  27
ATOM     27  C   UNL A   1      41.786  20.964  26.570  1.00  0.00     0.039 A 
ATOM     28  C   UNL A   1      42.219  21.947  25.676  1.00  0.00     0.014 A 
ATOM     29  C   UNL A   1      41.878  21.166  27.949  1.00  0.00     0.014 A 
ATOM     30  C   UNL A   1      42.670  23.174  26.168  1.00  0.00     0.010 A 
ATOM     31  C   UNL A   1      42.260  22.411  28.434  1.00  0.00     0.010 A 
ATOM     32  C   UNL A   1      42.654  23.428  27.548  1.00  0.00    -0.014 A 
BRANCH  32  33
ATOM     33  C   UNL A   1      43.044  24.747  28.103  1.00  0.00     0.031 A 
ATOM     34  C   UNL A   1      41.990  25.786  28.363  1.00  0.00     0.074 A 
ATOM     35  C   UNL A   1      44.346  25.048  28.274  1.00  0.00     0.049 A 
ATOM     36  N   UNL A   1      42.130  27.040  28.703  1.00  0.00    -0.248 NA
ATOM     37  C   UNL A   1      40.591  25.360  28.186  1.00  0.00     0.031 C 
ATOM     38  C   UNL A   1      45.469  24.144  28.024  1.00  0.00     0.029 A 
ATOM     39  N   UNL A   1      44.942  26.215  28.682  1.00  0.00    -0.354 N 
ATOM     40  C   UNL A   1      40.844  27.564  28.742  1.00  0.00     0.074 A 
ATOM     41  C   UNL A   1      39.941  26.501  28.357  1.00  0.00     0.031 C 
ATOM     42  C   UNL A   1      46.618  24.784  28.298  1.00  0.00     0.029 A 
ATOM     43  C   UNL A   1      46.315  26.153  28.701  1.00  0.00     0.049 A 
ATOM     44  H   UNL A   1      44.436  27.020  28.935  1.00  0.00     0.167 HD
ATOM     45  C   UNL A   1      40.448  28.814  29.079  1.00  0.00     0.031 A 
ATOM     46  C   UNL A   1      47.226  27.097  28.999  1.00  0.00     0.031 A 
ATOM     47  C   UNL A   1      41.343  29.863  29.486  1.00  0.00     0.049 A 
ATOM     48  C   UNL A   1      46.764  28.474  29.385  1.00  0.00     0.074 A 
ATOM     49  C   UNL A   1      41.036  31.145  29.904  1.00  0.00     0.029 A 
ATOM     50  N   UNL A   1      42.723  29.747  29.530  1.00  0.00    -0.354 N 
ATOM     51  N   UNL A   1      45.541  28.942  29.464  1.00  0.00    -0.248 NA
ATOM     52  C   UNL A   1      47.807  29.450  29.731  1.00  0.00     0.031 C 
ATOM     53  C   UNL A   1      42.234  31.817  30.169  1.00  0.00     0.029 A 
ATOM     54  C   UNL A   1      43.284  30.938  29.958  1.00  0.00     0.049 A 
ATOM     55  H   UNL A   1      43.231  28.937  29.292  1.00  0.00     0.167 HD
ATOM     56  C   UNL A   1      45.666  30.256  29.896  1.00  0.00     0.074 A 
ATOM     57  C   UNL A   1      47.082  30.509  30.068  1.00  0.00     0.031 C 
ATOM     58  C   UNL A   1      44.694  31.169  30.131  1.00  0.00     0.031 A 
BRANCH  45  59
ATOM     59  C   UNL A   1      38.978  29.110  29.007  1.00  0.00    -0.014 A 
ATOM     60  C   UNL A   1      38.389  29.591  27.826  1.00  0.00     0.009 A 
ATOM     61  C   UNL A   1      38.169  28.899  30.133  1.00  0.00     0.009 A 
ATOM     62  C   UNL A   1      37.027  29.897  27.789  1.00  0.00     0.001 A 
ATOM     63  C   UNL A   1      36.802  29.179  30.085  1.00  0.00     0.001 A 
ATOM     64  C   UNL A   1      36.235  29.689  28.918  1.00  0.00     0.000 A 
ENDBRANCH  45  59
BRANCH  46  65
ATOM     65  C   UNL A   1      48.674  26.768  28.962  1.00  0.00    -0.014 A 
ATOM     66  C   UNL A   1      49.382  26.821  27.752  1.00  0.00     0.009 A 
ATOM     67  C   UNL A   1      49.356  26.407  30.134  1.00  0.00     0.009 A 
ATOM     68  C   UNL A   1      50.740  26.499  27.711  1.00  0.00     0.001 A 
ATOM     69  C   UNL A   1      50.721  26.109  30.094  1.00  0.00     0.001 A 
ATOM     70  C   UNL A   1      51.409  26.147  28.882  1.00  0.00     0.000 A 
ENDBRANCH  46  65
BRANCH  58  71
ATOM     71  C   UNL A   1      45.122  32.513  30.645  1.00  0.00    -0.014 A 
ATOM     72  C   UNL A   1      45.392  33.575  29.770  1.00  0.00     0.009 A 
ATOM     73  C   UNL A   1      45.203  32.729  32.029  1.00  0.00     0.009 A 
ATOM     74  C   UNL A   1      45.760  34.825  30.273  1.00  0.00     0.001 A 
ATOM     75  C   UNL A   1      45.549  33.986  32.529  1.00  0.00     0.001 A 
ATOM     76  C   UNL A   1      45.833  35.030  31.650  1.00  0.00     0.000 A 
ENDBRANCH  58  71
ENDBRANCH  32  33
ENDBRANCH  24  27
ENDBRANCH  22  23
ENDBRANCH  21  22
ENDBRANCH   1  21
TORSDOF 15
ENDMDL
MODEL 2
REMARK VINA RESULT:     -10.3      5.104      9.511
REMARK SMILES CC[C@@](CC(F)(F)F)(C(=O)NCCCCNC(=O)c1ccc(-c2c3nc(c(-c4ccccc4)c4ccc([nH]4)c(-c4ccccc4)c4nc(c(-c5ccccc5)c5ccc2[nH]5)C=C4)C=C3)cc1)c1ccccc1
REMARK SMILES IDX 13 1 12 2 11 3 9 4 10 5 3 7 2 8 1 9 4 10 5 11 6 12 7 13 8 14
REMARK SMILES IDX 67 15 68 16 72 17 69 18 71 19 70 20 14 21 15 22 16 23 17 24
REMARK SMILES IDX 18 26 19 27 20 28 66 29 21 30 65 31 22 32 23 33 24 34 59 35
REMARK SMILES IDX 25 36 64 37 58 38 60 39 26 40 63 41 57 42 56 43 27 45 49 46
REMARK SMILES IDX 34 47 48 48 35 49 38 50 47 51 61 52 36 53 37 54 46 56 62 57
REMARK SMILES IDX 39 58 28 59 29 60 33 61 30 62 32 63 31 64 50 65 51 66 55 67
REMARK SMILES IDX 52 68 54 69 53 70 40 71 41 72 45 73 42 74 44 75 43 76
REMARK H PARENT 11 6 16 25 60 44 38 55
REMARK Flexibility Score: inf
ROOT
ATOM      1  C   UNL A   1      31.197  30.749  25.579  1.00  0.00     0.023 C 
ENDROOT
BRANCH   1   2
ATOM      2  C   UNL A   1      32.425  29.886  25.848  1.00  0.00     0.116 C 
BRANCH   2   3
ATOM      3  N   UNL A   1      33.259  29.701  24.671  1.00  0.00    -0.355 N 
ATOM      4  C   UNL A   1      33.225  28.866  23.591  1.00  0.00     0.230 C 
ATOM      5  O   UNL A   1      34.039  29.196  22.724  1.00  0.00    -0.274 OA
ATOM      6  H   UNL A   1      34.024  30.320  24.648  1.00  0.00     0.163 HD
BRANCH   4   7
ATOM      7  C   UNL A   1      32.227  27.653  23.438  1.00  0.00     0.082 C 
BRANCH   7   8
ATOM      8  C   UNL A   1      32.697  26.819  22.187  1.00  0.00     0.019 C 
ATOM      9  C   UNL A   1      32.147  25.412  21.974  1.00  0.00     0.005 C 
ENDBRANCH   7   8
BRANCH   7  10
ATOM     10  C   UNL A   1      32.075  26.947  24.824  1.00  0.00     0.137 C 
BRANCH  10  11
ATOM     11  C   UNL A   1      33.228  26.238  25.485  1.00  0.00     0.390 C 
ATOM     12  F   UNL A   1      34.262  26.029  24.650  1.00  0.00    -0.171 F 
ATOM     13  F   UNL A   1      33.701  27.000  26.503  1.00  0.00    -0.171 F 
ATOM     14  F   UNL A   1      32.867  25.061  26.028  1.00  0.00    -0.171 F 
ENDBRANCH  10  11
ENDBRANCH   7  10
BRANCH   7  15
ATOM     15  C   UNL A   1      30.714  28.053  23.134  1.00  0.00    -0.032 A 
ATOM     16  C   UNL A   1      30.311  29.221  22.465  1.00  0.00     0.005 A 
ATOM     17  C   UNL A   1      29.669  27.257  23.663  1.00  0.00     0.005 A 
ATOM     18  C   UNL A   1      28.956  29.551  22.304  1.00  0.00     0.000 A 
ATOM     19  C   UNL A   1      28.317  27.581  23.500  1.00  0.00     0.000 A 
ATOM     20  C   UNL A   1      27.960  28.731  22.815  1.00  0.00     0.000 A 
ENDBRANCH   7  15
ENDBRANCH   4   7
ENDBRANCH   2   3
ENDBRANCH   1   2
BRANCH   1  21
ATOM     21  C   UNL A   1      31.051  31.978  26.475  1.00  0.00     0.023 C 
BRANCH  21  22
ATOM     22  C   UNL A   1      32.352  32.668  26.872  1.00  0.00     0.116 C 
BRANCH  22  23
ATOM     23  N   UNL A   1      32.156  33.966  27.503  1.00  0.00    -0.352 N 
ATOM     24  C   UNL A   1      32.915  34.576  28.474  1.00  0.00     0.251 C 
ATOM     25  H   UNL A   1      31.372  34.475  27.192  1.00  0.00     0.163 HD
ATOM     26  O   UNL A   1      32.568  35.642  28.963  1.00  0.00    -0.269 OA
BRANCH  24  27
ATOM     27  C   UNL A   1      34.140  33.904  28.954  1.00  0.00     0.039 A 
ATOM     28  C   UNL A   1      35.381  34.362  28.506  1.00  0.00     0.014 A 
ATOM     29  C   UNL A   1      34.058  32.865  29.884  1.00  0.00     0.014 A 
ATOM     30  C   UNL A   1      36.550  33.832  29.057  1.00  0.00     0.010 A 
ATOM     31  C   UNL A   1      35.218  32.388  30.481  1.00  0.00     0.010 A 
ATOM     32  C   UNL A   1      36.475  32.871  30.078  1.00  0.00    -0.014 A 
BRANCH  32  33
ATOM     33  C   UNL A   1      37.690  32.347  30.745  1.00  0.00     0.031 A 
ATOM     34  C   UNL A   1      38.416  31.172  30.153  1.00  0.00     0.074 A 
ATOM     35  C   UNL A   1      38.081  32.854  31.930  1.00  0.00     0.049 A 
ATOM     36  N   UNL A   1      39.402  30.472  30.650  1.00  0.00    -0.248 NA
ATOM     37  C   UNL A   1      37.945  30.704  28.839  1.00  0.00     0.031 C 
ATOM     38  C   UNL A   1      37.444  33.970  32.631  1.00  0.00     0.029 A 
ATOM     39  N   UNL A   1      39.105  32.479  32.765  1.00  0.00    -0.354 N 
ATOM     40  C   UNL A   1      39.645  29.460  29.729  1.00  0.00     0.074 A 
ATOM     41  C   UNL A   1      38.679  29.616  28.663  1.00  0.00     0.031 C 
ATOM     42  C   UNL A   1      38.098  34.198  33.781  1.00  0.00     0.029 A 
ATOM     43  C   UNL A   1      39.173  33.221  33.919  1.00  0.00     0.049 A 
ATOM     44  H   UNL A   1      39.730  31.747  32.557  1.00  0.00     0.167 HD
ATOM     45  C   UNL A   1      40.593  28.494  29.762  1.00  0.00     0.031 A 
ATOM     46  C   UNL A   1      40.001  33.117  34.975  1.00  0.00     0.031 A 
ATOM     47  C   UNL A   1      41.568  28.354  30.808  1.00  0.00     0.049 A 
ATOM     48  C   UNL A   1      41.055  32.047  34.983  1.00  0.00     0.074 A 
ATOM     49  C   UNL A   1      42.607  27.446  30.903  1.00  0.00     0.029 A 
ATOM     50  N   UNL A   1      41.627  29.151  31.941  1.00  0.00    -0.354 N 
ATOM     51  N   UNL A   1      41.304  31.126  34.083  1.00  0.00    -0.248 NA
ATOM     52  C   UNL A   1      41.950  32.007  36.149  1.00  0.00     0.031 C 
ATOM     53  C   UNL A   1      43.275  27.671  32.112  1.00  0.00     0.029 A 
ATOM     54  C   UNL A   1      42.678  28.749  32.747  1.00  0.00     0.049 A 
ATOM     55  H   UNL A   1      41.012  29.894  32.143  1.00  0.00     0.167 HD
ATOM     56  C   UNL A   1      42.398  30.417  34.560  1.00  0.00     0.074 A 
ATOM     57  C   UNL A   1      42.771  31.018  35.824  1.00  0.00     0.031 C 
ATOM     58  C   UNL A   1      43.038  29.364  33.997  1.00  0.00     0.031 A 
BRANCH  45  59
ATOM     59  C   UNL A   1      40.604  27.507  28.630  1.00  0.00    -0.014 A 
ATOM     60  C   UNL A   1      41.342  27.750  27.460  1.00  0.00     0.009 A 
ATOM     61  C   UNL A   1      39.872  26.316  28.737  1.00  0.00     0.009 A 
ATOM     62  C   UNL A   1      41.309  26.840  26.402  1.00  0.00     0.001 A 
ATOM     63  C   UNL A   1      39.864  25.394  27.688  1.00  0.00     0.001 A 
ATOM     64  C   UNL A   1      40.572  25.662  26.518  1.00  0.00     0.000 A 
ENDBRANCH  45  59
BRANCH  46  65
ATOM     65  C   UNL A   1      39.879  34.068  36.108  1.00  0.00    -0.014 A 
ATOM     66  C   UNL A   1      40.583  35.282  36.093  1.00  0.00     0.009 A 
ATOM     67  C   UNL A   1      39.055  33.774  37.206  1.00  0.00     0.009 A 
ATOM     68  C   UNL A   1      40.482  36.174  37.163  1.00  0.00     0.001 A 
ATOM     69  C   UNL A   1      38.937  34.679  38.264  1.00  0.00     0.001 A 
ATOM     70  C   UNL A   1      39.656  35.873  38.245  1.00  0.00     0.000 A 
ENDBRANCH  46  65
BRANCH  58  71
ATOM     71  C   UNL A   1      44.237  28.822  34.721  1.00  0.00    -0.014 A 
ATOM     72  C   UNL A   1      45.518  29.351  34.506  1.00  0.00     0.009 A 
ATOM     73  C   UNL A   1      44.068  27.803  35.671  1.00  0.00     0.009 A 
ATOM     74  C   UNL A   1      46.613  28.850  35.214  1.00  0.00     0.001 A 
ATOM     75  C   UNL A   1      45.160  27.322  36.393  1.00  0.00     0.001 A 
ATOM     76  C   UNL A   1      46.433  27.841  36.160  1.00  0.00     0.000 A 
ENDBRANCH  58  71
ENDBRANCH  32  33
ENDBRANCH  24  27
ENDBRANCH  22  23
ENDBRANCH  21  22
ENDBRANCH   1  21
TORSDOF 15
ENDMDL
MODEL 3
REMARK VINA RESULT:     -10.3      0.782      6.104
REMARK SMILES CC[C@@](CC(F)(F)F)(C(=O)NCCCCNC(=O)c1ccc(-c2c3nc(c(-c4ccccc4)c4ccc([nH]4)c(-c4ccccc4)c4nc(c(-c5ccccc5)c5ccc2[nH]5)C=C4)C=C3)cc1)c1ccccc1
REMARK SMILES IDX 13 1 12 2 11 3 9 4 10 5 3 7 2 8 1 9 4 10 5 11 6 12 7 13 8 14
REMARK SMILES IDX 67 15 68 16 72 17 69 18 71 19 70 20 14 21 15 22 16 23 17 24
REMARK SMILES IDX 18 26 19 27 20 28 66 29 21 30 65 31 22 32 23 33 24 34 59 35
REMARK SMILES IDX 25 36 64 37 58 38 60 39 26 40 63 41 57 42 56 43 27 45 49 46
REMARK SMILES IDX 34 47 48 48 35 49 38 50 47 51 61 52 36 53 37 54 46 56 62 57
REMARK SMILES IDX 39 58 28 59 29 60 33 61 30 62 32 63 31 64 50 65 51 66 55 67
REMARK SMILES IDX 52 68 54 69 53 70 40 71 41 72 45 73 42 74 44 75 43 76
REMARK H PARENT 11 6 16 25 60 44 38 55
REMARK Flexibility Score: inf
ROOT
ATOM      1  C   UNL A   1      36.904  21.920  24.174  1.00  0.00     0.023 C 
ENDROOT
BRANCH   1   2
ATOM      2  C   UNL A   1      36.572  23.001  25.197  1.00  0.00     0.116 C 
BRANCH   2   3
ATOM      3  N   UNL A   1      35.837  22.491  26.344  1.00  0.00    -0.355 N 
ATOM      4  C   UNL A   1      34.514  22.345  26.649  1.00  0.00     0.230 C 
ATOM      5  O   UNL A   1      34.345  21.677  27.673  1.00  0.00    -0.274 OA
ATOM      6  H   UNL A   1      36.429  22.181  27.067  1.00  0.00     0.163 HD
BRANCH   4   7
ATOM      7  C   UNL A   1      33.333  22.913  25.770  1.00  0.00     0.082 C 
BRANCH   7   8
ATOM      8  C   UNL A   1      33.220  21.995  24.495  1.00  0.00     0.019 C 
ATOM      9  C   UNL A   1      32.983  20.498  24.667  1.00  0.00     0.005 C 
ENDBRANCH   7   8
BRANCH   7  10
ATOM     10  C   UNL A   1      32.082  23.122  26.683  1.00  0.00     0.137 C 
BRANCH  10  11
ATOM     11  C   UNL A   1      30.684  23.141  26.123  1.00  0.00     0.390 C 
ATOM     12  F   UNL A   1      30.625  23.655  24.880  1.00  0.00    -0.171 F 
ATOM     13  F   UNL A   1      30.214  21.871  26.039  1.00  0.00    -0.171 F 
ATOM     14  F   UNL A   1      29.821  23.813  26.908  1.00  0.00    -0.171 F 
ENDBRANCH  10  11
ENDBRANCH   7  10
BRANCH   7  15
ATOM     15  C   UNL A   1      33.551  24.389  25.210  1.00  0.00    -0.032 A 
ATOM     16  C   UNL A   1      33.595  25.549  26.001  1.00  0.00     0.005 A 
ATOM     17  C   UNL A   1      33.590  24.598  23.810  1.00  0.00     0.005 A 
ATOM     18  C   UNL A   1      33.708  26.828  25.432  1.00  0.00     0.000 A 
ATOM     19  C   UNL A   1      33.707  25.871  23.240  1.00  0.00     0.000 A 
ATOM     20  C   UNL A   1      33.769  26.990  24.055  1.00  0.00     0.000 A 
ENDBRANCH   7  15
ENDBRANCH   4   7
ENDBRANCH   2   3
ENDBRANCH   1   2
BRANCH   1  21
ATOM     21  C   UNL A   1      37.529  20.648  24.744  1.00  0.00     0.023 C 
BRANCH  21  22
ATOM     22  C   UNL A   1      38.671  20.855  25.733  1.00  0.00     0.116 C 
BRANCH  22  23
ATOM     23  N   UNL A   1      39.680  19.806  25.688  1.00  0.00    -0.352 N 
ATOM     24  C   UNL A   1      41.009  19.872  26.036  1.00  0.00     0.251 C 
ATOM     25  H   UNL A   1      39.367  18.930  25.365  1.00  0.00     0.163 HD
ATOM     26  O   UNL A   1      41.751  18.915  25.863  1.00  0.00    -0.269 OA
BRANCH  24  27
ATOM     27  C   UNL A   1      41.544  21.135  26.585  1.00  0.00     0.039 A 
ATOM     28  C   UNL A   1      42.040  22.098  25.703  1.00  0.00     0.014 A 
ATOM     29  C   UNL A   1      41.502  21.383  27.958  1.00  0.00     0.014 A 
ATOM     30  C   UNL A   1      42.418  23.350  26.192  1.00  0.00     0.010 A 
ATOM     31  C   UNL A   1      41.813  22.651  28.435  1.00  0.00     0.010 A 
ATOM     32  C   UNL A   1      42.268  23.648  27.555  1.00  0.00    -0.014 A 
BRANCH  32  33
ATOM     33  C   UNL A   1      42.578  24.992  28.098  1.00  0.00     0.031 A 
ATOM     34  C   UNL A   1      43.973  25.302  28.565  1.00  0.00     0.074 A 
ATOM     35  C   UNL A   1      41.593  25.895  28.268  1.00  0.00     0.049 A 
ATOM     36  N   UNL A   1      44.418  26.353  29.201  1.00  0.00    -0.248 NA
ATOM     37  C   UNL A   1      44.994  24.273  28.308  1.00  0.00     0.031 C 
ATOM     38  C   UNL A   1      40.192  25.708  27.891  1.00  0.00     0.029 A 
ATOM     39  N   UNL A   1      41.623  27.150  28.823  1.00  0.00    -0.354 N 
ATOM     40  C   UNL A   1      45.760  26.098  29.454  1.00  0.00     0.074 A 
ATOM     41  C   UNL A   1      46.046  24.778  28.935  1.00  0.00     0.031 C 
ATOM     42  C   UNL A   1      39.498  26.812  28.212  1.00  0.00     0.029 A 
ATOM     43  C   UNL A   1      40.396  27.767  28.854  1.00  0.00     0.049 A 
ATOM     44  H   UNL A   1      42.445  27.569  29.168  1.00  0.00     0.167 HD
ATOM     45  C   UNL A   1      46.676  26.894  30.055  1.00  0.00     0.031 A 
ATOM     46  C   UNL A   1      40.033  28.962  29.354  1.00  0.00     0.031 A 
ATOM     47  C   UNL A   1      46.398  28.215  30.548  1.00  0.00     0.049 A 
ATOM     48  C   UNL A   1      41.069  29.836  30.003  1.00  0.00     0.074 A 
ATOM     49  C   UNL A   1      47.271  29.124  31.118  1.00  0.00     0.029 A 
ATOM     50  N   UNL A   1      45.150  28.818  30.524  1.00  0.00    -0.354 N 
ATOM     51  N   UNL A   1      42.345  29.602  30.193  1.00  0.00    -0.248 NA
ATOM     52  C   UNL A   1      40.616  31.144  30.500  1.00  0.00     0.031 C 
ATOM     53  C   UNL A   1      46.544  30.266  31.472  1.00  0.00     0.029 A 
ATOM     54  C   UNL A   1      45.227  30.084  31.080  1.00  0.00     0.049 A 
ATOM     55  H   UNL A   1      44.330  28.407  30.165  1.00  0.00     0.167 HD
ATOM     56  C   UNL A   1      42.853  30.741  30.803  1.00  0.00     0.074 A 
ATOM     57  C   UNL A   1      41.750  31.669  30.946  1.00  0.00     0.031 C 
ATOM     58  C   UNL A   1      44.121  30.995  31.206  1.00  0.00     0.031 A 
BRANCH  45  59
ATOM     59  C   UNL A   1      48.062  26.341  30.217  1.00  0.00    -0.014 A 
ATOM     60  C   UNL A   1      48.452  25.690  31.399  1.00  0.00     0.009 A 
ATOM     61  C   UNL A   1      48.990  26.467  29.173  1.00  0.00     0.009 A 
ATOM     62  C   UNL A   1      49.758  25.217  31.548  1.00  0.00     0.001 A 
ATOM     63  C   UNL A   1      50.286  25.968  29.314  1.00  0.00     0.001 A 
ATOM     64  C   UNL A   1      50.672  25.354  30.504  1.00  0.00     0.000 A 
ENDBRANCH  45  59
BRANCH  46  65
ATOM     65  C   UNL A   1      38.623  29.415  29.244  1.00  0.00    -0.014 A 
ATOM     66  C   UNL A   1      37.734  29.229  30.314  1.00  0.00     0.009 A 
ATOM     67  C   UNL A   1      38.160  30.040  28.076  1.00  0.00     0.009 A 
ATOM     68  C   UNL A   1      36.404  29.641  30.210  1.00  0.00     0.001 A 
ATOM     69  C   UNL A   1      36.834  30.473  27.984  1.00  0.00     0.001 A 
ATOM     70  C   UNL A   1      35.956  30.266  29.047  1.00  0.00     0.000 A 
ENDBRANCH  46  65
BRANCH  58  71
ATOM     71  C   UNL A   1      44.396  32.347  31.798  1.00  0.00    -0.014 A 
ATOM     72  C   UNL A   1      44.747  33.439  30.990  1.00  0.00     0.009 A 
ATOM     73  C   UNL A   1      44.245  32.540  33.180  1.00  0.00     0.009 A 
ATOM     74  C   UNL A   1      44.968  34.694  31.561  1.00  0.00     0.001 A 
ATOM     75  C   UNL A   1      44.445  33.801  33.744  1.00  0.00     0.001 A 
ATOM     76  C   UNL A   1      44.811  34.875  32.934  1.00  0.00     0.000 A 
ENDBRANCH  58  71
ENDBRANCH  32  33
ENDBRANCH  24  27
ENDBRANCH  22  23
ENDBRANCH  21  22
ENDBRANCH   1  21
TORSDOF 15
ENDMDL
