MODEL 1
REMARK VINA RESULT:     -10.4      0.000      0.000
REMARK SMILES CC1(C)CC[C@@]2(C(=O)NCCCCNC(=O)c3ccc(-c4c5nc(c(-c6ccccc6)c6ccc([nH]6)c(-c6ccccc6)c6nc(c(-c7ccccc7)c7ccc4[nH]7)C=C6)C=C5)cc3)CC[C@@]3(C)C(=CC[C@H]4[C@@]5(C)CC[C@H](O)C(C)(C)[C@@H]5CC[C@]43C)[C@@H]2C1
REMARK SMILES IDX 12 1 11 2 10 3 9 4 7 5 8 6 6 8 1 9 2 10 3 11 4 12 88 13 5 14
REMARK SMILES IDX 87 15 69 16 65 17 67 18 70 19 66 20 68 21 85 22 71 23 72 24
REMARK SMILES IDX 84 25 86 26 73 27 83 28 74 29 75 30 82 31 76 32 79 33 77 34
REMARK SMILES IDX 80 35 81 36 78 37 13 39 14 40 15 41 16 43 17 44 18 45 64 46
REMARK SMILES IDX 19 47 63 48 20 49 21 50 22 51 57 52 23 53 62 54 56 55 58 56
REMARK SMILES IDX 24 57 61 58 55 59 54 60 25 62 47 63 32 64 46 65 33 66 36 67
REMARK SMILES IDX 45 68 59 69 34 70 35 71 44 73 60 74 37 75 26 76 27 77 31 78
REMARK SMILES IDX 28 79 30 80 29 81 48 82 49 83 53 84 50 85 52 86 51 87 38 88
REMARK SMILES IDX 39 89 43 90 40 91 42 92 41 93
REMARK H PARENT 9 7 78 38 14 42 58 61 36 72
REMARK Flexibility Score: inf
ROOT
ATOM      1  C   UNL A   1      39.594  26.502  28.678  1.00  0.00     0.023 C 
ENDROOT
BRANCH   1   2
ATOM      2  C   UNL A   1      40.591  27.647  28.947  1.00  0.00     0.023 C 
BRANCH   2   3
ATOM      3  C   UNL A   1      41.140  27.916  30.360  1.00  0.00     0.116 C 
BRANCH   3   4
ATOM      4  N   UNL A   1      40.578  28.953  31.209  1.00  0.00    -0.356 N 
ATOM      5  C   UNL A   1      40.125  28.739  32.471  1.00  0.00     0.226 C 
ATOM      6  O   UNL A   1      39.242  27.907  32.685  1.00  0.00    -0.274 OA
ATOM      7  H   UNL A   1      40.523  29.867  30.847  1.00  0.00     0.163 HD
BRANCH   5   8
ATOM      8  C   UNL A   1      40.845  29.528  33.632  1.00  0.00     0.056 C 
ATOM      9  C   UNL A   1      44.582  28.037  34.507  1.00  0.00     0.011 C 
ATOM     10  C   UNL A   1      43.570  28.072  33.352  1.00  0.00    -0.035 C 
ATOM     11  C   UNL A   1      44.254  27.282  32.194  1.00  0.00     0.011 C 
ATOM     12  C   UNL A   1      42.271  27.376  33.791  1.00  0.00     0.007 C 
ATOM     13  C   UNL A   1      43.327  29.529  32.884  1.00  0.00     0.015 C 
ATOM     14  C   UNL A   1      41.290  28.316  34.536  1.00  0.00     0.018 C 
ATOM     15  C   UNL A   1      42.131  30.396  33.453  1.00  0.00     0.031 C 
ATOM     16  C   UNL A   1      41.853  31.704  32.638  1.00  0.00    -0.064 C 
ATOM     17  C   UNL A   1      39.802  30.440  34.318  1.00  0.00     0.018 C 
ATOM     18  C   UNL A   1      40.692  32.752  32.915  1.00  0.00    -0.006 C 
ATOM     19  C   UNL A   1      42.410  31.687  31.418  1.00  0.00    -0.027 C 
ATOM     20  C   UNL A   1      39.702  31.972  33.929  1.00  0.00     0.013 C 
ATOM     21  C   UNL A   1      41.123  33.948  33.846  1.00  0.00     0.017 C 
ATOM     22  C   UNL A   1      40.418  33.576  31.328  1.00  0.00    -0.020 C 
ATOM     23  C   UNL A   1      41.553  31.753  30.200  1.00  0.00     0.032 C 
ATOM     24  C   UNL A   1      40.194  32.431  30.328  1.00  0.00     0.006 C 
ATOM     25  C   UNL A   1      39.436  34.703  30.730  1.00  0.00     0.008 C 
ATOM     26  C   UNL A   1      41.806  34.385  31.061  1.00  0.00     0.012 C 
ATOM     27  C   UNL A   1      38.605  31.889  30.310  1.00  0.00    -0.025 C 
ATOM     28  C   UNL A   1      38.550  34.304  29.446  1.00  0.00     0.005 C 
ATOM     29  C   UNL A   1      38.474  30.702  29.362  1.00  0.00     0.012 C 
ATOM     30  C   UNL A   1      37.888  31.531  31.641  1.00  0.00     0.010 C 
ATOM     31  C   UNL A   1      37.713  33.132  29.909  1.00  0.00     0.003 C 
ATOM     32  C   UNL A   1      36.326  31.455  31.677  1.00  0.00     0.033 C 
ATOM     33  C   UNL A   1      36.198  32.915  29.557  1.00  0.00    -0.006 C 
ATOM     34  C   UNL A   1      35.573  32.613  30.962  1.00  0.00     0.120 C 
ATOM     35  C   UNL A   1      35.801  31.783  28.587  1.00  0.00     0.014 C 
ATOM     36  C   UNL A   1      35.599  34.198  28.947  1.00  0.00     0.014 C 
BRANCH  34  37
ATOM     37  O   UNL A   1      34.174  32.366  30.896  1.00  0.00    -0.393 OA
ATOM     38  H   UNL A   1      33.912  32.236  29.971  1.00  0.00     0.210 HD
ENDBRANCH  34  37
ENDBRANCH   5   8
ENDBRANCH   3   4
ENDBRANCH   2   3
ENDBRANCH   1   2
BRANCH   1  39
ATOM     39  C   UNL A   1      39.784  25.629  27.432  1.00  0.00     0.116 C 
BRANCH  39  40
ATOM     40  N   UNL A   1      40.311  24.309  27.662  1.00  0.00    -0.352 N 
ATOM     41  C   UNL A   1      41.611  23.905  27.920  1.00  0.00     0.251 C 
ATOM     42  H   UNL A   1      39.647  23.583  27.633  1.00  0.00     0.163 HD
ATOM     43  O   UNL A   1      41.843  22.760  28.205  1.00  0.00    -0.269 OA
BRANCH  41  44
ATOM     44  C   UNL A   1      42.740  24.865  27.759  1.00  0.00     0.039 A 
ATOM     45  C   UNL A   1      43.118  25.169  26.449  1.00  0.00     0.014 A 
ATOM     46  C   UNL A   1      43.433  25.435  28.831  1.00  0.00     0.014 A 
ATOM     47  C   UNL A   1      44.137  26.094  26.210  1.00  0.00     0.010 A 
ATOM     48  C   UNL A   1      44.414  26.409  28.589  1.00  0.00     0.010 A 
ATOM     49  C   UNL A   1      44.770  26.755  27.275  1.00  0.00    -0.014 A 
BRANCH  49  50
ATOM     50  C   UNL A   1      45.771  27.821  26.989  1.00  0.00     0.031 A 
ATOM     51  C   UNL A   1      45.376  29.271  26.948  1.00  0.00     0.074 A 
ATOM     52  C   UNL A   1      47.059  27.479  26.779  1.00  0.00     0.049 A 
ATOM     53  N   UNL A   1      46.135  30.329  26.794  1.00  0.00    -0.248 NA
ATOM     54  C   UNL A   1      43.943  29.575  27.086  1.00  0.00     0.031 C 
ATOM     55  C   UNL A   1      47.577  26.109  26.759  1.00  0.00     0.029 A 
ATOM     56  N   UNL A   1      48.172  28.255  26.562  1.00  0.00    -0.354 N 
ATOM     57  C   UNL A   1      45.274  31.420  26.817  1.00  0.00     0.074 A 
ATOM     58  C   UNL A   1      43.932  30.893  26.945  1.00  0.00     0.031 C 
ATOM     59  C   UNL A   1      48.908  26.143  26.586  1.00  0.00     0.029 A 
ATOM     60  C   UNL A   1      49.336  27.533  26.449  1.00  0.00     0.049 A 
ATOM     61  H   UNL A   1      48.139  29.237  26.494  1.00  0.00     0.167 HD
ATOM     62  C   UNL A   1      45.573  32.742  26.756  1.00  0.00     0.031 A 
ATOM     63  C   UNL A   1      50.607  27.936  26.263  1.00  0.00     0.031 A 
ATOM     64  C   UNL A   1      46.906  33.272  26.621  1.00  0.00     0.049 A 
ATOM     65  C   UNL A   1      50.909  29.407  26.175  1.00  0.00     0.074 A 
ATOM     66  C   UNL A   1      47.308  34.597  26.592  1.00  0.00     0.029 A 
ATOM     67  N   UNL A   1      48.052  32.504  26.485  1.00  0.00    -0.354 N 
ATOM     68  N   UNL A   1      50.091  30.425  26.272  1.00  0.00    -0.248 NA
ATOM     69  C   UNL A   1      52.315  29.781  25.967  1.00  0.00     0.031 C 
ATOM     70  C   UNL A   1      48.691  34.630  26.383  1.00  0.00     0.029 A 
ATOM     71  C   UNL A   1      49.159  33.327  26.345  1.00  0.00     0.049 A 
ATOM     72  H   UNL A   1      48.076  31.519  26.488  1.00  0.00     0.167 HD
ATOM     73  C   UNL A   1      50.885  31.561  26.166  1.00  0.00     0.074 A 
ATOM     74  C   UNL A   1      52.251  31.105  26.017  1.00  0.00     0.031 C 
ATOM     75  C   UNL A   1      50.514  32.864  26.192  1.00  0.00     0.031 A 
BRANCH  62  76
ATOM     76  C   UNL A   1      44.425  33.714  26.822  1.00  0.00    -0.014 A 
ATOM     77  C   UNL A   1      43.948  34.193  28.052  1.00  0.00     0.009 A 
ATOM     78  C   UNL A   1      43.838  34.186  25.638  1.00  0.00     0.009 A 
ATOM     79  C   UNL A   1      42.880  35.093  28.096  1.00  0.00     0.001 A 
ATOM     80  C   UNL A   1      42.791  35.109  25.684  1.00  0.00     0.001 A 
ATOM     81  C   UNL A   1      42.306  35.553  26.913  1.00  0.00     0.000 A 
ENDBRANCH  62  76
BRANCH  63  82
ATOM     82  C   UNL A   1      51.704  26.934  26.165  1.00  0.00    -0.014 A 
ATOM     83  C   UNL A   1      52.015  26.331  24.937  1.00  0.00     0.009 A 
ATOM     84  C   UNL A   1      52.436  26.566  27.305  1.00  0.00     0.009 A 
ATOM     85  C   UNL A   1      53.014  25.358  24.858  1.00  0.00     0.001 A 
ATOM     86  C   UNL A   1      53.456  25.617  27.217  1.00  0.00     0.001 A 
ATOM     87  C   UNL A   1      53.738  25.006  25.996  1.00  0.00     0.000 A 
ENDBRANCH  63  82
BRANCH  75  88
ATOM     88  C   UNL A   1      51.607  33.893  26.090  1.00  0.00    -0.014 A 
ATOM     89  C   UNL A   1      52.011  34.412  24.849  1.00  0.00     0.009 A 
ATOM     90  C   UNL A   1      52.221  34.370  27.258  1.00  0.00     0.009 A 
ATOM     91  C   UNL A   1      53.035  35.359  24.780  1.00  0.00     0.001 A 
ATOM     92  C   UNL A   1      53.223  35.339  27.188  1.00  0.00     0.001 A 
ATOM     93  C   UNL A   1      53.636  35.825  25.949  1.00  0.00     0.000 A 
ENDBRANCH  75  88
ENDBRANCH  49  50
ENDBRANCH  41  44
ENDBRANCH  39  40
ENDBRANCH   1  39
TORSDOF 12
ENDMDL
MODEL 2
REMARK VINA RESULT:     -10.4      0.480      5.489
REMARK SMILES CC1(C)CC[C@@]2(C(=O)NCCCCNC(=O)c3ccc(-c4c5nc(c(-c6ccccc6)c6ccc([nH]6)c(-c6ccccc6)c6nc(c(-c7ccccc7)c7ccc4[nH]7)C=C6)C=C5)cc3)CC[C@@]3(C)C(=CC[C@H]4[C@@]5(C)CC[C@H](O)C(C)(C)[C@@H]5CC[C@]43C)[C@@H]2C1
REMARK SMILES IDX 12 1 11 2 10 3 9 4 7 5 8 6 6 8 1 9 2 10 3 11 4 12 88 13 5 14
REMARK SMILES IDX 87 15 69 16 65 17 67 18 70 19 66 20 68 21 85 22 71 23 72 24
REMARK SMILES IDX 84 25 86 26 73 27 83 28 74 29 75 30 82 31 76 32 79 33 77 34
REMARK SMILES IDX 80 35 81 36 78 37 13 39 14 40 15 41 16 43 17 44 18 45 64 46
REMARK SMILES IDX 19 47 63 48 20 49 21 50 22 51 57 52 23 53 62 54 56 55 58 56
REMARK SMILES IDX 24 57 61 58 55 59 54 60 25 62 47 63 32 64 46 65 33 66 36 67
REMARK SMILES IDX 45 68 59 69 34 70 35 71 44 73 60 74 37 75 26 76 27 77 31 78
REMARK SMILES IDX 28 79 30 80 29 81 48 82 49 83 53 84 50 85 52 86 51 87 38 88
REMARK SMILES IDX 39 89 43 90 40 91 42 92 41 93
REMARK H PARENT 9 7 78 38 14 42 58 61 36 72
REMARK Flexibility Score: inf
ROOT
ATOM      1  C   UNL A   1      39.995  26.007  28.316  1.00  0.00     0.023 C 
ENDROOT
BRANCH   1   2
ATOM      2  C   UNL A   1      40.653  27.383  28.548  1.00  0.00     0.023 C 
BRANCH   2   3
ATOM      3  C   UNL A   1      41.309  27.740  29.894  1.00  0.00     0.116 C 
BRANCH   3   4
ATOM      4  N   UNL A   1      40.752  28.763  30.763  1.00  0.00    -0.356 N 
ATOM      5  C   UNL A   1      40.212  28.510  31.983  1.00  0.00     0.226 C 
ATOM      6  O   UNL A   1      39.276  27.719  32.101  1.00  0.00    -0.274 OA
ATOM      7  H   UNL A   1      40.767  29.695  30.448  1.00  0.00     0.163 HD
BRANCH   5   8
ATOM      8  C   UNL A   1      40.900  29.199  33.224  1.00  0.00     0.056 C 
ATOM      9  C   UNL A   1      44.638  27.674  34.035  1.00  0.00     0.011 C 
ATOM     10  C   UNL A   1      43.648  27.803  32.869  1.00  0.00    -0.035 C 
ATOM     11  C   UNL A   1      44.363  27.128  31.657  1.00  0.00     0.011 C 
ATOM     12  C   UNL A   1      42.349  27.057  33.217  1.00  0.00     0.007 C 
ATOM     13  C   UNL A   1      43.396  29.294  32.529  1.00  0.00     0.015 C 
ATOM     14  C   UNL A   1      41.343  27.915  34.025  1.00  0.00     0.018 C 
ATOM     15  C   UNL A   1      42.178  30.093  33.150  1.00  0.00     0.031 C 
ATOM     16  C   UNL A   1      41.900  31.467  32.451  1.00  0.00    -0.064 C 
ATOM     17  C   UNL A   1      39.833  30.035  33.969  1.00  0.00     0.018 C 
ATOM     18  C   UNL A   1      40.722  32.473  32.798  1.00  0.00    -0.006 C 
ATOM     19  C   UNL A   1      42.479  31.565  31.246  1.00  0.00    -0.027 C 
ATOM     20  C   UNL A   1      39.722  31.594  33.718  1.00  0.00     0.013 C 
ATOM     21  C   UNL A   1      41.119  33.584  33.841  1.00  0.00     0.017 C 
ATOM     22  C   UNL A   1      40.467  33.434  31.287  1.00  0.00    -0.020 C 
ATOM     23  C   UNL A   1      41.646  31.732  30.022  1.00  0.00     0.032 C 
ATOM     24  C   UNL A   1      40.276  32.382  30.183  1.00  0.00     0.006 C 
ATOM     25  C   UNL A   1      39.482  34.600  30.774  1.00  0.00     0.008 C 
ATOM     26  C   UNL A   1      41.850  34.278  31.121  1.00  0.00     0.012 C 
ATOM     27  C   UNL A   1      38.695  31.827  30.085  1.00  0.00    -0.025 C 
ATOM     28  C   UNL A   1      38.626  34.309  29.442  1.00  0.00     0.005 C 
ATOM     29  C   UNL A   1      38.595  30.729  29.031  1.00  0.00     0.012 C 
ATOM     30  C   UNL A   1      37.957  31.343  31.364  1.00  0.00     0.010 C 
ATOM     31  C   UNL A   1      37.795  33.091  29.780  1.00  0.00     0.003 C 
ATOM     32  C   UNL A   1      36.395  31.247  31.362  1.00  0.00     0.033 C 
ATOM     33  C   UNL A   1      36.289  32.892  29.381  1.00  0.00    -0.006 C 
ATOM     34  C   UNL A   1      35.642  32.457  30.739  1.00  0.00     0.120 C 
ATOM     35  C   UNL A   1      35.924  31.847  28.305  1.00  0.00     0.014 C 
ATOM     36  C   UNL A   1      35.687  34.218  28.876  1.00  0.00     0.014 C 
BRANCH  34  37
ATOM     37  O   UNL A   1      34.248  32.203  30.624  1.00  0.00    -0.393 OA
ATOM     38  H   UNL A   1      34.082  31.655  29.841  1.00  0.00     0.210 HD
ENDBRANCH  34  37
ENDBRANCH   5   8
ENDBRANCH   3   4
ENDBRANCH   2   3
ENDBRANCH   1   2
BRANCH   1  39
ATOM     39  C   UNL A   1      39.782  25.519  26.877  1.00  0.00     0.116 C 
BRANCH  39  40
ATOM     40  N   UNL A   1      40.316  24.219  26.568  1.00  0.00    -0.352 N 
ATOM     41  C   UNL A   1      41.631  23.780  26.552  1.00  0.00     0.251 C 
ATOM     42  H   UNL A   1      39.646  23.536  26.334  1.00  0.00     0.163 HD
ATOM     43  O   UNL A   1      41.876  22.615  26.382  1.00  0.00    -0.269 OA
BRANCH  41  44
ATOM     44  C   UNL A   1      42.749  24.760  26.655  1.00  0.00     0.039 A 
ATOM     45  C   UNL A   1      43.149  25.377  25.467  1.00  0.00     0.014 A 
ATOM     46  C   UNL A   1      43.412  25.058  27.849  1.00  0.00     0.014 A 
ATOM     47  C   UNL A   1      44.160  26.341  25.484  1.00  0.00     0.010 A 
ATOM     48  C   UNL A   1      44.383  26.070  27.874  1.00  0.00     0.010 A 
ATOM     49  C   UNL A   1      44.761  26.729  26.693  1.00  0.00    -0.014 A 
BRANCH  49  50
ATOM     50  C   UNL A   1      45.753  27.841  26.697  1.00  0.00     0.031 A 
ATOM     51  C   UNL A   1      47.228  27.568  26.591  1.00  0.00     0.074 A 
ATOM     52  C   UNL A   1      45.319  29.115  26.780  1.00  0.00     0.049 A 
ATOM     53  N   UNL A   1      48.220  28.421  26.498  1.00  0.00    -0.248 NA
ATOM     54  C   UNL A   1      47.649  26.159  26.603  1.00  0.00     0.031 C 
ATOM     55  C   UNL A   1      43.919  29.523  26.918  1.00  0.00     0.029 A 
ATOM     56  N   UNL A   1      46.006  30.304  26.740  1.00  0.00    -0.354 N 
ATOM     57  C   UNL A   1      49.377  27.654  26.440  1.00  0.00     0.074 A 
ATOM     58  C   UNL A   1      48.969  26.270  26.563  1.00  0.00     0.031 C 
ATOM     59  C   UNL A   1      43.847  30.863  26.907  1.00  0.00     0.029 A 
ATOM     60  C   UNL A   1      45.195  31.413  26.796  1.00  0.00     0.049 A 
ATOM     61  H   UNL A   1      46.987  30.357  26.677  1.00  0.00     0.167 HD
ATOM     62  C   UNL A   1      50.661  28.059  26.281  1.00  0.00     0.031 A 
ATOM     63  C   UNL A   1      45.496  32.725  26.756  1.00  0.00     0.031 A 
ATOM     64  C   UNL A   1      51.074  29.434  26.165  1.00  0.00     0.049 A 
ATOM     65  C   UNL A   1      46.930  33.149  26.602  1.00  0.00     0.074 A 
ATOM     66  C   UNL A   1      52.348  29.938  25.959  1.00  0.00     0.029 A 
ATOM     67  N   UNL A   1      50.224  30.525  26.252  1.00  0.00    -0.354 N 
ATOM     68  N   UNL A   1      48.002  32.407  26.475  1.00  0.00    -0.248 NA
ATOM     69  C   UNL A   1      47.191  34.595  26.570  1.00  0.00     0.031 C 
ATOM     70  C   UNL A   1      52.275  31.335  25.978  1.00  0.00     0.029 A 
ATOM     71  C   UNL A   1      50.947  31.701  26.131  1.00  0.00     0.049 A 
ATOM     72  H   UNL A   1      49.248  30.473  26.380  1.00  0.00     0.167 HD
ATOM     73  C   UNL A   1      49.060  33.293  26.320  1.00  0.00     0.074 A 
ATOM     74  C   UNL A   1      48.498  34.627  26.349  1.00  0.00     0.031 C 
ATOM     75  C   UNL A   1      50.380  33.024  26.166  1.00  0.00     0.031 A 
BRANCH  62  76
ATOM     76  C   UNL A   1      51.723  26.993  26.234  1.00  0.00    -0.014 A 
ATOM     77  C   UNL A   1      52.027  26.320  25.041  1.00  0.00     0.009 A 
ATOM     78  C   UNL A   1      52.455  26.683  27.391  1.00  0.00     0.009 A 
ATOM     79  C   UNL A   1      53.013  25.331  25.015  1.00  0.00     0.001 A 
ATOM     80  C   UNL A   1      53.461  25.715  27.356  1.00  0.00     0.001 A 
ATOM     81  C   UNL A   1      53.732  25.033  26.171  1.00  0.00     0.000 A 
ENDBRANCH  62  76
BRANCH  63  82
ATOM     82  C   UNL A   1      44.413  33.743  26.844  1.00  0.00    -0.014 A 
ATOM     83  C   UNL A   1      43.835  34.276  25.683  1.00  0.00     0.009 A 
ATOM     84  C   UNL A   1      43.963  34.197  28.095  1.00  0.00     0.009 A 
ATOM     85  C   UNL A   1      42.851  35.264  25.770  1.00  0.00     0.001 A 
ATOM     86  C   UNL A   1      42.958  35.162  28.179  1.00  0.00     0.001 A 
ATOM     87  C   UNL A   1      42.410  35.703  27.017  1.00  0.00     0.000 A 
ENDBRANCH  63  82
BRANCH  75  88
ATOM     88  C   UNL A   1      51.304  34.197  25.981  1.00  0.00    -0.014 A 
ATOM     89  C   UNL A   1      51.962  34.789  27.071  1.00  0.00     0.009 A 
ATOM     90  C   UNL A   1      51.541  34.697  24.692  1.00  0.00     0.009 A 
ATOM     91  C   UNL A   1      52.807  35.884  26.876  1.00  0.00     0.001 A 
ATOM     92  C   UNL A   1      52.410  35.771  24.496  1.00  0.00     0.001 A 
ATOM     93  C   UNL A   1      53.034  36.370  25.588  1.00  0.00     0.000 A 
ENDBRANCH  75  88
ENDBRANCH  49  50
ENDBRANCH  41  44
ENDBRANCH  39  40
ENDBRANCH   1  39
TORSDOF 12
ENDMDL
MODEL 3
REMARK VINA RESULT:     -10.2      1.191      1.814
REMARK SMILES CC1(C)CC[C@@]2(C(=O)NCCCCNC(=O)c3ccc(-c4c5nc(c(-c6ccccc6)c6ccc([nH]6)c(-c6ccccc6)c6nc(c(-c7ccccc7)c7ccc4[nH]7)C=C6)C=C5)cc3)CC[C@@]3(C)C(=CC[C@H]4[C@@]5(C)CC[C@H](O)C(C)(C)[C@@H]5CC[C@]43C)[C@@H]2C1
REMARK SMILES IDX 12 1 11 2 10 3 9 4 7 5 8 6 6 8 1 9 2 10 3 11 4 12 88 13 5 14
REMARK SMILES IDX 87 15 69 16 65 17 67 18 70 19 66 20 68 21 85 22 71 23 72 24
REMARK SMILES IDX 84 25 86 26 73 27 83 28 74 29 75 30 82 31 76 32 79 33 77 34
REMARK SMILES IDX 80 35 81 36 78 37 13 39 14 40 15 41 16 43 17 44 18 45 64 46
REMARK SMILES IDX 19 47 63 48 20 49 21 50 22 51 57 52 23 53 62 54 56 55 58 56
REMARK SMILES IDX 24 57 61 58 55 59 54 60 25 62 47 63 32 64 46 65 33 66 36 67
REMARK SMILES IDX 45 68 59 69 34 70 35 71 44 73 60 74 37 75 26 76 27 77 31 78
REMARK SMILES IDX 28 79 30 80 29 81 48 82 49 83 53 84 50 85 52 86 51 87 38 88
REMARK SMILES IDX 39 89 43 90 40 91 42 92 41 93
REMARK H PARENT 9 7 78 38 14 42 58 61 36 72
REMARK Flexibility Score: inf
ROOT
ATOM      1  C   UNL A   1      39.345  26.742  28.584  1.00  0.00     0.023 C 
ENDROOT
BRANCH   1   2
ATOM      2  C   UNL A   1      38.849  28.186  28.363  1.00  0.00     0.023 C 
BRANCH   2   3
ATOM      3  C   UNL A   1      39.824  29.378  28.373  1.00  0.00     0.116 C 
BRANCH   3   4
ATOM      4  N   UNL A   1      41.029  29.367  29.184  1.00  0.00    -0.356 N 
ATOM      5  C   UNL A   1      41.303  30.283  30.149  1.00  0.00     0.226 C 
ATOM      6  O   UNL A   1      41.343  31.484  29.877  1.00  0.00    -0.274 OA
ATOM      7  H   UNL A   1      41.686  28.652  29.026  1.00  0.00     0.163 HD
BRANCH   5   8
ATOM      8  C   UNL A   1      41.466  29.742  31.622  1.00  0.00     0.056 C 
ATOM      9  C   UNL A   1      45.401  29.478  32.807  1.00  0.00     0.011 C 
ATOM     10  C   UNL A   1      44.525  30.231  31.794  1.00  0.00    -0.035 C 
ATOM     11  C   UNL A   1      45.509  31.166  31.027  1.00  0.00     0.011 C 
ATOM     12  C   UNL A   1      43.874  29.222  30.833  1.00  0.00     0.007 C 
ATOM     13  C   UNL A   1      43.476  31.107  32.526  1.00  0.00     0.015 C 
ATOM     14  C   UNL A   1      42.549  28.625  31.372  1.00  0.00     0.018 C 
ATOM     15  C   UNL A   1      42.013  30.579  32.821  1.00  0.00     0.031 C 
ATOM     16  C   UNL A   1      41.013  31.699  33.267  1.00  0.00    -0.064 C 
ATOM     17  C   UNL A   1      40.105  29.170  32.082  1.00  0.00     0.018 C 
ATOM     18  C   UNL A   1      39.469  31.506  33.579  1.00  0.00    -0.006 C 
ATOM     19  C   UNL A   1      41.449  32.933  32.973  1.00  0.00    -0.027 C 
ATOM     20  C   UNL A   1      39.133  30.043  32.975  1.00  0.00     0.013 C 
ATOM     21  C   UNL A   1      39.155  31.235  35.099  1.00  0.00     0.017 C 
ATOM     22  C   UNL A   1      38.731  33.137  33.317  1.00  0.00    -0.020 C 
ATOM     23  C   UNL A   1      40.681  33.797  32.033  1.00  0.00     0.032 C 
ATOM     24  C   UNL A   1      39.182  33.546  31.906  1.00  0.00     0.006 C 
ATOM     25  C   UNL A   1      37.265  33.800  33.375  1.00  0.00     0.008 C 
ATOM     26  C   UNL A   1      39.394  34.059  34.484  1.00  0.00     0.012 C 
ATOM     27  C   UNL A   1      38.195  32.918  30.703  1.00  0.00    -0.025 C 
ATOM     28  C   UNL A   1      36.739  34.545  32.049  1.00  0.00     0.005 C 
ATOM     29  C   UNL A   1      38.747  33.292  29.332  1.00  0.00     0.012 C 
ATOM     30  C   UNL A   1      37.847  31.404  30.691  1.00  0.00     0.010 C 
ATOM     31  C   UNL A   1      36.741  33.473  30.982  1.00  0.00     0.003 C 
ATOM     32  C   UNL A   1      36.615  30.903  29.868  1.00  0.00     0.033 C 
ATOM     33  C   UNL A   1      35.618  33.279  29.901  1.00  0.00    -0.006 C 
ATOM     34  C   UNL A   1      35.316  31.746  30.010  1.00  0.00     0.120 C 
ATOM     35  C   UNL A   1      35.921  33.618  28.427  1.00  0.00     0.014 C 
ATOM     36  C   UNL A   1      34.376  34.118  30.260  1.00  0.00     0.014 C 
BRANCH  34  37
ATOM     37  O   UNL A   1      34.312  31.321  29.097  1.00  0.00    -0.393 OA
ATOM     38  H   UNL A   1      33.475  31.763  29.307  1.00  0.00     0.210 HD
ENDBRANCH  34  37
ENDBRANCH   5   8
ENDBRANCH   3   4
ENDBRANCH   2   3
ENDBRANCH   1   2
BRANCH   1  39
ATOM     39  C   UNL A   1      39.526  25.825  27.369  1.00  0.00     0.116 C 
BRANCH  39  40
ATOM     40  N   UNL A   1      40.022  24.502  27.647  1.00  0.00    -0.352 N 
ATOM     41  C   UNL A   1      41.305  24.083  27.961  1.00  0.00     0.251 C 
ATOM     42  H   UNL A   1      39.347  23.786  27.609  1.00  0.00     0.163 HD
ATOM     43  O   UNL A   1      41.506  22.940  28.279  1.00  0.00    -0.269 OA
BRANCH  41  44
ATOM     44  C   UNL A   1      42.455  25.021  27.821  1.00  0.00     0.039 A 
ATOM     45  C   UNL A   1      42.853  25.328  26.517  1.00  0.00     0.014 A 
ATOM     46  C   UNL A   1      43.147  25.567  28.905  1.00  0.00     0.014 A 
ATOM     47  C   UNL A   1      43.894  26.234  26.298  1.00  0.00     0.010 A 
ATOM     48  C   UNL A   1      44.150  26.522  28.683  1.00  0.00     0.010 A 
ATOM     49  C   UNL A   1      44.528  26.873  27.377  1.00  0.00    -0.014 A 
BRANCH  49  50
ATOM     50  C   UNL A   1      45.554  27.919  27.110  1.00  0.00     0.031 A 
ATOM     51  C   UNL A   1      45.197  29.380  27.119  1.00  0.00     0.074 A 
ATOM     52  C   UNL A   1      46.830  27.550  26.875  1.00  0.00     0.049 A 
ATOM     53  N   UNL A   1      45.982  30.422  26.988  1.00  0.00    -0.248 NA
ATOM     54  C   UNL A   1      43.775  29.718  27.283  1.00  0.00     0.031 C 
ATOM     55  C   UNL A   1      47.311  26.169  26.806  1.00  0.00     0.029 A 
ATOM     56  N   UNL A   1      47.961  28.303  26.668  1.00  0.00    -0.354 N 
ATOM     57  C   UNL A   1      45.152  31.535  27.055  1.00  0.00     0.074 A 
ATOM     58  C   UNL A   1      43.798  31.040  27.183  1.00  0.00     0.031 C 
ATOM     59  C   UNL A   1      48.640  26.173  26.619  1.00  0.00     0.029 A 
ATOM     60  C   UNL A   1      49.104  27.554  26.519  1.00  0.00     0.049 A 
ATOM     61  H   UNL A   1      47.954  29.287  26.631  1.00  0.00     0.167 HD
ATOM     62  C   UNL A   1      45.485  32.849  27.030  1.00  0.00     0.031 A 
ATOM     63  C   UNL A   1      50.383  27.930  26.330  1.00  0.00     0.031 A 
ATOM     64  C   UNL A   1      46.830  33.348  26.896  1.00  0.00     0.049 A 
ATOM     65  C   UNL A   1      50.723  29.393  26.283  1.00  0.00     0.074 A 
ATOM     66  C   UNL A   1      47.268  34.661  26.903  1.00  0.00     0.029 A 
ATOM     67  N   UNL A   1      47.953  32.554  26.722  1.00  0.00    -0.354 N 
ATOM     68  N   UNL A   1      49.934  30.430  26.422  1.00  0.00    -0.248 NA
ATOM     69  C   UNL A   1      52.137  29.737  26.070  1.00  0.00     0.031 C 
ATOM     70  C   UNL A   1      48.648  34.665  26.677  1.00  0.00     0.029 A 
ATOM     71  C   UNL A   1      49.081  33.351  26.595  1.00  0.00     0.049 A 
ATOM     72  H   UNL A   1      47.952  31.570  26.695  1.00  0.00     0.167 HD
ATOM     73  C   UNL A   1      50.756  31.546  26.341  1.00  0.00     0.074 A 
ATOM     74  C   UNL A   1      52.108  31.060  26.161  1.00  0.00     0.031 C 
ATOM     75  C   UNL A   1      50.421  32.858  26.411  1.00  0.00     0.031 A 
BRANCH  62  76
ATOM     76  C   UNL A   1      44.365  33.848  27.140  1.00  0.00    -0.014 A 
ATOM     77  C   UNL A   1      43.800  34.437  25.998  1.00  0.00     0.009 A 
ATOM     78  C   UNL A   1      43.841  34.178  28.400  1.00  0.00     0.009 A 
ATOM     79  C   UNL A   1      42.763  35.365  26.117  1.00  0.00     0.001 A 
ATOM     80  C   UNL A   1      42.784  35.083  28.515  1.00  0.00     0.001 A 
ATOM     81  C   UNL A   1      42.253  35.683  27.374  1.00  0.00     0.000 A 
ENDBRANCH  62  76
BRANCH  63  82
ATOM     82  C   UNL A   1      51.452  26.902  26.188  1.00  0.00    -0.014 A 
ATOM     83  C   UNL A   1      51.750  26.348  24.935  1.00  0.00     0.009 A 
ATOM     84  C   UNL A   1      52.168  26.460  27.312  1.00  0.00     0.009 A 
ATOM     85  C   UNL A   1      52.722  25.352  24.813  1.00  0.00     0.001 A 
ATOM     86  C   UNL A   1      53.161  25.487  27.182  1.00  0.00     0.001 A 
ATOM     87  C   UNL A   1      53.430  24.927  25.935  1.00  0.00     0.000 A 
ENDBRANCH  63  82
BRANCH  75  88
ATOM     88  C   UNL A   1      51.540  33.860  26.327  1.00  0.00    -0.014 A 
ATOM     89  C   UNL A   1      52.257  34.253  27.469  1.00  0.00     0.009 A 
ATOM     90  C   UNL A   1      51.899  34.397  25.082  1.00  0.00     0.009 A 
ATOM     91  C   UNL A   1      53.285  35.193  27.368  1.00  0.00     0.001 A 
ATOM     92  C   UNL A   1      52.947  35.312  24.979  1.00  0.00     0.001 A 
ATOM     93  C   UNL A   1      53.632  35.718  26.123  1.00  0.00     0.000 A 
ENDBRANCH  75  88
ENDBRANCH  49  50
ENDBRANCH  41  44
ENDBRANCH  39  40
ENDBRANCH   1  39
TORSDOF 12
ENDMDL
