MODEL 1
REMARK VINA RESULT:     -12.2      0.000      0.000
REMARK SMILES NS(=O)(=O)c1ccc(C(=O)N2CC[C@H](c3ccccc3C(=O)NCCCCNC(=O)c3ccc(-c4c5nc(c(-c6ccccc6)c6ccc([nH]6)c(-c6ccccc6)c6nc(c(-c7ccccc7)c7ccc4[nH]7)C=C6)C=C5)cc3)C2)cc1
REMARK SMILES IDX 24 1 23 2 21 3 22 4 20 6 15 7 16 8 17 9 19 10 18 11 14 12
REMARK SMILES IDX 11 13 12 14 79 15 13 16 9 17 10 18 8 19 5 20 6 21 81 22 7 23
REMARK SMILES IDX 80 24 2 25 3 26 4 27 1 28 25 31 26 32 27 33 28 34 29 35
REMARK SMILES IDX 30 37 31 38 32 39 78 40 33 41 77 42 34 43 35 44 36 45 71 46
REMARK SMILES IDX 37 47 76 48 70 49 72 50 38 51 75 52 69 53 68 54 39 56 61 57
REMARK SMILES IDX 46 58 60 59 47 60 50 61 59 62 73 63 48 64 49 65 58 67 74 68
REMARK SMILES IDX 51 69 40 70 41 71 45 72 42 73 44 74 43 75 62 76 63 77 67 78
REMARK SMILES IDX 64 79 66 80 65 81 52 82 53 83 57 84 54 85 56 86 55 87
REMARK H PARENT 23 5 1 29 1 30 28 36 72 55 50 66
REMARK Flexibility Score: inf
ROOT
ATOM      1  C   UNL A   1      36.956  22.614  23.878  1.00  0.00     0.116 C 
ENDROOT
BRANCH   1   2
ATOM      2  N   UNL A   1      35.523  22.832  23.851  1.00  0.00    -0.352 N 
ATOM      3  C   UNL A   1      34.629  22.256  24.724  1.00  0.00     0.251 C 
ATOM      4  O   UNL A   1      34.245  22.926  25.682  1.00  0.00    -0.269 OA
ATOM      5  H   UNL A   1      35.165  23.434  23.159  1.00  0.00     0.163 HD
BRANCH   3   6
ATOM      6  C   UNL A   1      33.881  21.007  24.344  1.00  0.00     0.043 A 
ATOM      7  C   UNL A   1      32.706  20.884  23.557  1.00  0.00    -0.030 A 
ATOM      8  C   UNL A   1      32.206  19.583  23.323  1.00  0.00     0.005 A 
ATOM      9  C   UNL A   1      32.859  18.442  23.791  1.00  0.00     0.000 A 
ATOM     10  C   UNL A   1      34.520  19.836  24.810  1.00  0.00     0.014 A 
ATOM     11  C   UNL A   1      34.022  18.566  24.530  1.00  0.00     0.001 A 
BRANCH   7  12
ATOM     12  C   UNL A   1      32.023  22.063  22.905  1.00  0.00     0.041 C 
ATOM     13  N   UNL A   1      32.057  24.396  22.375  1.00  0.00    -0.338 N 
ATOM     14  C   UNL A   1      30.832  24.099  23.088  1.00  0.00     0.120 C 
ATOM     15  C   UNL A   1      32.823  23.169  22.156  1.00  0.00     0.128 C 
ATOM     16  C   UNL A   1      31.260  22.915  23.939  1.00  0.00     0.032 C 
BRANCH  13  17
ATOM     17  C   UNL A   1      32.689  25.617  22.203  1.00  0.00     0.253 C 
ATOM     18  O   UNL A   1      33.333  25.862  21.184  1.00  0.00    -0.269 OA
BRANCH  17  19
ATOM     19  C   UNL A   1      32.761  26.582  23.347  1.00  0.00     0.040 A 
ATOM     20  C   UNL A   1      32.649  28.152  25.674  1.00  0.00     0.082 A 
ATOM     21  C   UNL A   1      33.523  27.063  25.609  1.00  0.00     0.022 A 
ATOM     22  C   UNL A   1      31.839  28.468  24.591  1.00  0.00     0.022 A 
ATOM     23  C   UNL A   1      33.587  26.288  24.441  1.00  0.00     0.015 A 
ATOM     24  C   UNL A   1      31.875  27.663  23.459  1.00  0.00     0.015 A 
BRANCH  20  25
ATOM     25  S   UNL A   1      32.505  29.068  27.178  1.00  0.00     0.238 S 
ATOM     26  O   UNL A   1      31.756  30.272  26.906  1.00  0.00    -0.207 OA
ATOM     27  O   UNL A   1      33.786  29.062  27.840  1.00  0.00    -0.207 OA
BRANCH  25  28
ATOM     28  N   UNL A   1      31.502  28.119  28.145  1.00  0.00    -0.225 NA
ATOM     29  H   UNL A   1      31.893  27.180  28.221  1.00  0.00     0.137 HD
ATOM     30  H   UNL A   1      30.574  28.070  27.726  1.00  0.00     0.137 HD
ENDBRANCH  25  28
ENDBRANCH  20  25
ENDBRANCH  17  19
ENDBRANCH  13  17
ENDBRANCH   7  12
ENDBRANCH   3   6
ENDBRANCH   1   2
BRANCH   1  31
ATOM     31  C   UNL A   1      37.435  22.057  25.213  1.00  0.00     0.023 C 
BRANCH  31  32
ATOM     32  C   UNL A   1      38.249  20.780  25.043  1.00  0.00     0.023 C 
BRANCH  32  33
ATOM     33  C   UNL A   1      39.243  20.486  26.159  1.00  0.00     0.116 C 
BRANCH  33  34
ATOM     34  N   UNL A   1      40.109  19.345  25.919  1.00  0.00    -0.352 N 
ATOM     35  C   UNL A   1      41.480  19.291  26.076  1.00  0.00     0.251 C 
ATOM     36  H   UNL A   1      39.671  18.519  25.610  1.00  0.00     0.163 HD
ATOM     37  O   UNL A   1      42.111  18.273  25.823  1.00  0.00    -0.269 OA
BRANCH  35  38
ATOM     38  C   UNL A   1      42.188  20.522  26.489  1.00  0.00     0.039 A 
ATOM     39  C   UNL A   1      42.657  21.386  25.497  1.00  0.00     0.014 A 
ATOM     40  C   UNL A   1      42.244  20.887  27.837  1.00  0.00     0.014 A 
ATOM     41  C   UNL A   1      43.094  22.662  25.853  1.00  0.00     0.010 A 
ATOM     42  C   UNL A   1      42.591  22.190  28.176  1.00  0.00     0.010 A 
ATOM     43  C   UNL A   1      43.011  23.095  27.187  1.00  0.00    -0.014 A 
BRANCH  43  44
ATOM     44  C   UNL A   1      43.346  24.495  27.559  1.00  0.00     0.031 A 
ATOM     45  C   UNL A   1      44.777  24.956  27.544  1.00  0.00     0.074 A 
ATOM     46  C   UNL A   1      42.372  25.335  27.962  1.00  0.00     0.049 A 
ATOM     47  N   UNL A   1      45.268  26.133  27.844  1.00  0.00    -0.248 NA
ATOM     48  C   UNL A   1      45.790  23.960  27.168  1.00  0.00     0.031 C 
ATOM     49  C   UNL A   1      40.950  25.002  28.061  1.00  0.00     0.029 A 
ATOM     50  N   UNL A   1      42.432  26.650  28.358  1.00  0.00    -0.354 N 
ATOM     51  C   UNL A   1      46.645  26.009  27.711  1.00  0.00     0.074 A 
ATOM     52  C   UNL A   1      46.914  24.631  27.366  1.00  0.00     0.031 C 
ATOM     53  C   UNL A   1      40.267  26.096  28.438  1.00  0.00     0.029 A 
ATOM     54  C   UNL A   1      41.205  27.192  28.654  1.00  0.00     0.049 A 
ATOM     55  H   UNL A   1      43.274  27.154  28.424  1.00  0.00     0.167 HD
ATOM     56  C   UNL A   1      47.600  26.958  27.845  1.00  0.00     0.031 A 
ATOM     57  C   UNL A   1      40.870  28.437  29.049  1.00  0.00     0.031 A 
ATOM     58  C   UNL A   1      47.331  28.330  28.187  1.00  0.00     0.049 A 
ATOM     59  C   UNL A   1      41.952  29.467  29.221  1.00  0.00     0.074 A 
ATOM     60  C   UNL A   1      48.222  29.385  28.282  1.00  0.00     0.029 A 
ATOM     61  N   UNL A   1      46.079  28.833  28.502  1.00  0.00    -0.354 N 
ATOM     62  N   UNL A   1      43.242  29.357  29.011  1.00  0.00    -0.248 NA
ATOM     63  C   UNL A   1      41.528  30.799  29.679  1.00  0.00     0.031 C 
ATOM     64  C   UNL A   1      47.519  30.510  28.724  1.00  0.00     0.029 A 
ATOM     65  C   UNL A   1      46.178  30.175  28.832  1.00  0.00     0.049 A 
ATOM     66  H   UNL A   1      45.242  28.314  28.493  1.00  0.00     0.167 HD
ATOM     67  C   UNL A   1      43.778  30.610  29.277  1.00  0.00     0.074 A 
ATOM     68  C   UNL A   1      42.672  31.468  29.652  1.00  0.00     0.031 C 
ATOM     69  C   UNL A   1      45.070  31.015  29.211  1.00  0.00     0.031 A 
BRANCH  56  70
ATOM     70  C   UNL A   1      49.029  26.529  27.647  1.00  0.00    -0.014 A 
ATOM     71  C   UNL A   1      49.840  26.144  28.728  1.00  0.00     0.009 A 
ATOM     72  C   UNL A   1      49.574  26.510  26.353  1.00  0.00     0.009 A 
ATOM     73  C   UNL A   1      51.179  25.805  28.525  1.00  0.00     0.001 A 
ATOM     74  C   UNL A   1      50.903  26.133  26.149  1.00  0.00     0.001 A 
ATOM     75  C   UNL A   1      51.709  25.796  27.234  1.00  0.00     0.000 A 
ENDBRANCH  56  70
BRANCH  57  76
ATOM     76  C   UNL A   1      39.443  28.790  29.275  1.00  0.00    -0.014 A 
ATOM     77  C   UNL A   1      38.668  29.310  28.227  1.00  0.00     0.009 A 
ATOM     78  C   UNL A   1      38.847  28.612  30.534  1.00  0.00     0.009 A 
ATOM     79  C   UNL A   1      37.332  29.663  28.440  1.00  0.00     0.001 A 
ATOM     80  C   UNL A   1      37.504  28.938  30.735  1.00  0.00     0.001 A 
ATOM     81  C   UNL A   1      36.750  29.471  29.690  1.00  0.00     0.000 A 
ENDBRANCH  57  76
BRANCH  69  82
ATOM     82  C   UNL A   1      45.357  32.460  29.517  1.00  0.00    -0.014 A 
ATOM     83  C   UNL A   1      45.297  33.448  28.523  1.00  0.00     0.009 A 
ATOM     84  C   UNL A   1      45.651  32.842  30.837  1.00  0.00     0.009 A 
ATOM     85  C   UNL A   1      45.561  34.783  28.836  1.00  0.00     0.001 A 
ATOM     86  C   UNL A   1      45.881  34.182  31.153  1.00  0.00     0.001 A 
ATOM     87  C   UNL A   1      45.846  35.149  30.151  1.00  0.00     0.000 A 
ENDBRANCH  69  82
ENDBRANCH  43  44
ENDBRANCH  35  38
ENDBRANCH  33  34
ENDBRANCH  32  33
ENDBRANCH  31  32
ENDBRANCH   1  31
TORSDOF 16
ENDMDL
MODEL 2
REMARK VINA RESULT:     -12.2      1.893      2.301
REMARK SMILES NS(=O)(=O)c1ccc(C(=O)N2CC[C@H](c3ccccc3C(=O)NCCCCNC(=O)c3ccc(-c4c5nc(c(-c6ccccc6)c6ccc([nH]6)c(-c6ccccc6)c6nc(c(-c7ccccc7)c7ccc4[nH]7)C=C6)C=C5)cc3)C2)cc1
REMARK SMILES IDX 24 1 23 2 21 3 22 4 20 6 15 7 16 8 17 9 19 10 18 11 14 12
REMARK SMILES IDX 11 13 12 14 79 15 13 16 9 17 10 18 8 19 5 20 6 21 81 22 7 23
REMARK SMILES IDX 80 24 2 25 3 26 4 27 1 28 25 31 26 32 27 33 28 34 29 35
REMARK SMILES IDX 30 37 31 38 32 39 78 40 33 41 77 42 34 43 35 44 36 45 71 46
REMARK SMILES IDX 37 47 76 48 70 49 72 50 38 51 75 52 69 53 68 54 39 56 61 57
REMARK SMILES IDX 46 58 60 59 47 60 50 61 59 62 73 63 48 64 49 65 58 67 74 68
REMARK SMILES IDX 51 69 40 70 41 71 45 72 42 73 44 74 43 75 62 76 63 77 67 78
REMARK SMILES IDX 64 79 66 80 65 81 52 82 53 83 57 84 54 85 56 86 55 87
REMARK H PARENT 23 5 1 29 1 30 28 36 72 55 50 66
REMARK Flexibility Score: inf
ROOT
ATOM      1  C   UNL A   1      36.656  22.352  25.779  1.00  0.00     0.116 C 
ENDROOT
BRANCH   1   2
ATOM      2  N   UNL A   1      35.236  22.592  25.954  1.00  0.00    -0.352 N 
ATOM      3  C   UNL A   1      34.294  21.607  26.138  1.00  0.00     0.251 C 
ATOM      4  O   UNL A   1      33.923  21.369  27.287  1.00  0.00    -0.269 OA
ATOM      5  H   UNL A   1      34.926  23.527  25.940  1.00  0.00     0.163 HD
BRANCH   3   6
ATOM      6  C   UNL A   1      33.492  21.086  24.977  1.00  0.00     0.043 A 
ATOM      7  C   UNL A   1      32.809  21.821  23.972  1.00  0.00    -0.030 A 
ATOM      8  C   UNL A   1      32.139  21.090  22.965  1.00  0.00     0.005 A 
ATOM      9  C   UNL A   1      32.180  19.696  22.909  1.00  0.00     0.000 A 
ATOM     10  C   UNL A   1      33.514  19.675  24.898  1.00  0.00     0.014 A 
ATOM     11  C   UNL A   1      32.874  18.986  23.872  1.00  0.00     0.001 A 
BRANCH   7  12
ATOM     12  C   UNL A   1      32.835  23.329  23.893  1.00  0.00     0.041 C 
ATOM     13  N   UNL A   1      31.707  25.405  24.267  1.00  0.00    -0.338 N 
ATOM     14  C   UNL A   1      32.111  25.340  22.878  1.00  0.00     0.120 C 
ATOM     15  C   UNL A   1      32.183  24.224  24.987  1.00  0.00     0.128 C 
ATOM     16  C   UNL A   1      32.104  23.840  22.634  1.00  0.00     0.032 C 
BRANCH  13  17
ATOM     17  C   UNL A   1      30.731  26.196  24.853  1.00  0.00     0.253 C 
ATOM     18  O   UNL A   1      30.197  25.869  25.911  1.00  0.00    -0.269 OA
BRANCH  17  19
ATOM     19  C   UNL A   1      30.171  27.363  24.098  1.00  0.00     0.040 A 
ATOM     20  C   UNL A   1      28.970  29.664  23.023  1.00  0.00     0.082 A 
ATOM     21  C   UNL A   1      30.220  29.755  23.644  1.00  0.00     0.022 A 
ATOM     22  C   UNL A   1      28.320  28.440  22.928  1.00  0.00     0.022 A 
ATOM     23  C   UNL A   1      30.823  28.602  24.168  1.00  0.00     0.015 A 
ATOM     24  C   UNL A   1      28.906  27.315  23.495  1.00  0.00     0.015 A 
BRANCH  20  25
ATOM     25  S   UNL A   1      28.173  31.132  22.447  1.00  0.00     0.238 S 
ATOM     26  O   UNL A   1      27.253  31.579  23.467  1.00  0.00    -0.207 OA
ATOM     27  O   UNL A   1      27.796  30.936  21.070  1.00  0.00    -0.207 OA
BRANCH  25  28
ATOM     28  N   UNL A   1      29.403  32.283  22.411  1.00  0.00    -0.225 NA
ATOM     29  H   UNL A   1      29.906  32.271  23.298  1.00  0.00     0.137 HD
ATOM     30  H   UNL A   1      28.999  33.208  22.260  1.00  0.00     0.137 HD
ENDBRANCH  25  28
ENDBRANCH  20  25
ENDBRANCH  17  19
ENDBRANCH  13  17
ENDBRANCH   7  12
ENDBRANCH   3   6
ENDBRANCH   1   2
BRANCH   1  31
ATOM     31  C   UNL A   1      36.956  20.915  25.370  1.00  0.00     0.023 C 
BRANCH  31  32
ATOM     32  C   UNL A   1      38.421  20.718  25.001  1.00  0.00     0.023 C 
BRANCH  32  33
ATOM     33  C   UNL A   1      39.348  20.385  26.162  1.00  0.00     0.116 C 
BRANCH  33  34
ATOM     34  N   UNL A   1      40.219  19.244  25.939  1.00  0.00    -0.352 N 
ATOM     35  C   UNL A   1      41.588  19.193  26.113  1.00  0.00     0.251 C 
ATOM     36  H   UNL A   1      39.786  18.416  25.629  1.00  0.00     0.163 HD
ATOM     37  O   UNL A   1      42.224  18.175  25.874  1.00  0.00    -0.269 OA
BRANCH  35  38
ATOM     38  C   UNL A   1      42.289  20.427  26.530  1.00  0.00     0.039 A 
ATOM     39  C   UNL A   1      42.851  21.239  25.543  1.00  0.00     0.014 A 
ATOM     40  C   UNL A   1      42.249  20.848  27.862  1.00  0.00     0.014 A 
ATOM     41  C   UNL A   1      43.287  22.521  25.879  1.00  0.00     0.010 A 
ATOM     42  C   UNL A   1      42.597  22.158  28.172  1.00  0.00     0.010 A 
ATOM     43  C   UNL A   1      43.112  23.012  27.184  1.00  0.00    -0.014 A 
BRANCH  43  44
ATOM     44  C   UNL A   1      43.447  24.420  27.522  1.00  0.00     0.031 A 
ATOM     45  C   UNL A   1      44.876  24.885  27.478  1.00  0.00     0.074 A 
ATOM     46  C   UNL A   1      42.476  25.265  27.922  1.00  0.00     0.049 A 
ATOM     47  N   UNL A   1      45.368  26.069  27.747  1.00  0.00    -0.248 NA
ATOM     48  C   UNL A   1      45.887  23.884  27.108  1.00  0.00     0.031 C 
ATOM     49  C   UNL A   1      41.056  24.930  28.047  1.00  0.00     0.029 A 
ATOM     50  N   UNL A   1      42.537  26.588  28.290  1.00  0.00    -0.354 N 
ATOM     51  C   UNL A   1      46.743  25.946  27.598  1.00  0.00     0.074 A 
ATOM     52  C   UNL A   1      47.011  24.562  27.277  1.00  0.00     0.031 C 
ATOM     53  C   UNL A   1      40.375  26.029  28.412  1.00  0.00     0.029 A 
ATOM     54  C   UNL A   1      41.313  27.133  28.593  1.00  0.00     0.049 A 
ATOM     55  H   UNL A   1      43.379  27.096  28.335  1.00  0.00     0.167 HD
ATOM     56  C   UNL A   1      47.697  26.901  27.700  1.00  0.00     0.031 A 
ATOM     57  C   UNL A   1      40.980  28.384  28.967  1.00  0.00     0.031 A 
ATOM     58  C   UNL A   1      47.429  28.279  28.017  1.00  0.00     0.049 A 
ATOM     59  C   UNL A   1      42.061  29.421  29.103  1.00  0.00     0.074 A 
ATOM     60  C   UNL A   1      48.318  29.337  28.078  1.00  0.00     0.029 A 
ATOM     61  N   UNL A   1      46.179  28.784  28.339  1.00  0.00    -0.354 N 
ATOM     62  N   UNL A   1      43.348  29.309  28.877  1.00  0.00    -0.248 NA
ATOM     63  C   UNL A   1      41.639  30.760  29.540  1.00  0.00     0.031 C 
ATOM     64  C   UNL A   1      47.617  30.469  28.507  1.00  0.00     0.029 A 
ATOM     65  C   UNL A   1      46.278  30.132  28.641  1.00  0.00     0.049 A 
ATOM     66  H   UNL A   1      45.344  28.263  28.352  1.00  0.00     0.167 HD
ATOM     67  C   UNL A   1      43.884  30.570  29.111  1.00  0.00     0.074 A 
ATOM     68  C   UNL A   1      42.780  31.432  29.483  1.00  0.00     0.031 C 
ATOM     69  C   UNL A   1      45.173  30.977  29.019  1.00  0.00     0.031 A 
BRANCH  56  70
ATOM     70  C   UNL A   1      49.125  26.471  27.490  1.00  0.00    -0.014 A 
ATOM     71  C   UNL A   1      49.950  26.109  28.567  1.00  0.00     0.009 A 
ATOM     72  C   UNL A   1      49.653  26.430  26.190  1.00  0.00     0.009 A 
ATOM     73  C   UNL A   1      51.288  25.769  28.352  1.00  0.00     0.001 A 
ATOM     74  C   UNL A   1      50.980  26.053  25.974  1.00  0.00     0.001 A 
ATOM     75  C   UNL A   1      51.800  25.739  27.055  1.00  0.00     0.000 A 
ENDBRANCH  56  70
BRANCH  57  76
ATOM     76  C   UNL A   1      39.555  28.737  29.206  1.00  0.00    -0.014 A 
ATOM     77  C   UNL A   1      38.987  28.566  30.478  1.00  0.00     0.009 A 
ATOM     78  C   UNL A   1      38.755  29.245  28.170  1.00  0.00     0.009 A 
ATOM     79  C   UNL A   1      37.643  28.876  30.703  1.00  0.00     0.001 A 
ATOM     80  C   UNL A   1      37.419  29.582  28.406  1.00  0.00     0.001 A 
ATOM     81  C   UNL A   1      36.862  29.389  29.669  1.00  0.00     0.000 A 
ENDBRANCH  57  76
BRANCH  69  82
ATOM     82  C   UNL A   1      45.460  32.428  29.292  1.00  0.00    -0.014 A 
ATOM     83  C   UNL A   1      45.370  33.398  28.281  1.00  0.00     0.009 A 
ATOM     84  C   UNL A   1      45.784  32.836  30.596  1.00  0.00     0.009 A 
ATOM     85  C   UNL A   1      45.635  34.740  28.564  1.00  0.00     0.001 A 
ATOM     86  C   UNL A   1      46.015  34.182  30.883  1.00  0.00     0.001 A 
ATOM     87  C   UNL A   1      45.950  35.131  29.865  1.00  0.00     0.000 A 
ENDBRANCH  69  82
ENDBRANCH  43  44
ENDBRANCH  35  38
ENDBRANCH  33  34
ENDBRANCH  32  33
ENDBRANCH  31  32
ENDBRANCH   1  31
TORSDOF 16
ENDMDL
MODEL 3
REMARK VINA RESULT:     -12.0      4.630     10.094
REMARK SMILES NS(=O)(=O)c1ccc(C(=O)N2CC[C@H](c3ccccc3C(=O)NCCCCNC(=O)c3ccc(-c4c5nc(c(-c6ccccc6)c6ccc([nH]6)c(-c6ccccc6)c6nc(c(-c7ccccc7)c7ccc4[nH]7)C=C6)C=C5)cc3)C2)cc1
REMARK SMILES IDX 24 1 23 2 21 3 22 4 20 6 15 7 16 8 17 9 19 10 18 11 14 12
REMARK SMILES IDX 11 13 12 14 79 15 13 16 9 17 10 18 8 19 5 20 6 21 81 22 7 23
REMARK SMILES IDX 80 24 2 25 3 26 4 27 1 28 25 31 26 32 27 33 28 34 29 35
REMARK SMILES IDX 30 37 31 38 32 39 78 40 33 41 77 42 34 43 35 44 36 45 71 46
REMARK SMILES IDX 37 47 76 48 70 49 72 50 38 51 75 52 69 53 68 54 39 56 61 57
REMARK SMILES IDX 46 58 60 59 47 60 50 61 59 62 73 63 48 64 49 65 58 67 74 68
REMARK SMILES IDX 51 69 40 70 41 71 45 72 42 73 44 74 43 75 62 76 63 77 67 78
REMARK SMILES IDX 64 79 66 80 65 81 52 82 53 83 57 84 54 85 56 86 55 87
REMARK H PARENT 23 5 1 29 1 30 28 36 72 55 50 66
REMARK Flexibility Score: inf
ROOT
ATOM      1  C   UNL A   1      31.751  29.187  27.017  1.00  0.00     0.116 C 
ENDROOT
BRANCH   1   2
ATOM      2  N   UNL A   1      31.599  28.459  25.771  1.00  0.00    -0.352 N 
ATOM      3  C   UNL A   1      31.499  29.045  24.531  1.00  0.00     0.251 C 
ATOM      4  O   UNL A   1      32.514  29.102  23.836  1.00  0.00    -0.269 OA
ATOM      5  H   UNL A   1      31.565  27.476  25.818  1.00  0.00     0.163 HD
BRANCH   3   6
ATOM      6  C   UNL A   1      30.155  29.287  23.902  1.00  0.00     0.043 A 
ATOM      7  C   UNL A   1      29.231  28.337  23.394  1.00  0.00    -0.030 A 
ATOM      8  C   UNL A   1      28.012  28.821  22.869  1.00  0.00     0.005 A 
ATOM      9  C   UNL A   1      27.682  30.177  22.890  1.00  0.00     0.000 A 
ATOM     10  C   UNL A   1      29.797  30.655  23.908  1.00  0.00     0.014 A 
ATOM     11  C   UNL A   1      28.572  31.097  23.417  1.00  0.00     0.001 A 
BRANCH   7  12
ATOM     12  C   UNL A   1      29.462  26.846  23.461  1.00  0.00     0.041 C 
ATOM     13  N   UNL A   1      30.502  24.996  24.566  1.00  0.00    -0.338 N 
ATOM     14  C   UNL A   1      30.883  24.977  23.169  1.00  0.00     0.120 C 
ATOM     15  C   UNL A   1      29.560  26.087  24.818  1.00  0.00     0.128 C 
ATOM     16  C   UNL A   1      30.807  26.453  22.817  1.00  0.00     0.032 C 
BRANCH  13  17
ATOM     17  C   UNL A   1      31.125  24.390  25.646  1.00  0.00     0.253 C 
ATOM     18  O   UNL A   1      30.601  24.377  26.758  1.00  0.00    -0.269 OA
BRANCH  17  19
ATOM     19  C   UNL A   1      32.541  23.916  25.515  1.00  0.00     0.040 A 
ATOM     20  C   UNL A   1      35.185  23.183  24.911  1.00  0.00     0.082 A 
ATOM     21  C   UNL A   1      34.909  24.470  25.383  1.00  0.00     0.022 A 
ATOM     22  C   UNL A   1      34.159  22.261  24.743  1.00  0.00     0.022 A 
ATOM     23  C   UNL A   1      33.589  24.829  25.696  1.00  0.00     0.015 A 
ATOM     24  C   UNL A   1      32.851  22.645  25.010  1.00  0.00     0.015 A 
BRANCH  20  25
ATOM     25  S   UNL A   1      36.833  22.764  24.431  1.00  0.00     0.238 S 
ATOM     26  O   UNL A   1      36.985  21.331  24.536  1.00  0.00    -0.207 OA
ATOM     27  O   UNL A   1      37.739  23.705  25.039  1.00  0.00    -0.207 OA
BRANCH  25  28
ATOM     28  N   UNL A   1      36.882  23.105  22.781  1.00  0.00    -0.225 NA
ATOM     29  H   UNL A   1      36.664  22.260  22.253  1.00  0.00     0.137 HD
ATOM     30  H   UNL A   1      37.814  23.433  22.529  1.00  0.00     0.137 HD
ENDBRANCH  25  28
ENDBRANCH  20  25
ENDBRANCH  17  19
ENDBRANCH  13  17
ENDBRANCH   7  12
ENDBRANCH   3   6
ENDBRANCH   1   2
BRANCH   1  31
ATOM     31  C   UNL A   1      32.787  30.299  26.918  1.00  0.00     0.023 C 
BRANCH  31  32
ATOM     32  C   UNL A   1      32.164  31.680  27.081  1.00  0.00     0.023 C 
BRANCH  32  33
ATOM     33  C   UNL A   1      33.150  32.818  27.307  1.00  0.00     0.116 C 
BRANCH  33  34
ATOM     34  N   UNL A   1      32.547  34.073  27.724  1.00  0.00    -0.352 N 
ATOM     35  C   UNL A   1      33.024  34.951  28.678  1.00  0.00     0.251 C 
ATOM     36  H   UNL A   1      31.706  34.325  27.278  1.00  0.00     0.163 HD
ATOM     37  O   UNL A   1      32.417  35.975  28.961  1.00  0.00    -0.269 OA
BRANCH  35  38
ATOM     38  C   UNL A   1      34.257  34.589  29.410  1.00  0.00     0.039 A 
ATOM     39  C   UNL A   1      34.135  33.955  30.648  1.00  0.00     0.014 A 
ATOM     40  C   UNL A   1      35.508  34.737  28.805  1.00  0.00     0.014 A 
ATOM     41  C   UNL A   1      35.262  33.378  31.234  1.00  0.00     0.010 A 
ATOM     42  C   UNL A   1      36.608  34.080  29.346  1.00  0.00     0.010 A 
ATOM     43  C   UNL A   1      36.496  33.387  30.562  1.00  0.00    -0.014 A 
BRANCH  43  44
ATOM     44  C   UNL A   1      37.671  32.662  31.112  1.00  0.00     0.031 A 
ATOM     45  C   UNL A   1      38.315  33.128  32.388  1.00  0.00     0.074 A 
ATOM     46  C   UNL A   1      38.192  31.617  30.437  1.00  0.00     0.049 A 
ATOM     47  N   UNL A   1      39.350  32.634  33.018  1.00  0.00    -0.248 NA
ATOM     48  C   UNL A   1      37.736  34.321  33.024  1.00  0.00     0.031 C 
ATOM     49  C   UNL A   1      37.689  31.088  29.168  1.00  0.00     0.029 A 
ATOM     50  N   UNL A   1      39.263  30.807  30.732  1.00  0.00    -0.354 N 
ATOM     51  C   UNL A   1      39.556  33.466  34.111  1.00  0.00     0.074 A 
ATOM     52  C   UNL A   1      38.580  34.529  34.022  1.00  0.00     0.031 C 
ATOM     53  C   UNL A   1      38.415  30.013  28.821  1.00  0.00     0.029 A 
ATOM     54  C   UNL A   1      39.463  29.804  29.814  1.00  0.00     0.049 A 
ATOM     55  H   UNL A   1      39.832  30.934  31.524  1.00  0.00     0.167 HD
ATOM     56  C   UNL A   1      40.462  33.349  35.110  1.00  0.00     0.031 A 
ATOM     57  C   UNL A   1      40.384  28.820  29.780  1.00  0.00     0.031 A 
ATOM     58  C   UNL A   1      41.432  32.289  35.199  1.00  0.00     0.049 A 
ATOM     59  C   UNL A   1      41.400  28.727  30.884  1.00  0.00     0.074 A 
ATOM     60  C   UNL A   1      42.349  32.043  36.205  1.00  0.00     0.029 A 
ATOM     61  N   UNL A   1      41.617  31.308  34.238  1.00  0.00    -0.354 N 
ATOM     62  N   UNL A   1      41.529  29.474  31.955  1.00  0.00    -0.248 NA
ATOM     63  C   UNL A   1      42.394  27.650  30.778  1.00  0.00     0.031 C 
ATOM     64  C   UNL A   1      43.137  30.955  35.819  1.00  0.00     0.029 A 
ATOM     65  C   UNL A   1      42.662  30.477  34.607  1.00  0.00     0.049 A 
ATOM     66  H   UNL A   1      41.085  31.215  33.415  1.00  0.00     0.167 HD
ATOM     67  C   UNL A   1      42.595  28.936  32.666  1.00  0.00     0.074 A 
ATOM     68  C   UNL A   1      43.068  27.794  31.910  1.00  0.00     0.031 C 
ATOM     69  C   UNL A   1      43.129  29.348  33.841  1.00  0.00     0.031 A 
BRANCH  56  70
ATOM     70  C   UNL A   1      40.457  34.416  36.171  1.00  0.00    -0.014 A 
ATOM     71  C   UNL A   1      41.221  35.588  36.041  1.00  0.00     0.009 A 
ATOM     72  C   UNL A   1      39.675  34.244  37.324  1.00  0.00     0.009 A 
ATOM     73  C   UNL A   1      41.244  36.538  37.065  1.00  0.00     0.001 A 
ATOM     74  C   UNL A   1      39.670  35.213  38.330  1.00  0.00     0.001 A 
ATOM     75  C   UNL A   1      40.466  36.350  38.207  1.00  0.00     0.000 A 
ENDBRANCH  56  70
BRANCH  57  76
ATOM     76  C   UNL A   1      40.367  27.820  28.678  1.00  0.00    -0.014 A 
ATOM     77  C   UNL A   1      39.713  26.590  28.849  1.00  0.00     0.009 A 
ATOM     78  C   UNL A   1      41.002  28.085  27.455  1.00  0.00     0.009 A 
ATOM     79  C   UNL A   1      39.712  25.639  27.825  1.00  0.00     0.001 A 
ATOM     80  C   UNL A   1      40.973  27.144  26.422  1.00  0.00     0.001 A 
ATOM     81  C   UNL A   1      40.337  25.918  26.612  1.00  0.00     0.000 A 
ENDBRANCH  57  76
BRANCH  69  82
ATOM     82  C   UNL A   1      44.265  28.539  34.405  1.00  0.00    -0.014 A 
ATOM     83  C   UNL A   1      44.039  27.443  35.251  1.00  0.00     0.009 A 
ATOM     84  C   UNL A   1      45.585  28.857  34.044  1.00  0.00     0.009 A 
ATOM     85  C   UNL A   1      45.112  26.706  35.754  1.00  0.00     0.001 A 
ATOM     86  C   UNL A   1      46.654  28.096  34.521  1.00  0.00     0.001 A 
ATOM     87  C   UNL A   1      46.417  27.028  35.383  1.00  0.00     0.000 A 
ENDBRANCH  69  82
ENDBRANCH  43  44
ENDBRANCH  35  38
ENDBRANCH  33  34
ENDBRANCH  32  33
ENDBRANCH  31  32
ENDBRANCH   1  31
TORSDOF 16
ENDMDL
