MODEL 1
REMARK VINA RESULT:     -11.7      0.000      0.000
REMARK SMILES O=C(Cc1cc(=O)[nH]c(=O)[nH]1)Nc1cccc(C(=O)NCCCCNC(=O)c2ccc(-c3c4nc(c(-c5ccccc5)c5ccc([nH]5)c(-c5ccccc5)c5nc(c(-c6ccccc6)c6ccc3[nH]6)C=C5)C=C4)cc2)c1
REMARK SMILES IDX 22 1 21 2 20 3 18 4 19 5 17 7 13 8 14 9 76 10 15 11 16 12
REMARK SMILES IDX 12 13 1 14 2 15 3 17 4 18 5 19 11 20 6 21 9 22 7 24 8 25
REMARK SMILES IDX 10 26 23 28 24 29 25 30 26 31 27 33 28 34 29 35 75 36 30 37
REMARK SMILES IDX 74 38 31 39 32 40 33 41 68 42 34 43 73 44 67 45 69 46 35 47
REMARK SMILES IDX 72 48 66 49 65 50 36 52 58 53 43 54 57 55 44 56 47 57 56 58
REMARK SMILES IDX 70 59 45 60 46 61 55 63 71 64 48 65 37 66 38 67 42 68 39 69
REMARK SMILES IDX 41 70 40 71 59 72 60 73 64 74 61 75 63 76 62 77 49 78 50 79
REMARK SMILES IDX 54 80 51 81 53 82 52 83
REMARK H PARENT 20 6 12 16 11 23 8 27 25 32 69 51 47 62
REMARK Flexibility Score: inf
ROOT
ATOM      1  C   UNL A   1      31.961  28.292  25.512  1.00  0.00     0.023 C 
ENDROOT
BRANCH   1   2
ATOM      2  C   UNL A   1      31.552  26.921  24.989  1.00  0.00     0.116 C 
BRANCH   2   3
ATOM      3  N   UNL A   1      31.096  25.983  26.009  1.00  0.00    -0.352 N 
ATOM      4  C   UNL A   1      31.587  24.733  26.345  1.00  0.00     0.251 C 
ATOM      5  O   UNL A   1      31.045  24.090  27.240  1.00  0.00    -0.269 OA
ATOM      6  H   UNL A   1      30.324  26.283  26.537  1.00  0.00     0.163 HD
BRANCH   4   7
ATOM      7  C   UNL A   1      32.710  24.128  25.583  1.00  0.00     0.041 A 
ATOM      8  C   UNL A   1      33.504  22.316  24.197  1.00  0.00     0.041 A 
ATOM      9  C   UNL A   1      34.820  22.651  24.530  1.00  0.00     0.026 A 
ATOM     10  C   UNL A   1      32.475  23.156  24.612  1.00  0.00     0.040 A 
ATOM     11  C   UNL A   1      35.082  23.751  25.355  1.00  0.00     0.003 A 
ATOM     12  C   UNL A   1      34.023  24.467  25.916  1.00  0.00     0.014 A 
BRANCH   8  13
ATOM     13  N   UNL A   1      33.262  21.067  23.577  1.00  0.00    -0.326 N 
ATOM     14  O   UNL A   1      31.990  19.991  25.211  1.00  0.00    -0.274 OA
ATOM     15  C   UNL A   1      32.596  19.987  24.140  1.00  0.00     0.230 C 
ATOM     16  H   UNL A   1      33.597  20.954  22.658  1.00  0.00     0.169 HD
BRANCH  15  17
ATOM     17  C   UNL A   1      32.753  18.665  23.391  1.00  0.00     0.154 C 
BRANCH  17  18
ATOM     18  C   UNL A   1      33.091  17.442  24.196  1.00  0.00     0.034 A 
ATOM     19  C   UNL A   1      34.354  17.005  24.292  1.00  0.00     0.093 A 
ATOM     20  N   UNL A   1      32.090  16.765  24.850  1.00  0.00    -0.311 N 
ATOM     21  C   UNL A   1      34.653  15.814  25.110  1.00  0.00     0.253 A 
ATOM     22  C   UNL A   1      32.289  15.634  25.595  1.00  0.00     0.325 A 
ATOM     23  H   UNL A   1      31.172  17.115  24.778  1.00  0.00     0.171 HD
ATOM     24  O   UNL A   1      35.803  15.412  25.236  1.00  0.00    -0.269 OA
ATOM     25  N   UNL A   1      33.579  15.207  25.693  1.00  0.00    -0.274 N 
ATOM     26  O   UNL A   1      31.356  15.044  26.126  1.00  0.00    -0.248 OA
ATOM     27  H   UNL A   1      33.750  14.397  26.226  1.00  0.00     0.175 HD
ENDBRANCH  17  18
ENDBRANCH  15  17
ENDBRANCH   8  13
ENDBRANCH   4   7
ENDBRANCH   2   3
ENDBRANCH   1   2
BRANCH   1  28
ATOM     28  C   UNL A   1      32.246  28.389  27.003  1.00  0.00     0.023 C 
BRANCH  28  29
ATOM     29  C   UNL A   1      33.638  28.875  27.386  1.00  0.00     0.116 C 
BRANCH  29  30
ATOM     30  N   UNL A   1      33.658  30.198  27.990  1.00  0.00    -0.352 N 
ATOM     31  C   UNL A   1      34.690  30.869  28.610  1.00  0.00     0.251 C 
ATOM     32  H   UNL A   1      32.804  30.689  27.950  1.00  0.00     0.163 HD
ATOM     33  O   UNL A   1      34.491  31.956  29.139  1.00  0.00    -0.269 OA
BRANCH  31  34
ATOM     34  C   UNL A   1      36.035  30.254  28.677  1.00  0.00     0.039 A 
ATOM     35  C   UNL A   1      36.897  30.395  27.586  1.00  0.00     0.014 A 
ATOM     36  C   UNL A   1      36.456  29.564  29.815  1.00  0.00     0.014 A 
ATOM     37  C   UNL A   1      38.210  29.924  27.674  1.00  0.00     0.010 A 
ATOM     38  C   UNL A   1      37.787  29.172  29.934  1.00  0.00     0.010 A 
ATOM     39  C   UNL A   1      38.679  29.351  28.866  1.00  0.00    -0.014 A 
BRANCH  39  40
ATOM     40  C   UNL A   1      40.095  28.927  29.021  1.00  0.00     0.031 A 
ATOM     41  C   UNL A   1      40.511  27.536  28.627  1.00  0.00     0.074 A 
ATOM     42  C   UNL A   1      40.992  29.762  29.580  1.00  0.00     0.049 A 
ATOM     43  N   UNL A   1      41.673  26.948  28.768  1.00  0.00    -0.248 NA
ATOM     44  C   UNL A   1      39.478  26.683  28.015  1.00  0.00     0.031 C 
ATOM     45  C   UNL A   1      40.715  31.125  30.042  1.00  0.00     0.029 A 
ATOM     46  N   UNL A   1      42.324  29.583  29.863  1.00  0.00    -0.354 N 
ATOM     47  C   UNL A   1      41.504  25.657  28.285  1.00  0.00     0.074 A 
ATOM     48  C   UNL A   1      40.117  25.529  27.893  1.00  0.00     0.031 C 
ATOM     49  C   UNL A   1      41.848  31.666  30.521  1.00  0.00     0.029 A 
ATOM     50  C   UNL A   1      42.919  30.678  30.441  1.00  0.00     0.049 A 
ATOM     51  H   UNL A   1      42.808  28.746  29.672  1.00  0.00     0.167 HD
ATOM     52  C   UNL A   1      42.422  24.670  28.156  1.00  0.00     0.031 A 
ATOM     53  C   UNL A   1      44.184  30.866  30.863  1.00  0.00     0.031 A 
ATOM     54  C   UNL A   1      43.805  24.797  28.525  1.00  0.00     0.049 A 
ATOM     55  C   UNL A   1      45.182  29.750  30.716  1.00  0.00     0.074 A 
ATOM     56  C   UNL A   1      44.821  23.865  28.397  1.00  0.00     0.029 A 
ATOM     57  N   UNL A   1      44.369  25.930  29.090  1.00  0.00    -0.354 N 
ATOM     58  N   UNL A   1      45.015  28.552  30.212  1.00  0.00    -0.248 NA
ATOM     59  C   UNL A   1      46.549  30.021  31.188  1.00  0.00     0.031 C 
ATOM     60  C   UNL A   1      45.995  24.424  28.913  1.00  0.00     0.029 A 
ATOM     61  C   UNL A   1      45.718  25.720  29.321  1.00  0.00     0.049 A 
ATOM     62  H   UNL A   1      43.883  26.761  29.294  1.00  0.00     0.167 HD
ATOM     63  C   UNL A   1      46.261  27.940  30.273  1.00  0.00     0.074 A 
ATOM     64  C   UNL A   1      47.175  28.902  30.852  1.00  0.00     0.031 C 
ATOM     65  C   UNL A   1      46.616  26.692  29.883  1.00  0.00     0.031 A 
BRANCH  52  66
ATOM     66  C   UNL A   1      41.954  23.364  27.580  1.00  0.00    -0.014 A 
ATOM     67  C   UNL A   1      42.053  23.105  26.204  1.00  0.00     0.009 A 
ATOM     68  C   UNL A   1      41.439  22.369  28.424  1.00  0.00     0.009 A 
ATOM     69  C   UNL A   1      41.613  21.888  25.680  1.00  0.00     0.001 A 
ATOM     70  C   UNL A   1      41.025  21.142  27.901  1.00  0.00     0.001 A 
ATOM     71  C   UNL A   1      41.104  20.906  26.529  1.00  0.00     0.000 A 
ENDBRANCH  52  66
BRANCH  53  72
ATOM     72  C   UNL A   1      44.597  32.169  31.447  1.00  0.00    -0.014 A 
ATOM     73  C   UNL A   1      45.111  33.183  30.622  1.00  0.00     0.009 A 
ATOM     74  C   UNL A   1      44.513  32.395  32.828  1.00  0.00     0.009 A 
ATOM     75  C   UNL A   1      45.562  34.383  31.173  1.00  0.00     0.001 A 
ATOM     76  C   UNL A   1      44.940  33.609  33.374  1.00  0.00     0.001 A 
ATOM     77  C   UNL A   1      45.474  34.596  32.548  1.00  0.00     0.000 A 
ENDBRANCH  53  72
BRANCH  65  78
ATOM     78  C   UNL A   1      48.063  26.316  30.018  1.00  0.00    -0.014 A 
ATOM     79  C   UNL A   1      48.976  26.531  28.975  1.00  0.00     0.009 A 
ATOM     80  C   UNL A   1      48.525  25.772  31.227  1.00  0.00     0.009 A 
ATOM     81  C   UNL A   1      50.317  26.179  29.128  1.00  0.00     0.001 A 
ATOM     82  C   UNL A   1      49.873  25.445  31.387  1.00  0.00     0.001 A 
ATOM     83  C   UNL A   1      50.765  25.641  30.335  1.00  0.00     0.000 A 
ENDBRANCH  65  78
ENDBRANCH  39  40
ENDBRANCH  31  34
ENDBRANCH  29  30
ENDBRANCH  28  29
ENDBRANCH   1  28
TORSDOF 14
ENDMDL
MODEL 2
REMARK VINA RESULT:     -11.6      3.898      5.702
REMARK SMILES O=C(Cc1cc(=O)[nH]c(=O)[nH]1)Nc1cccc(C(=O)NCCCCNC(=O)c2ccc(-c3c4nc(c(-c5ccccc5)c5ccc([nH]5)c(-c5ccccc5)c5nc(c(-c6ccccc6)c6ccc3[nH]6)C=C5)C=C4)cc2)c1
REMARK SMILES IDX 22 1 21 2 20 3 18 4 19 5 17 7 13 8 14 9 76 10 15 11 16 12
REMARK SMILES IDX 12 13 1 14 2 15 3 17 4 18 5 19 11 20 6 21 9 22 7 24 8 25
REMARK SMILES IDX 10 26 23 28 24 29 25 30 26 31 27 33 28 34 29 35 75 36 30 37
REMARK SMILES IDX 74 38 31 39 32 40 33 41 68 42 34 43 73 44 67 45 69 46 35 47
REMARK SMILES IDX 72 48 66 49 65 50 36 52 58 53 43 54 57 55 44 56 47 57 56 58
REMARK SMILES IDX 70 59 45 60 46 61 55 63 71 64 48 65 37 66 38 67 42 68 39 69
REMARK SMILES IDX 41 70 40 71 59 72 60 73 64 74 61 75 63 76 62 77 49 78 50 79
REMARK SMILES IDX 54 80 51 81 53 82 52 83
REMARK H PARENT 20 6 12 16 11 23 8 27 25 32 69 51 47 62
REMARK Flexibility Score: inf
ROOT
ATOM      1  C   UNL A   1      31.870  30.411  26.648  1.00  0.00     0.023 C 
ENDROOT
BRANCH   1   2
ATOM      2  C   UNL A   1      31.723  29.843  25.243  1.00  0.00     0.116 C 
BRANCH   2   3
ATOM      3  N   UNL A   1      32.976  29.648  24.521  1.00  0.00    -0.352 N 
ATOM      4  C   UNL A   1      33.413  28.562  23.784  1.00  0.00     0.251 C 
ATOM      5  O   UNL A   1      34.522  28.595  23.256  1.00  0.00    -0.269 OA
ATOM      6  H   UNL A   1      33.604  30.404  24.564  1.00  0.00     0.163 HD
BRANCH   4   7
ATOM      7  C   UNL A   1      32.592  27.327  23.691  1.00  0.00     0.041 A 
ATOM      8  C   UNL A   1      32.199  25.067  24.446  1.00  0.00     0.041 A 
ATOM      9  C   UNL A   1      31.461  24.818  23.284  1.00  0.00     0.026 A 
ATOM     10  C   UNL A   1      32.627  26.366  24.699  1.00  0.00     0.040 A 
ATOM     11  C   UNL A   1      31.254  25.837  22.346  1.00  0.00     0.003 A 
ATOM     12  C   UNL A   1      31.855  27.083  22.530  1.00  0.00     0.014 A 
BRANCH   8  13
ATOM     13  N   UNL A   1      32.599  23.966  25.240  1.00  0.00    -0.326 N 
ATOM     14  O   UNL A   1      31.409  24.372  27.205  1.00  0.00    -0.274 OA
ATOM     15  C   UNL A   1      32.241  23.734  26.561  1.00  0.00     0.230 C 
ATOM     16  H   UNL A   1      33.187  23.301  24.814  1.00  0.00     0.169 HD
BRANCH  15  17
ATOM     17  C   UNL A   1      33.058  22.660  27.276  1.00  0.00     0.154 C 
BRANCH  17  18
ATOM     18  C   UNL A   1      33.551  21.499  26.460  1.00  0.00     0.034 A 
ATOM     19  C   UNL A   1      34.821  21.443  26.034  1.00  0.00     0.093 A 
ATOM     20  N   UNL A   1      32.689  20.475  26.151  1.00  0.00    -0.311 N 
ATOM     21  C   UNL A   1      35.277  20.277  25.254  1.00  0.00     0.253 A 
ATOM     22  C   UNL A   1      33.034  19.382  25.402  1.00  0.00     0.325 A 
ATOM     23  H   UNL A   1      31.766  20.530  26.489  1.00  0.00     0.171 HD
ATOM     24  O   UNL A   1      36.440  20.191  24.878  1.00  0.00    -0.269 OA
ATOM     25  N   UNL A   1      34.331  19.333  24.985  1.00  0.00    -0.274 N 
ATOM     26  O   UNL A   1      32.216  18.514  25.120  1.00  0.00    -0.248 OA
ATOM     27  H   UNL A   1      34.605  18.556  24.447  1.00  0.00     0.175 HD
ENDBRANCH  17  18
ENDBRANCH  15  17
ENDBRANCH   8  13
ENDBRANCH   4   7
ENDBRANCH   2   3
ENDBRANCH   1   2
BRANCH   1  28
ATOM     28  C   UNL A   1      31.595  31.898  26.807  1.00  0.00     0.023 C 
BRANCH  28  29
ATOM     29  C   UNL A   1      32.770  32.749  27.270  1.00  0.00     0.116 C 
BRANCH  29  30
ATOM     30  N   UNL A   1      32.412  34.114  27.623  1.00  0.00    -0.352 N 
ATOM     31  C   UNL A   1      32.983  34.966  28.545  1.00  0.00     0.251 C 
ATOM     32  H   UNL A   1      31.645  34.486  27.129  1.00  0.00     0.163 HD
ATOM     33  O   UNL A   1      32.484  36.063  28.765  1.00  0.00    -0.269 OA
BRANCH  31  34
ATOM     34  C   UNL A   1      34.178  34.536  29.305  1.00  0.00     0.039 A 
ATOM     35  C   UNL A   1      34.007  33.975  30.574  1.00  0.00     0.014 A 
ATOM     36  C   UNL A   1      35.459  34.660  28.764  1.00  0.00     0.014 A 
ATOM     37  C   UNL A   1      35.109  33.456  31.258  1.00  0.00     0.010 A 
ATOM     38  C   UNL A   1      36.543  34.067  29.407  1.00  0.00     0.010 A 
ATOM     39  C   UNL A   1      36.378  33.456  30.660  1.00  0.00    -0.014 A 
BRANCH  39  40
ATOM     40  C   UNL A   1      37.551  32.828  31.322  1.00  0.00     0.031 A 
ATOM     41  C   UNL A   1      38.219  31.633  30.697  1.00  0.00     0.074 A 
ATOM     42  C   UNL A   1      37.974  33.283  32.518  1.00  0.00     0.049 A 
ATOM     43  N   UNL A   1      39.193  30.892  31.162  1.00  0.00    -0.248 NA
ATOM     44  C   UNL A   1      37.707  31.198  29.386  1.00  0.00     0.031 C 
ATOM     45  C   UNL A   1      37.395  34.410  33.255  1.00  0.00     0.029 A 
ATOM     46  N   UNL A   1      38.990  32.846  33.332  1.00  0.00    -0.354 N 
ATOM     47  C   UNL A   1      39.394  29.896  30.215  1.00  0.00     0.074 A 
ATOM     48  C   UNL A   1      38.410  30.095  29.174  1.00  0.00     0.031 C 
ATOM     49  C   UNL A   1      38.084  34.591  34.393  1.00  0.00     0.029 A 
ATOM     50  C   UNL A   1      39.123  33.572  34.490  1.00  0.00     0.049 A 
ATOM     51  H   UNL A   1      39.569  32.081  33.106  1.00  0.00     0.167 HD
ATOM     52  C   UNL A   1      40.327  28.915  30.198  1.00  0.00     0.031 A 
ATOM     53  C   UNL A   1      39.983  33.432  35.517  1.00  0.00     0.031 A 
ATOM     54  C   UNL A   1      41.320  28.723  31.219  1.00  0.00     0.049 A 
ATOM     55  C   UNL A   1      41.004  32.328  35.477  1.00  0.00     0.074 A 
ATOM     56  C   UNL A   1      42.332  27.780  31.271  1.00  0.00     0.029 A 
ATOM     57  N   UNL A   1      41.430  29.493  32.366  1.00  0.00    -0.354 N 
ATOM     58  N   UNL A   1      41.210  31.426  34.549  1.00  0.00    -0.248 NA
ATOM     59  C   UNL A   1      41.920  32.235  36.624  1.00  0.00     0.031 C 
ATOM     60  C   UNL A   1      43.037  27.960  32.466  1.00  0.00     0.029 A 
ATOM     61  C   UNL A   1      42.489  29.044  33.135  1.00  0.00     0.049 A 
ATOM     62  H   UNL A   1      40.843  30.248  32.598  1.00  0.00     0.167 HD
ATOM     63  C   UNL A   1      42.299  30.680  34.984  1.00  0.00     0.074 A 
ATOM     64  C   UNL A   1      42.716  31.243  36.250  1.00  0.00     0.031 C 
ATOM     65  C   UNL A   1      42.901  29.624  34.385  1.00  0.00     0.031 A 
BRANCH  52  66
ATOM     66  C   UNL A   1      40.319  27.977  29.024  1.00  0.00    -0.014 A 
ATOM     67  C   UNL A   1      39.589  26.780  29.061  1.00  0.00     0.009 A 
ATOM     68  C   UNL A   1      41.024  28.309  27.856  1.00  0.00     0.009 A 
ATOM     69  C   UNL A   1      39.590  25.915  27.964  1.00  0.00     0.001 A 
ATOM     70  C   UNL A   1      41.002  27.456  26.751  1.00  0.00     0.001 A 
ATOM     71  C   UNL A   1      40.293  26.257  26.809  1.00  0.00     0.000 A 
ENDBRANCH  52  66
BRANCH  53  72
ATOM     72  C   UNL A   1      39.940  34.371  36.668  1.00  0.00    -0.014 A 
ATOM     73  C   UNL A   1      39.173  34.063  37.804  1.00  0.00     0.009 A 
ATOM     74  C   UNL A   1      40.634  35.589  36.628  1.00  0.00     0.009 A 
ATOM     75  C   UNL A   1      39.075  34.970  38.860  1.00  0.00     0.001 A 
ATOM     76  C   UNL A   1      40.555  36.483  37.699  1.00  0.00     0.001 A 
ATOM     77  C   UNL A   1      39.768  36.178  38.808  1.00  0.00     0.000 A 
ENDBRANCH  53  72
BRANCH  65  78
ATOM     78  C   UNL A   1      44.107  29.044  35.065  1.00  0.00    -0.014 A 
ATOM     79  C   UNL A   1      45.397  29.529  34.806  1.00  0.00     0.009 A 
ATOM     80  C   UNL A   1      43.940  28.020  36.011  1.00  0.00     0.009 A 
ATOM     81  C   UNL A   1      46.501  28.977  35.457  1.00  0.00     0.001 A 
ATOM     82  C   UNL A   1      45.043  27.488  36.681  1.00  0.00     0.001 A 
ATOM     83  C   UNL A   1      46.322  27.962  36.397  1.00  0.00     0.000 A 
ENDBRANCH  65  78
ENDBRANCH  39  40
ENDBRANCH  31  34
ENDBRANCH  29  30
ENDBRANCH  28  29
ENDBRANCH   1  28
TORSDOF 14
ENDMDL
MODEL 3
REMARK VINA RESULT:     -11.6      3.083      7.315
REMARK SMILES O=C(Cc1cc(=O)[nH]c(=O)[nH]1)Nc1cccc(C(=O)NCCCCNC(=O)c2ccc(-c3c4nc(c(-c5ccccc5)c5ccc([nH]5)c(-c5ccccc5)c5nc(c(-c6ccccc6)c6ccc3[nH]6)C=C5)C=C4)cc2)c1
REMARK SMILES IDX 22 1 21 2 20 3 18 4 19 5 17 7 13 8 14 9 76 10 15 11 16 12
REMARK SMILES IDX 12 13 1 14 2 15 3 17 4 18 5 19 11 20 6 21 9 22 7 24 8 25
REMARK SMILES IDX 10 26 23 28 24 29 25 30 26 31 27 33 28 34 29 35 75 36 30 37
REMARK SMILES IDX 74 38 31 39 32 40 33 41 68 42 34 43 73 44 67 45 69 46 35 47
REMARK SMILES IDX 72 48 66 49 65 50 36 52 58 53 43 54 57 55 44 56 47 57 56 58
REMARK SMILES IDX 70 59 45 60 46 61 55 63 71 64 48 65 37 66 38 67 42 68 39 69
REMARK SMILES IDX 41 70 40 71 59 72 60 73 64 74 61 75 63 76 62 77 49 78 50 79
REMARK SMILES IDX 54 80 51 81 53 82 52 83
REMARK H PARENT 20 6 12 16 11 23 8 27 25 32 69 51 47 62
REMARK Flexibility Score: inf
ROOT
ATOM      1  C   UNL A   1      31.760  30.427  26.519  1.00  0.00     0.023 C 
ENDROOT
BRANCH   1   2
ATOM      2  C   UNL A   1      31.609  29.953  25.080  1.00  0.00     0.116 C 
BRANCH   2   3
ATOM      3  N   UNL A   1      32.862  29.703  24.377  1.00  0.00    -0.352 N 
ATOM      4  C   UNL A   1      33.291  28.571  23.708  1.00  0.00     0.251 C 
ATOM      5  O   UNL A   1      34.402  28.561  23.184  1.00  0.00    -0.269 OA
ATOM      6  H   UNL A   1      33.498  30.453  24.378  1.00  0.00     0.163 HD
BRANCH   4   7
ATOM      7  C   UNL A   1      32.458  27.341  23.684  1.00  0.00     0.041 A 
ATOM      8  C   UNL A   1      32.098  25.094  24.494  1.00  0.00     0.041 A 
ATOM      9  C   UNL A   1      31.287  24.835  23.384  1.00  0.00     0.026 A 
ATOM     10  C   UNL A   1      32.550  26.393  24.702  1.00  0.00     0.040 A 
ATOM     11  C   UNL A   1      31.027  25.842  22.448  1.00  0.00     0.003 A 
ATOM     12  C   UNL A   1      31.646  27.086  22.576  1.00  0.00     0.014 A 
BRANCH   8  13
ATOM     13  N   UNL A   1      32.541  24.001  25.276  1.00  0.00    -0.326 N 
ATOM     14  O   UNL A   1      31.345  24.345  27.249  1.00  0.00    -0.274 OA
ATOM     15  C   UNL A   1      32.196  23.744  26.596  1.00  0.00     0.230 C 
ATOM     16  H   UNL A   1      33.151  23.361  24.842  1.00  0.00     0.169 HD
BRANCH  15  17
ATOM     17  C   UNL A   1      33.054  22.694  27.298  1.00  0.00     0.154 C 
BRANCH  17  18
ATOM     18  C   UNL A   1      33.539  21.528  26.482  1.00  0.00     0.034 A 
ATOM     19  C   UNL A   1      34.823  21.432  26.109  1.00  0.00     0.093 A 
ATOM     20  N   UNL A   1      32.654  20.543  26.118  1.00  0.00    -0.311 N 
ATOM     21  C   UNL A   1      35.269  20.263  25.328  1.00  0.00     0.253 A 
ATOM     22  C   UNL A   1      32.990  19.451  25.364  1.00  0.00     0.325 A 
ATOM     23  H   UNL A   1      31.719  20.627  26.418  1.00  0.00     0.171 HD
ATOM     24  O   UNL A   1      36.443  20.139  25.000  1.00  0.00    -0.269 OA
ATOM     25  N   UNL A   1      34.300  19.360  25.001  1.00  0.00    -0.274 N 
ATOM     26  O   UNL A   1      32.153  18.620  25.032  1.00  0.00    -0.248 OA
ATOM     27  H   UNL A   1      34.569  18.582  24.461  1.00  0.00     0.175 HD
ENDBRANCH  17  18
ENDBRANCH  15  17
ENDBRANCH   8  13
ENDBRANCH   4   7
ENDBRANCH   2   3
ENDBRANCH   1   2
BRANCH   1  28
ATOM     28  C   UNL A   1      31.582  31.918  26.761  1.00  0.00     0.023 C 
BRANCH  28  29
ATOM     29  C   UNL A   1      32.815  32.667  27.251  1.00  0.00     0.116 C 
BRANCH  29  30
ATOM     30  N   UNL A   1      32.531  33.987  27.793  1.00  0.00    -0.352 N 
ATOM     31  C   UNL A   1      33.211  34.713  28.747  1.00  0.00     0.251 C 
ATOM     32  H   UNL A   1      31.732  34.428  27.422  1.00  0.00     0.163 HD
ATOM     33  O   UNL A   1      32.767  35.785  29.140  1.00  0.00    -0.269 OA
BRANCH  31  34
ATOM     34  C   UNL A   1      34.460  34.176  29.332  1.00  0.00     0.039 A 
ATOM     35  C   UNL A   1      34.381  33.376  30.476  1.00  0.00     0.014 A 
ATOM     36  C   UNL A   1      35.700  34.435  28.745  1.00  0.00     0.014 A 
ATOM     37  C   UNL A   1      35.533  32.764  30.975  1.00  0.00     0.010 A 
ATOM     38  C   UNL A   1      36.832  33.757  29.192  1.00  0.00     0.010 A 
ATOM     39  C   UNL A   1      36.760  32.911  30.309  1.00  0.00    -0.014 A 
BRANCH  39  40
ATOM     40  C   UNL A   1      37.983  32.197  30.762  1.00  0.00     0.031 A 
ATOM     41  C   UNL A   1      38.817  32.767  31.877  1.00  0.00     0.074 A 
ATOM     42  C   UNL A   1      38.384  31.078  30.128  1.00  0.00     0.049 A 
ATOM     43  N   UNL A   1      39.961  32.345  32.353  1.00  0.00    -0.248 NA
ATOM     44  C   UNL A   1      38.311  33.989  32.526  1.00  0.00     0.031 C 
ATOM     45  C   UNL A   1      37.689  30.437  29.009  1.00  0.00     0.029 A 
ATOM     46  N   UNL A   1      39.483  30.281  30.333  1.00  0.00    -0.354 N 
ATOM     47  C   UNL A   1      40.320  33.257  33.338  1.00  0.00     0.074 A 
ATOM     48  C   UNL A   1      39.300  34.281  33.358  1.00  0.00     0.031 C 
ATOM     49  C   UNL A   1      38.363  29.332  28.648  1.00  0.00     0.029 A 
ATOM     50  C   UNL A   1      39.556  29.208  29.478  1.00  0.00     0.049 A 
ATOM     51  H   UNL A   1      40.158  30.462  31.028  1.00  0.00     0.167 HD
ATOM     52  C   UNL A   1      41.389  33.234  34.168  1.00  0.00     0.031 A 
ATOM     53  C   UNL A   1      40.481  28.235  29.372  1.00  0.00     0.031 A 
ATOM     54  C   UNL A   1      42.395  32.208  34.167  1.00  0.00     0.049 A 
ATOM     55  C   UNL A   1      41.664  28.240  30.301  1.00  0.00     0.074 A 
ATOM     56  C   UNL A   1      43.496  32.079  34.996  1.00  0.00     0.029 A 
ATOM     57  N   UNL A   1      42.420  31.131  33.295  1.00  0.00    -0.354 N 
ATOM     58  N   UNL A   1      41.961  29.084  31.258  1.00  0.00    -0.248 NA
ATOM     59  C   UNL A   1      42.634  27.146  30.139  1.00  0.00     0.031 C 
ATOM     60  C   UNL A   1      44.206  30.938  34.606  1.00  0.00     0.029 A 
ATOM     61  C   UNL A   1      43.521  30.334  33.563  1.00  0.00     0.049 A 
ATOM     62  H   UNL A   1      41.754  30.957  32.593  1.00  0.00     0.167 HD
ATOM     63  C   UNL A   1      43.130  28.604  31.835  1.00  0.00     0.074 A 
ATOM     64  C   UNL A   1      43.481  27.391  31.129  1.00  0.00     0.031 C 
ATOM     65  C   UNL A   1      43.847  29.122  32.861  1.00  0.00     0.031 A 
BRANCH  52  66
ATOM     66  C   UNL A   1      41.515  34.357  35.159  1.00  0.00    -0.014 A 
ATOM     67  C   UNL A   1      42.188  35.542  34.825  1.00  0.00     0.009 A 
ATOM     68  C   UNL A   1      40.928  34.242  36.428  1.00  0.00     0.009 A 
ATOM     69  C   UNL A   1      42.300  36.578  35.755  1.00  0.00     0.001 A 
ATOM     70  C   UNL A   1      41.018  35.290  37.346  1.00  0.00     0.001 A 
ATOM     71  C   UNL A   1      41.711  36.453  37.012  1.00  0.00     0.000 A 
ENDBRANCH  52  66
BRANCH  53  72
ATOM     72  C   UNL A   1      40.326  27.156  28.362  1.00  0.00    -0.014 A 
ATOM     73  C   UNL A   1      39.629  25.980  28.685  1.00  0.00     0.009 A 
ATOM     74  C   UNL A   1      40.896  27.278  27.086  1.00  0.00     0.009 A 
ATOM     75  C   UNL A   1      39.537  24.936  27.763  1.00  0.00     0.001 A 
ATOM     76  C   UNL A   1      40.779  26.242  26.157  1.00  0.00     0.001 A 
ATOM     77  C   UNL A   1      40.109  25.069  26.499  1.00  0.00     0.000 A 
ENDBRANCH  53  72
BRANCH  65  78
ATOM     78  C   UNL A   1      45.052  28.351  33.316  1.00  0.00    -0.014 A 
ATOM     79  C   UNL A   1      46.326  28.604  32.786  1.00  0.00     0.009 A 
ATOM     80  C   UNL A   1      44.912  27.380  34.320  1.00  0.00     0.009 A 
ATOM     81  C   UNL A   1      47.432  27.878  33.231  1.00  0.00     0.001 A 
ATOM     82  C   UNL A   1      46.024  26.674  34.783  1.00  0.00     0.001 A 
ATOM     83  C   UNL A   1      47.280  26.918  34.232  1.00  0.00     0.000 A 
ENDBRANCH  65  78
ENDBRANCH  39  40
ENDBRANCH  31  34
ENDBRANCH  29  30
ENDBRANCH  28  29
ENDBRANCH   1  28
TORSDOF 14
ENDMDL
