MODEL 1
REMARK VINA RESULT:     -10.7      0.000      0.000
REMARK SMILES C[C@H](NC(N)=O)C(=O)N[C@@H](CO)C(=O)NCCCCNC(=O)c1ccc(-c2c3nc(c(-c4ccccc4)c4ccc([nH]4)c(-c4ccccc4)c4nc(c(-c5ccccc5)c5ccc2[nH]5)C=C4)C=C3)cc1
REMARK SMILES IDX 17 1 16 2 15 3 13 4 14 5 10 7 9 8 7 9 8 10 2 12 1 13 3 14
REMARK SMILES IDX 4 15 5 17 6 18 11 21 12 22 18 24 19 25 20 26 21 27 22 29
REMARK SMILES IDX 23 30 24 31 70 32 25 33 69 34 26 35 27 36 28 37 63 38 29 39
REMARK SMILES IDX 68 40 62 41 64 42 30 43 67 44 61 45 60 46 31 48 53 49 38 50
REMARK SMILES IDX 52 51 39 52 42 53 51 54 65 55 40 56 41 57 50 59 66 60 43 61
REMARK SMILES IDX 32 62 33 63 37 64 34 65 36 66 35 67 54 68 55 69 59 70 56 71
REMARK SMILES IDX 58 72 57 73 44 74 45 75 49 76 46 77 48 78 47 79
REMARK H PARENT 15 6 9 11 3 16 5 19 5 20 12 23 20 28 64 47 42 58
REMARK Flexibility Score: inf
ROOT
ATOM      1  C   UNL A   1      36.762  20.405  25.087  1.00  0.00     0.023 C 
ENDROOT
BRANCH   1   2
ATOM      2  C   UNL A   1      36.513  21.827  25.579  1.00  0.00     0.116 C 
BRANCH   2   3
ATOM      3  N   UNL A   1      35.538  21.877  26.650  1.00  0.00    -0.354 N 
ATOM      4  C   UNL A   1      34.220  21.541  26.669  1.00  0.00     0.244 C 
ATOM      5  O   UNL A   1      33.674  21.470  27.776  1.00  0.00    -0.273 OA
ATOM      6  H   UNL A   1      35.888  22.210  27.508  1.00  0.00     0.163 HD
BRANCH   4   7
ATOM      7  C   UNL A   1      33.424  21.166  25.400  1.00  0.00     0.197 C 
BRANCH   7   8
ATOM      8  N   UNL A   1      32.568  19.992  25.588  1.00  0.00    -0.340 N 
ATOM      9  C   UNL A   1      32.764  18.691  25.224  1.00  0.00     0.243 C 
ATOM     10  O   UNL A   1      32.116  17.850  25.855  1.00  0.00    -0.273 OA
ATOM     11  H   UNL A   1      31.717  20.170  26.049  1.00  0.00     0.164 HD
BRANCH   9  12
ATOM     12  C   UNL A   1      33.827  18.270  24.189  1.00  0.00     0.170 C 
ATOM     13  C   UNL A   1      33.242  17.379  23.099  1.00  0.00     0.041 C 
BRANCH  12  14
ATOM     14  N   UNL A   1      34.996  17.651  24.813  1.00  0.00    -0.327 N 
ATOM     15  C   UNL A   1      35.010  16.329  25.130  1.00  0.00     0.312 C 
ATOM     16  H   UNL A   1      35.788  18.203  25.007  1.00  0.00     0.166 HD
ATOM     17  N   UNL A   1      36.147  15.940  25.748  1.00  0.00    -0.352 N 
ATOM     18  O   UNL A   1      34.104  15.538  24.913  1.00  0.00    -0.249 OA
ATOM     19  H   UNL A   1      36.865  16.593  25.914  1.00  0.00     0.161 HD
ATOM     20  H   UNL A   1      36.257  15.004  26.031  1.00  0.00     0.161 HD
ENDBRANCH  12  14
ENDBRANCH   9  12
ENDBRANCH   7   8
BRANCH   7  21
ATOM     21  C   UNL A   1      32.699  22.373  24.791  1.00  0.00     0.191 C 
BRANCH  21  22
ATOM     22  O   UNL A   1      32.252  23.324  25.752  1.00  0.00    -0.394 OA
ATOM     23  H   UNL A   1      31.373  23.071  26.073  1.00  0.00     0.210 HD
ENDBRANCH  21  22
ENDBRANCH   7  21
ENDBRANCH   4   7
ENDBRANCH   2   3
ENDBRANCH   1   2
BRANCH   1  24
ATOM     24  C   UNL A   1      38.211  20.101  24.716  1.00  0.00     0.023 C 
BRANCH  24  25
ATOM     25  C   UNL A   1      39.218  20.275  25.847  1.00  0.00     0.116 C 
BRANCH  25  26
ATOM     26  N   UNL A   1      40.173  19.180  25.937  1.00  0.00    -0.352 N 
ATOM     27  C   UNL A   1      41.522  19.223  26.193  1.00  0.00     0.251 C 
ATOM     28  H   UNL A   1      39.799  18.280  25.794  1.00  0.00     0.163 HD
ATOM     29  O   UNL A   1      42.206  18.210  26.098  1.00  0.00    -0.269 OA
BRANCH  27  30
ATOM     30  C   UNL A   1      42.151  20.511  26.553  1.00  0.00     0.039 A 
ATOM     31  C   UNL A   1      42.692  21.305  25.540  1.00  0.00     0.014 A 
ATOM     32  C   UNL A   1      42.170  20.947  27.880  1.00  0.00     0.014 A 
ATOM     33  C   UNL A   1      43.186  22.573  25.851  1.00  0.00     0.010 A 
ATOM     34  C   UNL A   1      42.578  22.243  28.172  1.00  0.00     0.010 A 
ATOM     35  C   UNL A   1      43.093  23.070  27.162  1.00  0.00    -0.014 A 
BRANCH  35  36
ATOM     36  C   UNL A   1      43.527  24.450  27.495  1.00  0.00     0.031 A 
ATOM     37  C   UNL A   1      42.513  25.485  27.897  1.00  0.00     0.074 A 
ATOM     38  C   UNL A   1      44.826  24.788  27.377  1.00  0.00     0.049 A 
ATOM     39  N   UNL A   1      42.693  26.750  28.182  1.00  0.00    -0.248 NA
ATOM     40  C   UNL A   1      41.108  25.049  27.964  1.00  0.00     0.031 C 
ATOM     41  C   UNL A   1      45.904  23.889  26.955  1.00  0.00     0.029 A 
ATOM     42  N   UNL A   1      45.462  25.984  27.602  1.00  0.00    -0.354 N 
ATOM     43  C   UNL A   1      41.429  27.260  28.445  1.00  0.00     0.074 A 
ATOM     44  C   UNL A   1      40.484  26.188  28.230  1.00  0.00     0.031 C 
ATOM     45  C   UNL A   1      47.068  24.556  26.985  1.00  0.00     0.029 A 
ATOM     46  C   UNL A   1      46.818  25.936  27.383  1.00  0.00     0.049 A 
ATOM     47  H   UNL A   1      44.991  26.798  27.893  1.00  0.00     0.167 HD
ATOM     48  C   UNL A   1      41.083  28.505  28.853  1.00  0.00     0.031 A 
ATOM     49  C   UNL A   1      47.753  26.900  27.485  1.00  0.00     0.031 A 
ATOM     50  C   UNL A   1      42.023  29.573  29.072  1.00  0.00     0.049 A 
ATOM     51  C   UNL A   1      47.341  28.280  27.916  1.00  0.00     0.074 A 
ATOM     52  C   UNL A   1      41.779  30.853  29.536  1.00  0.00     0.029 A 
ATOM     53  N   UNL A   1      43.386  29.484  28.838  1.00  0.00    -0.354 N 
ATOM     54  N   UNL A   1      46.150  28.727  28.232  1.00  0.00    -0.248 NA
ATOM     55  C   UNL A   1      48.408  29.286  28.015  1.00  0.00     0.031 C 
ATOM     56  C   UNL A   1      42.985  31.560  29.523  1.00  0.00     0.029 A 
ATOM     57  C   UNL A   1      43.993  30.697  29.119  1.00  0.00     0.049 A 
ATOM     58  H   UNL A   1      43.855  28.679  28.518  1.00  0.00     0.167 HD
ATOM     59  C   UNL A   1      46.329  30.055  28.599  1.00  0.00     0.074 A 
ATOM     60  C   UNL A   1      47.745  30.335  28.481  1.00  0.00     0.031 C 
ATOM     61  C   UNL A   1      45.402  30.962  28.996  1.00  0.00     0.031 A 
BRANCH  48  62
ATOM     62  C   UNL A   1      39.622  28.779  29.080  1.00  0.00    -0.014 A 
ATOM     63  C   UNL A   1      39.020  28.542  30.328  1.00  0.00     0.009 A 
ATOM     64  C   UNL A   1      38.841  29.313  28.044  1.00  0.00     0.009 A 
ATOM     65  C   UNL A   1      37.660  28.796  30.518  1.00  0.00     0.001 A 
ATOM     66  C   UNL A   1      37.490  29.598  28.246  1.00  0.00     0.001 A 
ATOM     67  C   UNL A   1      36.898  29.329  29.479  1.00  0.00     0.000 A 
ENDBRANCH  48  62
BRANCH  49  68
ATOM     68  C   UNL A   1      49.178  26.592  27.187  1.00  0.00    -0.014 A 
ATOM     69  C   UNL A   1      49.714  26.851  25.917  1.00  0.00     0.009 A 
ATOM     70  C   UNL A   1      50.007  26.023  28.168  1.00  0.00     0.009 A 
ATOM     71  C   UNL A   1      51.039  26.519  25.624  1.00  0.00     0.001 A 
ATOM     72  C   UNL A   1      51.341  25.723  27.883  1.00  0.00     0.001 A 
ATOM     73  C   UNL A   1      51.852  25.960  26.609  1.00  0.00     0.000 A 
ENDBRANCH  49  68
BRANCH  61  74
ATOM     74  C   UNL A   1      45.898  32.331  29.376  1.00  0.00    -0.014 A 
ATOM     75  C   UNL A   1      46.315  32.623  30.683  1.00  0.00     0.009 A 
ATOM     76  C   UNL A   1      45.983  33.332  28.395  1.00  0.00     0.009 A 
ATOM     77  C   UNL A   1      46.771  33.903  31.009  1.00  0.00     0.001 A 
ATOM     78  C   UNL A   1      46.471  34.599  28.715  1.00  0.00     0.001 A 
ATOM     79  C   UNL A   1      46.854  34.887  30.024  1.00  0.00     0.000 A 
ENDBRANCH  61  74
ENDBRANCH  35  36
ENDBRANCH  27  30
ENDBRANCH  25  26
ENDBRANCH  24  25
ENDBRANCH   1  24
TORSDOF 16
ENDMDL
MODEL 2
REMARK VINA RESULT:     -10.6      2.896      7.785
REMARK SMILES C[C@H](NC(N)=O)C(=O)N[C@@H](CO)C(=O)NCCCCNC(=O)c1ccc(-c2c3nc(c(-c4ccccc4)c4ccc([nH]4)c(-c4ccccc4)c4nc(c(-c5ccccc5)c5ccc2[nH]5)C=C4)C=C3)cc1
REMARK SMILES IDX 17 1 16 2 15 3 13 4 14 5 10 7 9 8 7 9 8 10 2 12 1 13 3 14
REMARK SMILES IDX 4 15 5 17 6 18 11 21 12 22 18 24 19 25 20 26 21 27 22 29
REMARK SMILES IDX 23 30 24 31 70 32 25 33 69 34 26 35 27 36 28 37 63 38 29 39
REMARK SMILES IDX 68 40 62 41 64 42 30 43 67 44 61 45 60 46 31 48 53 49 38 50
REMARK SMILES IDX 52 51 39 52 42 53 51 54 65 55 40 56 41 57 50 59 66 60 43 61
REMARK SMILES IDX 32 62 33 63 37 64 34 65 36 66 35 67 54 68 55 69 59 70 56 71
REMARK SMILES IDX 58 72 57 73 44 74 45 75 49 76 46 77 48 78 47 79
REMARK H PARENT 15 6 9 11 3 16 5 19 5 20 12 23 20 28 64 47 42 58
REMARK Flexibility Score: inf
ROOT
ATOM      1  C   UNL A   1      33.121  27.016  25.201  1.00  0.00     0.023 C 
ENDROOT
BRANCH   1   2
ATOM      2  C   UNL A   1      33.999  25.775  25.088  1.00  0.00     0.116 C 
BRANCH   2   3
ATOM      3  N   UNL A   1      33.993  25.215  23.752  1.00  0.00    -0.354 N 
ATOM      4  C   UNL A   1      34.315  23.969  23.309  1.00  0.00     0.244 C 
ATOM      5  O   UNL A   1      34.008  23.690  22.145  1.00  0.00    -0.273 OA
ATOM      6  H   UNL A   1      33.709  25.840  23.046  1.00  0.00     0.163 HD
BRANCH   4   7
ATOM      7  C   UNL A   1      34.950  22.889  24.211  1.00  0.00     0.197 C 
BRANCH   7   8
ATOM      8  N   UNL A   1      34.054  21.759  24.467  1.00  0.00    -0.340 N 
ATOM      9  C   UNL A   1      33.025  21.634  25.355  1.00  0.00     0.243 C 
ATOM     10  O   UNL A   1      32.181  20.773  25.086  1.00  0.00    -0.273 OA
ATOM     11  H   UNL A   1      34.222  20.963  23.912  1.00  0.00     0.164 HD
BRANCH   9  12
ATOM     12  C   UNL A   1      32.835  22.594  26.546  1.00  0.00     0.170 C 
ATOM     13  C   UNL A   1      33.804  22.292  27.683  1.00  0.00     0.041 C 
BRANCH  12  14
ATOM     14  N   UNL A   1      31.452  22.628  27.019  1.00  0.00    -0.327 N 
ATOM     15  C   UNL A   1      30.563  23.536  26.536  1.00  0.00     0.312 C 
ATOM     16  H   UNL A   1      31.159  21.980  27.699  1.00  0.00     0.166 HD
ATOM     17  N   UNL A   1      29.348  23.458  27.122  1.00  0.00    -0.352 N 
ATOM     18  O   UNL A   1      30.797  24.368  25.672  1.00  0.00    -0.249 OA
ATOM     19  H   UNL A   1      29.179  22.781  27.817  1.00  0.00     0.161 HD
ATOM     20  H   UNL A   1      28.632  24.078  26.854  1.00  0.00     0.161 HD
ENDBRANCH  12  14
ENDBRANCH   9  12
ENDBRANCH   7   8
BRANCH   7  21
ATOM     21  C   UNL A   1      36.347  22.477  23.728  1.00  0.00     0.191 C 
BRANCH  21  22
ATOM     22  O   UNL A   1      36.790  23.181  22.572  1.00  0.00    -0.394 OA
ATOM     23  H   UNL A   1      36.070  23.224  21.923  1.00  0.00     0.210 HD
ENDBRANCH  21  22
ENDBRANCH   7  21
ENDBRANCH   4   7
ENDBRANCH   2   3
ENDBRANCH   1   2
BRANCH   1  24
ATOM     24  C   UNL A   1      33.819  28.244  25.780  1.00  0.00     0.023 C 
BRANCH  24  25
ATOM     25  C   UNL A   1      33.562  28.495  27.262  1.00  0.00     0.116 C 
BRANCH  25  26
ATOM     26  N   UNL A   1      33.557  29.908  27.611  1.00  0.00    -0.352 N 
ATOM     27  C   UNL A   1      34.562  30.671  28.156  1.00  0.00     0.251 C 
ATOM     28  H   UNL A   1      32.714  30.385  27.432  1.00  0.00     0.163 HD
ATOM     29  O   UNL A   1      34.343  31.823  28.516  1.00  0.00    -0.269 OA
BRANCH  27  30
ATOM     30  C   UNL A   1      35.904  30.081  28.337  1.00  0.00     0.039 A 
ATOM     31  C   UNL A   1      36.834  30.188  27.303  1.00  0.00     0.014 A 
ATOM     32  C   UNL A   1      36.250  29.458  29.538  1.00  0.00     0.014 A 
ATOM     33  C   UNL A   1      38.140  29.735  27.502  1.00  0.00     0.010 A 
ATOM     34  C   UNL A   1      37.572  29.093  29.768  1.00  0.00     0.010 A 
ATOM     35  C   UNL A   1      38.530  29.224  28.752  1.00  0.00    -0.014 A 
BRANCH  35  36
ATOM     36  C   UNL A   1      39.936  28.825  29.015  1.00  0.00     0.031 A 
ATOM     37  C   UNL A   1      40.417  27.454  28.626  1.00  0.00     0.074 A 
ATOM     38  C   UNL A   1      40.763  29.673  29.657  1.00  0.00     0.049 A 
ATOM     39  N   UNL A   1      41.593  26.908  28.811  1.00  0.00    -0.248 NA
ATOM     40  C   UNL A   1      39.443  26.570  27.963  1.00  0.00     0.031 C 
ATOM     41  C   UNL A   1      40.408  31.015  30.125  1.00  0.00     0.029 A 
ATOM     42  N   UNL A   1      42.077  29.530  30.028  1.00  0.00    -0.354 N 
ATOM     43  C   UNL A   1      41.493  25.619  28.305  1.00  0.00     0.074 A 
ATOM     44  C   UNL A   1      40.130  25.441  27.859  1.00  0.00     0.031 C 
ATOM     45  C   UNL A   1      41.485  31.583  30.690  1.00  0.00     0.029 A 
ATOM     46  C   UNL A   1      42.593  30.634  30.664  1.00  0.00     0.049 A 
ATOM     47  H   UNL A   1      42.600  28.714  29.854  1.00  0.00     0.167 HD
ATOM     48  C   UNL A   1      42.456  24.672  28.198  1.00  0.00     0.031 A 
ATOM     49  C   UNL A   1      43.819  30.854  31.175  1.00  0.00     0.031 A 
ATOM     50  C   UNL A   1      43.815  24.849  28.637  1.00  0.00     0.049 A 
ATOM     51  C   UNL A   1      44.863  29.778  31.067  1.00  0.00     0.074 A 
ATOM     52  C   UNL A   1      44.877  23.970  28.525  1.00  0.00     0.029 A 
ATOM     53  N   UNL A   1      44.295  25.980  29.277  1.00  0.00    -0.354 N 
ATOM     54  N   UNL A   1      44.773  28.590  30.518  1.00  0.00    -0.248 NA
ATOM     55  C   UNL A   1      46.184  30.079  31.637  1.00  0.00     0.031 C 
ATOM     56  C   UNL A   1      45.987  24.544  29.153  1.00  0.00     0.029 A 
ATOM     57  C   UNL A   1      45.633  25.810  29.594  1.00  0.00     0.049 A 
ATOM     58  H   UNL A   1      43.766  26.785  29.478  1.00  0.00     0.167 HD
ATOM     59  C   UNL A   1      46.032  28.016  30.650  1.00  0.00     0.074 A 
ATOM     60  C   UNL A   1      46.870  28.993  31.313  1.00  0.00     0.031 C 
ATOM     61  C   UNL A   1      46.455  26.790  30.255  1.00  0.00     0.031 A 
BRANCH  48  62
ATOM     62  C   UNL A   1      42.067  23.354  27.587  1.00  0.00    -0.014 A 
ATOM     63  C   UNL A   1      42.251  23.101  26.217  1.00  0.00     0.009 A 
ATOM     64  C   UNL A   1      41.539  22.337  28.397  1.00  0.00     0.009 A 
ATOM     65  C   UNL A   1      41.877  21.873  25.666  1.00  0.00     0.001 A 
ATOM     66  C   UNL A   1      41.197  21.099  27.850  1.00  0.00     0.001 A 
ATOM     67  C   UNL A   1      41.356  20.872  26.484  1.00  0.00     0.000 A 
ENDBRANCH  48  62
BRANCH  49  68
ATOM     68  C   UNL A   1      44.134  32.153  31.827  1.00  0.00    -0.014 A 
ATOM     69  C   UNL A   1      43.916  32.335  33.202  1.00  0.00     0.009 A 
ATOM     70  C   UNL A   1      44.642  33.226  31.076  1.00  0.00     0.009 A 
ATOM     71  C   UNL A   1      44.169  33.570  33.803  1.00  0.00     0.001 A 
ATOM     72  C   UNL A   1      44.925  34.449  31.686  1.00  0.00     0.001 A 
ATOM     73  C   UNL A   1      44.678  34.624  33.046  1.00  0.00     0.000 A 
ENDBRANCH  49  68
BRANCH  61  74
ATOM     74  C   UNL A   1      47.902  26.451  30.493  1.00  0.00    -0.014 A 
ATOM     75  C   UNL A   1      48.342  25.937  31.721  1.00  0.00     0.009 A 
ATOM     76  C   UNL A   1      48.830  26.615  29.452  1.00  0.00     0.009 A 
ATOM     77  C   UNL A   1      49.691  25.631  31.916  1.00  0.00     0.001 A 
ATOM     78  C   UNL A   1      50.171  26.276  29.638  1.00  0.00     0.001 A 
ATOM     79  C   UNL A   1      50.602  25.795  30.872  1.00  0.00     0.000 A 
ENDBRANCH  61  74
ENDBRANCH  35  36
ENDBRANCH  27  30
ENDBRANCH  25  26
ENDBRANCH  24  25
ENDBRANCH   1  24
TORSDOF 16
ENDMDL
MODEL 3
REMARK VINA RESULT:     -10.5      3.657      7.960
REMARK SMILES C[C@H](NC(N)=O)C(=O)N[C@@H](CO)C(=O)NCCCCNC(=O)c1ccc(-c2c3nc(c(-c4ccccc4)c4ccc([nH]4)c(-c4ccccc4)c4nc(c(-c5ccccc5)c5ccc2[nH]5)C=C4)C=C3)cc1
REMARK SMILES IDX 17 1 16 2 15 3 13 4 14 5 10 7 9 8 7 9 8 10 2 12 1 13 3 14
REMARK SMILES IDX 4 15 5 17 6 18 11 21 12 22 18 24 19 25 20 26 21 27 22 29
REMARK SMILES IDX 23 30 24 31 70 32 25 33 69 34 26 35 27 36 28 37 63 38 29 39
REMARK SMILES IDX 68 40 62 41 64 42 30 43 67 44 61 45 60 46 31 48 53 49 38 50
REMARK SMILES IDX 52 51 39 52 42 53 51 54 65 55 40 56 41 57 50 59 66 60 43 61
REMARK SMILES IDX 32 62 33 63 37 64 34 65 36 66 35 67 54 68 55 69 59 70 56 71
REMARK SMILES IDX 58 72 57 73 44 74 45 75 49 76 46 77 48 78 47 79
REMARK H PARENT 15 6 9 11 3 16 5 19 5 20 12 23 20 28 64 47 42 58
REMARK Flexibility Score: inf
ROOT
ATOM      1  C   UNL A   1      33.050  29.519  24.892  1.00  0.00     0.023 C 
ENDROOT
BRANCH   1   2
ATOM      2  C   UNL A   1      32.231  28.792  23.832  1.00  0.00     0.116 C 
BRANCH   2   3
ATOM      3  N   UNL A   1      33.063  28.083  22.881  1.00  0.00    -0.354 N 
ATOM      4  C   UNL A   1      33.067  26.775  22.505  1.00  0.00     0.244 C 
ATOM      5  O   UNL A   1      33.736  26.480  21.508  1.00  0.00    -0.273 OA
ATOM      6  H   UNL A   1      33.740  28.640  22.432  1.00  0.00     0.163 HD
BRANCH   4   7
ATOM      7  C   UNL A   1      32.217  25.692  23.202  1.00  0.00     0.197 C 
BRANCH   7   8
ATOM      8  N   UNL A   1      30.776  25.929  23.079  1.00  0.00    -0.340 N 
ATOM      9  C   UNL A   1      29.811  26.003  24.041  1.00  0.00     0.243 C 
ATOM     10  O   UNL A   1      28.785  26.618  23.731  1.00  0.00    -0.273 OA
ATOM     11  H   UNL A   1      30.454  26.053  22.158  1.00  0.00     0.164 HD
BRANCH   9  12
ATOM     12  C   UNL A   1      30.026  25.482  25.476  1.00  0.00     0.170 C 
ATOM     13  C   UNL A   1      30.882  26.431  26.307  1.00  0.00     0.041 C 
BRANCH  12  14
ATOM     14  N   UNL A   1      30.563  24.122  25.499  1.00  0.00    -0.327 N 
ATOM     15  C   UNL A   1      30.273  23.265  26.514  1.00  0.00     0.312 C 
ATOM     16  H   UNL A   1      31.146  23.821  24.765  1.00  0.00     0.166 HD
ATOM     17  N   UNL A   1      30.896  22.072  26.401  1.00  0.00    -0.352 N 
ATOM     18  O   UNL A   1      29.541  23.511  27.463  1.00  0.00    -0.249 OA
ATOM     19  H   UNL A   1      31.482  21.894  25.630  1.00  0.00     0.161 HD
ATOM     20  H   UNL A   1      30.764  21.381  27.090  1.00  0.00     0.161 HD
ENDBRANCH  12  14
ENDBRANCH   9  12
ENDBRANCH   7   8
BRANCH   7  21
ATOM     21  C   UNL A   1      32.648  24.273  22.810  1.00  0.00     0.191 C 
BRANCH  21  22
ATOM     22  O   UNL A   1      32.745  23.373  23.909  1.00  0.00    -0.394 OA
ATOM     23  H   UNL A   1      33.660  23.355  24.233  1.00  0.00     0.210 HD
ENDBRANCH  21  22
ENDBRANCH   7  21
ENDBRANCH   4   7
ENDBRANCH   2   3
ENDBRANCH   1   2
BRANCH   1  24
ATOM     24  C   UNL A   1      33.886  28.611  25.790  1.00  0.00     0.023 C 
BRANCH  24  25
ATOM     25  C   UNL A   1      33.597  28.732  27.282  1.00  0.00     0.116 C 
BRANCH  25  26
ATOM     26  N   UNL A   1      33.614  30.106  27.759  1.00  0.00    -0.352 N 
ATOM     27  C   UNL A   1      34.623  30.794  28.388  1.00  0.00     0.251 C 
ATOM     28  H   UNL A   1      32.784  30.616  27.611  1.00  0.00     0.163 HD
ATOM     29  O   UNL A   1      34.421  31.913  28.848  1.00  0.00    -0.269 OA
BRANCH  27  30
ATOM     30  C   UNL A   1      35.949  30.160  28.536  1.00  0.00     0.039 A 
ATOM     31  C   UNL A   1      36.841  30.199  27.463  1.00  0.00     0.014 A 
ATOM     32  C   UNL A   1      36.322  29.565  29.743  1.00  0.00     0.014 A 
ATOM     33  C   UNL A   1      38.136  29.705  27.627  1.00  0.00     0.010 A 
ATOM     34  C   UNL A   1      37.637  29.158  29.933  1.00  0.00     0.010 A 
ATOM     35  C   UNL A   1      38.558  29.221  28.877  1.00  0.00    -0.014 A 
BRANCH  35  36
ATOM     36  C   UNL A   1      39.958  28.778  29.097  1.00  0.00     0.031 A 
ATOM     37  C   UNL A   1      40.962  29.718  29.704  1.00  0.00     0.074 A 
ATOM     38  C   UNL A   1      40.341  27.549  28.697  1.00  0.00     0.049 A 
ATOM     39  N   UNL A   1      42.237  29.528  29.935  1.00  0.00    -0.248 NA
ATOM     40  C   UNL A   1      40.477  31.057  30.080  1.00  0.00     0.031 C 
ATOM     41  C   UNL A   1      39.475  26.556  28.055  1.00  0.00     0.029 A 
ATOM     42  N   UNL A   1      41.561  26.926  28.769  1.00  0.00    -0.354 N 
ATOM     43  C   UNL A   1      42.705  30.724  30.465  1.00  0.00     0.074 A 
ATOM     44  C   UNL A   1      41.596  31.651  30.468  1.00  0.00     0.031 C 
ATOM     45  C   UNL A   1      40.183  25.439  27.825  1.00  0.00     0.029 A 
ATOM     46  C   UNL A   1      41.560  25.649  28.260  1.00  0.00     0.049 A 
ATOM     47  H   UNL A   1      42.362  27.353  29.150  1.00  0.00     0.167 HD
ATOM     48  C   UNL A   1      43.942  31.019  30.930  1.00  0.00     0.031 A 
ATOM     49  C   UNL A   1      42.557  24.752  28.149  1.00  0.00     0.031 A 
ATOM     50  C   UNL A   1      45.046  30.096  30.932  1.00  0.00     0.049 A 
ATOM     51  C   UNL A   1      43.928  25.113  28.649  1.00  0.00     0.074 A 
ATOM     52  C   UNL A   1      46.323  30.282  31.429  1.00  0.00     0.029 A 
ATOM     53  N   UNL A   1      45.003  28.815  30.406  1.00  0.00    -0.354 N 
ATOM     54  N   UNL A   1      44.337  26.222  29.216  1.00  0.00    -0.248 NA
ATOM     55  C   UNL A   1      44.973  24.089  28.507  1.00  0.00     0.031 C 
ATOM     56  C   UNL A   1      47.073  29.135  31.149  1.00  0.00     0.029 A 
ATOM     57  C   UNL A   1      46.241  28.208  30.539  1.00  0.00     0.049 A 
ATOM     58  H   UNL A   1      44.211  28.397  29.997  1.00  0.00     0.167 HD
ATOM     59  C   UNL A   1      45.676  26.019  29.525  1.00  0.00     0.074 A 
ATOM     60  C   UNL A   1      46.004  24.674  29.100  1.00  0.00     0.031 C 
ATOM     61  C   UNL A   1      46.555  26.870  30.110  1.00  0.00     0.031 A 
BRANCH  48  62
ATOM     62  C   UNL A   1      44.167  32.406  31.470  1.00  0.00    -0.014 A 
ATOM     63  C   UNL A   1      44.568  33.459  30.631  1.00  0.00     0.009 A 
ATOM     64  C   UNL A   1      43.944  32.671  32.830  1.00  0.00     0.009 A 
ATOM     65  C   UNL A   1      44.778  34.738  31.151  1.00  0.00     0.001 A 
ATOM     66  C   UNL A   1      44.123  33.957  33.341  1.00  0.00     0.001 A 
ATOM     67  C   UNL A   1      44.550  34.987  32.504  1.00  0.00     0.000 A 
ENDBRANCH  48  62
BRANCH  49  68
ATOM     68  C   UNL A   1      42.296  23.416  27.549  1.00  0.00    -0.014 A 
ATOM     69  C   UNL A   1      42.564  23.178  26.192  1.00  0.00     0.009 A 
ATOM     70  C   UNL A   1      41.765  22.374  28.326  1.00  0.00     0.009 A 
ATOM     71  C   UNL A   1      42.275  21.937  25.619  1.00  0.00     0.001 A 
ATOM     72  C   UNL A   1      41.509  21.124  27.758  1.00  0.00     0.001 A 
ATOM     73  C   UNL A   1      41.752  20.910  26.404  1.00  0.00     0.000 A 
ENDBRANCH  49  68
BRANCH  61  74
ATOM     74  C   UNL A   1      47.946  26.357  30.363  1.00  0.00    -0.014 A 
ATOM     75  C   UNL A   1      48.309  25.802  31.599  1.00  0.00     0.009 A 
ATOM     76  C   UNL A   1      48.896  26.397  29.330  1.00  0.00     0.009 A 
ATOM     77  C   UNL A   1      49.608  25.332  31.808  1.00  0.00     0.001 A 
ATOM     78  C   UNL A   1      50.183  25.895  29.531  1.00  0.00     0.001 A 
ATOM     79  C   UNL A   1      50.541  25.374  30.772  1.00  0.00     0.000 A 
ENDBRANCH  61  74
ENDBRANCH  35  36
ENDBRANCH  27  30
ENDBRANCH  25  26
ENDBRANCH  24  25
ENDBRANCH   1  24
TORSDOF 16
ENDMDL
