MODEL 1
REMARK VINA RESULT:     -15.3      0.000      0.000
REMARK SMILES COc1cccc([C@@H]2CC(c3cccc(C)c3)=NN2C(=O)CCC(=O)NCCCCNC(=O)c2ccc(-c3c4nc(c(-c5ccccc5)c5ccc([nH]5)c(-c5ccccc5)c5nc(c(-c6ccccc6)c6ccc3[nH]6)C=C5)C=C4)cc2)c1
REMARK SMILES IDX 27 1 26 2 24 3 25 4 23 6 22 7 20 8 21 9 19 10 8 11 9 12
REMARK SMILES IDX 10 13 18 14 7 15 3 16 4 17 82 18 5 19 6 20 2 21 1 22 11 23
REMARK SMILES IDX 12 24 17 25 13 26 15 27 14 28 16 29 28 30 29 31 30 32 31 33
REMARK SMILES IDX 32 34 33 36 34 37 35 38 81 39 36 40 80 41 37 42 38 43 39 44
REMARK SMILES IDX 74 45 40 46 79 47 73 48 75 49 41 50 78 51 72 52 71 53 42 55
REMARK SMILES IDX 64 56 49 57 63 58 50 59 53 60 62 61 76 62 51 63 52 64 61 66
REMARK SMILES IDX 77 67 54 68 43 69 44 70 48 71 45 72 47 73 46 74 65 75 66 76
REMARK SMILES IDX 70 77 67 78 69 79 68 80 55 81 56 82 60 83 57 84 59 85 58 86
REMARK H PARENT 26 5 31 35 75 54 53 65
REMARK Flexibility Score: inf
ROOT
ATOM      1  C   UNL A   1      30.995  29.255  24.487  1.00  0.00     0.116 C 
ENDROOT
BRANCH   1   2
ATOM      2  N   UNL A   1      30.190  28.011  23.889  1.00  0.00    -0.356 N 
ATOM      3  C   UNL A   1      29.961  26.736  24.292  1.00  0.00     0.220 C 
ATOM      4  O   UNL A   1      29.368  26.011  23.488  1.00  0.00    -0.275 OA
ATOM      5  H   UNL A   1      29.761  28.218  23.028  1.00  0.00     0.163 HD
BRANCH   3   6
ATOM      6  C   UNL A   1      30.398  26.228  25.645  1.00  0.00     0.110 C 
BRANCH   6   7
ATOM      7  C   UNL A   1      30.246  24.744  25.988  1.00  0.00     0.112 C 
BRANCH   7   8
ATOM      8  C   UNL A   1      31.491  24.117  26.629  1.00  0.00     0.243 C 
ATOM      9  O   UNL A   1      31.727  24.263  27.825  1.00  0.00    -0.273 OA
BRANCH   8  10
ATOM     10  N   UNL A   1      32.387  23.545  25.693  1.00  0.00    -0.225 N 
ATOM     11  C   UNL A   1      34.060  24.324  25.404  1.00  0.00     0.147 C 
ATOM     12  C   UNL A   1      35.286  22.680  25.454  1.00  0.00     0.091 C 
ATOM     13  C   UNL A   1      33.839  21.107  25.402  1.00  0.00     0.071 C 
ATOM     14  N   UNL A   1      32.414  21.711  25.605  1.00  0.00    -0.174 NA
BRANCH  11  15
ATOM     15  C   UNL A   1      33.690  25.375  24.232  1.00  0.00    -0.019 A 
ATOM     16  C   UNL A   1      33.333  25.889  21.881  1.00  0.00     0.119 A 
ATOM     17  C   UNL A   1      33.535  27.253  22.125  1.00  0.00     0.046 A 
ATOM     18  C   UNL A   1      33.390  24.950  22.930  1.00  0.00     0.052 A 
ATOM     19  C   UNL A   1      33.792  27.703  23.406  1.00  0.00     0.004 A 
ATOM     20  C   UNL A   1      33.875  26.776  24.437  1.00  0.00     0.006 A 
BRANCH  16  21
ATOM     21  O   UNL A   1      33.135  25.617  20.554  1.00  0.00    -0.497 OA
ATOM     22  C   UNL A   1      32.966  24.258  20.194  1.00  0.00     0.278 C 
ENDBRANCH  16  21
ENDBRANCH  11  15
BRANCH  13  23
ATOM     23  C   UNL A   1      33.730  19.582  24.548  1.00  0.00    -0.002 A 
ATOM     24  C   UNL A   1      32.579  19.337  23.831  1.00  0.00     0.010 A 
ATOM     25  C   UNL A   1      34.764  18.553  24.300  1.00  0.00     0.013 A 
ATOM     26  C   UNL A   1      32.559  18.222  22.978  1.00  0.00     0.001 A 
ATOM     27  C   UNL A   1      34.665  17.107  24.043  1.00  0.00    -0.050 A 
ATOM     28  C   UNL A   1      33.559  17.183  23.042  1.00  0.00     0.003 A 
ATOM     29  C   UNL A   1      35.293  15.523  25.339  1.00  0.00     0.044 C 
ENDBRANCH  13  23
ENDBRANCH   8  10
ENDBRANCH   7   8
ENDBRANCH   6   7
ENDBRANCH   3   6
ENDBRANCH   1   2
BRANCH   1  30
ATOM     30  C   UNL A   1      32.215  29.361  26.349  1.00  0.00     0.023 C 
BRANCH  30  31
ATOM     31  C   UNL A   1      32.592  31.145  26.945  1.00  0.00     0.023 C 
BRANCH  31  32
ATOM     32  C   UNL A   1      34.012  31.440  28.064  1.00  0.00     0.116 C 
BRANCH  32  33
ATOM     33  N   UNL A   1      34.215  32.819  28.935  1.00  0.00    -0.352 N 
ATOM     34  C   UNL A   1      34.916  33.293  30.104  1.00  0.00     0.251 C 
ATOM     35  H   UNL A   1      33.696  33.552  28.532  1.00  0.00     0.163 HD
ATOM     36  O   UNL A   1      34.616  34.359  30.628  1.00  0.00    -0.269 OA
BRANCH  34  37
ATOM     37  C   UNL A   1      36.023  32.472  30.671  1.00  0.00     0.039 A 
ATOM     38  C   UNL A   1      36.146  31.305  32.115  1.00  0.00     0.014 A 
ATOM     39  C   UNL A   1      37.218  32.348  29.327  1.00  0.00     0.014 A 
ATOM     40  C   UNL A   1      37.512  30.023  32.124  1.00  0.00     0.010 A 
ATOM     41  C   UNL A   1      38.398  31.023  29.262  1.00  0.00     0.010 A 
ATOM     42  C   UNL A   1      38.618  29.892  30.640  1.00  0.00    -0.014 A 
BRANCH  42  43
ATOM     43  C   UNL A   1      40.014  29.310  30.383  1.00  0.00     0.031 A 
ATOM     44  C   UNL A   1      41.191  30.266  30.030  1.00  0.00     0.074 A 
ATOM     45  C   UNL A   1      40.091  28.081  29.814  1.00  0.00     0.049 A 
ATOM     46  N   UNL A   1      42.287  30.047  29.326  1.00  0.00    -0.248 NA
ATOM     47  C   UNL A   1      41.069  31.673  30.436  1.00  0.00     0.031 C 
ATOM     48  C   UNL A   1      39.009  27.099  29.762  1.00  0.00     0.029 A 
ATOM     49  N   UNL A   1      41.106  27.485  29.081  1.00  0.00    -0.354 N 
ATOM     50  C   UNL A   1      42.940  31.281  29.212  1.00  0.00     0.074 A 
ATOM     51  C   UNL A   1      42.071  32.260  29.805  1.00  0.00     0.031 C 
ATOM     52  C   UNL A   1      39.413  26.030  29.050  1.00  0.00     0.029 A 
ATOM     53  C   UNL A   1      40.776  26.249  28.565  1.00  0.00     0.049 A 
ATOM     54  H   UNL A   1      41.984  27.906  28.942  1.00  0.00     0.167 HD
ATOM     55  C   UNL A   1      44.165  31.611  28.725  1.00  0.00     0.031 A 
ATOM     56  C   UNL A   1      41.475  25.384  27.794  1.00  0.00     0.031 A 
ATOM     57  C   UNL A   1      45.076  30.690  28.114  1.00  0.00     0.049 A 
ATOM     58  C   UNL A   1      42.873  25.711  27.321  1.00  0.00     0.074 A 
ATOM     59  C   UNL A   1      46.381  30.903  27.700  1.00  0.00     0.029 A 
ATOM     60  N   UNL A   1      44.767  29.379  27.815  1.00  0.00    -0.354 N 
ATOM     61  N   UNL A   1      43.550  26.825  27.440  1.00  0.00    -0.248 NA
ATOM     62  C   UNL A   1      43.614  24.641  26.624  1.00  0.00     0.031 C 
ATOM     63  C   UNL A   1      46.850  29.725  27.113  1.00  0.00     0.029 A 
ATOM     64  C   UNL A   1      45.852  28.772  27.213  1.00  0.00     0.049 A 
ATOM     65  H   UNL A   1      43.904  28.944  28.001  1.00  0.00     0.167 HD
ATOM     66  C   UNL A   1      44.805  26.569  26.893  1.00  0.00     0.074 A 
ATOM     67  C   UNL A   1      44.800  25.201  26.431  1.00  0.00     0.031 C 
ATOM     68  C   UNL A   1      45.870  27.400  26.793  1.00  0.00     0.031 A 
BRANCH  55  69
ATOM     69  C   UNL A   1      44.639  33.036  28.909  1.00  0.00    -0.014 A 
ATOM     70  C   UNL A   1      44.349  34.008  27.935  1.00  0.00     0.009 A 
ATOM     71  C   UNL A   1      45.311  33.434  30.076  1.00  0.00     0.009 A 
ATOM     72  C   UNL A   1      44.758  35.333  28.103  1.00  0.00     0.001 A 
ATOM     73  C   UNL A   1      45.691  34.768  30.256  1.00  0.00     0.001 A 
ATOM     74  C   UNL A   1      45.424  35.713  29.266  1.00  0.00     0.000 A 
ENDBRANCH  55  69
BRANCH  56  75
ATOM     75  C   UNL A   1      40.909  24.040  27.476  1.00  0.00    -0.014 A 
ATOM     76  C   UNL A   1      41.419  22.904  28.130  1.00  0.00     0.009 A 
ATOM     77  C   UNL A   1      39.911  23.870  26.507  1.00  0.00     0.009 A 
ATOM     78  C   UNL A   1      40.968  21.626  27.796  1.00  0.00     0.001 A 
ATOM     79  C   UNL A   1      39.441  22.589  26.195  1.00  0.00     0.001 A 
ATOM     80  C   UNL A   1      39.976  21.469  26.832  1.00  0.00     0.000 A 
ENDBRANCH  56  75
BRANCH  68  81
ATOM     81  C   UNL A   1      47.162  26.858  26.254  1.00  0.00    -0.014 A 
ATOM     82  C   UNL A   1      47.498  26.965  24.897  1.00  0.00     0.009 A 
ATOM     83  C   UNL A   1      48.102  26.319  27.148  1.00  0.00     0.009 A 
ATOM     84  C   UNL A   1      48.744  26.524  24.445  1.00  0.00     0.001 A 
ATOM     85  C   UNL A   1      49.353  25.901  26.697  1.00  0.00     0.001 A 
ATOM     86  C   UNL A   1      49.672  25.999  25.345  1.00  0.00     0.000 A 
ENDBRANCH  68  81
ENDBRANCH  42  43
ENDBRANCH  34  37
ENDBRANCH  32  33
ENDBRANCH  31  32
ENDBRANCH  30  31
ENDBRANCH   1  30
TORSDOF 17
ENDMDL
MODEL 2
REMARK VINA RESULT:     -14.9      2.895      6.382
REMARK SMILES COc1cccc([C@@H]2CC(c3cccc(C)c3)=NN2C(=O)CCC(=O)NCCCCNC(=O)c2ccc(-c3c4nc(c(-c5ccccc5)c5ccc([nH]5)c(-c5ccccc5)c5nc(c(-c6ccccc6)c6ccc3[nH]6)C=C5)C=C4)cc2)c1
REMARK SMILES IDX 27 1 26 2 24 3 25 4 23 6 22 7 20 8 21 9 19 10 8 11 9 12
REMARK SMILES IDX 10 13 18 14 7 15 3 16 4 17 82 18 5 19 6 20 2 21 1 22 11 23
REMARK SMILES IDX 12 24 17 25 13 26 15 27 14 28 16 29 28 30 29 31 30 32 31 33
REMARK SMILES IDX 32 34 33 36 34 37 35 38 81 39 36 40 80 41 37 42 38 43 39 44
REMARK SMILES IDX 74 45 40 46 79 47 73 48 75 49 41 50 78 51 72 52 71 53 42 55
REMARK SMILES IDX 64 56 49 57 63 58 50 59 53 60 62 61 76 62 51 63 52 64 61 66
REMARK SMILES IDX 77 67 54 68 43 69 44 70 48 71 45 72 47 73 46 74 65 75 66 76
REMARK SMILES IDX 70 77 67 78 69 79 68 80 55 81 56 82 60 83 57 84 59 85 58 86
REMARK H PARENT 26 5 31 35 75 54 53 65
REMARK Flexibility Score: inf
ROOT
ATOM      1  C   UNL A   1      30.716  29.176  23.894  1.00  0.00     0.116 C 
ENDROOT
BRANCH   1   2
ATOM      2  N   UNL A   1      30.260  27.738  23.368  1.00  0.00    -0.356 N 
ATOM      3  C   UNL A   1      30.175  26.500  23.918  1.00  0.00     0.220 C 
ATOM      4  O   UNL A   1      29.876  25.583  23.147  1.00  0.00    -0.275 OA
ATOM      5  H   UNL A   1      29.974  27.753  22.426  1.00  0.00     0.163 HD
BRANCH   3   6
ATOM      6  C   UNL A   1      30.424  26.252  25.385  1.00  0.00     0.110 C 
BRANCH   6   7
ATOM      7  C   UNL A   1      30.254  24.844  25.961  1.00  0.00     0.112 C 
BRANCH   7   8
ATOM      8  C   UNL A   1      31.516  24.280  26.626  1.00  0.00     0.243 C 
ATOM      9  O   UNL A   1      31.754  24.492  27.812  1.00  0.00    -0.273 OA
BRANCH   8  10
ATOM     10  N   UNL A   1      32.422  23.684  25.714  1.00  0.00    -0.225 N 
ATOM     11  C   UNL A   1      34.106  24.443  25.438  1.00  0.00     0.147 C 
ATOM     12  C   UNL A   1      35.317  22.790  25.538  1.00  0.00     0.091 C 
ATOM     13  C   UNL A   1      33.857  21.228  25.492  1.00  0.00     0.071 C 
ATOM     14  N   UNL A   1      32.434  21.849  25.660  1.00  0.00    -0.174 NA
BRANCH  11  15
ATOM     15  C   UNL A   1      33.764  25.475  24.241  1.00  0.00    -0.019 A 
ATOM     16  C   UNL A   1      33.458  25.951  21.876  1.00  0.00     0.119 A 
ATOM     17  C   UNL A   1      33.659  27.318  22.101  1.00  0.00     0.046 A 
ATOM     18  C   UNL A   1      33.490  25.030  22.941  1.00  0.00     0.052 A 
ATOM     19  C   UNL A   1      33.890  27.788  23.379  1.00  0.00     0.004 A 
ATOM     20  C   UNL A   1      33.949  26.879  24.427  1.00  0.00     0.006 A 
BRANCH  16  21
ATOM     21  O   UNL A   1      33.288  25.658  20.550  1.00  0.00    -0.497 OA
ATOM     22  C   UNL A   1      31.972  25.744  20.034  1.00  0.00     0.278 C 
ENDBRANCH  16  21
ENDBRANCH  11  15
BRANCH  13  23
ATOM     23  C   UNL A   1      33.748  19.689  24.664  1.00  0.00    -0.002 A 
ATOM     24  C   UNL A   1      32.570  19.404  24.006  1.00  0.00     0.010 A 
ATOM     25  C   UNL A   1      34.796  18.683  24.380  1.00  0.00     0.013 A 
ATOM     26  C   UNL A   1      32.540  18.277  23.170  1.00  0.00     0.001 A 
ATOM     27  C   UNL A   1      34.723  17.232  24.147  1.00  0.00    -0.050 A 
ATOM     28  C   UNL A   1      33.569  17.265  23.199  1.00  0.00     0.003 A 
ATOM     29  C   UNL A   1      35.453  15.684  25.432  1.00  0.00     0.044 C 
ENDBRANCH  13  23
ENDBRANCH   8  10
ENDBRANCH   7   8
ENDBRANCH   6   7
ENDBRANCH   3   6
ENDBRANCH   1   2
BRANCH   1  30
ATOM     30  C   UNL A   1      31.580  29.728  25.872  1.00  0.00     0.023 C 
BRANCH  30  31
ATOM     31  C   UNL A   1      31.331  31.566  26.358  1.00  0.00     0.023 C 
BRANCH  31  32
ATOM     32  C   UNL A   1      32.641  32.436  27.297  1.00  0.00     0.116 C 
BRANCH  32  33
ATOM     33  N   UNL A   1      32.535  34.008  27.765  1.00  0.00    -0.352 N 
ATOM     34  C   UNL A   1      33.053  34.895  28.779  1.00  0.00     0.251 C 
ATOM     35  H   UNL A   1      31.930  34.500  27.163  1.00  0.00     0.163 HD
ATOM     36  O   UNL A   1      32.535  35.986  28.985  1.00  0.00    -0.269 OA
BRANCH  34  37
ATOM     37  C   UNL A   1      34.238  34.474  29.578  1.00  0.00     0.039 A 
ATOM     38  C   UNL A   1      34.447  33.739  31.275  1.00  0.00     0.014 A 
ATOM     39  C   UNL A   1      35.548  34.268  28.356  1.00  0.00     0.014 A 
ATOM     40  C   UNL A   1      36.019  32.796  31.661  1.00  0.00     0.010 A 
ATOM     41  C   UNL A   1      36.952  33.230  28.675  1.00  0.00     0.010 A 
ATOM     42  C   UNL A   1      37.255  32.533  30.302  1.00  0.00    -0.014 A 
BRANCH  42  43
ATOM     43  C   UNL A   1      38.751  32.197  30.255  1.00  0.00     0.031 A 
ATOM     44  C   UNL A   1      39.210  30.807  29.726  1.00  0.00     0.074 A 
ATOM     45  C   UNL A   1      39.548  32.730  31.214  1.00  0.00     0.049 A 
ATOM     46  N   UNL A   1      40.289  30.099  30.008  1.00  0.00    -0.248 NA
ATOM     47  C   UNL A   1      38.288  30.077  28.844  1.00  0.00     0.031 C 
ATOM     48  C   UNL A   1      39.212  33.876  32.059  1.00  0.00     0.029 A 
ATOM     49  N   UNL A   1      40.774  32.312  31.708  1.00  0.00    -0.354 N 
ATOM     50  C   UNL A   1      40.142  28.870  29.353  1.00  0.00     0.074 A 
ATOM     51  C   UNL A   1      38.832  28.875  28.763  1.00  0.00     0.031 C 
ATOM     52  C   UNL A   1      40.200  34.074  32.953  1.00  0.00     0.029 A 
ATOM     53  C   UNL A   1      41.236  33.056  32.774  1.00  0.00     0.049 A 
ATOM     54  H   UNL A   1      41.272  31.551  31.331  1.00  0.00     0.167 HD
ATOM     55  C   UNL A   1      41.002  27.833  29.179  1.00  0.00     0.031 A 
ATOM     56  C   UNL A   1      42.356  32.947  33.525  1.00  0.00     0.031 A 
ATOM     57  C   UNL A   1      42.317  27.758  29.744  1.00  0.00     0.049 A 
ATOM     58  C   UNL A   1      43.359  31.844  33.279  1.00  0.00     0.074 A 
ATOM     59  C   UNL A   1      43.303  26.809  29.530  1.00  0.00     0.029 A 
ATOM     60  N   UNL A   1      42.821  28.666  30.652  1.00  0.00    -0.354 N 
ATOM     61  N   UNL A   1      43.282  30.818  32.470  1.00  0.00    -0.248 NA
ATOM     62  C   UNL A   1      44.623  31.903  34.039  1.00  0.00     0.031 C 
ATOM     63  C   UNL A   1      44.396  27.124  30.341  1.00  0.00     0.029 A 
ATOM     64  C   UNL A   1      44.101  28.297  31.016  1.00  0.00     0.049 A 
ATOM     65  H   UNL A   1      42.341  29.456  30.990  1.00  0.00     0.167 HD
ATOM     66  C   UNL A   1      44.501  30.153  32.580  1.00  0.00     0.074 A 
ATOM     67  C   UNL A   1      45.300  30.879  33.539  1.00  0.00     0.031 C 
ATOM     68  C   UNL A   1      44.919  29.039  31.932  1.00  0.00     0.031 A 
BRANCH  55  69
ATOM     69  C   UNL A   1      40.579  26.709  28.259  1.00  0.00    -0.014 A 
ATOM     70  C   UNL A   1      39.725  25.695  28.730  1.00  0.00     0.009 A 
ATOM     71  C   UNL A   1      40.966  26.688  26.910  1.00  0.00     0.009 A 
ATOM     72  C   UNL A   1      39.305  24.665  27.887  1.00  0.00     0.001 A 
ATOM     73  C   UNL A   1      40.517  25.673  26.059  1.00  0.00     0.001 A 
ATOM     74  C   UNL A   1      39.696  24.657  26.550  1.00  0.00     0.000 A 
ENDBRANCH  55  69
BRANCH  56  75
ATOM     75  C   UNL A   1      42.668  33.981  34.556  1.00  0.00    -0.014 A 
ATOM     76  C   UNL A   1      43.549  35.030  34.236  1.00  0.00     0.009 A 
ATOM     77  C   UNL A   1      42.145  33.912  35.854  1.00  0.00     0.009 A 
ATOM     78  C   UNL A   1      43.926  35.965  35.201  1.00  0.00     0.001 A 
ATOM     79  C   UNL A   1      42.502  34.868  36.811  1.00  0.00     0.001 A 
ATOM     80  C   UNL A   1      43.398  35.886  36.488  1.00  0.00     0.000 A 
ENDBRANCH  56  75
BRANCH  68  81
ATOM     81  C   UNL A   1      46.328  28.566  32.142  1.00  0.00    -0.014 A 
ATOM     82  C   UNL A   1      47.423  29.231  31.571  1.00  0.00     0.009 A 
ATOM     83  C   UNL A   1      46.564  27.489  33.012  1.00  0.00     0.009 A 
ATOM     84  C   UNL A   1      48.725  28.812  31.855  1.00  0.00     0.001 A 
ATOM     85  C   UNL A   1      47.865  27.088  33.312  1.00  0.00     0.001 A 
ATOM     86  C   UNL A   1      48.946  27.747  32.729  1.00  0.00     0.000 A 
ENDBRANCH  68  81
ENDBRANCH  42  43
ENDBRANCH  34  37
ENDBRANCH  32  33
ENDBRANCH  31  32
ENDBRANCH  30  31
ENDBRANCH   1  30
TORSDOF 17
ENDMDL
MODEL 3
REMARK VINA RESULT:     -14.6      3.397      8.755
REMARK SMILES COc1cccc([C@@H]2CC(c3cccc(C)c3)=NN2C(=O)CCC(=O)NCCCCNC(=O)c2ccc(-c3c4nc(c(-c5ccccc5)c5ccc([nH]5)c(-c5ccccc5)c5nc(c(-c6ccccc6)c6ccc3[nH]6)C=C5)C=C4)cc2)c1
REMARK SMILES IDX 27 1 26 2 24 3 25 4 23 6 22 7 20 8 21 9 19 10 8 11 9 12
REMARK SMILES IDX 10 13 18 14 7 15 3 16 4 17 82 18 5 19 6 20 2 21 1 22 11 23
REMARK SMILES IDX 12 24 17 25 13 26 15 27 14 28 16 29 28 30 29 31 30 32 31 33
REMARK SMILES IDX 32 34 33 36 34 37 35 38 81 39 36 40 80 41 37 42 38 43 39 44
REMARK SMILES IDX 74 45 40 46 79 47 73 48 75 49 41 50 78 51 72 52 71 53 42 55
REMARK SMILES IDX 64 56 49 57 63 58 50 59 53 60 62 61 76 62 51 63 52 64 61 66
REMARK SMILES IDX 77 67 54 68 43 69 44 70 48 71 45 72 47 73 46 74 65 75 66 76
REMARK SMILES IDX 70 77 67 78 69 79 68 80 55 81 56 82 60 83 57 84 59 85 58 86
REMARK H PARENT 26 5 31 35 75 54 53 65
REMARK Flexibility Score: inf
ROOT
ATOM      1  C   UNL A   1      35.012  21.485  24.772  1.00  0.00     0.116 C 
ENDROOT
BRANCH   1   2
ATOM      2  N   UNL A   1      34.167  22.043  23.537  1.00  0.00    -0.356 N 
ATOM      3  C   UNL A   1      33.863  23.279  23.066  1.00  0.00     0.220 C 
ATOM      4  O   UNL A   1      33.068  23.319  22.122  1.00  0.00    -0.275 OA
ATOM      5  H   UNL A   1      33.776  21.324  22.991  1.00  0.00     0.163 HD
BRANCH   3   6
ATOM      6  C   UNL A   1      34.462  24.534  23.651  1.00  0.00     0.110 C 
BRANCH   6   7
ATOM      7  C   UNL A   1      33.575  25.515  24.421  1.00  0.00     0.112 C 
BRANCH   7   8
ATOM      8  C   UNL A   1      33.417  26.884  23.746  1.00  0.00     0.243 C 
ATOM      9  O   UNL A   1      33.722  27.045  22.567  1.00  0.00    -0.273 OA
BRANCH   8  10
ATOM     10  N   UNL A   1      33.080  27.927  24.643  1.00  0.00    -0.225 N 
ATOM     11  C   UNL A   1      31.409  27.939  25.478  1.00  0.00     0.147 C 
ATOM     12  C   UNL A   1      31.930  28.344  27.420  1.00  0.00     0.091 C 
ATOM     13  C   UNL A   1      33.983  28.885  27.174  1.00  0.00     0.071 C 
ATOM     14  N   UNL A   1      34.434  28.546  25.718  1.00  0.00    -0.174 NA
BRANCH  11  15
ATOM     15  C   UNL A   1      30.547  28.760  24.384  1.00  0.00    -0.019 A 
ATOM     16  C   UNL A   1      29.390  30.781  23.681  1.00  0.00     0.119 A 
ATOM     17  C   UNL A   1      28.646  30.057  22.742  1.00  0.00     0.046 A 
ATOM     18  C   UNL A   1      30.352  30.145  24.489  1.00  0.00     0.052 A 
ATOM     19  C   UNL A   1      28.847  28.698  22.590  1.00  0.00     0.004 A 
ATOM     20  C   UNL A   1      29.777  28.064  23.404  1.00  0.00     0.006 A 
BRANCH  16  21
ATOM     21  O   UNL A   1      29.031  32.101  23.728  1.00  0.00    -0.497 OA
ATOM     22  C   UNL A   1      28.740  32.735  22.496  1.00  0.00     0.278 C 
ENDBRANCH  16  21
ENDBRANCH  11  15
BRANCH  13  23
ATOM     23  C   UNL A   1      34.997  30.149  27.838  1.00  0.00    -0.002 A 
ATOM     24  C   UNL A   1      36.105  29.761  28.561  1.00  0.00     0.010 A 
ATOM     25  C   UNL A   1      34.978  31.610  27.599  1.00  0.00     0.013 A 
ATOM     26  C   UNL A   1      37.036  30.748  28.920  1.00  0.00     0.001 A 
ATOM     27  C   UNL A   1      35.426  32.743  28.424  1.00  0.00    -0.050 A 
ATOM     28  C   UNL A   1      36.742  32.158  28.824  1.00  0.00     0.003 A 
ATOM     29  C   UNL A   1      34.193  34.221  29.360  1.00  0.00     0.044 C 
ENDBRANCH  13  23
ENDBRANCH   8  10
ENDBRANCH   7   8
ENDBRANCH   6   7
ENDBRANCH   3   6
ENDBRANCH   1   2
BRANCH   1  30
ATOM     30  C   UNL A   1      37.142  21.878  25.297  1.00  0.00     0.023 C 
BRANCH  30  31
ATOM     31  C   UNL A   1      37.537  23.718  25.668  1.00  0.00     0.023 C 
BRANCH  31  32
ATOM     32  C   UNL A   1      38.947  24.134  26.761  1.00  0.00     0.116 C 
BRANCH  32  33
ATOM     33  N   UNL A   1      39.926  23.009  27.453  1.00  0.00    -0.352 N 
ATOM     34  C   UNL A   1      41.319  22.631  27.488  1.00  0.00     0.251 C 
ATOM     35  H   UNL A   1      39.397  22.404  28.022  1.00  0.00     0.163 HD
ATOM     36  O   UNL A   1      41.663  21.538  27.922  1.00  0.00    -0.269 OA
BRANCH  34  37
ATOM     37  C   UNL A   1      42.346  23.590  26.994  1.00  0.00     0.039 A 
ATOM     38  C   UNL A   1      42.646  24.419  25.356  1.00  0.00     0.014 A 
ATOM     39  C   UNL A   1      43.032  24.318  28.494  1.00  0.00     0.014 A 
ATOM     40  C   UNL A   1      43.652  25.999  25.316  1.00  0.00     0.010 A 
ATOM     41  C   UNL A   1      43.834  25.902  28.467  1.00  0.00     0.010 A 
ATOM     42  C   UNL A   1      44.212  26.738  26.923  1.00  0.00    -0.014 A 
BRANCH  42  43
ATOM     43  C   UNL A   1      45.314  27.724  27.331  1.00  0.00     0.031 A 
ATOM     44  C   UNL A   1      45.036  29.254  27.268  1.00  0.00     0.074 A 
ATOM     45  C   UNL A   1      46.600  27.370  27.086  1.00  0.00     0.049 A 
ATOM     46  N   UNL A   1      45.866  30.266  27.088  1.00  0.00    -0.248 NA
ATOM     47  C   UNL A   1      43.635  29.694  27.314  1.00  0.00     0.031 C 
ATOM     48  C   UNL A   1      47.072  26.012  26.822  1.00  0.00     0.029 A 
ATOM     49  N   UNL A   1      47.737  28.146  26.922  1.00  0.00    -0.354 N 
ATOM     50  C   UNL A   1      45.075  31.417  26.989  1.00  0.00     0.074 A 
ATOM     51  C   UNL A   1      43.707  30.977  27.007  1.00  0.00     0.031 C 
ATOM     52  C   UNL A   1      48.388  26.046  26.539  1.00  0.00     0.029 A 
ATOM     53  C   UNL A   1      48.862  27.430  26.572  1.00  0.00     0.049 A 
ATOM     54  H   UNL A   1      47.741  29.122  27.045  1.00  0.00     0.167 HD
ATOM     55  C   UNL A   1      45.403  32.736  26.946  1.00  0.00     0.031 A 
ATOM     56  C   UNL A   1      50.129  27.823  26.307  1.00  0.00     0.031 A 
ATOM     57  C   UNL A   1      46.742  33.244  26.917  1.00  0.00     0.049 A 
ATOM     58  C   UNL A   1      50.519  29.283  26.342  1.00  0.00     0.074 A 
ATOM     59  C   UNL A   1      47.176  34.557  26.993  1.00  0.00     0.029 A 
ATOM     60  N   UNL A   1      47.866  32.455  26.786  1.00  0.00    -0.354 N 
ATOM     61  N   UNL A   1      49.761  30.341  26.488  1.00  0.00    -0.248 NA
ATOM     62  C   UNL A   1      51.954  29.600  26.200  1.00  0.00     0.031 C 
ATOM     63  C   UNL A   1      48.567  34.565  26.869  1.00  0.00     0.029 A 
ATOM     64  C   UNL A   1      48.994  33.252  26.770  1.00  0.00     0.049 A 
ATOM     65  H   UNL A   1      47.864  31.473  26.715  1.00  0.00     0.167 HD
ATOM     66  C   UNL A   1      50.628  31.431  26.516  1.00  0.00     0.074 A 
ATOM     67  C   UNL A   1      51.968  30.915  26.363  1.00  0.00     0.031 C 
ATOM     68  C   UNL A   1      50.332  32.745  26.665  1.00  0.00     0.031 A 
BRANCH  55  69
ATOM     69  C   UNL A   1      44.280  33.747  27.013  1.00  0.00    -0.014 A 
ATOM     70  C   UNL A   1      43.845  34.238  28.258  1.00  0.00     0.009 A 
ATOM     71  C   UNL A   1      43.699  34.268  25.846  1.00  0.00     0.009 A 
ATOM     72  C   UNL A   1      42.827  35.191  28.334  1.00  0.00     0.001 A 
ATOM     73  C   UNL A   1      42.702  35.246  25.925  1.00  0.00     0.001 A 
ATOM     74  C   UNL A   1      42.260  35.698  27.168  1.00  0.00     0.000 A 
ENDBRANCH  55  69
BRANCH  56  75
ATOM     75  C   UNL A   1      51.195  26.805  26.069  1.00  0.00    -0.014 A 
ATOM     76  C   UNL A   1      51.854  26.227  27.168  1.00  0.00     0.009 A 
ATOM     77  C   UNL A   1      51.592  26.441  24.775  1.00  0.00     0.009 A 
ATOM     78  C   UNL A   1      52.910  25.333  26.977  1.00  0.00     0.001 A 
ATOM     79  C   UNL A   1      52.631  25.523  24.588  1.00  0.00     0.001 A 
ATOM     80  C   UNL A   1      53.295  24.978  25.687  1.00  0.00     0.000 A 
ENDBRANCH  56  75
BRANCH  68  81
ATOM     81  C   UNL A   1      51.457  33.732  26.770  1.00  0.00    -0.014 A 
ATOM     82  C   UNL A   1      51.944  34.418  25.649  1.00  0.00     0.009 A 
ATOM     83  C   UNL A   1      51.970  34.050  28.039  1.00  0.00     0.009 A 
ATOM     84  C   UNL A   1      52.937  35.391  25.797  1.00  0.00     0.001 A 
ATOM     85  C   UNL A   1      52.943  35.037  28.186  1.00  0.00     0.001 A 
ATOM     86  C   UNL A   1      53.430  35.704  27.064  1.00  0.00     0.000 A 
ENDBRANCH  68  81
ENDBRANCH  42  43
ENDBRANCH  34  37
ENDBRANCH  32  33
ENDBRANCH  31  32
ENDBRANCH  30  31
ENDBRANCH   1  30
TORSDOF 17
ENDMDL
