MODEL 1
REMARK VINA RESULT:     -11.2      0.000      0.000
REMARK SMILES Cc1noc2c1-c1c(c(C(=O)NCCCCNC(=O)c3ccc(-c4c5nc(c(-c6ccccc6)c6ccc([nH]6)c(-c6ccccc6)c6nc(c(-c7ccccc7)c7ccc4[nH]7)C=C6)C=C5)cc3)nn1C)CC2
REMARK SMILES IDX 15 1 14 2 13 3 12 4 10 5 11 6 9 8 1 9 2 10 3 11 6 12 4 13
REMARK SMILES IDX 5 14 7 15 72 16 8 17 69 18 71 19 68 20 70 21 16 22 17 23
REMARK SMILES IDX 18 24 19 26 20 27 21 28 67 29 22 30 66 31 23 32 24 33 25 34
REMARK SMILES IDX 60 35 26 36 65 37 59 38 61 39 27 40 64 41 58 42 57 43 28 45
REMARK SMILES IDX 50 46 35 47 49 48 36 49 39 50 48 51 62 52 37 53 38 54 47 56
REMARK SMILES IDX 63 57 40 58 29 59 30 60 34 61 31 62 33 63 32 64 51 65 52 66
REMARK SMILES IDX 56 67 53 68 55 69 54 70 41 71 42 72 46 73 43 74 45 75 44 76
REMARK H PARENT 12 7 17 25 61 44 39 55
REMARK Flexibility Score: inf
ROOT
ATOM      1  C   UNL A   1      41.323  32.848  34.163  1.00  0.00     0.023 C 
ENDROOT
BRANCH   1   2
ATOM      2  C   UNL A   1      40.803  31.434  33.916  1.00  0.00     0.023 C 
BRANCH   2   3
ATOM      3  C   UNL A   1      39.303  31.166  33.961  1.00  0.00     0.116 C 
BRANCH   3   4
ATOM      4  N   UNL A   1      38.816  29.824  33.810  1.00  0.00    -0.351 N 
ATOM      5  C   UNL A   1      37.758  29.385  33.023  1.00  0.00     0.272 C 
ATOM      6  O   UNL A   1      37.578  28.162  33.010  1.00  0.00    -0.267 OA
ATOM      7  H   UNL A   1      39.290  29.131  34.325  1.00  0.00     0.163 HD
BRANCH   5   8
ATOM      8  C   UNL A   1      36.848  30.323  32.290  1.00  0.00     0.154 A 
ATOM      9  C   UNL A   1      34.098  34.497  29.651  1.00  0.00     0.071 C 
ATOM     10  C   UNL A   1      34.543  33.238  29.019  1.00  0.00     0.090 A 
ATOM     11  N   UNL A   1      34.387  33.103  27.687  1.00  0.00    -0.084 NA
ATOM     12  C   UNL A   1      35.160  32.095  29.565  1.00  0.00     0.066 A 
ATOM     13  O   UNL A   1      34.870  31.845  27.362  1.00  0.00    -0.360 OA
ATOM     14  C   UNL A   1      35.312  31.255  28.490  1.00  0.00     0.146 A 
ATOM     15  C   UNL A   1      35.658  31.593  30.864  1.00  0.00     0.077 A 
ATOM     16  C   UNL A   1      35.819  29.869  28.465  1.00  0.00     0.084 C 
ATOM     17  C   UNL A   1      36.430  30.435  30.912  1.00  0.00     0.012 A 
ATOM     18  N   UNL A   1      35.542  32.035  32.140  1.00  0.00    -0.267 N 
ATOM     19  C   UNL A   1      36.753  29.629  29.671  1.00  0.00     0.048 C 
ATOM     20  N   UNL A   1      36.245  31.295  33.014  1.00  0.00    -0.167 NA
ATOM     21  C   UNL A   1      34.734  33.116  32.647  1.00  0.00     0.174 C 
ENDBRANCH   5   8
ENDBRANCH   3   4
ENDBRANCH   2   3
ENDBRANCH   1   2
BRANCH   1  22
ATOM     22  C   UNL A   1      41.845  33.588  32.943  1.00  0.00     0.116 C 
BRANCH  22  23
ATOM     23  N   UNL A   1      40.827  34.250  32.124  1.00  0.00    -0.352 N 
ATOM     24  C   UNL A   1      40.483  33.928  30.811  1.00  0.00     0.251 C 
ATOM     25  H   UNL A   1      40.339  34.997  32.541  1.00  0.00     0.163 HD
ATOM     26  O   UNL A   1      39.869  34.692  30.097  1.00  0.00    -0.269 OA
BRANCH  24  27
ATOM     27  C   UNL A   1      40.892  32.595  30.318  1.00  0.00     0.039 A 
ATOM     28  C   UNL A   1      42.207  32.305  29.946  1.00  0.00     0.014 A 
ATOM     29  C   UNL A   1      39.924  31.600  30.357  1.00  0.00     0.014 A 
ATOM     30  C   UNL A   1      42.558  30.972  29.725  1.00  0.00     0.010 A 
ATOM     31  C   UNL A   1      40.312  30.287  30.330  1.00  0.00     0.010 A 
ATOM     32  C   UNL A   1      41.609  29.961  29.953  1.00  0.00    -0.014 A 
BRANCH  32  33
ATOM     33  C   UNL A   1      41.957  28.548  29.866  1.00  0.00     0.031 A 
ATOM     34  C   UNL A   1      42.641  27.961  31.048  1.00  0.00     0.074 A 
ATOM     35  C   UNL A   1      41.538  27.746  28.863  1.00  0.00     0.049 A 
ATOM     36  N   UNL A   1      43.877  27.599  31.122  1.00  0.00    -0.248 NA
ATOM     37  C   UNL A   1      41.907  27.837  32.315  1.00  0.00     0.031 C 
ATOM     38  C   UNL A   1      40.626  28.049  27.750  1.00  0.00     0.029 A 
ATOM     39  N   UNL A   1      41.780  26.420  28.693  1.00  0.00    -0.354 N 
ATOM     40  C   UNL A   1      44.051  27.036  32.381  1.00  0.00     0.074 A 
ATOM     41  C   UNL A   1      42.848  27.336  33.121  1.00  0.00     0.031 C 
ATOM     42  C   UNL A   1      40.212  26.899  27.175  1.00  0.00     0.029 A 
ATOM     43  C   UNL A   1      40.982  25.808  27.740  1.00  0.00     0.049 A 
ATOM     44  H   UNL A   1      42.467  25.935  29.205  1.00  0.00     0.167 HD
ATOM     45  C   UNL A   1      45.088  26.191  32.644  1.00  0.00     0.031 A 
ATOM     46  C   UNL A   1      40.962  24.492  27.427  1.00  0.00     0.031 A 
ATOM     47  C   UNL A   1      46.061  26.198  31.582  1.00  0.00     0.049 A 
ATOM     48  C   UNL A   1      42.265  23.928  27.847  1.00  0.00     0.074 A 
ATOM     49  C   UNL A   1      46.877  27.155  31.010  1.00  0.00     0.029 A 
ATOM     50  N   UNL A   1      46.000  25.167  30.672  1.00  0.00    -0.354 N 
ATOM     51  N   UNL A   1      43.392  24.254  27.281  1.00  0.00    -0.248 NA
ATOM     52  C   UNL A   1      42.377  23.353  29.176  1.00  0.00     0.031 C 
ATOM     53  C   UNL A   1      46.840  26.874  29.611  1.00  0.00     0.029 A 
ATOM     54  C   UNL A   1      46.068  25.726  29.422  1.00  0.00     0.049 A 
ATOM     55  H   UNL A   1      45.922  24.208  30.881  1.00  0.00     0.167 HD
ATOM     56  C   UNL A   1      44.294  24.357  28.331  1.00  0.00     0.074 A 
ATOM     57  C   UNL A   1      43.645  23.678  29.452  1.00  0.00     0.031 C 
ATOM     58  C   UNL A   1      45.350  25.223  28.271  1.00  0.00     0.031 A 
BRANCH  45  59
ATOM     59  C   UNL A   1      45.053  25.078  33.659  1.00  0.00    -0.014 A 
ATOM     60  C   UNL A   1      44.162  24.007  33.455  1.00  0.00     0.009 A 
ATOM     61  C   UNL A   1      45.644  25.178  34.931  1.00  0.00     0.009 A 
ATOM     62  C   UNL A   1      43.821  23.133  34.494  1.00  0.00     0.001 A 
ATOM     63  C   UNL A   1      45.336  24.283  35.960  1.00  0.00     0.001 A 
ATOM     64  C   UNL A   1      44.401  23.278  35.749  1.00  0.00     0.000 A 
ENDBRANCH  45  59
BRANCH  46  65
ATOM     65  C   UNL A   1      39.827  23.655  26.997  1.00  0.00    -0.014 A 
ATOM     66  C   UNL A   1      38.599  24.238  26.650  1.00  0.00     0.009 A 
ATOM     67  C   UNL A   1      40.040  22.309  26.650  1.00  0.00     0.009 A 
ATOM     68  C   UNL A   1      37.639  23.514  25.931  1.00  0.00     0.001 A 
ATOM     69  C   UNL A   1      39.081  21.586  25.934  1.00  0.00     0.001 A 
ATOM     70  C   UNL A   1      37.889  22.195  25.557  1.00  0.00     0.000 A 
ENDBRANCH  46  65
BRANCH  58  71
ATOM     71  C   UNL A   1      45.619  25.915  26.954  1.00  0.00    -0.014 A 
ATOM     72  C   UNL A   1      45.017  27.134  26.593  1.00  0.00     0.009 A 
ATOM     73  C   UNL A   1      46.620  25.399  26.119  1.00  0.00     0.009 A 
ATOM     74  C   UNL A   1      45.381  27.797  25.416  1.00  0.00     0.001 A 
ATOM     75  C   UNL A   1      46.999  26.072  24.954  1.00  0.00     0.001 A 
ATOM     76  C   UNL A   1      46.376  27.266  24.599  1.00  0.00     0.000 A 
ENDBRANCH  58  71
ENDBRANCH  32  33
ENDBRANCH  24  27
ENDBRANCH  22  23
ENDBRANCH   1  22
TORSDOF 11
ENDMDL
MODEL 2
REMARK VINA RESULT:     -11.1      1.334      2.029
REMARK SMILES Cc1noc2c1-c1c(c(C(=O)NCCCCNC(=O)c3ccc(-c4c5nc(c(-c6ccccc6)c6ccc([nH]6)c(-c6ccccc6)c6nc(c(-c7ccccc7)c7ccc4[nH]7)C=C6)C=C5)cc3)nn1C)CC2
REMARK SMILES IDX 15 1 14 2 13 3 12 4 10 5 11 6 9 8 1 9 2 10 3 11 6 12 4 13
REMARK SMILES IDX 5 14 7 15 72 16 8 17 69 18 71 19 68 20 70 21 16 22 17 23
REMARK SMILES IDX 18 24 19 26 20 27 21 28 67 29 22 30 66 31 23 32 24 33 25 34
REMARK SMILES IDX 60 35 26 36 65 37 59 38 61 39 27 40 64 41 58 42 57 43 28 45
REMARK SMILES IDX 50 46 35 47 49 48 36 49 39 50 48 51 62 52 37 53 38 54 47 56
REMARK SMILES IDX 63 57 40 58 29 59 30 60 34 61 31 62 33 63 32 64 51 65 52 66
REMARK SMILES IDX 56 67 53 68 55 69 54 70 41 71 42 72 46 73 43 74 45 75 44 76
REMARK H PARENT 12 7 17 25 61 44 39 55
REMARK Flexibility Score: inf
ROOT
ATOM      1  C   UNL A   1      40.383  32.868  34.199  1.00  0.00     0.023 C 
ENDROOT
BRANCH   1   2
ATOM      2  C   UNL A   1      39.605  31.595  33.876  1.00  0.00     0.023 C 
BRANCH   2   3
ATOM      3  C   UNL A   1      38.156  31.696  33.412  1.00  0.00     0.116 C 
BRANCH   3   4
ATOM      4  N   UNL A   1      37.533  30.568  32.779  1.00  0.00    -0.351 N 
ATOM      5  C   UNL A   1      36.584  30.578  31.762  1.00  0.00     0.272 C 
ATOM      6  O   UNL A   1      36.251  29.467  31.337  1.00  0.00    -0.267 OA
ATOM      7  H   UNL A   1      37.810  29.681  33.104  1.00  0.00     0.163 HD
BRANCH   5   8
ATOM      8  C   UNL A   1      35.953  31.838  31.255  1.00  0.00     0.154 A 
ATOM      9  C   UNL A   1      32.913  36.025  28.980  1.00  0.00     0.071 C 
ATOM     10  C   UNL A   1      33.159  35.841  30.425  1.00  0.00     0.090 A 
ATOM     11  N   UNL A   1      32.528  36.659  31.290  1.00  0.00    -0.084 NA
ATOM     12  C   UNL A   1      33.949  34.902  31.117  1.00  0.00     0.066 A 
ATOM     13  O   UNL A   1      32.939  36.280  32.558  1.00  0.00    -0.360 OA
ATOM     14  C   UNL A   1      33.792  35.245  32.436  1.00  0.00     0.146 A 
ATOM     15  C   UNL A   1      34.821  33.739  30.842  1.00  0.00     0.077 A 
ATOM     16  C   UNL A   1      34.454  34.672  33.625  1.00  0.00     0.084 C 
ATOM     17  C   UNL A   1      35.253  32.931  31.890  1.00  0.00     0.012 A 
ATOM     18  N   UNL A   1      35.342  33.213  29.706  1.00  0.00    -0.267 N 
ATOM     19  C   UNL A   1      34.896  33.222  33.333  1.00  0.00     0.048 C 
ATOM     20  N   UNL A   1      36.022  32.075  29.923  1.00  0.00    -0.167 NA
ATOM     21  C   UNL A   1      35.306  33.749  28.369  1.00  0.00     0.174 C 
ENDBRANCH   5   8
ENDBRANCH   3   4
ENDBRANCH   2   3
ENDBRANCH   1   2
BRANCH   1  22
ATOM     22  C   UNL A   1      41.181  33.468  33.054  1.00  0.00     0.116 C 
BRANCH  22  23
ATOM     23  N   UNL A   1      40.404  34.231  32.075  1.00  0.00    -0.352 N 
ATOM     24  C   UNL A   1      40.349  33.997  30.700  1.00  0.00     0.251 C 
ATOM     25  H   UNL A   1      39.870  34.982  32.420  1.00  0.00     0.163 HD
ATOM     26  O   UNL A   1      39.946  34.832  29.918  1.00  0.00    -0.269 OA
BRANCH  24  27
ATOM     27  C   UNL A   1      40.797  32.671  30.225  1.00  0.00     0.039 A 
ATOM     28  C   UNL A   1      42.144  32.369  30.005  1.00  0.00     0.014 A 
ATOM     29  C   UNL A   1      39.819  31.690  30.126  1.00  0.00     0.014 A 
ATOM     30  C   UNL A   1      42.502  31.037  29.793  1.00  0.00     0.010 A 
ATOM     31  C   UNL A   1      40.192  30.372  30.113  1.00  0.00     0.010 A 
ATOM     32  C   UNL A   1      41.521  30.035  29.883  1.00  0.00    -0.014 A 
BRANCH  32  33
ATOM     33  C   UNL A   1      41.860  28.619  29.803  1.00  0.00     0.031 A 
ATOM     34  C   UNL A   1      42.520  28.029  30.997  1.00  0.00     0.074 A 
ATOM     35  C   UNL A   1      41.452  27.820  28.793  1.00  0.00     0.049 A 
ATOM     36  N   UNL A   1      43.752  27.657  31.091  1.00  0.00    -0.248 NA
ATOM     37  C   UNL A   1      41.764  27.911  32.252  1.00  0.00     0.031 C 
ATOM     38  C   UNL A   1      40.560  28.129  27.666  1.00  0.00     0.029 A 
ATOM     39  N   UNL A   1      41.686  26.492  28.629  1.00  0.00    -0.354 N 
ATOM     40  C   UNL A   1      43.900  27.095  32.354  1.00  0.00     0.074 A 
ATOM     41  C   UNL A   1      42.688  27.404  33.073  1.00  0.00     0.031 C 
ATOM     42  C   UNL A   1      40.148  26.981  27.084  1.00  0.00     0.029 A 
ATOM     43  C   UNL A   1      40.899  25.885  27.663  1.00  0.00     0.049 A 
ATOM     44  H   UNL A   1      42.361  26.002  29.152  1.00  0.00     0.167 HD
ATOM     45  C   UNL A   1      44.927  26.242  32.634  1.00  0.00     0.031 A 
ATOM     46  C   UNL A   1      40.875  24.569  27.350  1.00  0.00     0.031 A 
ATOM     47  C   UNL A   1      45.917  26.241  31.588  1.00  0.00     0.049 A 
ATOM     48  C   UNL A   1      42.167  23.996  27.792  1.00  0.00     0.074 A 
ATOM     49  C   UNL A   1      46.749  27.191  31.029  1.00  0.00     0.029 A 
ATOM     50  N   UNL A   1      45.863  25.210  30.678  1.00  0.00    -0.354 N 
ATOM     51  N   UNL A   1      43.305  24.313  27.245  1.00  0.00    -0.248 NA
ATOM     52  C   UNL A   1      42.252  23.421  29.124  1.00  0.00     0.031 C 
ATOM     53  C   UNL A   1      46.734  26.909  29.630  1.00  0.00     0.029 A 
ATOM     54  C   UNL A   1      45.956  25.767  29.429  1.00  0.00     0.049 A 
ATOM     55  H   UNL A   1      45.775  24.251  30.886  1.00  0.00     0.167 HD
ATOM     56  C   UNL A   1      44.191  24.410  28.309  1.00  0.00     0.074 A 
ATOM     57  C   UNL A   1      43.517  23.737  29.420  1.00  0.00     0.031 C 
ATOM     58  C   UNL A   1      45.253  25.268  28.267  1.00  0.00     0.031 A 
BRANCH  45  59
ATOM     59  C   UNL A   1      44.867  25.130  33.649  1.00  0.00    -0.014 A 
ATOM     60  C   UNL A   1      44.182  23.947  33.313  1.00  0.00     0.009 A 
ATOM     61  C   UNL A   1      45.204  25.305  35.003  1.00  0.00     0.009 A 
ATOM     62  C   UNL A   1      43.786  23.028  34.293  1.00  0.00     0.001 A 
ATOM     63  C   UNL A   1      44.845  24.371  35.979  1.00  0.00     0.001 A 
ATOM     64  C   UNL A   1      44.110  23.247  35.628  1.00  0.00     0.000 A 
ENDBRANCH  45  59
BRANCH  46  65
ATOM     65  C   UNL A   1      39.741  23.740  26.903  1.00  0.00    -0.014 A 
ATOM     66  C   UNL A   1      38.531  24.334  26.510  1.00  0.00     0.009 A 
ATOM     67  C   UNL A   1      39.944  22.386  26.585  1.00  0.00     0.009 A 
ATOM     68  C   UNL A   1      37.583  23.610  25.777  1.00  0.00     0.001 A 
ATOM     69  C   UNL A   1      38.996  21.663  25.854  1.00  0.00     0.001 A 
ATOM     70  C   UNL A   1      37.824  22.282  25.433  1.00  0.00     0.000 A 
ENDBRANCH  46  65
BRANCH  58  71
ATOM     71  C   UNL A   1      45.549  25.957  26.954  1.00  0.00    -0.014 A 
ATOM     72  C   UNL A   1      44.905  27.140  26.548  1.00  0.00     0.009 A 
ATOM     73  C   UNL A   1      46.613  25.482  26.174  1.00  0.00     0.009 A 
ATOM     74  C   UNL A   1      45.291  27.806  25.380  1.00  0.00     0.001 A 
ATOM     75  C   UNL A   1      47.012  26.159  25.018  1.00  0.00     0.001 A 
ATOM     76  C   UNL A   1      46.348  27.316  24.617  1.00  0.00     0.000 A 
ENDBRANCH  58  71
ENDBRANCH  32  33
ENDBRANCH  24  27
ENDBRANCH  22  23
ENDBRANCH   1  22
TORSDOF 11
ENDMDL
MODEL 3
REMARK VINA RESULT:     -11.1      3.964      9.400
REMARK SMILES Cc1noc2c1-c1c(c(C(=O)NCCCCNC(=O)c3ccc(-c4c5nc(c(-c6ccccc6)c6ccc([nH]6)c(-c6ccccc6)c6nc(c(-c7ccccc7)c7ccc4[nH]7)C=C6)C=C5)cc3)nn1C)CC2
REMARK SMILES IDX 15 1 14 2 13 3 12 4 10 5 11 6 9 8 1 9 2 10 3 11 6 12 4 13
REMARK SMILES IDX 5 14 7 15 72 16 8 17 69 18 71 19 68 20 70 21 16 22 17 23
REMARK SMILES IDX 18 24 19 26 20 27 21 28 67 29 22 30 66 31 23 32 24 33 25 34
REMARK SMILES IDX 60 35 26 36 65 37 59 38 61 39 27 40 64 41 58 42 57 43 28 45
REMARK SMILES IDX 50 46 35 47 49 48 36 49 39 50 48 51 62 52 37 53 38 54 47 56
REMARK SMILES IDX 63 57 40 58 29 59 30 60 34 61 31 62 33 63 32 64 51 65 52 66
REMARK SMILES IDX 56 67 53 68 55 69 54 70 41 71 42 72 46 73 43 74 45 75 44 76
REMARK H PARENT 12 7 17 25 61 44 39 55
REMARK Flexibility Score: inf
ROOT
ATOM      1  C   UNL A   1      31.560  31.645  26.730  1.00  0.00     0.023 C 
ENDROOT
BRANCH   1   2
ATOM      2  C   UNL A   1      31.874  30.186  26.406  1.00  0.00     0.023 C 
BRANCH   2   3
ATOM      3  C   UNL A   1      33.247  29.816  25.856  1.00  0.00     0.116 C 
BRANCH   3   4
ATOM      4  N   UNL A   1      33.430  29.670  24.440  1.00  0.00    -0.351 N 
ATOM      5  C   UNL A   1      33.352  28.504  23.687  1.00  0.00     0.272 C 
ATOM      6  O   UNL A   1      33.483  28.651  22.467  1.00  0.00    -0.267 OA
ATOM      7  H   UNL A   1      33.635  30.494  23.943  1.00  0.00     0.163 HD
BRANCH   5   8
ATOM      8  C   UNL A   1      33.190  27.149  24.304  1.00  0.00     0.154 A 
ATOM      9  C   UNL A   1      33.112  22.373  27.326  1.00  0.00     0.071 C 
ATOM     10  C   UNL A   1      31.929  23.199  27.011  1.00  0.00     0.090 A 
ATOM     11  N   UNL A   1      30.750  22.864  27.569  1.00  0.00    -0.084 NA
ATOM     12  C   UNL A   1      31.791  24.354  26.215  1.00  0.00     0.066 A 
ATOM     13  O   UNL A   1      29.821  23.784  27.105  1.00  0.00    -0.360 OA
ATOM     14  C   UNL A   1      30.454  24.652  26.292  1.00  0.00     0.146 A 
ATOM     15  C   UNL A   1      32.620  25.266  25.396  1.00  0.00     0.077 A 
ATOM     16  C   UNL A   1      29.701  25.707  25.587  1.00  0.00     0.084 C 
ATOM     17  C   UNL A   1      32.084  26.465  24.935  1.00  0.00     0.012 A 
ATOM     18  N   UNL A   1      33.899  25.216  24.952  1.00  0.00    -0.267 N 
ATOM     19  C   UNL A   1      30.649  26.865  25.207  1.00  0.00     0.048 C 
ATOM     20  N   UNL A   1      34.267  26.329  24.297  1.00  0.00    -0.167 NA
ATOM     21  C   UNL A   1      34.839  24.127  25.041  1.00  0.00     0.174 C 
ENDBRANCH   5   8
ENDBRANCH   3   4
ENDBRANCH   2   3
ENDBRANCH   1   2
BRANCH   1  22
ATOM     22  C   UNL A   1      32.710  32.464  27.291  1.00  0.00     0.116 C 
BRANCH  22  23
ATOM     23  N   UNL A   1      32.381  33.840  27.668  1.00  0.00    -0.352 N 
ATOM     24  C   UNL A   1      32.991  34.593  28.672  1.00  0.00     0.251 C 
ATOM     25  H   UNL A   1      31.656  34.276  27.163  1.00  0.00     0.163 HD
ATOM     26  O   UNL A   1      32.479  35.590  29.134  1.00  0.00    -0.269 OA
BRANCH  24  27
ATOM     27  C   UNL A   1      34.310  34.128  29.151  1.00  0.00     0.039 A 
ATOM     28  C   UNL A   1      34.446  33.208  30.194  1.00  0.00     0.014 A 
ATOM     29  C   UNL A   1      35.415  34.558  28.428  1.00  0.00     0.014 A 
ATOM     30  C   UNL A   1      35.702  32.642  30.423  1.00  0.00     0.010 A 
ATOM     31  C   UNL A   1      36.591  33.864  28.527  1.00  0.00     0.010 A 
ATOM     32  C   UNL A   1      36.766  32.951  29.559  1.00  0.00    -0.014 A 
BRANCH  32  33
ATOM     33  C   UNL A   1      38.061  32.289  29.670  1.00  0.00     0.031 A 
ATOM     34  C   UNL A   1      38.112  30.862  29.257  1.00  0.00     0.074 A 
ATOM     35  C   UNL A   1      39.204  32.951  29.955  1.00  0.00     0.049 A 
ATOM     36  N   UNL A   1      38.247  29.840  30.033  1.00  0.00    -0.248 NA
ATOM     37  C   UNL A   1      37.909  30.515  27.844  1.00  0.00     0.031 C 
ATOM     38  C   UNL A   1      39.427  34.395  30.118  1.00  0.00     0.029 A 
ATOM     39  N   UNL A   1      40.461  32.445  30.060  1.00  0.00    -0.354 N 
ATOM     40  C   UNL A   1      38.323  28.724  29.208  1.00  0.00     0.074 A 
ATOM     41  C   UNL A   1      37.969  29.181  27.885  1.00  0.00     0.031 C 
ATOM     42  C   UNL A   1      40.750  34.660  30.063  1.00  0.00     0.029 A 
ATOM     43  C   UNL A   1      41.465  33.400  30.066  1.00  0.00     0.049 A 
ATOM     44  H   UNL A   1      40.642  31.480  30.126  1.00  0.00     0.167 HD
ATOM     45  C   UNL A   1      38.872  27.555  29.645  1.00  0.00     0.031 A 
ATOM     46  C   UNL A   1      42.799  33.170  30.086  1.00  0.00     0.031 A 
ATOM     47  C   UNL A   1      39.082  27.566  31.070  1.00  0.00     0.049 A 
ATOM     48  C   UNL A   1      42.994  31.811  30.642  1.00  0.00     0.074 A 
ATOM     49  C   UNL A   1      38.265  27.693  32.177  1.00  0.00     0.029 A 
ATOM     50  N   UNL A   1      40.355  27.844  31.512  1.00  0.00    -0.354 N 
ATOM     51  N   UNL A   1      42.719  31.506  31.878  1.00  0.00    -0.248 NA
ATOM     52  C   UNL A   1      43.069  30.688  29.723  1.00  0.00     0.031 C 
ATOM     53  C   UNL A   1      39.001  28.519  33.078  1.00  0.00     0.029 A 
ATOM     54  C   UNL A   1      40.244  28.786  32.501  1.00  0.00     0.049 A 
ATOM     55  H   UNL A   1      41.190  27.440  31.179  1.00  0.00     0.167 HD
ATOM     56  C   UNL A   1      42.141  30.246  31.807  1.00  0.00     0.074 A 
ATOM     57  C   UNL A   1      42.491  29.747  30.477  1.00  0.00     0.031 C 
ATOM     58  C   UNL A   1      41.202  29.849  32.717  1.00  0.00     0.031 A 
BRANCH  45  59
ATOM     59  C   UNL A   1      39.574  26.553  28.765  1.00  0.00    -0.014 A 
ATOM     60  C   UNL A   1      40.632  26.997  27.950  1.00  0.00     0.009 A 
ATOM     61  C   UNL A   1      39.058  25.273  28.495  1.00  0.00     0.009 A 
ATOM     62  C   UNL A   1      41.095  26.231  26.873  1.00  0.00     0.001 A 
ATOM     63  C   UNL A   1      39.545  24.489  27.445  1.00  0.00     0.001 A 
ATOM     64  C   UNL A   1      40.543  24.981  26.615  1.00  0.00     0.000 A 
ENDBRANCH  45  59
BRANCH  46  65
ATOM     65  C   UNL A   1      43.885  33.945  29.461  1.00  0.00    -0.014 A 
ATOM     66  C   UNL A   1      45.084  34.181  30.150  1.00  0.00     0.009 A 
ATOM     67  C   UNL A   1      43.856  34.205  28.079  1.00  0.00     0.009 A 
ATOM     68  C   UNL A   1      46.230  34.610  29.468  1.00  0.00     0.001 A 
ATOM     69  C   UNL A   1      45.001  34.634  27.399  1.00  0.00     0.001 A 
ATOM     70  C   UNL A   1      46.193  34.817  28.091  1.00  0.00     0.000 A 
ENDBRANCH  46  65
BRANCH  58  71
ATOM     71  C   UNL A   1      40.961  30.740  33.914  1.00  0.00    -0.014 A 
ATOM     72  C   UNL A   1      41.623  30.567  35.143  1.00  0.00     0.009 A 
ATOM     73  C   UNL A   1      40.155  31.876  33.752  1.00  0.00     0.009 A 
ATOM     74  C   UNL A   1      41.456  31.483  36.188  1.00  0.00     0.001 A 
ATOM     75  C   UNL A   1      40.004  32.802  34.787  1.00  0.00     0.001 A 
ATOM     76  C   UNL A   1      40.648  32.603  36.006  1.00  0.00     0.000 A 
ENDBRANCH  58  71
ENDBRANCH  32  33
ENDBRANCH  24  27
ENDBRANCH  22  23
ENDBRANCH   1  22
TORSDOF 11
ENDMDL
