MODEL 1
REMARK VINA RESULT:     -11.5      0.000      0.000
REMARK SMILES CCCCN(c1ccccc1C(=O)NCCCCNC(=O)c1ccc(-c2c3nc(c(-c4ccccc4)c4ccc([nH]4)c(-c4ccccc4)c4nc(c(-c5ccccc5)c5ccc2[nH]5)C=C4)C=C3)cc1)S(=O)(=O)c1ccc2c(c1)oc(=O)n2C
REMARK SMILES IDX 15 1 14 2 12 3 13 4 11 6 6 7 7 8 8 9 10 10 9 11 5 12 4 13
REMARK SMILES IDX 3 14 2 15 1 16 70 17 71 18 72 19 73 20 74 21 78 22 75 23
REMARK SMILES IDX 77 24 76 25 79 26 82 27 80 28 83 29 81 30 16 31 17 32 18 33
REMARK SMILES IDX 19 34 20 35 21 37 22 38 23 39 69 40 24 41 68 42 25 43 26 44
REMARK SMILES IDX 27 45 62 46 28 47 67 48 61 49 63 50 29 51 66 52 60 53 59 54
REMARK SMILES IDX 30 56 52 57 37 58 51 59 38 60 41 61 50 62 64 63 39 64 40 65
REMARK SMILES IDX 49 67 65 68 42 69 31 70 32 71 36 72 33 73 35 74 34 75 53 76
REMARK SMILES IDX 54 77 58 78 55 79 57 80 56 81 43 82 44 83 48 84 45 85 47 86
REMARK SMILES IDX 46 87
REMARK H PARENT 14 5 19 36 63 55 41 66
REMARK Flexibility Score: inf
ROOT
ATOM      1  C   UNL A   1      36.460  23.712  25.024  1.00  0.00     0.116 C 
ENDROOT
BRANCH   1   2
ATOM      2  N   UNL A   1      35.624  23.522  26.185  1.00  0.00    -0.352 N 
ATOM      3  C   UNL A   1      34.458  22.805  26.362  1.00  0.00     0.253 C 
ATOM      4  O   UNL A   1      34.035  22.740  27.522  1.00  0.00    -0.269 OA
ATOM      5  H   UNL A   1      35.941  23.987  26.993  1.00  0.00     0.163 HD
BRANCH   3   6
ATOM      6  C   UNL A   1      33.625  22.150  25.295  1.00  0.00     0.064 A 
ATOM      7  C   UNL A   1      32.717  22.745  24.393  1.00  0.00     0.065 A 
ATOM      8  C   UNL A   1      32.151  21.980  23.351  1.00  0.00     0.028 A 
ATOM      9  C   UNL A   1      32.397  20.614  23.245  1.00  0.00     0.002 A 
ATOM     10  C   UNL A   1      33.882  20.769  25.140  1.00  0.00     0.016 A 
ATOM     11  C   UNL A   1      33.263  20.007  24.144  1.00  0.00     0.001 A 
BRANCH   7  12
ATOM     12  N   UNL A   1      32.363  24.136  24.450  1.00  0.00    -0.266 N 
BRANCH  12  13
ATOM     13  C   UNL A   1      31.884  24.611  25.790  1.00  0.00     0.136 C 
BRANCH  13  14
ATOM     14  C   UNL A   1      30.516  24.206  26.335  1.00  0.00     0.022 C 
BRANCH  14  15
ATOM     15  C   UNL A   1      30.246  22.771  26.786  1.00  0.00    -0.002 C 
ATOM     16  C   UNL A   1      28.938  22.548  27.508  1.00  0.00     0.004 C 
ENDBRANCH  14  15
ENDBRANCH  13  14
ENDBRANCH  12  13
BRANCH  12  17
ATOM     17  S   UNL A   1      32.837  25.171  23.174  1.00  0.00     0.264 S 
ATOM     18  O   UNL A   1      34.223  24.899  22.851  1.00  0.00    -0.201 OA
ATOM     19  O   UNL A   1      31.797  25.096  22.168  1.00  0.00    -0.201 OA
BRANCH  17  20
ATOM     20  C   UNL A   1      32.815  26.894  23.733  1.00  0.00     0.091 A 
ATOM     21  C   UNL A   1      31.690  27.674  23.371  1.00  0.00     0.025 A 
ATOM     22  C   UNL A   1      33.769  27.414  24.613  1.00  0.00     0.071 A 
ATOM     23  C   UNL A   1      31.446  28.915  23.975  1.00  0.00     0.032 A 
ATOM     24  C   UNL A   1      33.474  28.608  25.235  1.00  0.00     0.157 A 
ATOM     25  C   UNL A   1      32.332  29.321  24.946  1.00  0.00     0.090 A 
ATOM     26  O   UNL A   1      34.205  29.148  26.281  1.00  0.00    -0.408 OA
ATOM     27  N   UNL A   1      32.305  30.355  25.851  1.00  0.00    -0.277 N 
ATOM     28  C   UNL A   1      33.398  30.219  26.687  1.00  0.00     0.419 A 
ATOM     29  C   UNL A   1      31.243  31.294  26.049  1.00  0.00     0.157 C 
ATOM     30  O   UNL A   1      33.643  30.901  27.670  1.00  0.00    -0.223 OA
ENDBRANCH  17  20
ENDBRANCH  12  17
ENDBRANCH   7  12
ENDBRANCH   3   6
ENDBRANCH   1   2
BRANCH   1  31
ATOM     31  C   UNL A   1      37.049  22.468  24.375  1.00  0.00     0.023 C 
BRANCH  31  32
ATOM     32  C   UNL A   1      37.500  21.360  25.321  1.00  0.00     0.023 C 
BRANCH  32  33
ATOM     33  C   UNL A   1      38.936  21.404  25.839  1.00  0.00     0.116 C 
BRANCH  33  34
ATOM     34  N   UNL A   1      39.728  20.199  25.631  1.00  0.00    -0.352 N 
ATOM     35  C   UNL A   1      41.019  19.921  26.037  1.00  0.00     0.251 C 
ATOM     36  H   UNL A   1      39.280  19.482  25.127  1.00  0.00     0.163 HD
ATOM     37  O   UNL A   1      41.503  18.805  25.873  1.00  0.00    -0.269 OA
BRANCH  35  38
ATOM     38  C   UNL A   1      41.872  21.001  26.578  1.00  0.00     0.039 A 
ATOM     39  C   UNL A   1      42.383  21.926  25.666  1.00  0.00     0.014 A 
ATOM     40  C   UNL A   1      42.056  21.187  27.949  1.00  0.00     0.014 A 
ATOM     41  C   UNL A   1      42.920  23.124  26.131  1.00  0.00     0.010 A 
ATOM     42  C   UNL A   1      42.504  22.422  28.411  1.00  0.00     0.010 A 
ATOM     43  C   UNL A   1      42.894  23.417  27.502  1.00  0.00    -0.014 A 
BRANCH  43  44
ATOM     44  C   UNL A   1      43.187  24.792  27.973  1.00  0.00     0.031 A 
ATOM     45  C   UNL A   1      44.602  25.238  28.188  1.00  0.00     0.074 A 
ATOM     46  C   UNL A   1      42.157  25.622  28.245  1.00  0.00     0.049 A 
ATOM     47  N   UNL A   1      45.045  26.402  28.584  1.00  0.00    -0.248 NA
ATOM     48  C   UNL A   1      45.656  24.240  27.947  1.00  0.00     0.031 C 
ATOM     49  C   UNL A   1      40.736  25.278  28.125  1.00  0.00     0.029 A 
ATOM     50  N   UNL A   1      42.142  26.926  28.672  1.00  0.00    -0.354 N 
ATOM     51  C   UNL A   1      46.426  26.277  28.645  1.00  0.00     0.074 A 
ATOM     52  C   UNL A   1      46.745  24.909  28.299  1.00  0.00     0.031 C 
ATOM     53  C   UNL A   1      39.992  26.355  28.426  1.00  0.00     0.029 A 
ATOM     54  C   UNL A   1      40.877  27.451  28.802  1.00  0.00     0.049 A 
ATOM     55  H   UNL A   1      42.959  27.439  28.865  1.00  0.00     0.167 HD
ATOM     56  C   UNL A   1      47.345  27.223  28.943  1.00  0.00     0.031 A 
ATOM     57  C   UNL A   1      40.475  28.678  29.184  1.00  0.00     0.031 A 
ATOM     58  C   UNL A   1      47.018  28.580  29.289  1.00  0.00     0.049 A 
ATOM     59  C   UNL A   1      41.520  29.705  29.523  1.00  0.00     0.074 A 
ATOM     60  C   UNL A   1      47.875  29.631  29.563  1.00  0.00     0.029 A 
ATOM     61  N   UNL A   1      45.727  29.073  29.411  1.00  0.00    -0.354 N 
ATOM     62  N   UNL A   1      42.827  29.592  29.495  1.00  0.00    -0.248 NA
ATOM     63  C   UNL A   1      41.038  31.031  29.931  1.00  0.00     0.031 C 
ATOM     64  C   UNL A   1      47.103  30.743  29.911  1.00  0.00     0.029 A 
ATOM     65  C   UNL A   1      45.765  30.405  29.787  1.00  0.00     0.049 A 
ATOM     66  H   UNL A   1      44.907  28.552  29.255  1.00  0.00     0.167 HD
ATOM     67  C   UNL A   1      43.322  30.839  29.855  1.00  0.00     0.074 A 
ATOM     68  C   UNL A   1      42.175  31.697  30.072  1.00  0.00     0.031 C 
ATOM     69  C   UNL A   1      44.609  31.240  29.996  1.00  0.00     0.031 A 
BRANCH  56  70
ATOM     70  C   UNL A   1      48.793  26.816  28.920  1.00  0.00    -0.014 A 
ATOM     71  C   UNL A   1      49.581  26.990  27.770  1.00  0.00     0.009 A 
ATOM     72  C   UNL A   1      49.386  26.281  30.073  1.00  0.00     0.009 A 
ATOM     73  C   UNL A   1      50.924  26.603  27.767  1.00  0.00     0.001 A 
ATOM     74  C   UNL A   1      50.736  25.924  30.077  1.00  0.00     0.001 A 
ATOM     75  C   UNL A   1      51.500  26.077  28.921  1.00  0.00     0.000 A 
ENDBRANCH  56  70
BRANCH  57  76
ATOM     76  C   UNL A   1      39.025  29.011  29.265  1.00  0.00    -0.014 A 
ATOM     77  C   UNL A   1      38.342  29.524  28.150  1.00  0.00     0.009 A 
ATOM     78  C   UNL A   1      38.321  28.845  30.468  1.00  0.00     0.009 A 
ATOM     79  C   UNL A   1      36.998  29.897  28.250  1.00  0.00     0.001 A 
ATOM     80  C   UNL A   1      36.969  29.185  30.555  1.00  0.00     0.001 A 
ATOM     81  C   UNL A   1      36.312  29.723  29.450  1.00  0.00     0.000 A 
ENDBRANCH  57  76
BRANCH  69  82
ATOM     82  C   UNL A   1      44.843  32.676  30.366  1.00  0.00    -0.014 A 
ATOM     83  C   UNL A   1      44.943  33.678  29.388  1.00  0.00     0.009 A 
ATOM     84  C   UNL A   1      44.922  33.037  31.721  1.00  0.00     0.009 A 
ATOM     85  C   UNL A   1      45.154  35.007  29.759  1.00  0.00     0.001 A 
ATOM     86  C   UNL A   1      45.098  34.371  32.089  1.00  0.00     0.001 A 
ATOM     87  C   UNL A   1      45.225  35.353  31.108  1.00  0.00     0.000 A 
ENDBRANCH  69  82
ENDBRANCH  43  44
ENDBRANCH  35  38
ENDBRANCH  33  34
ENDBRANCH  32  33
ENDBRANCH  31  32
ENDBRANCH   1  31
TORSDOF 17
ENDMDL
MODEL 2
REMARK VINA RESULT:     -10.9      4.891     10.597
REMARK SMILES CCCCN(c1ccccc1C(=O)NCCCCNC(=O)c1ccc(-c2c3nc(c(-c4ccccc4)c4ccc([nH]4)c(-c4ccccc4)c4nc(c(-c5ccccc5)c5ccc2[nH]5)C=C4)C=C3)cc1)S(=O)(=O)c1ccc2c(c1)oc(=O)n2C
REMARK SMILES IDX 15 1 14 2 12 3 13 4 11 6 6 7 7 8 8 9 10 10 9 11 5 12 4 13
REMARK SMILES IDX 3 14 2 15 1 16 70 17 71 18 72 19 73 20 74 21 78 22 75 23
REMARK SMILES IDX 77 24 76 25 79 26 82 27 80 28 83 29 81 30 16 31 17 32 18 33
REMARK SMILES IDX 19 34 20 35 21 37 22 38 23 39 69 40 24 41 68 42 25 43 26 44
REMARK SMILES IDX 27 45 62 46 28 47 67 48 61 49 63 50 29 51 66 52 60 53 59 54
REMARK SMILES IDX 30 56 52 57 37 58 51 59 38 60 41 61 50 62 64 63 39 64 40 65
REMARK SMILES IDX 49 67 65 68 42 69 31 70 32 71 36 72 33 73 35 74 34 75 53 76
REMARK SMILES IDX 54 77 58 78 55 79 57 80 56 81 43 82 44 83 48 84 45 85 47 86
REMARK SMILES IDX 46 87
REMARK H PARENT 14 5 19 36 63 55 41 66
REMARK Flexibility Score: inf
ROOT
ATOM      1  C   UNL A   1      37.322  31.917  34.327  1.00  0.00     0.116 C 
ENDROOT
BRANCH   1   2
ATOM      2  N   UNL A   1      36.201  31.876  33.419  1.00  0.00    -0.352 N 
ATOM      3  C   UNL A   1      36.109  32.150  32.069  1.00  0.00     0.253 C 
ATOM      4  O   UNL A   1      35.019  31.907  31.541  1.00  0.00    -0.269 OA
ATOM      5  H   UNL A   1      35.351  31.605  33.836  1.00  0.00     0.163 HD
BRANCH   3   6
ATOM      6  C   UNL A   1      37.169  32.761  31.194  1.00  0.00     0.064 A 
ATOM      7  C   UNL A   1      37.902  32.165  30.144  1.00  0.00     0.065 A 
ATOM      8  C   UNL A   1      38.741  32.955  29.330  1.00  0.00     0.028 A 
ATOM      9  C   UNL A   1      38.938  34.306  29.597  1.00  0.00     0.002 A 
ATOM     10  C   UNL A   1      37.364  34.142  31.418  1.00  0.00     0.016 A 
ATOM     11  C   UNL A   1      38.250  34.901  30.645  1.00  0.00     0.001 A 
BRANCH   7  12
ATOM     12  N   UNL A   1      37.801  30.769  29.822  1.00  0.00    -0.266 N 
BRANCH  12  13
ATOM     13  C   UNL A   1      37.109  30.469  28.526  1.00  0.00     0.136 C 
BRANCH  13  14
ATOM     14  C   UNL A   1      35.866  29.582  28.475  1.00  0.00     0.022 C 
BRANCH  14  15
ATOM     15  C   UNL A   1      35.062  29.434  27.185  1.00  0.00    -0.002 C 
ATOM     16  C   UNL A   1      33.570  29.271  27.358  1.00  0.00     0.004 C 
ENDBRANCH  14  15
ENDBRANCH  13  14
ENDBRANCH  12  13
BRANCH  12  17
ATOM     17  S   UNL A   1      38.747  29.642  30.692  1.00  0.00     0.264 S 
ATOM     18  O   UNL A   1      39.638  30.370  31.572  1.00  0.00    -0.201 OA
ATOM     19  O   UNL A   1      37.835  28.637  31.202  1.00  0.00    -0.201 OA
BRANCH  17  20
ATOM     20  C   UNL A   1      39.839  28.743  29.560  1.00  0.00     0.091 A 
ATOM     21  C   UNL A   1      39.678  27.338  29.490  1.00  0.00     0.025 A 
ATOM     22  C   UNL A   1      40.700  29.390  28.668  1.00  0.00     0.071 A 
ATOM     23  C   UNL A   1      40.269  26.592  28.461  1.00  0.00     0.032 A 
ATOM     24  C   UNL A   1      41.221  28.644  27.634  1.00  0.00     0.157 A 
ATOM     25  C   UNL A   1      40.987  27.291  27.517  1.00  0.00     0.090 A 
ATOM     26  O   UNL A   1      41.911  29.174  26.555  1.00  0.00    -0.408 OA
ATOM     27  N   UNL A   1      41.528  26.928  26.308  1.00  0.00    -0.277 N 
ATOM     28  C   UNL A   1      42.032  28.065  25.706  1.00  0.00     0.419 A 
ATOM     29  C   UNL A   1      41.419  25.651  25.669  1.00  0.00     0.157 C 
ATOM     30  O   UNL A   1      42.499  28.139  24.580  1.00  0.00    -0.223 OA
ENDBRANCH  17  20
ENDBRANCH  12  17
ENDBRANCH   7  12
ENDBRANCH   3   6
ENDBRANCH   1   2
BRANCH   1  31
ATOM     31  C   UNL A   1      37.376  33.069  35.319  1.00  0.00     0.023 C 
BRANCH  31  32
ATOM     32  C   UNL A   1      37.830  32.724  36.734  1.00  0.00     0.023 C 
BRANCH  32  33
ATOM     33  C   UNL A   1      39.179  33.266  37.204  1.00  0.00     0.116 C 
BRANCH  33  34
ATOM     34  N   UNL A   1      39.315  34.716  37.218  1.00  0.00    -0.352 N 
ATOM     35  C   UNL A   1      39.831  35.555  36.249  1.00  0.00     0.251 C 
ATOM     36  H   UNL A   1      38.995  35.161  38.036  1.00  0.00     0.163 HD
ATOM     37  O   UNL A   1      39.770  36.774  36.376  1.00  0.00    -0.269 OA
BRANCH  35  38
ATOM     38  C   UNL A   1      40.561  34.989  35.095  1.00  0.00     0.039 A 
ATOM     39  C   UNL A   1      41.915  34.697  35.279  1.00  0.00     0.014 A 
ATOM     40  C   UNL A   1      39.917  34.625  33.912  1.00  0.00     0.014 A 
ATOM     41  C   UNL A   1      42.573  33.885  34.359  1.00  0.00     0.010 A 
ATOM     42  C   UNL A   1      40.546  33.739  33.042  1.00  0.00     0.010 A 
ATOM     43  C   UNL A   1      41.864  33.325  33.286  1.00  0.00    -0.014 A 
BRANCH  43  44
ATOM     44  C   UNL A   1      42.472  32.240  32.480  1.00  0.00     0.031 A 
ATOM     45  C   UNL A   1      42.603  30.856  33.042  1.00  0.00     0.074 A 
ATOM     46  C   UNL A   1      42.944  32.528  31.249  1.00  0.00     0.049 A 
ATOM     47  N   UNL A   1      43.097  29.785  32.479  1.00  0.00    -0.248 NA
ATOM     48  C   UNL A   1      42.138  30.653  34.423  1.00  0.00     0.031 C 
ATOM     49  C   UNL A   1      42.920  33.853  30.619  1.00  0.00     0.029 A 
ATOM     50  N   UNL A   1      43.530  31.727  30.300  1.00  0.00    -0.354 N 
ATOM     51  C   UNL A   1      43.008  28.783  33.437  1.00  0.00     0.074 A 
ATOM     52  C   UNL A   1      42.464  29.386  34.633  1.00  0.00     0.031 C 
ATOM     53  C   UNL A   1      43.423  33.763  29.378  1.00  0.00     0.029 A 
ATOM     54  C   UNL A   1      43.847  32.389  29.136  1.00  0.00     0.049 A 
ATOM     55  H   UNL A   1      43.706  30.769  30.438  1.00  0.00     0.167 HD
ATOM     56  C   UNL A   1      43.331  27.475  33.319  1.00  0.00     0.031 A 
ATOM     57  C   UNL A   1      44.416  31.939  28.002  1.00  0.00     0.031 A 
ATOM     58  C   UNL A   1      43.874  26.885  32.125  1.00  0.00     0.049 A 
ATOM     59  C   UNL A   1      44.777  30.482  27.907  1.00  0.00     0.074 A 
ATOM     60  C   UNL A   1      44.193  25.560  31.886  1.00  0.00     0.029 A 
ATOM     61  N   UNL A   1      44.181  27.587  30.969  1.00  0.00    -0.354 N 
ATOM     62  N   UNL A   1      44.610  29.531  28.794  1.00  0.00    -0.248 NA
ATOM     63  C   UNL A   1      45.393  30.033  26.651  1.00  0.00     0.031 C 
ATOM     64  C   UNL A   1      44.751  25.472  30.607  1.00  0.00     0.029 A 
ATOM     65  C   UNL A   1      44.715  26.728  30.024  1.00  0.00     0.049 A 
ATOM     66  H   UNL A   1      44.041  28.553  30.841  1.00  0.00     0.167 HD
ATOM     67  C   UNL A   1      45.073  28.367  28.195  1.00  0.00     0.074 A 
ATOM     68  C   UNL A   1      45.505  28.729  26.860  1.00  0.00     0.031 C 
ATOM     69  C   UNL A   1      45.137  27.111  28.701  1.00  0.00     0.031 A 
BRANCH  56  70
ATOM     70  C   UNL A   1      43.118  26.597  34.522  1.00  0.00    -0.014 A 
ATOM     71  C   UNL A   1      44.193  26.206  35.337  1.00  0.00     0.009 A 
ATOM     72  C   UNL A   1      41.822  26.183  34.864  1.00  0.00     0.009 A 
ATOM     73  C   UNL A   1      43.977  25.388  36.450  1.00  0.00     0.001 A 
ATOM     74  C   UNL A   1      41.605  25.392  35.994  1.00  0.00     0.001 A 
ATOM     75  C   UNL A   1      42.684  24.988  36.779  1.00  0.00     0.000 A 
ENDBRANCH  56  70
BRANCH  57  76
ATOM     76  C   UNL A   1      44.677  32.865  26.864  1.00  0.00    -0.014 A 
ATOM     77  C   UNL A   1      43.771  32.965  25.796  1.00  0.00     0.009 A 
ATOM     78  C   UNL A   1      45.851  33.634  26.826  1.00  0.00     0.009 A 
ATOM     79  C   UNL A   1      44.053  33.786  24.700  1.00  0.00     0.001 A 
ATOM     80  C   UNL A   1      46.113  34.480  25.746  1.00  0.00     0.001 A 
ATOM     81  C   UNL A   1      45.221  34.545  24.678  1.00  0.00     0.000 A 
ENDBRANCH  57  76
BRANCH  69  82
ATOM     82  C   UNL A   1      45.660  26.033  27.795  1.00  0.00    -0.014 A 
ATOM     83  C   UNL A   1      44.810  25.333  26.924  1.00  0.00     0.009 A 
ATOM     84  C   UNL A   1      47.034  25.745  27.783  1.00  0.00     0.009 A 
ATOM     85  C   UNL A   1      45.322  24.340  26.087  1.00  0.00     0.001 A 
ATOM     86  C   UNL A   1      47.547  24.777  26.921  1.00  0.00     0.001 A 
ATOM     87  C   UNL A   1      46.690  24.068  26.082  1.00  0.00     0.000 A 
ENDBRANCH  69  82
ENDBRANCH  43  44
ENDBRANCH  35  38
ENDBRANCH  33  34
ENDBRANCH  32  33
ENDBRANCH  31  32
ENDBRANCH   1  31
TORSDOF 17
ENDMDL
MODEL 3
REMARK VINA RESULT:     -10.9      0.885      5.769
REMARK SMILES CCCCN(c1ccccc1C(=O)NCCCCNC(=O)c1ccc(-c2c3nc(c(-c4ccccc4)c4ccc([nH]4)c(-c4ccccc4)c4nc(c(-c5ccccc5)c5ccc2[nH]5)C=C4)C=C3)cc1)S(=O)(=O)c1ccc2c(c1)oc(=O)n2C
REMARK SMILES IDX 15 1 14 2 12 3 13 4 11 6 6 7 7 8 8 9 10 10 9 11 5 12 4 13
REMARK SMILES IDX 3 14 2 15 1 16 70 17 71 18 72 19 73 20 74 21 78 22 75 23
REMARK SMILES IDX 77 24 76 25 79 26 82 27 80 28 83 29 81 30 16 31 17 32 18 33
REMARK SMILES IDX 19 34 20 35 21 37 22 38 23 39 69 40 24 41 68 42 25 43 26 44
REMARK SMILES IDX 27 45 62 46 28 47 67 48 61 49 63 50 29 51 66 52 60 53 59 54
REMARK SMILES IDX 30 56 52 57 37 58 51 59 38 60 41 61 50 62 64 63 39 64 40 65
REMARK SMILES IDX 49 67 65 68 42 69 31 70 32 71 36 72 33 73 35 74 34 75 53 76
REMARK SMILES IDX 54 77 58 78 55 79 57 80 56 81 43 82 44 83 48 84 45 85 47 86
REMARK SMILES IDX 46 87
REMARK H PARENT 14 5 19 36 63 55 41 66
REMARK Flexibility Score: inf
ROOT
ATOM      1  C   UNL A   1      35.411  23.919  25.879  1.00  0.00     0.116 C 
ENDROOT
BRANCH   1   2
ATOM      2  N   UNL A   1      34.296  23.596  26.737  1.00  0.00    -0.352 N 
ATOM      3  C   UNL A   1      33.145  22.871  26.505  1.00  0.00     0.253 C 
ATOM      4  O   UNL A   1      32.424  22.670  27.488  1.00  0.00    -0.269 OA
ATOM      5  H   UNL A   1      34.370  23.957  27.650  1.00  0.00     0.163 HD
BRANCH   3   6
ATOM      6  C   UNL A   1      32.650  22.356  25.181  1.00  0.00     0.064 A 
ATOM      7  C   UNL A   1      32.136  23.085  24.085  1.00  0.00     0.065 A 
ATOM      8  C   UNL A   1      31.875  22.431  22.862  1.00  0.00     0.028 A 
ATOM      9  C   UNL A   1      32.026  21.053  22.735  1.00  0.00     0.002 A 
ATOM     10  C   UNL A   1      32.825  20.965  25.010  1.00  0.00     0.016 A 
ATOM     11  C   UNL A   1      32.500  20.318  23.813  1.00  0.00     0.001 A 
BRANCH   7  12
ATOM     12  N   UNL A   1      31.902  24.501  24.134  1.00  0.00    -0.266 N 
BRANCH  12  13
ATOM     13  C   UNL A   1      31.143  24.974  25.338  1.00  0.00     0.136 C 
BRANCH  13  14
ATOM     14  C   UNL A   1      29.729  25.538  25.216  1.00  0.00     0.022 C 
BRANCH  14  15
ATOM     15  C   UNL A   1      29.192  26.023  23.870  1.00  0.00    -0.002 C 
ATOM     16  C   UNL A   1      27.929  26.850  23.929  1.00  0.00     0.004 C 
ENDBRANCH  14  15
ENDBRANCH  13  14
ENDBRANCH  12  13
BRANCH  12  17
ATOM     17  S   UNL A   1      32.771  25.527  23.079  1.00  0.00     0.264 S 
ATOM     18  O   UNL A   1      34.166  25.136  23.101  1.00  0.00    -0.201 OA
ATOM     19  O   UNL A   1      32.021  25.584  21.840  1.00  0.00    -0.201 OA
BRANCH  17  20
ATOM     20  C   UNL A   1      32.751  27.225  23.710  1.00  0.00     0.091 A 
ATOM     21  C   UNL A   1      31.657  28.040  23.329  1.00  0.00     0.025 A 
ATOM     22  C   UNL A   1      33.670  27.690  24.655  1.00  0.00     0.071 A 
ATOM     23  C   UNL A   1      31.404  29.259  23.974  1.00  0.00     0.032 A 
ATOM     24  C   UNL A   1      33.366  28.862  25.313  1.00  0.00     0.157 A 
ATOM     25  C   UNL A   1      32.250  29.608  25.003  1.00  0.00     0.090 A 
ATOM     26  O   UNL A   1      34.055  29.344  26.415  1.00  0.00    -0.408 OA
ATOM     27  N   UNL A   1      32.198  30.602  25.948  1.00  0.00    -0.277 N 
ATOM     28  C   UNL A   1      33.247  30.412  26.828  1.00  0.00     0.419 A 
ATOM     29  C   UNL A   1      31.142  31.551  26.137  1.00  0.00     0.157 C 
ATOM     30  O   UNL A   1      33.456  31.046  27.849  1.00  0.00    -0.223 OA
ENDBRANCH  17  20
ENDBRANCH  12  17
ENDBRANCH   7  12
ENDBRANCH   3   6
ENDBRANCH   1   2
BRANCH   1  31
ATOM     31  C   UNL A   1      35.984  22.796  25.026  1.00  0.00     0.023 C 
BRANCH  31  32
ATOM     32  C   UNL A   1      36.804  21.739  25.759  1.00  0.00     0.023 C 
BRANCH  32  33
ATOM     33  C   UNL A   1      38.323  21.783  25.608  1.00  0.00     0.116 C 
BRANCH  33  34
ATOM     34  N   UNL A   1      38.986  20.497  25.439  1.00  0.00    -0.352 N 
ATOM     35  C   UNL A   1      40.204  20.071  25.932  1.00  0.00     0.251 C 
ATOM     36  H   UNL A   1      38.497  19.839  24.894  1.00  0.00     0.163 HD
ATOM     37  O   UNL A   1      40.568  18.908  25.786  1.00  0.00    -0.269 OA
BRANCH  35  38
ATOM     38  C   UNL A   1      41.133  21.042  26.549  1.00  0.00     0.039 A 
ATOM     39  C   UNL A   1      41.927  21.800  25.685  1.00  0.00     0.014 A 
ATOM     40  C   UNL A   1      41.132  21.305  27.919  1.00  0.00     0.014 A 
ATOM     41  C   UNL A   1      42.579  22.932  26.168  1.00  0.00     0.010 A 
ATOM     42  C   UNL A   1      41.705  22.486  28.382  1.00  0.00     0.010 A 
ATOM     43  C   UNL A   1      42.392  23.333  27.499  1.00  0.00    -0.014 A 
BRANCH  43  44
ATOM     44  C   UNL A   1      42.836  24.677  27.938  1.00  0.00     0.031 A 
ATOM     45  C   UNL A   1      41.833  25.752  28.229  1.00  0.00     0.074 A 
ATOM     46  C   UNL A   1      44.159  24.929  28.032  1.00  0.00     0.049 A 
ATOM     47  N   UNL A   1      42.037  26.979  28.632  1.00  0.00    -0.248 NA
ATOM     48  C   UNL A   1      40.417  25.414  28.019  1.00  0.00     0.031 C 
ATOM     49  C   UNL A   1      45.229  23.975  27.721  1.00  0.00     0.029 A 
ATOM     50  N   UNL A   1      44.834  26.060  28.420  1.00  0.00    -0.354 N 
ATOM     51  C   UNL A   1      40.779  27.560  28.720  1.00  0.00     0.074 A 
ATOM     52  C   UNL A   1      39.822  26.571  28.275  1.00  0.00     0.031 C 
ATOM     53  C   UNL A   1      46.418  24.544  27.974  1.00  0.00     0.029 A 
ATOM     54  C   UNL A   1      46.202  25.914  28.421  1.00  0.00     0.049 A 
ATOM     55  H   UNL A   1      44.382  26.896  28.677  1.00  0.00     0.167 HD
ATOM     56  C   UNL A   1      40.452  28.799  29.152  1.00  0.00     0.031 A 
ATOM     57  C   UNL A   1      47.173  26.789  28.745  1.00  0.00     0.031 A 
ATOM     58  C   UNL A   1      41.411  29.777  29.590  1.00  0.00     0.049 A 
ATOM     59  C   UNL A   1      46.778  28.164  29.208  1.00  0.00     0.074 A 
ATOM     60  C   UNL A   1      41.182  31.046  30.090  1.00  0.00     0.029 A 
ATOM     61  N   UNL A   1      42.787  29.594  29.574  1.00  0.00    -0.354 N 
ATOM     62  N   UNL A   1      45.578  28.670  29.363  1.00  0.00    -0.248 NA
ATOM     63  C   UNL A   1      47.869  29.085  29.554  1.00  0.00     0.031 C 
ATOM     64  C   UNL A   1      42.421  31.653  30.320  1.00  0.00     0.029 A 
ATOM     65  C   UNL A   1      43.419  30.738  30.028  1.00  0.00     0.049 A 
ATOM     66  H   UNL A   1      43.243  28.772  29.283  1.00  0.00     0.167 HD
ATOM     67  C   UNL A   1      45.768  29.957  29.850  1.00  0.00     0.074 A 
ATOM     68  C   UNL A   1      47.199  30.143  29.987  1.00  0.00     0.031 C 
ATOM     69  C   UNL A   1      44.845  30.900  30.157  1.00  0.00     0.031 A 
BRANCH  56  70
ATOM     70  C   UNL A   1      38.994  29.169  29.158  1.00  0.00    -0.014 A 
ATOM     71  C   UNL A   1      38.200  28.982  30.302  1.00  0.00     0.009 A 
ATOM     72  C   UNL A   1      38.414  29.741  28.016  1.00  0.00     0.009 A 
ATOM     73  C   UNL A   1      36.846  29.330  30.288  1.00  0.00     0.001 A 
ATOM     74  C   UNL A   1      37.070  30.117  28.015  1.00  0.00     0.001 A 
ATOM     75  C   UNL A   1      36.286  29.901  29.147  1.00  0.00     0.000 A 
ENDBRANCH  56  70
BRANCH  57  76
ATOM     76  C   UNL A   1      48.608  26.400  28.650  1.00  0.00    -0.014 A 
ATOM     77  C   UNL A   1      49.332  26.036  29.797  1.00  0.00     0.009 A 
ATOM     78  C   UNL A   1      49.271  26.417  27.413  1.00  0.00     0.009 A 
ATOM     79  C   UNL A   1      50.695  25.735  29.711  1.00  0.00     0.001 A 
ATOM     80  C   UNL A   1      50.624  26.082  27.325  1.00  0.00     0.001 A 
ATOM     81  C   UNL A   1      51.338  25.755  28.476  1.00  0.00     0.000 A 
ENDBRANCH  57  76
BRANCH  69  82
ATOM     82  C   UNL A   1      45.353  32.204  30.704  1.00  0.00    -0.014 A 
ATOM     83  C   UNL A   1      45.749  32.331  32.044  1.00  0.00     0.009 A 
ATOM     84  C   UNL A   1      45.477  33.311  29.850  1.00  0.00     0.009 A 
ATOM     85  C   UNL A   1      46.224  33.552  32.526  1.00  0.00     0.001 A 
ATOM     86  C   UNL A   1      45.985  34.519  30.326  1.00  0.00     0.001 A 
ATOM     87  C   UNL A   1      46.347  34.642  31.666  1.00  0.00     0.000 A 
ENDBRANCH  69  82
ENDBRANCH  43  44
ENDBRANCH  35  38
ENDBRANCH  33  34
ENDBRANCH  32  33
ENDBRANCH  31  32
ENDBRANCH   1  31
TORSDOF 17
ENDMDL
