MODEL 1
REMARK VINA RESULT:     -10.9      0.000      0.000
REMARK SMILES CN(Cc1csc(Br)c1)c1cccc(F)c1C(=O)NCCCCNC(=O)c1ccc(-c2c3nc(c(-c4ccccc4)c4ccc([nH]4)c(-c4ccccc4)c4nc(c(-c5ccccc5)c5ccc2[nH]5)C=C4)C=C3)cc1
REMARK SMILES IDX 21 1 20 2 19 3 17 4 18 5 16 7 10 8 11 9 12 10 14 11 13 12
REMARK SMILES IDX 15 13 2 14 1 15 3 16 4 17 5 18 9 19 6 20 7 21 8 22 22 23
REMARK SMILES IDX 23 24 24 25 25 26 26 28 27 29 28 30 74 31 29 32 73 33 30 34
REMARK SMILES IDX 31 35 32 36 67 37 33 38 72 39 66 40 68 41 34 42 71 43 65 44
REMARK SMILES IDX 64 45 35 47 57 48 42 49 56 50 43 51 46 52 55 53 69 54 44 55
REMARK SMILES IDX 45 56 54 58 70 59 47 60 36 61 37 62 41 63 38 64 40 65 39 66
REMARK SMILES IDX 58 67 59 68 63 69 60 70 62 71 61 72 48 73 49 74 53 75 50 76
REMARK SMILES IDX 52 77 51 78
REMARK H PARENT 19 6 24 27 68 46 46 57
REMARK Flexibility Score: inf
ROOT
ATOM      1  C   UNL A   1      33.180  27.143  24.456  1.00  0.00     0.023 C 
ENDROOT
BRANCH   1   2
ATOM      2  C   UNL A   1      33.078  25.675  24.052  1.00  0.00     0.116 C 
BRANCH   2   3
ATOM      3  N   UNL A   1      34.365  25.030  24.019  1.00  0.00    -0.352 N 
ATOM      4  C   UNL A   1      34.482  23.860  23.303  1.00  0.00     0.256 C 
ATOM      5  O   UNL A   1      33.898  23.643  22.248  1.00  0.00    -0.269 OA
ATOM      6  H   UNL A   1      35.137  25.415  24.493  1.00  0.00     0.163 HD
BRANCH   4   7
ATOM      7  C   UNL A   1      35.110  22.748  24.026  1.00  0.00     0.098 A 
ATOM      8  C   UNL A   1      34.583  22.155  25.189  1.00  0.00     0.053 A 
ATOM      9  C   UNL A   1      35.498  21.396  25.953  1.00  0.00     0.027 A 
ATOM     10  C   UNL A   1      36.837  21.211  25.573  1.00  0.00     0.005 A 
ATOM     11  C   UNL A   1      36.444  22.534  23.633  1.00  0.00     0.138 A 
ATOM     12  C   UNL A   1      37.306  21.765  24.394  1.00  0.00     0.040 A 
ATOM     13  F   UNL A   1      36.935  23.110  22.522  1.00  0.00    -0.206 F 
BRANCH   8  14
ATOM     14  N   UNL A   1      33.253  22.267  25.591  1.00  0.00    -0.370 N 
ATOM     15  C   UNL A   1      32.938  22.580  26.980  1.00  0.00     0.144 C 
BRANCH  14  16
ATOM     16  C   UNL A   1      32.203  21.602  24.806  1.00  0.00     0.152 C 
BRANCH  16  17
ATOM     17  C   UNL A   1      32.424  20.168  24.395  1.00  0.00    -0.017 A 
ATOM     18  C   UNL A   1      32.377  19.718  23.084  1.00  0.00     0.071 A 
ATOM     19  C   UNL A   1      32.687  19.071  25.288  1.00  0.00     0.033 A 
ATOM     20  S   UNL A   1      32.534  18.017  22.959  1.00  0.00    -0.136 S 
ATOM     21  C   UNL A   1      32.703  17.866  24.634  1.00  0.00     0.070 A 
ATOM     22  Br  UNL A   1      32.857  16.217  25.507  1.00  0.00    -0.039 Br
ENDBRANCH  16  17
ENDBRANCH  14  16
ENDBRANCH   8  14
ENDBRANCH   4   7
ENDBRANCH   2   3
ENDBRANCH   1   2
BRANCH   1  23
ATOM     23  C   UNL A   1      33.095  27.355  25.964  1.00  0.00     0.023 C 
BRANCH  23  24
ATOM     24  C   UNL A   1      34.211  28.217  26.551  1.00  0.00     0.116 C 
BRANCH  24  25
ATOM     25  N   UNL A   1      33.754  29.519  27.014  1.00  0.00    -0.352 N 
ATOM     26  C   UNL A   1      34.412  30.433  27.807  1.00  0.00     0.251 C 
ATOM     27  H   UNL A   1      32.853  29.783  26.719  1.00  0.00     0.163 HD
ATOM     28  O   UNL A   1      33.855  31.438  28.203  1.00  0.00    -0.269 OA
BRANCH  26  29
ATOM     29  C   UNL A   1      35.807  30.146  28.201  1.00  0.00     0.039 A 
ATOM     30  C   UNL A   1      36.049  29.621  29.472  1.00  0.00     0.014 A 
ATOM     31  C   UNL A   1      36.854  30.346  27.298  1.00  0.00     0.014 A 
ATOM     32  C   UNL A   1      37.343  29.228  29.813  1.00  0.00     0.010 A 
ATOM     33  C   UNL A   1      38.126  29.886  27.614  1.00  0.00     0.010 A 
ATOM     34  C   UNL A   1      38.383  29.322  28.873  1.00  0.00    -0.014 A 
BRANCH  34  35
ATOM     35  C   UNL A   1      39.744  28.828  29.187  1.00  0.00     0.031 A 
ATOM     36  C   UNL A   1      40.731  29.729  29.878  1.00  0.00     0.074 A 
ATOM     37  C   UNL A   1      40.114  27.594  28.788  1.00  0.00     0.049 A 
ATOM     38  N   UNL A   1      41.980  29.497  30.187  1.00  0.00    -0.248 NA
ATOM     39  C   UNL A   1      40.261  31.075  30.245  1.00  0.00     0.031 C 
ATOM     40  C   UNL A   1      39.267  26.645  28.063  1.00  0.00     0.029 A 
ATOM     41  N   UNL A   1      41.307  26.930  28.929  1.00  0.00    -0.354 N 
ATOM     42  C   UNL A   1      42.451  30.673  30.759  1.00  0.00     0.074 A 
ATOM     43  C   UNL A   1      41.366  31.627  30.721  1.00  0.00     0.031 C 
ATOM     44  C   UNL A   1      39.960  25.516  27.839  1.00  0.00     0.029 A 
ATOM     45  C   UNL A   1      41.309  25.674  28.373  1.00  0.00     0.049 A 
ATOM     46  H   UNL A   1      42.088  27.319  29.385  1.00  0.00     0.167 HD
ATOM     47  C   UNL A   1      43.671  30.926  31.284  1.00  0.00     0.031 A 
ATOM     48  C   UNL A   1      42.290  24.755  28.295  1.00  0.00     0.031 A 
ATOM     49  C   UNL A   1      44.738  29.966  31.351  1.00  0.00     0.049 A 
ATOM     50  C   UNL A   1      43.631  25.063  28.903  1.00  0.00     0.074 A 
ATOM     51  C   UNL A   1      45.982  30.102  31.942  1.00  0.00     0.029 A 
ATOM     52  N   UNL A   1      44.688  28.692  30.807  1.00  0.00    -0.354 N 
ATOM     53  N   UNL A   1      44.027  26.144  29.529  1.00  0.00    -0.248 NA
ATOM     54  C   UNL A   1      44.658  24.015  28.805  1.00  0.00     0.031 C 
ATOM     55  C   UNL A   1      46.705  28.929  31.713  1.00  0.00     0.029 A 
ATOM     56  C   UNL A   1      45.890  28.043  31.025  1.00  0.00     0.049 A 
ATOM     57  H   UNL A   1      43.914  28.308  30.336  1.00  0.00     0.167 HD
ATOM     58  C   UNL A   1      45.333  25.895  29.925  1.00  0.00     0.074 A 
ATOM     59  C   UNL A   1      45.659  24.554  29.486  1.00  0.00     0.031 C 
ATOM     60  C   UNL A   1      46.192  26.704  30.592  1.00  0.00     0.031 A 
BRANCH  47  61
ATOM     61  C   UNL A   1      43.927  32.301  31.832  1.00  0.00    -0.014 A 
ATOM     62  C   UNL A   1      44.363  33.345  31.003  1.00  0.00     0.009 A 
ATOM     63  C   UNL A   1      43.660  32.570  33.184  1.00  0.00     0.009 A 
ATOM     64  C   UNL A   1      44.545  34.629  31.522  1.00  0.00     0.001 A 
ATOM     65  C   UNL A   1      43.818  33.860  33.694  1.00  0.00     0.001 A 
ATOM     66  C   UNL A   1      44.265  34.886  32.865  1.00  0.00     0.000 A 
ENDBRANCH  47  61
BRANCH  48  67
ATOM     67  C   UNL A   1      42.054  23.453  27.618  1.00  0.00    -0.014 A 
ATOM     68  C   UNL A   1      41.415  22.402  28.294  1.00  0.00     0.009 A 
ATOM     69  C   UNL A   1      42.503  23.241  26.305  1.00  0.00     0.009 A 
ATOM     70  C   UNL A   1      41.270  21.152  27.686  1.00  0.00     0.001 A 
ATOM     71  C   UNL A   1      42.329  22.000  25.688  1.00  0.00     0.001 A 
ATOM     72  C   UNL A   1      41.726  20.953  26.384  1.00  0.00     0.000 A 
ENDBRANCH  48  67
BRANCH  60  73
ATOM     73  C   UNL A   1      47.544  26.148  30.926  1.00  0.00    -0.014 A 
ATOM     74  C   UNL A   1      47.828  25.639  32.202  1.00  0.00     0.009 A 
ATOM     75  C   UNL A   1      48.536  26.091  29.933  1.00  0.00     0.009 A 
ATOM     76  C   UNL A   1      49.091  25.114  32.486  1.00  0.00     0.001 A 
ATOM     77  C   UNL A   1      49.786  25.540  30.212  1.00  0.00     0.001 A 
ATOM     78  C   UNL A   1      50.066  25.060  31.490  1.00  0.00     0.000 A 
ENDBRANCH  60  73
ENDBRANCH  34  35
ENDBRANCH  26  29
ENDBRANCH  24  25
ENDBRANCH  23  24
ENDBRANCH   1  23
TORSDOF 14
ENDMDL
MODEL 2
REMARK VINA RESULT:     -10.8      1.954      6.996
REMARK SMILES CN(Cc1csc(Br)c1)c1cccc(F)c1C(=O)NCCCCNC(=O)c1ccc(-c2c3nc(c(-c4ccccc4)c4ccc([nH]4)c(-c4ccccc4)c4nc(c(-c5ccccc5)c5ccc2[nH]5)C=C4)C=C3)cc1
REMARK SMILES IDX 21 1 20 2 19 3 17 4 18 5 16 7 10 8 11 9 12 10 14 11 13 12
REMARK SMILES IDX 15 13 2 14 1 15 3 16 4 17 5 18 9 19 6 20 7 21 8 22 22 23
REMARK SMILES IDX 23 24 24 25 25 26 26 28 27 29 28 30 74 31 29 32 73 33 30 34
REMARK SMILES IDX 31 35 32 36 67 37 33 38 72 39 66 40 68 41 34 42 71 43 65 44
REMARK SMILES IDX 64 45 35 47 57 48 42 49 56 50 43 51 46 52 55 53 69 54 44 55
REMARK SMILES IDX 45 56 54 58 70 59 47 60 36 61 37 62 41 63 38 64 40 65 39 66
REMARK SMILES IDX 58 67 59 68 63 69 60 70 62 71 61 72 48 73 49 74 53 75 50 76
REMARK SMILES IDX 52 77 51 78
REMARK H PARENT 19 6 24 27 68 46 46 57
REMARK Flexibility Score: inf
ROOT
ATOM      1  C   UNL A   1      36.842  22.307  24.289  1.00  0.00     0.023 C 
ENDROOT
BRANCH   1   2
ATOM      2  C   UNL A   1      35.890  22.781  25.382  1.00  0.00     0.116 C 
BRANCH   2   3
ATOM      3  N   UNL A   1      35.622  24.193  25.295  1.00  0.00    -0.352 N 
ATOM      4  C   UNL A   1      34.365  24.635  25.641  1.00  0.00     0.256 C 
ATOM      5  O   UNL A   1      33.699  24.157  26.551  1.00  0.00    -0.269 OA
ATOM      6  H   UNL A   1      36.318  24.823  24.999  1.00  0.00     0.163 HD
BRANCH   4   7
ATOM      7  C   UNL A   1      33.723  25.516  24.658  1.00  0.00     0.098 A 
ATOM      8  C   UNL A   1      33.291  25.106  23.383  1.00  0.00     0.053 A 
ATOM      9  C   UNL A   1      33.074  26.145  22.450  1.00  0.00     0.027 A 
ATOM     10  C   UNL A   1      33.244  27.502  22.770  1.00  0.00     0.005 A 
ATOM     11  C   UNL A   1      33.862  26.878  24.984  1.00  0.00     0.138 A 
ATOM     12  C   UNL A   1      33.618  27.871  24.052  1.00  0.00     0.040 A 
ATOM     13  F   UNL A   1      34.280  27.255  26.204  1.00  0.00    -0.206 F 
BRANCH   8  14
ATOM     14  N   UNL A   1      33.062  23.779  23.022  1.00  0.00    -0.370 N 
ATOM     15  C   UNL A   1      33.516  23.289  21.726  1.00  0.00     0.144 C 
BRANCH  14  16
ATOM     16  C   UNL A   1      31.973  23.033  23.669  1.00  0.00     0.152 C 
BRANCH  16  17
ATOM     17  C   UNL A   1      32.240  21.611  24.094  1.00  0.00    -0.017 A 
ATOM     18  C   UNL A   1      32.548  21.231  25.391  1.00  0.00     0.071 A 
ATOM     19  C   UNL A   1      32.239  20.463  23.227  1.00  0.00     0.033 A 
ATOM     20  S   UNL A   1      32.929  19.566  25.524  1.00  0.00    -0.136 S 
ATOM     21  C   UNL A   1      32.654  19.328  23.873  1.00  0.00     0.070 A 
ATOM     22  Br  UNL A   1      32.925  17.687  23.013  1.00  0.00    -0.039 Br
ENDBRANCH  16  17
ENDBRANCH  14  16
ENDBRANCH   8  14
ENDBRANCH   4   7
ENDBRANCH   2   3
ENDBRANCH   1   2
BRANCH   1  23
ATOM     23  C   UNL A   1      37.453  20.940  24.581  1.00  0.00     0.023 C 
BRANCH  23  24
ATOM     24  C   UNL A   1      38.461  20.921  25.728  1.00  0.00     0.116 C 
BRANCH  24  25
ATOM     25  N   UNL A   1      39.411  19.822  25.647  1.00  0.00    -0.352 N 
ATOM     26  C   UNL A   1      40.749  19.811  25.972  1.00  0.00     0.251 C 
ATOM     27  H   UNL A   1      39.048  18.970  25.314  1.00  0.00     0.163 HD
ATOM     28  O   UNL A   1      41.444  18.840  25.745  1.00  0.00    -0.269 OA
BRANCH  26  29
ATOM     29  C   UNL A   1      41.335  21.027  26.573  1.00  0.00     0.039 A 
ATOM     30  C   UNL A   1      41.879  21.996  25.727  1.00  0.00     0.014 A 
ATOM     31  C   UNL A   1      41.297  21.225  27.955  1.00  0.00     0.014 A 
ATOM     32  C   UNL A   1      42.322  23.203  26.268  1.00  0.00     0.010 A 
ATOM     33  C   UNL A   1      41.671  22.456  28.481  1.00  0.00     0.010 A 
ATOM     34  C   UNL A   1      42.186  23.457  27.643  1.00  0.00    -0.014 A 
BRANCH  34  35
ATOM     35  C   UNL A   1      42.569  24.766  28.221  1.00  0.00     0.031 A 
ATOM     36  C   UNL A   1      41.527  25.828  28.436  1.00  0.00     0.074 A 
ATOM     37  C   UNL A   1      43.866  25.022  28.488  1.00  0.00     0.049 A 
ATOM     38  N   UNL A   1      41.677  27.050  28.879  1.00  0.00    -0.248 NA
ATOM     39  C   UNL A   1      40.140  25.483  28.083  1.00  0.00     0.031 C 
ATOM     40  C   UNL A   1      44.978  24.094  28.272  1.00  0.00     0.029 A 
ATOM     41  N   UNL A   1      44.469  26.149  28.989  1.00  0.00    -0.354 N 
ATOM     42  C   UNL A   1      40.412  27.624  28.832  1.00  0.00     0.074 A 
ATOM     43  C   UNL A   1      39.514  26.633  28.285  1.00  0.00     0.031 C 
ATOM     44  C   UNL A   1      46.124  24.681  28.657  1.00  0.00     0.029 A 
ATOM     45  C   UNL A   1      45.833  26.037  29.112  1.00  0.00     0.049 A 
ATOM     46  H   UNL A   1      43.970  26.960  29.237  1.00  0.00     0.167 HD
ATOM     47  C   UNL A   1      40.032  28.861  29.226  1.00  0.00     0.031 A 
ATOM     48  C   UNL A   1      46.747  26.930  29.535  1.00  0.00     0.031 A 
ATOM     49  C   UNL A   1      40.919  29.835  29.801  1.00  0.00     0.049 A 
ATOM     50  C   UNL A   1      46.289  28.290  29.983  1.00  0.00     0.074 A 
ATOM     51  C   UNL A   1      40.610  31.083  30.311  1.00  0.00     0.029 A 
ATOM     52  N   UNL A   1      42.288  29.670  29.940  1.00  0.00    -0.354 N 
ATOM     53  N   UNL A   1      45.075  28.782  30.025  1.00  0.00    -0.248 NA
ATOM     54  C   UNL A   1      47.329  29.217  30.453  1.00  0.00     0.031 C 
ATOM     55  C   UNL A   1      41.800  31.696  30.714  1.00  0.00     0.029 A 
ATOM     56  C   UNL A   1      42.841  30.807  30.502  1.00  0.00     0.049 A 
ATOM     57  H   UNL A   1      42.790  28.866  29.677  1.00  0.00     0.167 HD
ATOM     58  C   UNL A   1      45.201  30.059  30.554  1.00  0.00     0.074 A 
ATOM     59  C   UNL A   1      46.608  30.261  30.835  1.00  0.00     0.031 C 
ATOM     60  C   UNL A   1      44.240  30.985  30.786  1.00  0.00     0.031 A 
BRANCH  47  61
ATOM     61  C   UNL A   1      38.589  29.240  29.052  1.00  0.00    -0.014 A 
ATOM     62  C   UNL A   1      37.683  29.164  30.120  1.00  0.00     0.009 A 
ATOM     63  C   UNL A   1      38.149  29.749  27.820  1.00  0.00     0.009 A 
ATOM     64  C   UNL A   1      36.357  29.571  29.951  1.00  0.00     0.001 A 
ATOM     65  C   UNL A   1      36.830  30.178  27.662  1.00  0.00     0.001 A 
ATOM     66  C   UNL A   1      35.935  30.085  28.725  1.00  0.00     0.000 A 
ENDBRANCH  47  61
BRANCH  48  67
ATOM     67  C   UNL A   1      48.191  26.577  29.563  1.00  0.00    -0.014 A 
ATOM     68  C   UNL A   1      49.014  26.846  28.458  1.00  0.00     0.009 A 
ATOM     69  C   UNL A   1      48.745  25.929  30.679  1.00  0.00     0.009 A 
ATOM     70  C   UNL A   1      50.350  26.437  28.453  1.00  0.00     0.001 A 
ATOM     71  C   UNL A   1      50.089  25.549  30.683  1.00  0.00     0.001 A 
ATOM     72  C   UNL A   1      50.886  25.790  29.565  1.00  0.00     0.000 A 
ENDBRANCH  48  67
BRANCH  60  73
ATOM     73  C   UNL A   1      44.668  32.280  31.412  1.00  0.00    -0.014 A 
ATOM     74  C   UNL A   1      45.026  33.386  30.627  1.00  0.00     0.009 A 
ATOM     75  C   UNL A   1      44.670  32.406  32.811  1.00  0.00     0.009 A 
ATOM     76  C   UNL A   1      45.409  34.585  31.232  1.00  0.00     0.001 A 
ATOM     77  C   UNL A   1      45.025  33.614  33.411  1.00  0.00     0.001 A 
ATOM     78  C   UNL A   1      45.403  34.699  32.622  1.00  0.00     0.000 A 
ENDBRANCH  60  73
ENDBRANCH  34  35
ENDBRANCH  26  29
ENDBRANCH  24  25
ENDBRANCH  23  24
ENDBRANCH   1  23
TORSDOF 14
ENDMDL
MODEL 3
REMARK VINA RESULT:     -10.8      3.415      7.490
REMARK SMILES CN(Cc1csc(Br)c1)c1cccc(F)c1C(=O)NCCCCNC(=O)c1ccc(-c2c3nc(c(-c4ccccc4)c4ccc([nH]4)c(-c4ccccc4)c4nc(c(-c5ccccc5)c5ccc2[nH]5)C=C4)C=C3)cc1
REMARK SMILES IDX 21 1 20 2 19 3 17 4 18 5 16 7 10 8 11 9 12 10 14 11 13 12
REMARK SMILES IDX 15 13 2 14 1 15 3 16 4 17 5 18 9 19 6 20 7 21 8 22 22 23
REMARK SMILES IDX 23 24 24 25 25 26 26 28 27 29 28 30 74 31 29 32 73 33 30 34
REMARK SMILES IDX 31 35 32 36 67 37 33 38 72 39 66 40 68 41 34 42 71 43 65 44
REMARK SMILES IDX 64 45 35 47 57 48 42 49 56 50 43 51 46 52 55 53 69 54 44 55
REMARK SMILES IDX 45 56 54 58 70 59 47 60 36 61 37 62 41 63 38 64 40 65 39 66
REMARK SMILES IDX 58 67 59 68 63 69 60 70 62 71 61 72 48 73 49 74 53 75 50 76
REMARK SMILES IDX 52 77 51 78
REMARK H PARENT 19 6 24 27 68 46 46 57
REMARK Flexibility Score: inf
ROOT
ATOM      1  C   UNL A   1      32.068  28.800  26.724  1.00  0.00     0.023 C 
ENDROOT
BRANCH   1   2
ATOM      2  C   UNL A   1      33.323  28.574  25.886  1.00  0.00     0.116 C 
BRANCH   2   3
ATOM      3  N   UNL A   1      33.947  27.309  26.172  1.00  0.00    -0.352 N 
ATOM      4  C   UNL A   1      33.947  26.351  25.184  1.00  0.00     0.256 C 
ATOM      5  O   UNL A   1      34.075  26.599  23.991  1.00  0.00    -0.269 OA
ATOM      6  H   UNL A   1      34.363  27.135  27.048  1.00  0.00     0.163 HD
BRANCH   4   7
ATOM      7  C   UNL A   1      33.475  25.025  25.602  1.00  0.00     0.098 A 
ATOM      8  C   UNL A   1      32.128  24.702  25.851  1.00  0.00     0.053 A 
ATOM      9  C   UNL A   1      31.915  23.530  26.613  1.00  0.00     0.027 A 
ATOM     10  C   UNL A   1      32.965  22.717  27.068  1.00  0.00     0.005 A 
ATOM     11  C   UNL A   1      34.523  24.191  26.034  1.00  0.00     0.138 A 
ATOM     12  C   UNL A   1      34.276  23.038  26.757  1.00  0.00     0.040 A 
ATOM     13  F   UNL A   1      35.805  24.514  25.792  1.00  0.00    -0.206 F 
BRANCH   8  14
ATOM     14  N   UNL A   1      31.045  25.445  25.386  1.00  0.00    -0.370 N 
ATOM     15  C   UNL A   1      29.906  25.697  26.262  1.00  0.00     0.144 C 
BRANCH  14  16
ATOM     16  C   UNL A   1      30.803  25.541  23.939  1.00  0.00     0.152 C 
BRANCH  16  17
ATOM     17  C   UNL A   1      30.402  26.880  23.373  1.00  0.00    -0.017 A 
ATOM     18  C   UNL A   1      31.283  27.764  22.769  1.00  0.00     0.071 A 
ATOM     19  C   UNL A   1      29.076  27.437  23.397  1.00  0.00     0.033 A 
ATOM     20  S   UNL A   1      30.547  29.254  22.352  1.00  0.00    -0.136 S 
ATOM     21  C   UNL A   1      29.050  28.727  22.933  1.00  0.00     0.070 A 
ATOM     22  Br  UNL A   1      27.523  29.810  22.972  1.00  0.00    -0.039 Br
ENDBRANCH  16  17
ENDBRANCH  14  16
ENDBRANCH   8  14
ENDBRANCH   4   7
ENDBRANCH   2   3
ENDBRANCH   1   2
BRANCH   1  23
ATOM     23  C   UNL A   1      31.659  30.267  26.804  1.00  0.00     0.023 C 
BRANCH  23  24
ATOM     24  C   UNL A   1      32.813  31.242  27.026  1.00  0.00     0.116 C 
BRANCH  24  25
ATOM     25  N   UNL A   1      32.376  32.598  27.326  1.00  0.00    -0.352 N 
ATOM     26  C   UNL A   1      33.007  33.560  28.081  1.00  0.00     0.251 C 
ATOM     27  H   UNL A   1      31.512  32.862  26.935  1.00  0.00     0.163 HD
ATOM     28  O   UNL A   1      32.463  34.618  28.335  1.00  0.00    -0.269 OA
BRANCH  26  29
ATOM     29  C   UNL A   1      34.353  33.265  28.613  1.00  0.00     0.039 A 
ATOM     30  C   UNL A   1      34.459  32.576  29.822  1.00  0.00     0.014 A 
ATOM     31  C   UNL A   1      35.495  33.623  27.891  1.00  0.00     0.014 A 
ATOM     32  C   UNL A   1      35.718  32.180  30.275  1.00  0.00     0.010 A 
ATOM     33  C   UNL A   1      36.739  33.163  28.306  1.00  0.00     0.010 A 
ATOM     34  C   UNL A   1      36.862  32.437  29.501  1.00  0.00    -0.014 A 
BRANCH  34  35
ATOM     35  C   UNL A   1      38.196  31.947  29.922  1.00  0.00     0.031 A 
ATOM     36  C   UNL A   1      38.708  30.628  29.414  1.00  0.00     0.074 A 
ATOM     37  C   UNL A   1      38.915  32.657  30.815  1.00  0.00     0.049 A 
ATOM     38  N   UNL A   1      39.822  30.009  29.710  1.00  0.00    -0.248 NA
ATOM     39  C   UNL A   1      37.845  29.895  28.472  1.00  0.00     0.031 C 
ATOM     40  C   UNL A   1      38.503  33.924  31.423  1.00  0.00     0.029 A 
ATOM     41  N   UNL A   1      40.142  32.405  31.376  1.00  0.00    -0.354 N 
ATOM     42  C   UNL A   1      39.780  28.807  29.013  1.00  0.00     0.074 A 
ATOM     43  C   UNL A   1      38.518  28.766  28.310  1.00  0.00     0.031 C 
ATOM     44  C   UNL A   1      39.469  34.347  32.256  1.00  0.00     0.029 A 
ATOM     45  C   UNL A   1      40.549  33.367  32.268  1.00  0.00     0.049 A 
ATOM     46  H   UNL A   1      40.679  31.609  31.159  1.00  0.00     0.167 HD
ATOM     47  C   UNL A   1      40.718  27.834  28.952  1.00  0.00     0.031 A 
ATOM     48  C   UNL A   1      41.664  33.445  33.020  1.00  0.00     0.031 A 
ATOM     49  C   UNL A   1      41.987  27.890  29.624  1.00  0.00     0.049 A 
ATOM     50  C   UNL A   1      42.695  32.355  32.915  1.00  0.00     0.074 A 
ATOM     51  C   UNL A   1      43.038  26.994  29.553  1.00  0.00     0.029 A 
ATOM     52  N   UNL A   1      42.375  28.898  30.492  1.00  0.00    -0.354 N 
ATOM     53  N   UNL A   1      42.683  31.273  32.174  1.00  0.00    -0.248 NA
ATOM     54  C   UNL A   1      43.900  32.503  33.743  1.00  0.00     0.031 C 
ATOM     55  C   UNL A   1      44.044  27.432  30.418  1.00  0.00     0.029 A 
ATOM     56  C   UNL A   1      43.640  28.630  30.985  1.00  0.00     0.049 A 
ATOM     57  H   UNL A   1      41.832  29.686  30.724  1.00  0.00     0.167 HD
ATOM     58  C   UNL A   1      43.888  30.631  32.423  1.00  0.00     0.074 A 
ATOM     59  C   UNL A   1      44.616  31.452  33.368  1.00  0.00     0.031 C 
ATOM     60  C   UNL A   1      44.353  29.464  31.915  1.00  0.00     0.031 A 
BRANCH  47  61
ATOM     61  C   UNL A   1      40.413  26.617  28.127  1.00  0.00    -0.014 A 
ATOM     62  C   UNL A   1      39.603  25.585  28.624  1.00  0.00     0.009 A 
ATOM     63  C   UNL A   1      40.886  26.536  26.807  1.00  0.00     0.009 A 
ATOM     64  C   UNL A   1      39.289  24.485  27.822  1.00  0.00     0.001 A 
ATOM     65  C   UNL A   1      40.549  25.449  26.000  1.00  0.00     0.001 A 
ATOM     66  C   UNL A   1      39.756  24.422  26.509  1.00  0.00     0.000 A 
ENDBRANCH  47  61
BRANCH  48  67
ATOM     67  C   UNL A   1      41.876  34.593  33.939  1.00  0.00    -0.014 A 
ATOM     68  C   UNL A   1      41.418  34.542  35.264  1.00  0.00     0.009 A 
ATOM     69  C   UNL A   1      42.502  35.765  33.483  1.00  0.00     0.009 A 
ATOM     70  C   UNL A   1      41.542  35.655  36.101  1.00  0.00     0.001 A 
ATOM     71  C   UNL A   1      42.653  36.864  34.331  1.00  0.00     0.001 A 
ATOM     72  C   UNL A   1      42.160  36.814  35.634  1.00  0.00     0.000 A 
ENDBRANCH  48  67
BRANCH  60  73
ATOM     73  C   UNL A   1      45.726  29.029  32.337  1.00  0.00    -0.014 A 
ATOM     74  C   UNL A   1      45.916  28.193  33.447  1.00  0.00     0.009 A 
ATOM     75  C   UNL A   1      46.842  29.426  31.582  1.00  0.00     0.009 A 
ATOM     76  C   UNL A   1      47.202  27.790  33.813  1.00  0.00     0.001 A 
ATOM     77  C   UNL A   1      48.121  28.997  31.933  1.00  0.00     0.001 A 
ATOM     78  C   UNL A   1      48.302  28.188  33.053  1.00  0.00     0.000 A 
ENDBRANCH  60  73
ENDBRANCH  34  35
ENDBRANCH  26  29
ENDBRANCH  24  25
ENDBRANCH  23  24
ENDBRANCH   1  23
TORSDOF 14
ENDMDL
