MODEL 1
REMARK VINA RESULT:     -11.1      0.000      0.000
REMARK SMILES Cc1noc(C)c1COc1ccc(C(=O)NCCCCNC(=O)c2ccc(-c3c4nc(c(-c5ccccc5)c5ccc([nH]5)c(-c5ccccc5)c5nc(c(-c6ccccc6)c6ccc3[nH]6)C=C5)C=C4)cc2)cc1
REMARK SMILES IDX 18 1 17 2 16 3 14 4 15 5 13 7 10 8 11 9 73 10 12 11 72 12
REMARK SMILES IDX 9 13 8 14 7 15 1 16 2 17 3 18 4 19 5 20 6 21 19 22 20 23
REMARK SMILES IDX 21 24 22 25 23 27 24 28 25 29 71 30 26 31 70 32 27 33 28 34
REMARK SMILES IDX 29 35 64 36 30 37 69 38 63 39 65 40 31 41 68 42 62 43 61 44
REMARK SMILES IDX 32 46 54 47 39 48 53 49 40 50 43 51 52 52 66 53 41 54 42 55
REMARK SMILES IDX 51 57 67 58 44 59 33 60 34 61 38 62 35 63 37 64 36 65 55 66
REMARK SMILES IDX 56 67 60 68 57 69 59 70 58 71 45 72 46 73 50 74 47 75 49 76
REMARK SMILES IDX 48 77
REMARK H PARENT 16 6 21 26 65 45 43 56
REMARK Flexibility Score: inf
ROOT
ATOM      1  C   UNL A   1      32.495  29.370  27.256  1.00  0.00     0.023 C 
ENDROOT
BRANCH   1   2
ATOM      2  C   UNL A   1      31.436  28.321  27.604  1.00  0.00     0.116 C 
BRANCH   2   3
ATOM      3  N   UNL A   1      31.808  27.002  27.120  1.00  0.00    -0.352 N 
ATOM      4  C   UNL A   1      31.823  26.488  25.845  1.00  0.00     0.251 C 
ATOM      5  O   UNL A   1      32.319  25.378  25.662  1.00  0.00    -0.269 OA
ATOM      6  H   UNL A   1      32.095  26.374  27.821  1.00  0.00     0.163 HD
BRANCH   4   7
ATOM      7  C   UNL A   1      31.300  27.251  24.681  1.00  0.00     0.040 A 
ATOM      8  C   UNL A   1      30.383  28.769  22.519  1.00  0.00     0.119 A 
ATOM      9  C   UNL A   1      31.727  28.823  22.875  1.00  0.00     0.047 A 
ATOM     10  C   UNL A   1      29.521  27.894  23.172  1.00  0.00     0.047 A 
ATOM     11  C   UNL A   1      32.184  28.067  23.961  1.00  0.00     0.017 A 
ATOM     12  C   UNL A   1      29.982  27.133  24.242  1.00  0.00     0.017 A 
BRANCH   8  13
ATOM     13  O   UNL A   1      29.925  29.503  21.460  1.00  0.00    -0.489 OA
BRANCH  13  14
ATOM     14  C   UNL A   1      28.565  29.941  21.664  1.00  0.00     0.271 C 
BRANCH  14  15
ATOM     15  C   UNL A   1      28.421  31.406  21.893  1.00  0.00     0.055 A 
ATOM     16  C   UNL A   1      29.268  31.676  24.357  1.00  0.00     0.071 C 
ATOM     17  C   UNL A   1      28.722  32.157  23.065  1.00  0.00     0.087 A 
ATOM     18  N   UNL A   1      28.489  33.462  22.884  1.00  0.00    -0.085 NA
ATOM     19  O   UNL A   1      28.024  33.586  21.591  1.00  0.00    -0.361 OA
ATOM     20  C   UNL A   1      27.987  32.365  21.000  1.00  0.00     0.140 A 
ATOM     21  C   UNL A   1      27.523  32.334  19.599  1.00  0.00     0.091 C 
ENDBRANCH  14  15
ENDBRANCH  13  14
ENDBRANCH   8  13
ENDBRANCH   4   7
ENDBRANCH   2   3
ENDBRANCH   1   2
BRANCH   1  22
ATOM     22  C   UNL A   1      31.942  30.760  26.941  1.00  0.00     0.023 C 
BRANCH  22  23
ATOM     23  C   UNL A   1      32.982  31.870  26.886  1.00  0.00     0.116 C 
BRANCH  23  24
ATOM     24  N   UNL A   1      32.510  33.137  27.422  1.00  0.00    -0.352 N 
ATOM     25  C   UNL A   1      33.112  33.944  28.359  1.00  0.00     0.251 C 
ATOM     26  H   UNL A   1      31.649  33.457  27.068  1.00  0.00     0.163 HD
ATOM     27  O   UNL A   1      32.549  34.943  28.781  1.00  0.00    -0.269 OA
BRANCH  25  28
ATOM     28  C   UNL A   1      34.437  33.559  28.887  1.00  0.00     0.039 A 
ATOM     29  C   UNL A   1      34.504  32.882  30.107  1.00  0.00     0.014 A 
ATOM     30  C   UNL A   1      35.597  33.812  28.152  1.00  0.00     0.014 A 
ATOM     31  C   UNL A   1      35.730  32.386  30.553  1.00  0.00     0.010 A 
ATOM     32  C   UNL A   1      36.806  33.262  28.563  1.00  0.00     0.010 A 
ATOM     33  C   UNL A   1      36.881  32.535  29.762  1.00  0.00    -0.014 A 
BRANCH  33  34
ATOM     34  C   UNL A   1      38.172  31.923  30.157  1.00  0.00     0.031 A 
ATOM     35  C   UNL A   1      39.114  32.667  31.059  1.00  0.00     0.074 A 
ATOM     36  C   UNL A   1      38.532  30.734  29.636  1.00  0.00     0.049 A 
ATOM     37  N   UNL A   1      40.322  32.337  31.444  1.00  0.00    -0.248 NA
ATOM     38  C   UNL A   1      38.650  33.965  31.576  1.00  0.00     0.031 C 
ATOM     39  C   UNL A   1      37.724  29.930  28.716  1.00  0.00     0.029 A 
ATOM     40  N   UNL A   1      39.679  29.999  29.798  1.00  0.00    -0.354 N 
ATOM     41  C   UNL A   1      40.767  33.392  32.229  1.00  0.00     0.074 A 
ATOM     42  C   UNL A   1      39.720  34.391  32.231  1.00  0.00     0.031 C 
ATOM     43  C   UNL A   1      38.392  28.805  28.413  1.00  0.00     0.029 A 
ATOM     44  C   UNL A   1      39.687  28.827  29.082  1.00  0.00     0.049 A 
ATOM     45  H   UNL A   1      40.426  30.286  30.372  1.00  0.00     0.167 HD
ATOM     46  C   UNL A   1      41.935  33.512  32.903  1.00  0.00     0.031 A 
ATOM     47  C   UNL A   1      40.637  27.879  28.970  1.00  0.00     0.031 A 
ATOM     48  C   UNL A   1      42.970  32.513  32.912  1.00  0.00     0.049 A 
ATOM     49  C   UNL A   1      41.930  28.041  29.718  1.00  0.00     0.074 A 
ATOM     50  C   UNL A   1      44.163  32.517  33.614  1.00  0.00     0.029 A 
ATOM     51  N   UNL A   1      42.935  31.335  32.184  1.00  0.00    -0.354 N 
ATOM     52  N   UNL A   1      42.309  29.015  30.510  1.00  0.00    -0.248 NA
ATOM     53  C   UNL A   1      42.924  26.969  29.561  1.00  0.00     0.031 C 
ATOM     54  C   UNL A   1      44.871  31.359  33.274  1.00  0.00     0.029 A 
ATOM     55  C   UNL A   1      44.096  30.613  32.400  1.00  0.00     0.049 A 
ATOM     56  H   UNL A   1      42.193  31.053  31.600  1.00  0.00     0.167 HD
ATOM     57  C   UNL A   1      43.572  28.661  30.965  1.00  0.00     0.074 A 
ATOM     58  C   UNL A   1      43.889  27.378  30.373  1.00  0.00     0.031 C 
ATOM     59  C   UNL A   1      44.396  29.338  31.802  1.00  0.00     0.031 A 
BRANCH  46  60
ATOM     60  C   UNL A   1      42.155  34.777  33.682  1.00  0.00    -0.014 A 
ATOM     61  C   UNL A   1      41.744  34.887  35.020  1.00  0.00     0.009 A 
ATOM     62  C   UNL A   1      42.808  35.863  33.081  1.00  0.00     0.009 A 
ATOM     63  C   UNL A   1      41.950  36.071  35.729  1.00  0.00     0.001 A 
ATOM     64  C   UNL A   1      43.038  37.038  33.800  1.00  0.00     0.001 A 
ATOM     65  C   UNL A   1      42.600  37.145  35.120  1.00  0.00     0.000 A 
ENDBRANCH  46  60
BRANCH  47  66
ATOM     66  C   UNL A   1      40.397  26.682  28.124  1.00  0.00    -0.014 A 
ATOM     67  C   UNL A   1      40.851  26.649  26.797  1.00  0.00     0.009 A 
ATOM     68  C   UNL A   1      39.710  25.570  28.635  1.00  0.00     0.009 A 
ATOM     69  C   UNL A   1      40.601  25.536  25.992  1.00  0.00     0.001 A 
ATOM     70  C   UNL A   1      39.484  24.447  27.835  1.00  0.00     0.001 A 
ATOM     71  C   UNL A   1      39.921  24.436  26.512  1.00  0.00     0.000 A 
ENDBRANCH  47  66
BRANCH  59  72
ATOM     72  C   UNL A   1      45.705  28.691  32.149  1.00  0.00    -0.014 A 
ATOM     73  C   UNL A   1      46.865  28.948  31.402  1.00  0.00     0.009 A 
ATOM     74  C   UNL A   1      45.788  27.848  33.268  1.00  0.00     0.009 A 
ATOM     75  C   UNL A   1      48.076  28.351  31.753  1.00  0.00     0.001 A 
ATOM     76  C   UNL A   1      47.006  27.273  33.632  1.00  0.00     0.001 A 
ATOM     77  C   UNL A   1      48.147  27.519  32.870  1.00  0.00     0.000 A 
ENDBRANCH  59  72
ENDBRANCH  33  34
ENDBRANCH  25  28
ENDBRANCH  23  24
ENDBRANCH  22  23
ENDBRANCH   1  22
TORSDOF 14
ENDMDL
MODEL 2
REMARK VINA RESULT:     -11.1      0.563      6.000
REMARK SMILES Cc1noc(C)c1COc1ccc(C(=O)NCCCCNC(=O)c2ccc(-c3c4nc(c(-c5ccccc5)c5ccc([nH]5)c(-c5ccccc5)c5nc(c(-c6ccccc6)c6ccc3[nH]6)C=C5)C=C4)cc2)cc1
REMARK SMILES IDX 18 1 17 2 16 3 14 4 15 5 13 7 10 8 11 9 73 10 12 11 72 12
REMARK SMILES IDX 9 13 8 14 7 15 1 16 2 17 3 18 4 19 5 20 6 21 19 22 20 23
REMARK SMILES IDX 21 24 22 25 23 27 24 28 25 29 71 30 26 31 70 32 27 33 28 34
REMARK SMILES IDX 29 35 64 36 30 37 69 38 63 39 65 40 31 41 68 42 62 43 61 44
REMARK SMILES IDX 32 46 54 47 39 48 53 49 40 50 43 51 52 52 66 53 41 54 42 55
REMARK SMILES IDX 51 57 67 58 44 59 33 60 34 61 38 62 35 63 37 64 36 65 55 66
REMARK SMILES IDX 56 67 60 68 57 69 59 70 58 71 45 72 46 73 50 74 47 75 49 76
REMARK SMILES IDX 48 77
REMARK H PARENT 16 6 21 26 65 45 43 56
REMARK Flexibility Score: inf
ROOT
ATOM      1  C   UNL A   1      32.015  28.911  27.306  1.00  0.00     0.023 C 
ENDROOT
BRANCH   1   2
ATOM      2  C   UNL A   1      33.343  28.276  26.885  1.00  0.00     0.116 C 
BRANCH   2   3
ATOM      3  N   UNL A   1      33.170  26.895  26.470  1.00  0.00    -0.352 N 
ATOM      4  C   UNL A   1      32.614  26.366  25.329  1.00  0.00     0.251 C 
ATOM      5  O   UNL A   1      32.711  25.156  25.130  1.00  0.00    -0.269 OA
ATOM      6  H   UNL A   1      33.506  26.228  27.111  1.00  0.00     0.163 HD
BRANCH   4   7
ATOM      7  C   UNL A   1      31.942  27.217  24.312  1.00  0.00     0.040 A 
ATOM      8  C   UNL A   1      30.757  28.892  22.411  1.00  0.00     0.119 A 
ATOM      9  C   UNL A   1      32.144  28.774  22.454  1.00  0.00     0.047 A 
ATOM     10  C   UNL A   1      29.962  28.112  23.244  1.00  0.00     0.047 A 
ATOM     11  C   UNL A   1      32.735  27.939  23.409  1.00  0.00     0.017 A 
ATOM     12  C   UNL A   1      30.554  27.272  24.183  1.00  0.00     0.017 A 
BRANCH   8  13
ATOM     13  O   UNL A   1      30.168  29.704  21.482  1.00  0.00    -0.489 OA
BRANCH  13  14
ATOM     14  C   UNL A   1      28.806  30.021  21.840  1.00  0.00     0.271 C 
BRANCH  14  15
ATOM     15  C   UNL A   1      28.541  31.478  22.010  1.00  0.00     0.055 A 
ATOM     16  C   UNL A   1      29.377  31.921  24.453  1.00  0.00     0.071 C 
ATOM     17  C   UNL A   1      28.785  32.299  23.147  1.00  0.00     0.087 A 
ATOM     18  N   UNL A   1      28.442  33.572  22.915  1.00  0.00    -0.085 NA
ATOM     19  O   UNL A   1      27.961  33.603  21.622  1.00  0.00    -0.361 OA
ATOM     20  C   UNL A   1      28.022  32.359  21.082  1.00  0.00     0.140 A 
ATOM     21  C   UNL A   1      27.555  32.230  19.689  1.00  0.00     0.091 C 
ENDBRANCH  14  15
ENDBRANCH  13  14
ENDBRANCH   8  13
ENDBRANCH   4   7
ENDBRANCH   2   3
ENDBRANCH   1   2
BRANCH   1  22
ATOM     22  C   UNL A   1      31.771  30.315  26.753  1.00  0.00     0.023 C 
BRANCH  22  23
ATOM     23  C   UNL A   1      32.891  31.312  27.010  1.00  0.00     0.116 C 
BRANCH  23  24
ATOM     24  N   UNL A   1      32.418  32.658  27.292  1.00  0.00    -0.352 N 
ATOM     25  C   UNL A   1      33.026  33.637  28.043  1.00  0.00     0.251 C 
ATOM     26  H   UNL A   1      31.550  32.899  26.893  1.00  0.00     0.163 HD
ATOM     27  O   UNL A   1      32.461  34.697  28.267  1.00  0.00    -0.269 OA
BRANCH  25  28
ATOM     28  C   UNL A   1      34.360  33.368  28.619  1.00  0.00     0.039 A 
ATOM     29  C   UNL A   1      34.441  32.705  29.845  1.00  0.00     0.014 A 
ATOM     30  C   UNL A   1      35.519  33.717  27.922  1.00  0.00     0.014 A 
ATOM     31  C   UNL A   1      35.689  32.318  30.337  1.00  0.00     0.010 A 
ATOM     32  C   UNL A   1      36.755  33.273  28.379  1.00  0.00     0.010 A 
ATOM     33  C   UNL A   1      36.850  32.561  29.585  1.00  0.00    -0.014 A 
BRANCH  33  34
ATOM     34  C   UNL A   1      38.174  32.063  30.029  1.00  0.00     0.031 A 
ATOM     35  C   UNL A   1      38.700  30.755  29.508  1.00  0.00     0.074 A 
ATOM     36  C   UNL A   1      38.863  32.746  30.963  1.00  0.00     0.049 A 
ATOM     37  N   UNL A   1      39.790  30.113  29.843  1.00  0.00    -0.248 NA
ATOM     38  C   UNL A   1      37.880  30.066  28.499  1.00  0.00     0.031 C 
ATOM     39  C   UNL A   1      38.442  34.006  31.577  1.00  0.00     0.029 A 
ATOM     40  N   UNL A   1      40.062  32.466  31.568  1.00  0.00    -0.354 N 
ATOM     41  C   UNL A   1      39.777  28.939  29.102  1.00  0.00     0.074 A 
ATOM     42  C   UNL A   1      38.551  28.936  28.333  1.00  0.00     0.031 C 
ATOM     43  C   UNL A   1      39.377  34.402  32.456  1.00  0.00     0.029 A 
ATOM     44  C   UNL A   1      40.442  33.406  32.496  1.00  0.00     0.049 A 
ATOM     45  H   UNL A   1      40.599  31.668  31.358  1.00  0.00     0.167 HD
ATOM     46  C   UNL A   1      40.710  27.959  29.052  1.00  0.00     0.031 A 
ATOM     47  C   UNL A   1      41.523  33.454  33.298  1.00  0.00     0.031 A 
ATOM     48  C   UNL A   1      41.935  27.968  29.805  1.00  0.00     0.049 A 
ATOM     49  C   UNL A   1      42.537  32.347  33.232  1.00  0.00     0.074 A 
ATOM     50  C   UNL A   1      42.971  27.051  29.776  1.00  0.00     0.029 A 
ATOM     51  N   UNL A   1      42.287  28.943  30.725  1.00  0.00    -0.354 N 
ATOM     52  N   UNL A   1      42.542  31.276  32.477  1.00  0.00    -0.248 NA
ATOM     53  C   UNL A   1      43.699  32.461  34.126  1.00  0.00     0.031 C 
ATOM     54  C   UNL A   1      43.931  27.447  30.713  1.00  0.00     0.029 A 
ATOM     55  C   UNL A   1      43.515  28.637  31.288  1.00  0.00     0.049 A 
ATOM     56  H   UNL A   1      41.745  29.735  30.945  1.00  0.00     0.167 HD
ATOM     57  C   UNL A   1      43.717  30.602  32.785  1.00  0.00     0.074 A 
ATOM     58  C   UNL A   1      44.405  31.392  33.786  1.00  0.00     0.031 C 
ATOM     59  C   UNL A   1      44.185  29.434  32.283  1.00  0.00     0.031 A 
BRANCH  46  60
ATOM     60  C   UNL A   1      40.433  26.789  28.152  1.00  0.00    -0.014 A 
ATOM     61  C   UNL A   1      40.948  26.738  26.847  1.00  0.00     0.009 A 
ATOM     62  C   UNL A   1      39.671  25.710  28.624  1.00  0.00     0.009 A 
ATOM     63  C   UNL A   1      40.677  25.647  26.021  1.00  0.00     0.001 A 
ATOM     64  C   UNL A   1      39.423  24.606  27.805  1.00  0.00     0.001 A 
ATOM     65  C   UNL A   1      39.918  24.579  26.501  1.00  0.00     0.000 A 
ENDBRANCH  46  60
BRANCH  47  66
ATOM     66  C   UNL A   1      41.710  34.599  34.225  1.00  0.00    -0.014 A 
ATOM     67  C   UNL A   1      42.379  35.756  33.798  1.00  0.00     0.009 A 
ATOM     68  C   UNL A   1      41.227  34.540  35.541  1.00  0.00     0.009 A 
ATOM     69  C   UNL A   1      42.581  36.822  34.677  1.00  0.00     0.001 A 
ATOM     70  C   UNL A   1      41.408  35.618  36.411  1.00  0.00     0.001 A 
ATOM     71  C   UNL A   1      42.092  36.754  35.981  1.00  0.00     0.000 A 
ENDBRANCH  47  66
BRANCH  59  72
ATOM     72  C   UNL A   1      45.516  28.955  32.784  1.00  0.00    -0.014 A 
ATOM     73  C   UNL A   1      46.712  29.353  32.167  1.00  0.00     0.009 A 
ATOM     74  C   UNL A   1      45.575  28.130  33.918  1.00  0.00     0.009 A 
ATOM     75  C   UNL A   1      47.941  28.911  32.661  1.00  0.00     0.001 A 
ATOM     76  C   UNL A   1      46.806  27.711  34.425  1.00  0.00     0.001 A 
ATOM     77  C   UNL A   1      47.987  28.096  33.791  1.00  0.00     0.000 A 
ENDBRANCH  59  72
ENDBRANCH  33  34
ENDBRANCH  25  28
ENDBRANCH  23  24
ENDBRANCH  22  23
ENDBRANCH   1  22
TORSDOF 14
ENDMDL
MODEL 3
REMARK VINA RESULT:     -11.1      5.024     10.209
REMARK SMILES Cc1noc(C)c1COc1ccc(C(=O)NCCCCNC(=O)c2ccc(-c3c4nc(c(-c5ccccc5)c5ccc([nH]5)c(-c5ccccc5)c5nc(c(-c6ccccc6)c6ccc3[nH]6)C=C5)C=C4)cc2)cc1
REMARK SMILES IDX 18 1 17 2 16 3 14 4 15 5 13 7 10 8 11 9 73 10 12 11 72 12
REMARK SMILES IDX 9 13 8 14 7 15 1 16 2 17 3 18 4 19 5 20 6 21 19 22 20 23
REMARK SMILES IDX 21 24 22 25 23 27 24 28 25 29 71 30 26 31 70 32 27 33 28 34
REMARK SMILES IDX 29 35 64 36 30 37 69 38 63 39 65 40 31 41 68 42 62 43 61 44
REMARK SMILES IDX 32 46 54 47 39 48 53 49 40 50 43 51 52 52 66 53 41 54 42 55
REMARK SMILES IDX 51 57 67 58 44 59 33 60 34 61 38 62 35 63 37 64 36 65 55 66
REMARK SMILES IDX 56 67 60 68 57 69 59 70 58 71 45 72 46 73 50 74 47 75 49 76
REMARK SMILES IDX 48 77
REMARK H PARENT 16 6 21 26 65 45 43 56
REMARK Flexibility Score: inf
ROOT
ATOM      1  C   UNL A   1      37.023  22.279  23.900  1.00  0.00     0.023 C 
ENDROOT
BRANCH   1   2
ATOM      2  C   UNL A   1      36.514  23.471  24.715  1.00  0.00     0.116 C 
BRANCH   2   3
ATOM      3  N   UNL A   1      35.369  24.104  24.083  1.00  0.00    -0.352 N 
ATOM      4  C   UNL A   1      34.059  23.699  23.992  1.00  0.00     0.251 C 
ATOM      5  O   UNL A   1      33.229  24.480  23.528  1.00  0.00    -0.269 OA
ATOM      6  H   UNL A   1      35.565  24.965  23.647  1.00  0.00     0.163 HD
BRANCH   4   7
ATOM      7  C   UNL A   1      33.610  22.368  24.479  1.00  0.00     0.040 A 
ATOM      8  C   UNL A   1      32.683  19.869  25.325  1.00  0.00     0.119 A 
ATOM      9  C   UNL A   1      32.591  20.217  23.981  1.00  0.00     0.047 A 
ATOM     10  C   UNL A   1      33.317  20.718  26.226  1.00  0.00     0.047 A 
ATOM     11  C   UNL A   1      33.051  21.469  23.559  1.00  0.00     0.017 A 
ATOM     12  C   UNL A   1      33.787  21.957  25.800  1.00  0.00     0.017 A 
BRANCH   8  13
ATOM     13  O   UNL A   1      32.237  18.648  25.749  1.00  0.00    -0.489 OA
BRANCH  13  14
ATOM     14  C   UNL A   1      32.310  17.660  24.699  1.00  0.00     0.271 C 
BRANCH  14  15
ATOM     15  C   UNL A   1      33.310  16.582  24.940  1.00  0.00     0.055 A 
ATOM     16  C   UNL A   1      35.580  17.812  24.492  1.00  0.00     0.071 C 
ATOM     17  C   UNL A   1      34.729  16.649  24.844  1.00  0.00     0.087 A 
ATOM     18  N   UNL A   1      35.297  15.481  25.165  1.00  0.00    -0.085 NA
ATOM     19  O   UNL A   1      34.257  14.626  25.468  1.00  0.00    -0.361 OA
ATOM     20  C   UNL A   1      33.075  15.282  25.338  1.00  0.00     0.140 A 
ATOM     21  C   UNL A   1      31.861  14.501  25.646  1.00  0.00     0.091 C 
ENDBRANCH  14  15
ENDBRANCH  13  14
ENDBRANCH   8  13
ENDBRANCH   4   7
ENDBRANCH   2   3
ENDBRANCH   1   2
BRANCH   1  22
ATOM     22  C   UNL A   1      37.311  21.020  24.717  1.00  0.00     0.023 C 
BRANCH  22  23
ATOM     23  C   UNL A   1      38.498  21.123  25.664  1.00  0.00     0.116 C 
BRANCH  23  24
ATOM     24  N   UNL A   1      39.394  19.979  25.600  1.00  0.00    -0.352 N 
ATOM     25  C   UNL A   1      40.717  19.910  25.970  1.00  0.00     0.251 C 
ATOM     26  H   UNL A   1      39.002  19.147  25.247  1.00  0.00     0.163 HD
ATOM     27  O   UNL A   1      41.371  18.896  25.773  1.00  0.00    -0.269 OA
BRANCH  25  28
ATOM     28  C   UNL A   1      41.354  21.102  26.567  1.00  0.00     0.039 A 
ATOM     29  C   UNL A   1      41.928  22.052  25.721  1.00  0.00     0.014 A 
ATOM     30  C   UNL A   1      41.329  21.304  27.949  1.00  0.00     0.014 A 
ATOM     31  C   UNL A   1      42.408  23.249  26.256  1.00  0.00     0.010 A 
ATOM     32  C   UNL A   1      41.745  22.523  28.473  1.00  0.00     0.010 A 
ATOM     33  C   UNL A   1      42.280  23.510  27.630  1.00  0.00    -0.014 A 
BRANCH  33  34
ATOM     34  C   UNL A   1      42.678  24.816  28.207  1.00  0.00     0.031 A 
ATOM     35  C   UNL A   1      41.650  25.889  28.422  1.00  0.00     0.074 A 
ATOM     36  C   UNL A   1      43.978  25.064  28.458  1.00  0.00     0.049 A 
ATOM     37  N   UNL A   1      41.817  27.122  28.831  1.00  0.00    -0.248 NA
ATOM     38  C   UNL A   1      40.254  25.541  28.111  1.00  0.00     0.031 C 
ATOM     39  C   UNL A   1      45.078  24.119  28.254  1.00  0.00     0.029 A 
ATOM     40  N   UNL A   1      44.595  26.194  28.931  1.00  0.00    -0.354 N 
ATOM     41  C   UNL A   1      40.555  27.700  28.808  1.00  0.00     0.074 A 
ATOM     42  C   UNL A   1      39.639  26.699  28.305  1.00  0.00     0.031 C 
ATOM     43  C   UNL A   1      46.232  24.702  28.619  1.00  0.00     0.029 A 
ATOM     44  C   UNL A   1      45.959  26.070  29.044  1.00  0.00     0.049 A 
ATOM     45  H   UNL A   1      44.107  27.016  29.166  1.00  0.00     0.167 HD
ATOM     46  C   UNL A   1      40.187  28.946  29.190  1.00  0.00     0.031 A 
ATOM     47  C   UNL A   1      46.887  26.963  29.437  1.00  0.00     0.031 A 
ATOM     48  C   UNL A   1      41.095  29.935  29.703  1.00  0.00     0.049 A 
ATOM     49  C   UNL A   1      46.455  28.343  29.842  1.00  0.00     0.074 A 
ATOM     50  C   UNL A   1      40.808  31.206  30.173  1.00  0.00     0.029 A 
ATOM     51  N   UNL A   1      42.466  29.767  29.813  1.00  0.00    -0.354 N 
ATOM     52  N   UNL A   1      45.248  28.853  29.877  1.00  0.00    -0.248 NA
ATOM     53  C   UNL A   1      47.514  29.269  30.268  1.00  0.00     0.031 C 
ATOM     54  C   UNL A   1      42.013  31.823  30.524  1.00  0.00     0.029 A 
ATOM     55  C   UNL A   1      43.043  30.918  30.320  1.00  0.00     0.049 A 
ATOM     56  H   UNL A   1      42.956  28.949  29.566  1.00  0.00     0.167 HD
ATOM     57  C   UNL A   1      45.399  30.149  30.354  1.00  0.00     0.074 A 
ATOM     58  C   UNL A   1      46.812  30.342  30.606  1.00  0.00     0.031 C 
ATOM     59  C   UNL A   1      44.451  31.094  30.565  1.00  0.00     0.031 A 
BRANCH  46  60
ATOM     60  C   UNL A   1      38.736  29.307  29.056  1.00  0.00    -0.014 A 
ATOM     61  C   UNL A   1      38.230  29.853  27.864  1.00  0.00     0.009 A 
ATOM     62  C   UNL A   1      37.856  29.073  30.123  1.00  0.00     0.009 A 
ATOM     63  C   UNL A   1      36.880  30.190  27.758  1.00  0.00     0.001 A 
ATOM     64  C   UNL A   1      36.500  29.385  30.004  1.00  0.00     0.001 A 
ATOM     65  C   UNL A   1      36.015  29.952  28.826  1.00  0.00     0.000 A 
ENDBRANCH  46  60
BRANCH  47  66
ATOM     66  C   UNL A   1      48.320  26.576  29.478  1.00  0.00    -0.014 A 
ATOM     67  C   UNL A   1      48.862  25.986  30.630  1.00  0.00     0.009 A 
ATOM     68  C   UNL A   1      49.154  26.797  28.371  1.00  0.00     0.009 A 
ATOM     69  C   UNL A   1      50.216  25.647  30.681  1.00  0.00     0.001 A 
ATOM     70  C   UNL A   1      50.502  26.433  28.415  1.00  0.00     0.001 A 
ATOM     71  C   UNL A   1      51.034  25.868  29.573  1.00  0.00     0.000 A 
ENDBRANCH  47  66
BRANCH  59  72
ATOM     72  C   UNL A   1      44.907  32.411  31.123  1.00  0.00    -0.014 A 
ATOM     73  C   UNL A   1      44.989  32.625  32.507  1.00  0.00     0.009 A 
ATOM     74  C   UNL A   1      45.303  33.436  30.249  1.00  0.00     0.009 A 
ATOM     75  C   UNL A   1      45.432  33.852  33.005  1.00  0.00     0.001 A 
ATOM     76  C   UNL A   1      45.771  34.651  30.750  1.00  0.00     0.001 A 
ATOM     77  C   UNL A   1      45.828  34.860  32.127  1.00  0.00     0.000 A 
ENDBRANCH  59  72
ENDBRANCH  33  34
ENDBRANCH  25  28
ENDBRANCH  23  24
ENDBRANCH  22  23
ENDBRANCH   1  22
TORSDOF 14
ENDMDL
