MODEL 1
REMARK VINA RESULT:     -12.7      0.000      0.000
REMARK SMILES O=C(CC1(C(=O)NCCCCNC(=O)c2ccc(-c3c4nc(c(-c5ccccc5)c5ccc([nH]5)c(-c5ccccc5)c5nc(c(-c6ccccc6)c6ccc3[nH]6)C=C5)C=C4)cc2)CCCCC1)Nc1ccc(N2CCOC2=O)cc1
REMARK SMILES IDX 8 1 7 2 5 3 6 4 4 6 63 7 67 8 64 9 66 10 65 11 3 12 2 13
REMARK SMILES IDX 1 14 68 15 69 17 70 18 80 19 71 20 79 21 72 22 73 23 74 24
REMARK SMILES IDX 77 25 75 26 76 27 78 28 9 29 10 30 11 31 12 32 13 33 14 35
REMARK SMILES IDX 15 36 16 37 62 38 17 39 61 40 18 41 19 42 20 43 55 44 21 45
REMARK SMILES IDX 60 46 54 47 56 48 22 49 59 50 53 51 52 52 23 54 45 55 30 56
REMARK SMILES IDX 44 57 31 58 34 59 43 60 57 61 32 62 33 63 42 65 58 66 35 67
REMARK SMILES IDX 24 68 25 69 29 70 26 71 28 72 27 73 46 74 47 75 51 76 48 77
REMARK SMILES IDX 50 78 49 79 36 80 37 81 41 82 38 83 40 84 39 85
REMARK H PARENT 7 5 68 16 12 34 56 53 34 64
REMARK Flexibility Score: inf
ROOT
ATOM      1  C   UNL A   1      32.440  28.227  26.651  1.00  0.00     0.116 C 
ENDROOT
BRANCH   1   2
ATOM      2  N   UNL A   1      31.566  27.096  26.799  1.00  0.00    -0.356 N 
ATOM      3  C   UNL A   1      30.786  26.410  25.936  1.00  0.00     0.226 C 
ATOM      4  O   UNL A   1      30.034  25.607  26.502  1.00  0.00    -0.274 OA
ATOM      5  H   UNL A   1      31.529  26.750  27.721  1.00  0.00     0.163 HD
BRANCH   3   6
ATOM      6  C   UNL A   1      30.766  26.565  24.384  1.00  0.00     0.058 C 
ATOM      7  C   UNL A   1      31.134  27.963  23.823  1.00  0.00     0.017 C 
ATOM      8  C   UNL A   1      29.423  26.062  23.790  1.00  0.00     0.017 C 
ATOM      9  C   UNL A   1      30.023  28.977  23.551  1.00  0.00     0.001 C 
ATOM     10  C   UNL A   1      28.283  27.060  23.677  1.00  0.00     0.001 C 
ATOM     11  C   UNL A   1      28.684  28.408  23.094  1.00  0.00     0.000 C 
BRANCH   6  12
ATOM     12  C   UNL A   1      31.840  25.538  23.828  1.00  0.00     0.117 C 
BRANCH  12  13
ATOM     13  C   UNL A   1      31.742  24.015  23.994  1.00  0.00     0.225 C 
ATOM     14  O   UNL A   1      30.667  23.540  24.362  1.00  0.00    -0.275 OA
ATOM     15  N   UNL A   1      32.854  23.277  23.653  1.00  0.00    -0.326 N 
ATOM     16  H   UNL A   1      33.630  23.776  23.309  1.00  0.00     0.169 HD
BRANCH  15  17
ATOM     17  C   UNL A   1      32.992  21.875  23.748  1.00  0.00     0.041 A 
ATOM     18  C   UNL A   1      33.969  21.389  24.624  1.00  0.00     0.028 A 
ATOM     19  C   UNL A   1      32.197  20.962  23.055  1.00  0.00     0.028 A 
ATOM     20  C   UNL A   1      34.071  20.018  24.887  1.00  0.00     0.028 A 
ATOM     21  C   UNL A   1      32.351  19.586  23.260  1.00  0.00     0.028 A 
ATOM     22  C   UNL A   1      33.256  19.109  24.209  1.00  0.00     0.047 A 
BRANCH  22  23
ATOM     23  N   UNL A   1      33.292  17.742  24.525  1.00  0.00    -0.274 N 
ATOM     24  C   UNL A   1      32.856  17.220  25.780  1.00  0.00     0.171 C 
ATOM     25  C   UNL A   1      33.683  16.719  23.690  1.00  0.00     0.414 C 
ATOM     26  C   UNL A   1      32.646  15.763  25.454  1.00  0.00     0.257 C 
ATOM     27  O   UNL A   1      33.470  15.515  24.311  1.00  0.00    -0.447 OA
ATOM     28  O   UNL A   1      34.193  16.807  22.579  1.00  0.00    -0.224 OA
ENDBRANCH  22  23
ENDBRANCH  15  17
ENDBRANCH  12  13
ENDBRANCH   6  12
ENDBRANCH   3   6
ENDBRANCH   1   2
BRANCH   1  29
ATOM     29  C   UNL A   1      31.943  29.451  27.414  1.00  0.00     0.023 C 
BRANCH  29  30
ATOM     30  C   UNL A   1      32.095  30.762  26.659  1.00  0.00     0.023 C 
BRANCH  30  31
ATOM     31  C   UNL A   1      33.128  31.712  27.245  1.00  0.00     0.116 C 
BRANCH  31  32
ATOM     32  N   UNL A   1      32.605  33.036  27.565  1.00  0.00    -0.352 N 
ATOM     33  C   UNL A   1      33.165  33.985  28.391  1.00  0.00     0.251 C 
ATOM     34  H   UNL A   1      31.752  33.280  27.139  1.00  0.00     0.163 HD
ATOM     35  O   UNL A   1      32.585  35.030  28.653  1.00  0.00    -0.269 OA
BRANCH  33  36
ATOM     36  C   UNL A   1      34.475  33.677  28.993  1.00  0.00     0.039 A 
ATOM     37  C   UNL A   1      34.521  32.963  30.190  1.00  0.00     0.014 A 
ATOM     38  C   UNL A   1      35.640  33.955  28.274  1.00  0.00     0.014 A 
ATOM     39  C   UNL A   1      35.740  32.444  30.623  1.00  0.00     0.010 A 
ATOM     40  C   UNL A   1      36.828  33.348  28.651  1.00  0.00     0.010 A 
ATOM     41  C   UNL A   1      36.892  32.586  29.829  1.00  0.00    -0.014 A 
BRANCH  41  42
ATOM     42  C   UNL A   1      38.177  31.947  30.208  1.00  0.00     0.031 A 
ATOM     43  C   UNL A   1      39.121  32.666  31.130  1.00  0.00     0.074 A 
ATOM     44  C   UNL A   1      38.526  30.762  29.668  1.00  0.00     0.049 A 
ATOM     45  N   UNL A   1      40.315  32.312  31.528  1.00  0.00    -0.248 NA
ATOM     46  C   UNL A   1      38.679  33.972  31.649  1.00  0.00     0.031 C 
ATOM     47  C   UNL A   1      37.722  29.987  28.720  1.00  0.00     0.029 A 
ATOM     48  N   UNL A   1      39.657  30.003  29.838  1.00  0.00    -0.354 N 
ATOM     49  C   UNL A   1      40.771  33.357  32.320  1.00  0.00     0.074 A 
ATOM     50  C   UNL A   1      39.756  34.385  32.297  1.00  0.00     0.031 C 
ATOM     51  C   UNL A   1      38.368  28.849  28.421  1.00  0.00     0.029 A 
ATOM     52  C   UNL A   1      39.651  28.833  29.116  1.00  0.00     0.049 A 
ATOM     53  H   UNL A   1      40.404  30.271  30.421  1.00  0.00     0.167 HD
ATOM     54  C   UNL A   1      41.921  33.444  33.029  1.00  0.00     0.031 A 
ATOM     55  C   UNL A   1      40.579  27.862  29.018  1.00  0.00     0.031 A 
ATOM     56  C   UNL A   1      42.923  32.415  33.064  1.00  0.00     0.049 A 
ATOM     57  C   UNL A   1      41.857  27.989  29.803  1.00  0.00     0.074 A 
ATOM     58  C   UNL A   1      44.093  32.378  33.803  1.00  0.00     0.029 A 
ATOM     59  N   UNL A   1      42.875  31.242  32.326  1.00  0.00    -0.354 N 
ATOM     60  N   UNL A   1      42.235  28.947  30.614  1.00  0.00    -0.248 NA
ATOM     61  C   UNL A   1      42.830  26.897  29.666  1.00  0.00     0.031 C 
ATOM     62  C   UNL A   1      44.785  31.212  33.461  1.00  0.00     0.029 A 
ATOM     63  C   UNL A   1      44.011  30.490  32.565  1.00  0.00     0.049 A 
ATOM     64  H   UNL A   1      42.141  30.983  31.723  1.00  0.00     0.167 HD
ATOM     65  C   UNL A   1      43.475  28.558  31.106  1.00  0.00     0.074 A 
ATOM     66  C   UNL A   1      43.774  27.270  30.517  1.00  0.00     0.031 C 
ATOM     67  C   UNL A   1      44.293  29.209  31.969  1.00  0.00     0.031 A 
BRANCH  54  68
ATOM     68  C   UNL A   1      42.158  34.705  33.814  1.00  0.00    -0.014 A 
ATOM     69  C   UNL A   1      42.822  35.805  33.248  1.00  0.00     0.009 A 
ATOM     70  C   UNL A   1      41.681  34.805  35.130  1.00  0.00     0.009 A 
ATOM     71  C   UNL A   1      43.038  36.964  33.996  1.00  0.00     0.001 A 
ATOM     72  C   UNL A   1      41.868  35.976  35.865  1.00  0.00     0.001 A 
ATOM     73  C   UNL A   1      42.556  37.051  35.302  1.00  0.00     0.000 A 
ENDBRANCH  54  68
BRANCH  55  74
ATOM     74  C   UNL A   1      40.337  26.676  28.151  1.00  0.00    -0.014 A 
ATOM     75  C   UNL A   1      40.867  26.619  26.853  1.00  0.00     0.009 A 
ATOM     76  C   UNL A   1      39.558  25.602  28.611  1.00  0.00     0.009 A 
ATOM     77  C   UNL A   1      40.595  25.528  26.023  1.00  0.00     0.001 A 
ATOM     78  C   UNL A   1      39.316  24.498  27.790  1.00  0.00     0.001 A 
ATOM     79  C   UNL A   1      39.825  24.467  26.493  1.00  0.00     0.000 A 
ENDBRANCH  55  74
BRANCH  67  80
ATOM     80  C   UNL A   1      45.574  28.524  32.359  1.00  0.00    -0.014 A 
ATOM     81  C   UNL A   1      45.617  27.596  33.410  1.00  0.00     0.009 A 
ATOM     82  C   UNL A   1      46.744  28.775  31.624  1.00  0.00     0.009 A 
ATOM     83  C   UNL A   1      46.814  26.957  33.738  1.00  0.00     0.001 A 
ATOM     84  C   UNL A   1      47.930  28.111  31.933  1.00  0.00     0.001 A 
ATOM     85  C   UNL A   1      47.968  27.209  32.995  1.00  0.00     0.000 A 
ENDBRANCH  67  80
ENDBRANCH  41  42
ENDBRANCH  33  36
ENDBRANCH  31  32
ENDBRANCH  30  31
ENDBRANCH  29  30
ENDBRANCH   1  29
TORSDOF 15
ENDMDL
MODEL 2
REMARK VINA RESULT:     -12.6      3.079      9.215
REMARK SMILES O=C(CC1(C(=O)NCCCCNC(=O)c2ccc(-c3c4nc(c(-c5ccccc5)c5ccc([nH]5)c(-c5ccccc5)c5nc(c(-c6ccccc6)c6ccc3[nH]6)C=C5)C=C4)cc2)CCCCC1)Nc1ccc(N2CCOC2=O)cc1
REMARK SMILES IDX 8 1 7 2 5 3 6 4 4 6 63 7 67 8 64 9 66 10 65 11 3 12 2 13
REMARK SMILES IDX 1 14 68 15 69 17 70 18 80 19 71 20 79 21 72 22 73 23 74 24
REMARK SMILES IDX 77 25 75 26 76 27 78 28 9 29 10 30 11 31 12 32 13 33 14 35
REMARK SMILES IDX 15 36 16 37 62 38 17 39 61 40 18 41 19 42 20 43 55 44 21 45
REMARK SMILES IDX 60 46 54 47 56 48 22 49 59 50 53 51 52 52 23 54 45 55 30 56
REMARK SMILES IDX 44 57 31 58 34 59 43 60 57 61 32 62 33 63 42 65 58 66 35 67
REMARK SMILES IDX 24 68 25 69 29 70 26 71 28 72 27 73 46 74 47 75 51 76 48 77
REMARK SMILES IDX 50 78 49 79 36 80 37 81 41 82 38 83 40 84 39 85
REMARK H PARENT 7 5 68 16 12 34 56 53 34 64
REMARK Flexibility Score: inf
ROOT
ATOM      1  C   UNL A   1      34.708  20.468  24.985  1.00  0.00     0.116 C 
ENDROOT
BRANCH   1   2
ATOM      2  N   UNL A   1      34.173  20.893  26.249  1.00  0.00    -0.356 N 
ATOM      3  C   UNL A   1      33.506  21.998  26.648  1.00  0.00     0.226 C 
ATOM      4  O   UNL A   1      33.383  22.068  27.877  1.00  0.00    -0.274 OA
ATOM      5  H   UNL A   1      34.323  20.243  26.975  1.00  0.00     0.163 HD
BRANCH   3   6
ATOM      6  C   UNL A   1      32.934  23.117  25.724  1.00  0.00     0.058 C 
ATOM      7  C   UNL A   1      32.066  22.650  24.526  1.00  0.00     0.017 C 
ATOM      8  C   UNL A   1      34.057  24.081  25.255  1.00  0.00     0.017 C 
ATOM      9  C   UNL A   1      32.730  22.406  23.171  1.00  0.00     0.001 C 
ATOM     10  C   UNL A   1      34.806  23.728  23.983  1.00  0.00     0.001 C 
ATOM     11  C   UNL A   1      33.913  23.304  22.825  1.00  0.00     0.000 C 
BRANCH   6  12
ATOM     12  C   UNL A   1      32.013  24.019  26.648  1.00  0.00     0.117 C 
BRANCH  12  13
ATOM     13  C   UNL A   1      31.201  25.221  26.142  1.00  0.00     0.225 C 
ATOM     14  O   UNL A   1      30.042  25.345  26.540  1.00  0.00    -0.275 OA
ATOM     15  N   UNL A   1      31.854  26.117  25.326  1.00  0.00    -0.326 N 
ATOM     16  H   UNL A   1      32.803  25.936  25.137  1.00  0.00     0.169 HD
BRANCH  15  17
ATOM     17  C   UNL A   1      31.298  27.272  24.734  1.00  0.00     0.041 A 
ATOM     18  C   UNL A   1      30.298  27.078  23.775  1.00  0.00     0.028 A 
ATOM     19  C   UNL A   1      31.658  28.576  25.073  1.00  0.00     0.028 A 
ATOM     20  C   UNL A   1      29.594  28.167  23.249  1.00  0.00     0.028 A 
ATOM     21  C   UNL A   1      31.007  29.669  24.490  1.00  0.00     0.028 A 
ATOM     22  C   UNL A   1      29.943  29.470  23.610  1.00  0.00     0.047 A 
BRANCH  22  23
ATOM     23  N   UNL A   1      29.190  30.564  23.154  1.00  0.00    -0.274 N 
ATOM     24  C   UNL A   1      29.013  31.759  23.914  1.00  0.00     0.171 C 
ATOM     25  C   UNL A   1      28.574  30.680  21.928  1.00  0.00     0.414 C 
ATOM     26  C   UNL A   1      28.580  32.740  22.853  1.00  0.00     0.257 C 
ATOM     27  O   UNL A   1      28.037  31.935  21.803  1.00  0.00    -0.447 OA
ATOM     28  O   UNL A   1      28.449  29.819  21.064  1.00  0.00    -0.224 OA
ENDBRANCH  22  23
ENDBRANCH  15  17
ENDBRANCH  12  13
ENDBRANCH   6  12
ENDBRANCH   3   6
ENDBRANCH   1   2
BRANCH   1  29
ATOM     29  C   UNL A   1      36.231  20.386  24.996  1.00  0.00     0.023 C 
BRANCH  29  30
ATOM     30  C   UNL A   1      36.912  21.495  25.781  1.00  0.00     0.023 C 
BRANCH  30  31
ATOM     31  C   UNL A   1      38.412  21.600  25.555  1.00  0.00     0.116 C 
BRANCH  31  32
ATOM     32  N   UNL A   1      39.102  20.314  25.530  1.00  0.00    -0.352 N 
ATOM     33  C   UNL A   1      40.382  20.038  25.953  1.00  0.00     0.251 C 
ATOM     34  H   UNL A   1      38.591  19.555  25.168  1.00  0.00     0.163 HD
ATOM     35  O   UNL A   1      40.884  18.932  25.798  1.00  0.00    -0.269 OA
BRANCH  33  36
ATOM     36  C   UNL A   1      41.152  21.138  26.562  1.00  0.00     0.039 A 
ATOM     37  C   UNL A   1      41.800  22.052  25.732  1.00  0.00     0.014 A 
ATOM     38  C   UNL A   1      41.078  21.343  27.942  1.00  0.00     0.014 A 
ATOM     39  C   UNL A   1      42.301  23.231  26.283  1.00  0.00     0.010 A 
ATOM     40  C   UNL A   1      41.481  22.561  28.466  1.00  0.00     0.010 A 
ATOM     41  C   UNL A   1      42.096  23.519  27.644  1.00  0.00    -0.014 A 
BRANCH  41  42
ATOM     42  C   UNL A   1      42.517  24.814  28.232  1.00  0.00     0.031 A 
ATOM     43  C   UNL A   1      41.502  25.903  28.436  1.00  0.00     0.074 A 
ATOM     44  C   UNL A   1      43.817  25.037  28.511  1.00  0.00     0.049 A 
ATOM     45  N   UNL A   1      41.677  27.124  28.871  1.00  0.00    -0.248 NA
ATOM     46  C   UNL A   1      40.109  25.591  28.073  1.00  0.00     0.031 C 
ATOM     47  C   UNL A   1      44.909  24.081  28.310  1.00  0.00     0.029 A 
ATOM     48  N   UNL A   1      44.442  26.148  29.022  1.00  0.00    -0.354 N 
ATOM     49  C   UNL A   1      40.427  27.726  28.812  1.00  0.00     0.074 A 
ATOM     50  C   UNL A   1      39.516  26.762  28.242  1.00  0.00     0.031 C 
ATOM     51  C   UNL A   1      46.060  24.633  28.726  1.00  0.00     0.029 A 
ATOM     52  C   UNL A   1      45.800  25.996  29.178  1.00  0.00     0.049 A 
ATOM     53  H   UNL A   1      43.964  26.976  29.255  1.00  0.00     0.167 HD
ATOM     54  C   UNL A   1      40.062  28.963  29.222  1.00  0.00     0.031 A 
ATOM     55  C   UNL A   1      46.730  26.860  29.627  1.00  0.00     0.031 A 
ATOM     56  C   UNL A   1      40.967  29.917  29.804  1.00  0.00     0.049 A 
ATOM     57  C   UNL A   1      46.302  28.235  30.061  1.00  0.00     0.074 A 
ATOM     58  C   UNL A   1      40.684  31.172  30.313  1.00  0.00     0.029 A 
ATOM     59  N   UNL A   1      42.331  29.720  29.952  1.00  0.00    -0.354 N 
ATOM     60  N   UNL A   1      45.101  28.760  30.076  1.00  0.00    -0.248 NA
ATOM     61  C   UNL A   1      47.357  29.134  30.549  1.00  0.00     0.031 C 
ATOM     62  C   UNL A   1      41.888  31.762  30.708  1.00  0.00     0.029 A 
ATOM     63  C   UNL A   1      42.909  30.845  30.513  1.00  0.00     0.049 A 
ATOM     64  H   UNL A   1      42.816  28.901  29.697  1.00  0.00     0.167 HD
ATOM     65  C   UNL A   1      45.252  30.036  30.603  1.00  0.00     0.074 A 
ATOM     66  C   UNL A   1      46.657  30.199  30.911  1.00  0.00     0.031 C 
ATOM     67  C   UNL A   1      44.311  30.990  30.813  1.00  0.00     0.031 A 
BRANCH  54  68
ATOM     68  C   UNL A   1      38.622  29.357  29.042  1.00  0.00    -0.014 A 
ATOM     69  C   UNL A   1      38.136  29.804  27.802  1.00  0.00     0.009 A 
ATOM     70  C   UNL A   1      37.731  29.247  30.120  1.00  0.00     0.009 A 
ATOM     71  C   UNL A   1      36.797  30.171  27.658  1.00  0.00     0.001 A 
ATOM     72  C   UNL A   1      36.385  29.582  29.964  1.00  0.00     0.001 A 
ATOM     73  C   UNL A   1      35.921  30.055  28.737  1.00  0.00     0.000 A 
ENDBRANCH  54  68
BRANCH  55  74
ATOM     74  C   UNL A   1      48.161  26.453  29.697  1.00  0.00    -0.014 A 
ATOM     75  C   UNL A   1      49.020  26.668  28.608  1.00  0.00     0.009 A 
ATOM     76  C   UNL A   1      48.671  25.831  30.847  1.00  0.00     0.009 A 
ATOM     77  C   UNL A   1      50.349  26.239  28.657  1.00  0.00     0.001 A 
ATOM     78  C   UNL A   1      50.008  25.434  30.906  1.00  0.00     0.001 A 
ATOM     79  C   UNL A   1      50.843  25.627  29.808  1.00  0.00     0.000 A 
ENDBRANCH  55  74
BRANCH  67  80
ATOM     80  C   UNL A   1      44.761  32.281  31.438  1.00  0.00    -0.014 A 
ATOM     81  C   UNL A   1      44.803  32.444  32.831  1.00  0.00     0.009 A 
ATOM     82  C   UNL A   1      45.202  33.331  30.616  1.00  0.00     0.009 A 
ATOM     83  C   UNL A   1      45.246  33.645  33.387  1.00  0.00     0.001 A 
ATOM     84  C   UNL A   1      45.676  34.517  31.176  1.00  0.00     0.001 A 
ATOM     85  C   UNL A   1      45.689  34.678  32.560  1.00  0.00     0.000 A 
ENDBRANCH  67  80
ENDBRANCH  41  42
ENDBRANCH  33  36
ENDBRANCH  31  32
ENDBRANCH  30  31
ENDBRANCH  29  30
ENDBRANCH   1  29
TORSDOF 15
ENDMDL
MODEL 3
REMARK VINA RESULT:     -12.6      3.153      9.440
REMARK SMILES O=C(CC1(C(=O)NCCCCNC(=O)c2ccc(-c3c4nc(c(-c5ccccc5)c5ccc([nH]5)c(-c5ccccc5)c5nc(c(-c6ccccc6)c6ccc3[nH]6)C=C5)C=C4)cc2)CCCCC1)Nc1ccc(N2CCOC2=O)cc1
REMARK SMILES IDX 8 1 7 2 5 3 6 4 4 6 63 7 67 8 64 9 66 10 65 11 3 12 2 13
REMARK SMILES IDX 1 14 68 15 69 17 70 18 80 19 71 20 79 21 72 22 73 23 74 24
REMARK SMILES IDX 77 25 75 26 76 27 78 28 9 29 10 30 11 31 12 32 13 33 14 35
REMARK SMILES IDX 15 36 16 37 62 38 17 39 61 40 18 41 19 42 20 43 55 44 21 45
REMARK SMILES IDX 60 46 54 47 56 48 22 49 59 50 53 51 52 52 23 54 45 55 30 56
REMARK SMILES IDX 44 57 31 58 34 59 43 60 57 61 32 62 33 63 42 65 58 66 35 67
REMARK SMILES IDX 24 68 25 69 29 70 26 71 28 72 27 73 46 74 47 75 51 76 48 77
REMARK SMILES IDX 50 78 49 79 36 80 37 81 41 82 38 83 40 84 39 85
REMARK H PARENT 7 5 68 16 12 34 56 53 34 64
REMARK Flexibility Score: inf
ROOT
ATOM      1  C   UNL A   1      35.797  21.902  24.280  1.00  0.00     0.116 C 
ENDROOT
BRANCH   1   2
ATOM      2  N   UNL A   1      35.563  23.240  24.750  1.00  0.00    -0.356 N 
ATOM      3  C   UNL A   1      34.467  23.879  25.216  1.00  0.00     0.226 C 
ATOM      4  O   UNL A   1      34.638  25.097  25.341  1.00  0.00    -0.274 OA
ATOM      5  H   UNL A   1      36.367  23.809  24.726  1.00  0.00     0.163 HD
BRANCH   3   6
ATOM      6  C   UNL A   1      33.095  23.225  25.567  1.00  0.00     0.058 C 
ATOM      7  C   UNL A   1      33.146  21.867  26.316  1.00  0.00     0.017 C 
ATOM      8  C   UNL A   1      32.183  23.134  24.314  1.00  0.00     0.017 C 
ATOM      9  C   UNL A   1      33.123  20.567  25.514  1.00  0.00     0.001 C 
ATOM     10  C   UNL A   1      32.295  21.893  23.446  1.00  0.00     0.001 C 
ATOM     11  C   UNL A   1      32.312  20.584  24.222  1.00  0.00     0.000 C 
BRANCH   6  12
ATOM     12  C   UNL A   1      32.348  24.255  26.513  1.00  0.00     0.117 C 
BRANCH  12  13
ATOM     13  C   UNL A   1      31.286  25.254  26.030  1.00  0.00     0.225 C 
ATOM     14  O   UNL A   1      30.145  25.150  26.484  1.00  0.00    -0.275 OA
ATOM     15  N   UNL A   1      31.704  26.243  25.168  1.00  0.00    -0.326 N 
ATOM     16  H   UNL A   1      32.660  26.252  24.934  1.00  0.00     0.169 HD
BRANCH  15  17
ATOM     17  C   UNL A   1      30.898  27.245  24.586  1.00  0.00     0.041 A 
ATOM     18  C   UNL A   1      31.219  28.574  24.884  1.00  0.00     0.028 A 
ATOM     19  C   UNL A   1      29.839  26.990  23.714  1.00  0.00     0.028 A 
ATOM     20  C   UNL A   1      30.567  29.627  24.234  1.00  0.00     0.028 A 
ATOM     21  C   UNL A   1      29.134  28.045  23.122  1.00  0.00     0.028 A 
ATOM     22  C   UNL A   1      29.523  29.366  23.344  1.00  0.00     0.047 A 
BRANCH  22  23
ATOM     23  N   UNL A   1      28.918  30.409  22.624  1.00  0.00    -0.274 N 
ATOM     24  C   UNL A   1      29.369  30.832  21.338  1.00  0.00     0.171 C 
ATOM     25  C   UNL A   1      27.803  31.125  23.002  1.00  0.00     0.414 C 
ATOM     26  C   UNL A   1      28.168  31.584  20.821  1.00  0.00     0.257 C 
ATOM     27  O   UNL A   1      27.444  31.977  21.990  1.00  0.00    -0.447 OA
ATOM     28  O   UNL A   1      27.212  31.087  24.075  1.00  0.00    -0.224 OA
ENDBRANCH  22  23
ENDBRANCH  15  17
ENDBRANCH  12  13
ENDBRANCH   6  12
ENDBRANCH   3   6
ENDBRANCH   1   2
BRANCH   1  29
ATOM     29  C   UNL A   1      36.663  21.092  25.240  1.00  0.00     0.023 C 
BRANCH  29  30
ATOM     30  C   UNL A   1      38.150  21.137  24.932  1.00  0.00     0.023 C 
BRANCH  30  31
ATOM     31  C   UNL A   1      39.051  20.819  26.116  1.00  0.00     0.116 C 
BRANCH  31  32
ATOM     32  N   UNL A   1      39.979  19.718  25.878  1.00  0.00    -0.352 N 
ATOM     33  C   UNL A   1      41.348  19.726  26.025  1.00  0.00     0.251 C 
ATOM     34  H   UNL A   1      39.579  18.870  25.579  1.00  0.00     0.163 HD
ATOM     35  O   UNL A   1      42.032  18.762  25.708  1.00  0.00    -0.269 OA
BRANCH  33  36
ATOM     36  C   UNL A   1      41.972  20.959  26.536  1.00  0.00     0.039 A 
ATOM     37  C   UNL A   1      42.373  21.941  25.631  1.00  0.00     0.014 A 
ATOM     38  C   UNL A   1      41.995  21.195  27.913  1.00  0.00     0.014 A 
ATOM     39  C   UNL A   1      42.716  23.205  26.110  1.00  0.00     0.010 A 
ATOM     40  C   UNL A   1      42.232  22.481  28.374  1.00  0.00     0.010 A 
ATOM     41  C   UNL A   1      42.595  23.500  27.480  1.00  0.00    -0.014 A 
BRANCH  41  42
ATOM     42  C   UNL A   1      42.842  24.867  28.002  1.00  0.00     0.031 A 
ATOM     43  C   UNL A   1      44.229  25.260  28.426  1.00  0.00     0.074 A 
ATOM     44  C   UNL A   1      41.814  25.723  28.164  1.00  0.00     0.049 A 
ATOM     45  N   UNL A   1      44.640  26.377  28.968  1.00  0.00    -0.248 NA
ATOM     46  C   UNL A   1      45.290  24.255  28.248  1.00  0.00     0.031 C 
ATOM     47  C   UNL A   1      40.412  25.444  27.840  1.00  0.00     0.029 A 
ATOM     48  N   UNL A   1      41.790  27.007  28.650  1.00  0.00    -0.354 N 
ATOM     49  C   UNL A   1      45.995  26.199  29.214  1.00  0.00     0.074 A 
ATOM     50  C   UNL A   1      46.325  24.848  28.823  1.00  0.00     0.031 C 
ATOM     51  C   UNL A   1      39.674  26.534  28.102  1.00  0.00     0.029 A 
ATOM     52  C   UNL A   1      40.536  27.572  28.656  1.00  0.00     0.049 A 
ATOM     53  H   UNL A   1      42.594  27.479  28.965  1.00  0.00     0.167 HD
ATOM     54  C   UNL A   1      46.893  27.088  29.697  1.00  0.00     0.031 A 
ATOM     55  C   UNL A   1      40.128  28.787  29.070  1.00  0.00     0.031 A 
ATOM     56  C   UNL A   1      46.568  28.437  30.071  1.00  0.00     0.049 A 
ATOM     57  C   UNL A   1      41.144  29.752  29.619  1.00  0.00     0.074 A 
ATOM     58  C   UNL A   1      47.418  29.437  30.508  1.00  0.00     0.029 A 
ATOM     59  N   UNL A   1      45.289  28.972  30.053  1.00  0.00    -0.354 N 
ATOM     60  N   UNL A   1      42.437  29.595  29.767  1.00  0.00    -0.248 NA
ATOM     61  C   UNL A   1      40.644  31.066  30.048  1.00  0.00     0.031 C 
ATOM     62  C   UNL A   1      46.643  30.559  30.819  1.00  0.00     0.029 A 
ATOM     63  C   UNL A   1      45.322  30.279  30.506  1.00  0.00     0.049 A 
ATOM     64  H   UNL A   1      44.479  28.494  29.762  1.00  0.00     0.167 HD
ATOM     65  C   UNL A   1      42.908  30.798  30.276  1.00  0.00     0.074 A 
ATOM     66  C   UNL A   1      41.766  31.680  30.394  1.00  0.00     0.031 C 
ATOM     67  C   UNL A   1      44.174  31.143  30.617  1.00  0.00     0.031 A 
BRANCH  54  68
ATOM     68  C   UNL A   1      48.314  26.621  29.857  1.00  0.00    -0.014 A 
ATOM     69  C   UNL A   1      49.266  26.816  28.844  1.00  0.00     0.009 A 
ATOM     70  C   UNL A   1      48.714  26.006  31.053  1.00  0.00     0.009 A 
ATOM     71  C   UNL A   1      50.578  26.369  29.009  1.00  0.00     0.001 A 
ATOM     72  C   UNL A   1      50.034  25.591  31.231  1.00  0.00     0.001 A 
ATOM     73  C   UNL A   1      50.963  25.762  30.204  1.00  0.00     0.000 A 
ENDBRANCH  54  68
BRANCH  55  74
ATOM     74  C   UNL A   1      38.692  29.168  28.978  1.00  0.00    -0.014 A 
ATOM     75  C   UNL A   1      38.173  29.723  27.799  1.00  0.00     0.009 A 
ATOM     76  C   UNL A   1      37.835  28.994  30.077  1.00  0.00     0.009 A 
ATOM     77  C   UNL A   1      36.836  30.127  27.732  1.00  0.00     0.001 A 
ATOM     78  C   UNL A   1      36.492  29.367  29.997  1.00  0.00     0.001 A 
ATOM     79  C   UNL A   1      35.996  29.944  28.829  1.00  0.00     0.000 A 
ENDBRANCH  55  74
BRANCH  67  80
ATOM     80  C   UNL A   1      44.400  32.544  31.114  1.00  0.00    -0.014 A 
ATOM     81  C   UNL A   1      44.661  33.602  30.230  1.00  0.00     0.009 A 
ATOM     82  C   UNL A   1      44.296  32.816  32.488  1.00  0.00     0.009 A 
ATOM     83  C   UNL A   1      44.845  34.897  30.715  1.00  0.00     0.001 A 
ATOM     84  C   UNL A   1      44.447  34.117  32.966  1.00  0.00     0.001 A 
ATOM     85  C   UNL A   1      44.731  35.156  32.081  1.00  0.00     0.000 A 
ENDBRANCH  67  80
ENDBRANCH  41  42
ENDBRANCH  33  36
ENDBRANCH  31  32
ENDBRANCH  30  31
ENDBRANCH  29  30
ENDBRANCH   1  29
TORSDOF 15
ENDMDL
