MODEL 1
REMARK VINA RESULT:     -11.2      0.000      0.000
REMARK SMILES CCc1nn(-c2ccncn2)c(Cl)c1C(=O)NCCCCNC(=O)c1ccc(-c2c3nc(c(-c4ccccc4)c4ccc([nH]4)c(-c4ccccc4)c4nc(c(-c5ccccc5)c5ccc2[nH]5)C=C4)C=C3)cc1
REMARK SMILES IDX 20 1 19 2 18 3 17 4 15 5 16 6 14 8 3 9 4 10 5 11 12 12 13 13
REMARK SMILES IDX 2 14 1 15 6 16 7 17 11 18 8 19 10 20 9 21 21 22 22 23 23 24
REMARK SMILES IDX 24 26 25 27 26 28 72 29 27 30 71 31 28 32 29 33 30 34 65 35
REMARK SMILES IDX 31 36 70 37 64 38 66 39 32 40 69 41 63 42 62 43 33 45 55 46
REMARK SMILES IDX 40 47 54 48 41 49 44 50 53 51 67 52 42 53 43 54 52 56 68 57
REMARK SMILES IDX 45 58 34 59 35 60 39 61 36 62 38 63 37 64 56 65 57 66 61 67
REMARK SMILES IDX 58 68 60 69 59 70 46 71 47 72 51 73 48 74 50 75 49 76
REMARK H PARENT 17 7 22 25 66 44 44 55
REMARK Flexibility Score: inf
ROOT
ATOM      1  C   UNL A   1      37.773  19.803  24.987  1.00  0.00     0.023 C 
ENDROOT
BRANCH   1   2
ATOM      2  C   UNL A   1      36.787  20.934  24.681  1.00  0.00     0.023 C 
BRANCH   2   3
ATOM      3  C   UNL A   1      35.305  20.717  24.987  1.00  0.00     0.116 C 
BRANCH   3   4
ATOM      4  N   UNL A   1      34.870  21.019  26.326  1.00  0.00    -0.352 N 
ATOM      5  C   UNL A   1      33.942  21.933  26.774  1.00  0.00     0.256 C 
ATOM      6  O   UNL A   1      33.694  21.885  27.980  1.00  0.00    -0.269 OA
ATOM      7  H   UNL A   1      35.303  20.490  27.033  1.00  0.00     0.163 HD
BRANCH   5   8
ATOM      8  C   UNL A   1      33.315  22.937  25.912  1.00  0.00     0.100 A 
ATOM      9  C   UNL A   1      31.969  23.240  25.517  1.00  0.00     0.077 A 
ATOM     10  N   UNL A   1      31.894  24.371  24.799  1.00  0.00    -0.169 NA
ATOM     11  N   UNL A   1      33.171  24.804  24.654  1.00  0.00    -0.203 N 
ATOM     12  C   UNL A   1      34.032  23.983  25.347  1.00  0.00     0.147 A 
ATOM     13  Cl  UNL A   1      35.686  24.404  25.545  1.00  0.00    -0.061 Cl
BRANCH   9  14
ATOM     14  C   UNL A   1      30.660  22.554  25.777  1.00  0.00     0.056 C 
ATOM     15  C   UNL A   1      29.999  22.909  27.096  1.00  0.00     0.011 C 
ENDBRANCH   9  14
BRANCH  11  16
ATOM     16  C   UNL A   1      33.441  25.975  23.873  1.00  0.00     0.158 A 
ATOM     17  C   UNL A   1      33.723  27.174  24.501  1.00  0.00     0.069 A 
ATOM     18  N   UNL A   1      33.407  25.857  22.522  1.00  0.00    -0.217 NA
ATOM     19  C   UNL A   1      33.901  28.262  23.677  1.00  0.00     0.117 A 
ATOM     20  C   UNL A   1      33.570  26.987  21.824  1.00  0.00     0.224 A 
ATOM     21  N   UNL A   1      33.810  28.202  22.338  1.00  0.00    -0.245 NA
ENDBRANCH  11  16
ENDBRANCH   5   8
ENDBRANCH   3   4
ENDBRANCH   2   3
ENDBRANCH   1   2
BRANCH   1  22
ATOM     22  C   UNL A   1      38.994  20.195  25.803  1.00  0.00     0.116 C 
BRANCH  22  23
ATOM     23  N   UNL A   1      40.086  19.223  25.780  1.00  0.00    -0.352 N 
ATOM     24  C   UNL A   1      41.446  19.483  25.915  1.00  0.00     0.251 C 
ATOM     25  H   UNL A   1      39.831  18.280  25.655  1.00  0.00     0.163 HD
ATOM     26  O   UNL A   1      42.284  18.673  25.564  1.00  0.00    -0.269 OA
BRANCH  24  27
ATOM     27  C   UNL A   1      41.856  20.773  26.514  1.00  0.00     0.039 A 
ATOM     28  C   UNL A   1      42.329  21.837  25.740  1.00  0.00     0.014 A 
ATOM     29  C   UNL A   1      41.729  20.905  27.894  1.00  0.00     0.014 A 
ATOM     30  C   UNL A   1      42.596  23.056  26.366  1.00  0.00     0.010 A 
ATOM     31  C   UNL A   1      41.822  22.139  28.477  1.00  0.00     0.010 A 
ATOM     32  C   UNL A   1      42.322  23.200  27.737  1.00  0.00    -0.014 A 
BRANCH  32  33
ATOM     33  C   UNL A   1      42.434  24.486  28.412  1.00  0.00     0.031 A 
ATOM     34  C   UNL A   1      41.301  25.410  28.146  1.00  0.00     0.074 A 
ATOM     35  C   UNL A   1      43.338  24.726  29.388  1.00  0.00     0.049 A 
ATOM     36  N   UNL A   1      41.331  26.504  27.463  1.00  0.00    -0.248 NA
ATOM     37  C   UNL A   1      39.946  25.003  28.557  1.00  0.00     0.031 C 
ATOM     38  C   UNL A   1      44.293  23.790  29.997  1.00  0.00     0.029 A 
ATOM     39  N   UNL A   1      43.512  25.846  30.139  1.00  0.00    -0.354 N 
ATOM     40  C   UNL A   1      40.049  27.039  27.534  1.00  0.00     0.074 A 
ATOM     41  C   UNL A   1      39.205  25.988  28.045  1.00  0.00     0.031 C 
ATOM     42  C   UNL A   1      44.753  24.302  31.162  1.00  0.00     0.029 A 
ATOM     43  C   UNL A   1      44.265  25.663  31.296  1.00  0.00     0.049 A 
ATOM     44  H   UNL A   1      43.136  26.720  29.885  1.00  0.00     0.167 HD
ATOM     45  C   UNL A   1      39.842  28.381  27.421  1.00  0.00     0.031 A 
ATOM     46  C   UNL A   1      44.442  26.559  32.301  1.00  0.00     0.031 A 
ATOM     47  C   UNL A   1      41.026  29.052  26.944  1.00  0.00     0.049 A 
ATOM     48  C   UNL A   1      44.083  27.892  31.768  1.00  0.00     0.074 A 
ATOM     49  C   UNL A   1      41.806  28.970  25.808  1.00  0.00     0.029 A 
ATOM     50  N   UNL A   1      41.802  29.677  27.892  1.00  0.00    -0.354 N 
ATOM     51  N   UNL A   1      44.784  28.512  30.864  1.00  0.00    -0.248 NA
ATOM     52  C   UNL A   1      42.703  28.328  31.899  1.00  0.00     0.031 C 
ATOM     53  C   UNL A   1      43.147  29.104  26.275  1.00  0.00     0.029 A 
ATOM     54  C   UNL A   1      43.109  29.352  27.648  1.00  0.00     0.049 A 
ATOM     55  H   UNL A   1      41.475  30.256  28.619  1.00  0.00     0.167 HD
ATOM     56  C   UNL A   1      43.839  29.061  30.010  1.00  0.00     0.074 A 
ATOM     57  C   UNL A   1      42.579  29.004  30.753  1.00  0.00     0.031 C 
ATOM     58  C   UNL A   1      44.111  29.229  28.682  1.00  0.00     0.031 A 
BRANCH  45  59
ATOM     59  C   UNL A   1      38.758  29.139  28.153  1.00  0.00    -0.014 A 
ATOM     60  C   UNL A   1      38.734  29.072  29.560  1.00  0.00     0.009 A 
ATOM     61  C   UNL A   1      37.611  29.662  27.529  1.00  0.00     0.009 A 
ATOM     62  C   UNL A   1      37.589  29.411  30.289  1.00  0.00     0.001 A 
ATOM     63  C   UNL A   1      36.481  30.043  28.257  1.00  0.00     0.001 A 
ATOM     64  C   UNL A   1      36.458  29.886  29.635  1.00  0.00     0.000 A 
ENDBRANCH  45  59
BRANCH  46  65
ATOM     65  C   UNL A   1      44.655  26.354  33.752  1.00  0.00    -0.014 A 
ATOM     66  C   UNL A   1      43.567  26.066  34.595  1.00  0.00     0.009 A 
ATOM     67  C   UNL A   1      45.947  26.130  34.256  1.00  0.00     0.009 A 
ATOM     68  C   UNL A   1      43.763  25.517  35.871  1.00  0.00     0.001 A 
ATOM     69  C   UNL A   1      46.143  25.584  35.532  1.00  0.00     0.001 A 
ATOM     70  C   UNL A   1      45.051  25.258  36.330  1.00  0.00     0.000 A 
ENDBRANCH  46  65
BRANCH  58  71
ATOM     71  C   UNL A   1      45.540  29.058  28.224  1.00  0.00    -0.014 A 
ATOM     72  C   UNL A   1      46.107  27.820  27.872  1.00  0.00     0.009 A 
ATOM     73  C   UNL A   1      46.301  30.217  28.021  1.00  0.00     0.009 A 
ATOM     74  C   UNL A   1      47.413  27.746  27.374  1.00  0.00     0.001 A 
ATOM     75  C   UNL A   1      47.595  30.147  27.501  1.00  0.00     0.001 A 
ATOM     76  C   UNL A   1      48.155  28.911  27.187  1.00  0.00     0.000 A 
ENDBRANCH  58  71
ENDBRANCH  32  33
ENDBRANCH  24  27
ENDBRANCH  22  23
ENDBRANCH   1  22
TORSDOF 13
ENDMDL
MODEL 2
REMARK VINA RESULT:     -11.1      4.281      8.648
REMARK SMILES CCc1nn(-c2ccncn2)c(Cl)c1C(=O)NCCCCNC(=O)c1ccc(-c2c3nc(c(-c4ccccc4)c4ccc([nH]4)c(-c4ccccc4)c4nc(c(-c5ccccc5)c5ccc2[nH]5)C=C4)C=C3)cc1
REMARK SMILES IDX 20 1 19 2 18 3 17 4 15 5 16 6 14 8 3 9 4 10 5 11 12 12 13 13
REMARK SMILES IDX 2 14 1 15 6 16 7 17 11 18 8 19 10 20 9 21 21 22 22 23 23 24
REMARK SMILES IDX 24 26 25 27 26 28 72 29 27 30 71 31 28 32 29 33 30 34 65 35
REMARK SMILES IDX 31 36 70 37 64 38 66 39 32 40 69 41 63 42 62 43 33 45 55 46
REMARK SMILES IDX 40 47 54 48 41 49 44 50 53 51 67 52 42 53 43 54 52 56 68 57
REMARK SMILES IDX 45 58 34 59 35 60 39 61 36 62 38 63 37 64 56 65 57 66 61 67
REMARK SMILES IDX 58 68 60 69 59 70 46 71 47 72 51 73 48 74 50 75 49 76
REMARK H PARENT 17 7 22 25 66 44 44 55
REMARK Flexibility Score: inf
ROOT
ATOM      1  C   UNL A   1      32.036  27.296  26.678  1.00  0.00     0.023 C 
ENDROOT
BRANCH   1   2
ATOM      2  C   UNL A   1      33.399  26.908  26.097  1.00  0.00     0.023 C 
BRANCH   2   3
ATOM      3  C   UNL A   1      33.584  25.496  25.544  1.00  0.00     0.116 C 
BRANCH   3   4
ATOM      4  N   UNL A   1      34.023  25.388  24.176  1.00  0.00    -0.352 N 
ATOM      5  C   UNL A   1      33.451  25.868  23.020  1.00  0.00     0.256 C 
ATOM      6  O   UNL A   1      34.123  25.717  21.997  1.00  0.00    -0.269 OA
ATOM      7  H   UNL A   1      34.864  24.894  24.048  1.00  0.00     0.163 HD
BRANCH   5   8
ATOM      8  C   UNL A   1      32.118  26.472  22.967  1.00  0.00     0.100 A 
ATOM      9  C   UNL A   1      30.780  26.001  23.189  1.00  0.00     0.077 A 
ATOM     10  N   UNL A   1      29.880  26.995  23.149  1.00  0.00    -0.169 NA
ATOM     11  N   UNL A   1      30.580  28.118  22.847  1.00  0.00    -0.203 N 
ATOM     12  C   UNL A   1      31.926  27.832  22.775  1.00  0.00     0.147 A 
ATOM     13  Cl  UNL A   1      33.088  29.090  22.639  1.00  0.00    -0.061 Cl
BRANCH   9  14
ATOM     14  C   UNL A   1      30.221  24.638  23.476  1.00  0.00     0.056 C 
ATOM     15  C   UNL A   1      31.226  23.503  23.398  1.00  0.00     0.011 C 
ENDBRANCH   9  14
BRANCH  11  16
ATOM     16  C   UNL A   1      29.890  29.361  22.669  1.00  0.00     0.158 A 
ATOM     17  C   UNL A   1      29.665  30.187  23.755  1.00  0.00     0.069 A 
ATOM     18  N   UNL A   1      29.476  29.682  21.418  1.00  0.00    -0.217 NA
ATOM     19  C   UNL A   1      28.935  31.328  23.507  1.00  0.00     0.117 A 
ATOM     20  C   UNL A   1      28.753  30.803  21.303  1.00  0.00     0.224 A 
ATOM     21  N   UNL A   1      28.449  31.650  22.297  1.00  0.00    -0.245 NA
ENDBRANCH  11  16
ENDBRANCH   5   8
ENDBRANCH   3   4
ENDBRANCH   2   3
ENDBRANCH   1   2
BRANCH   1  22
ATOM     22  C   UNL A   1      32.007  28.581  27.491  1.00  0.00     0.116 C 
BRANCH  22  23
ATOM     23  N   UNL A   1      31.475  29.744  26.782  1.00  0.00    -0.352 N 
ATOM     24  C   UNL A   1      31.964  31.045  26.817  1.00  0.00     0.251 C 
ATOM     25  H   UNL A   1      30.683  29.588  26.218  1.00  0.00     0.163 HD
ATOM     26  O   UNL A   1      31.280  31.989  26.464  1.00  0.00    -0.269 OA
BRANCH  24  27
ATOM     27  C   UNL A   1      33.353  31.260  27.283  1.00  0.00     0.039 A 
ATOM     28  C   UNL A   1      33.718  32.370  28.050  1.00  0.00     0.014 A 
ATOM     29  C   UNL A   1      34.295  30.291  26.949  1.00  0.00     0.014 A 
ATOM     30  C   UNL A   1      35.023  32.447  28.540  1.00  0.00     0.010 A 
ATOM     31  C   UNL A   1      35.515  30.277  27.568  1.00  0.00     0.010 A 
ATOM     32  C   UNL A   1      35.910  31.383  28.305  1.00  0.00    -0.014 A 
BRANCH  32  33
ATOM     33  C   UNL A   1      37.232  31.334  28.917  1.00  0.00     0.031 A 
ATOM     34  C   UNL A   1      37.915  30.023  28.779  1.00  0.00     0.074 A 
ATOM     35  C   UNL A   1      37.884  32.440  29.342  1.00  0.00     0.049 A 
ATOM     36  N   UNL A   1      38.168  29.172  29.715  1.00  0.00    -0.248 NA
ATOM     37  C   UNL A   1      38.223  29.527  27.426  1.00  0.00     0.031 C 
ATOM     38  C   UNL A   1      37.473  33.845  29.222  1.00  0.00     0.029 A 
ATOM     39  N   UNL A   1      39.134  32.548  29.869  1.00  0.00    -0.354 N 
ATOM     40  C   UNL A   1      38.859  28.127  29.110  1.00  0.00     0.074 A 
ATOM     41  C   UNL A   1      38.690  28.304  27.690  1.00  0.00     0.031 C 
ATOM     42  C   UNL A   1      38.539  34.651  29.430  1.00  0.00     0.029 A 
ATOM     43  C   UNL A   1      39.660  33.838  29.863  1.00  0.00     0.049 A 
ATOM     44  H   UNL A   1      39.627  31.776  30.228  1.00  0.00     0.167 HD
ATOM     45  C   UNL A   1      39.732  27.360  29.821  1.00  0.00     0.031 A 
ATOM     46  C   UNL A   1      40.935  34.196  30.163  1.00  0.00     0.031 A 
ATOM     47  C   UNL A   1      39.594  27.591  31.238  1.00  0.00     0.049 A 
ATOM     48  C   UNL A   1      41.540  33.074  30.916  1.00  0.00     0.074 A 
ATOM     49  C   UNL A   1      38.570  27.460  32.155  1.00  0.00     0.029 A 
ATOM     50  N   UNL A   1      40.516  28.431  31.816  1.00  0.00    -0.354 N 
ATOM     51  N   UNL A   1      41.172  32.740  32.118  1.00  0.00    -0.248 NA
ATOM     52  C   UNL A   1      42.227  32.040  30.160  1.00  0.00     0.031 C 
ATOM     53  C   UNL A   1      38.698  28.595  33.010  1.00  0.00     0.029 A 
ATOM     54  C   UNL A   1      39.840  29.302  32.629  1.00  0.00     0.049 A 
ATOM     55  H   UNL A   1      41.490  28.412  31.671  1.00  0.00     0.167 HD
ATOM     56  C   UNL A   1      41.147  31.353  32.099  1.00  0.00     0.074 A 
ATOM     57  C   UNL A   1      41.905  30.978  30.905  1.00  0.00     0.031 C 
ATOM     58  C   UNL A   1      40.268  30.659  32.880  1.00  0.00     0.031 A 
BRANCH  45  59
ATOM     59  C   UNL A   1      40.995  26.757  29.249  1.00  0.00    -0.014 A 
ATOM     60  C   UNL A   1      42.144  27.568  29.176  1.00  0.00     0.009 A 
ATOM     61  C   UNL A   1      41.029  25.552  28.524  1.00  0.00     0.009 A 
ATOM     62  C   UNL A   1      43.219  27.240  28.342  1.00  0.00     0.001 A 
ATOM     63  C   UNL A   1      42.119  25.200  27.724  1.00  0.00     0.001 A 
ATOM     64  C   UNL A   1      43.201  26.060  27.607  1.00  0.00     0.000 A 
ENDBRANCH  45  59
BRANCH  46  65
ATOM     65  C   UNL A   1      41.771  35.307  29.656  1.00  0.00    -0.014 A 
ATOM     66  C   UNL A   1      42.950  35.674  30.329  1.00  0.00     0.009 A 
ATOM     67  C   UNL A   1      41.586  35.798  28.352  1.00  0.00     0.009 A 
ATOM     68  C   UNL A   1      43.934  36.449  29.699  1.00  0.00     0.001 A 
ATOM     69  C   UNL A   1      42.569  36.575  27.724  1.00  0.00     0.001 A 
ATOM     70  C   UNL A   1      43.750  36.883  28.389  1.00  0.00     0.000 A 
ENDBRANCH  46  65
BRANCH  58  71
ATOM     71  C   UNL A   1      39.520  31.417  33.951  1.00  0.00    -0.014 A 
ATOM     72  C   UNL A   1      39.986  31.576  35.269  1.00  0.00     0.009 A 
ATOM     73  C   UNL A   1      38.357  32.102  33.573  1.00  0.00     0.009 A 
ATOM     74  C   UNL A   1      39.281  32.363  36.188  1.00  0.00     0.001 A 
ATOM     75  C   UNL A   1      37.667  32.907  34.481  1.00  0.00     0.001 A 
ATOM     76  C   UNL A   1      38.124  33.030  35.791  1.00  0.00     0.000 A 
ENDBRANCH  58  71
ENDBRANCH  32  33
ENDBRANCH  24  27
ENDBRANCH  22  23
ENDBRANCH   1  22
TORSDOF 13
ENDMDL
MODEL 3
REMARK VINA RESULT:     -10.9      3.684      7.507
REMARK SMILES CCc1nn(-c2ccncn2)c(Cl)c1C(=O)NCCCCNC(=O)c1ccc(-c2c3nc(c(-c4ccccc4)c4ccc([nH]4)c(-c4ccccc4)c4nc(c(-c5ccccc5)c5ccc2[nH]5)C=C4)C=C3)cc1
REMARK SMILES IDX 20 1 19 2 18 3 17 4 15 5 16 6 14 8 3 9 4 10 5 11 12 12 13 13
REMARK SMILES IDX 2 14 1 15 6 16 7 17 11 18 8 19 10 20 9 21 21 22 22 23 23 24
REMARK SMILES IDX 24 26 25 27 26 28 72 29 27 30 71 31 28 32 29 33 30 34 65 35
REMARK SMILES IDX 31 36 70 37 64 38 66 39 32 40 69 41 63 42 62 43 33 45 55 46
REMARK SMILES IDX 40 47 54 48 41 49 44 50 53 51 67 52 42 53 43 54 52 56 68 57
REMARK SMILES IDX 45 58 34 59 35 60 39 61 36 62 38 63 37 64 56 65 57 66 61 67
REMARK SMILES IDX 58 68 60 69 59 70 46 71 47 72 51 73 48 74 50 75 49 76
REMARK H PARENT 17 7 22 25 66 44 44 55
REMARK Flexibility Score: inf
ROOT
ATOM      1  C   UNL A   1      32.472  28.887  26.334  1.00  0.00     0.023 C 
ENDROOT
BRANCH   1   2
ATOM      2  C   UNL A   1      32.256  27.371  26.358  1.00  0.00     0.023 C 
BRANCH   2   3
ATOM      3  C   UNL A   1      30.826  26.834  26.412  1.00  0.00     0.116 C 
BRANCH   3   4
ATOM      4  N   UNL A   1      30.426  25.948  25.349  1.00  0.00    -0.352 N 
ATOM      5  C   UNL A   1      30.337  26.171  23.994  1.00  0.00     0.256 C 
ATOM      6  O   UNL A   1      30.071  25.178  23.313  1.00  0.00    -0.269 OA
ATOM      7  H   UNL A   1      30.176  25.041  25.637  1.00  0.00     0.163 HD
BRANCH   5   8
ATOM      8  C   UNL A   1      30.489  27.491  23.379  1.00  0.00     0.100 A 
ATOM      9  C   UNL A   1      31.565  28.196  22.740  1.00  0.00     0.077 A 
ATOM     10  N   UNL A   1      31.161  29.360  22.208  1.00  0.00    -0.169 NA
ATOM     11  N   UNL A   1      29.848  29.479  22.527  1.00  0.00    -0.203 N 
ATOM     12  C   UNL A   1      29.417  28.351  23.191  1.00  0.00     0.147 A 
ATOM     13  Cl  UNL A   1      27.749  28.105  23.520  1.00  0.00    -0.061 Cl
BRANCH   9  14
ATOM     14  C   UNL A   1      33.014  27.865  22.542  1.00  0.00     0.056 C 
ATOM     15  C   UNL A   1      33.983  28.972  22.918  1.00  0.00     0.011 C 
ENDBRANCH   9  14
BRANCH  11  16
ATOM     16  C   UNL A   1      29.128  30.659  22.150  1.00  0.00     0.158 A 
ATOM     17  C   UNL A   1      28.468  30.708  20.936  1.00  0.00     0.069 A 
ATOM     18  N   UNL A   1      29.124  31.702  23.017  1.00  0.00    -0.217 NA
ATOM     19  C   UNL A   1      27.861  31.903  20.623  1.00  0.00     0.117 A 
ATOM     20  C   UNL A   1      28.523  32.821  22.595  1.00  0.00     0.224 A 
ATOM     21  N   UNL A   1      27.890  32.982  21.424  1.00  0.00    -0.245 NA
ENDBRANCH  11  16
ENDBRANCH   5   8
ENDBRANCH   3   4
ENDBRANCH   2   3
ENDBRANCH   1   2
BRANCH   1  22
ATOM     22  C   UNL A   1      33.854  29.363  26.752  1.00  0.00     0.116 C 
BRANCH  22  23
ATOM     23  N   UNL A   1      34.000  30.815  26.847  1.00  0.00    -0.352 N 
ATOM     24  C   UNL A   1      34.889  31.519  27.652  1.00  0.00     0.251 C 
ATOM     25  H   UNL A   1      33.403  31.353  26.278  1.00  0.00     0.163 HD
ATOM     26  O   UNL A   1      34.719  32.698  27.903  1.00  0.00    -0.269 OA
BRANCH  24  27
ATOM     27  C   UNL A   1      36.065  30.800  28.192  1.00  0.00     0.039 A 
ATOM     28  C   UNL A   1      36.165  29.406  28.161  1.00  0.00     0.014 A 
ATOM     29  C   UNL A   1      37.098  31.571  28.717  1.00  0.00     0.014 A 
ATOM     30  C   UNL A   1      37.351  28.808  28.594  1.00  0.00     0.010 A 
ATOM     31  C   UNL A   1      38.316  31.004  28.975  1.00  0.00     0.010 A 
ATOM     32  C   UNL A   1      38.429  29.621  28.983  1.00  0.00    -0.014 A 
BRANCH  32  33
ATOM     33  C   UNL A   1      39.738  29.064  29.297  1.00  0.00     0.031 A 
ATOM     34  C   UNL A   1      39.998  28.911  30.751  1.00  0.00     0.074 A 
ATOM     35  C   UNL A   1      40.537  28.499  28.363  1.00  0.00     0.049 A 
ATOM     36  N   UNL A   1      40.837  29.580  31.468  1.00  0.00    -0.248 NA
ATOM     37  C   UNL A   1      39.127  28.017  31.534  1.00  0.00     0.031 C 
ATOM     38  C   UNL A   1      40.255  28.268  26.940  1.00  0.00     0.029 A 
ATOM     39  N   UNL A   1      41.743  27.891  28.523  1.00  0.00    -0.354 N 
ATOM     40  C   UNL A   1      40.756  29.049  32.752  1.00  0.00     0.074 A 
ATOM     41  C   UNL A   1      39.565  28.239  32.776  1.00  0.00     0.031 C 
ATOM     42  C   UNL A   1      41.136  27.369  26.442  1.00  0.00     0.029 A 
ATOM     43  C   UNL A   1      42.140  27.093  27.453  1.00  0.00     0.049 A 
ATOM     44  H   UNL A   1      42.294  28.007  29.330  1.00  0.00     0.167 HD
ATOM     45  C   UNL A   1      41.819  29.106  33.602  1.00  0.00     0.031 A 
ATOM     46  C   UNL A   1      43.201  26.245  27.421  1.00  0.00     0.031 A 
ATOM     47  C   UNL A   1      42.835  30.004  33.106  1.00  0.00     0.049 A 
ATOM     48  C   UNL A   1      44.107  26.636  28.524  1.00  0.00     0.074 A 
ATOM     49  C   UNL A   1      42.882  31.347  32.788  1.00  0.00     0.029 A 
ATOM     50  N   UNL A   1      43.909  29.426  32.473  1.00  0.00    -0.354 N 
ATOM     51  N   UNL A   1      44.781  27.749  28.534  1.00  0.00    -0.248 NA
ATOM     52  C   UNL A   1      43.909  26.011  29.821  1.00  0.00     0.031 C 
ATOM     53  C   UNL A   1      43.679  31.414  31.607  1.00  0.00     0.029 A 
ATOM     54  C   UNL A   1      44.150  30.131  31.324  1.00  0.00     0.049 A 
ATOM     55  H   UNL A   1      44.416  28.643  32.788  1.00  0.00     0.167 HD
ATOM     56  C   UNL A   1      44.679  28.203  29.841  1.00  0.00     0.074 A 
ATOM     57  C   UNL A   1      44.222  27.044  30.609  1.00  0.00     0.031 C 
ATOM     58  C   UNL A   1      44.685  29.540  30.119  1.00  0.00     0.031 A 
BRANCH  45  59
ATOM     59  C   UNL A   1      42.151  28.042  34.621  1.00  0.00    -0.014 A 
ATOM     60  C   UNL A   1      42.724  26.839  34.164  1.00  0.00     0.009 A 
ATOM     61  C   UNL A   1      41.669  28.045  35.943  1.00  0.00     0.009 A 
ATOM     62  C   UNL A   1      42.716  25.680  34.948  1.00  0.00     0.001 A 
ATOM     63  C   UNL A   1      41.700  26.901  36.745  1.00  0.00     0.001 A 
ATOM     64  C   UNL A   1      42.193  25.710  36.236  1.00  0.00     0.000 A 
ENDBRANCH  45  59
BRANCH  46  65
ATOM     65  C   UNL A   1      43.400  24.973  26.690  1.00  0.00    -0.014 A 
ATOM     66  C   UNL A   1      42.687  23.820  27.065  1.00  0.00     0.009 A 
ATOM     67  C   UNL A   1      44.043  24.964  25.441  1.00  0.00     0.009 A 
ATOM     68  C   UNL A   1      42.570  22.725  26.197  1.00  0.00     0.001 A 
ATOM     69  C   UNL A   1      43.928  23.868  24.575  1.00  0.00     0.001 A 
ATOM     70  C   UNL A   1      43.175  22.759  24.944  1.00  0.00     0.000 A 
ENDBRANCH  46  65
BRANCH  58  71
ATOM     71  C   UNL A   1      45.073  30.493  29.013  1.00  0.00    -0.014 A 
ATOM     72  C   UNL A   1      44.160  31.037  28.091  1.00  0.00     0.009 A 
ATOM     73  C   UNL A   1      46.396  30.953  28.984  1.00  0.00     0.009 A 
ATOM     74  C   UNL A   1      44.575  31.980  27.144  1.00  0.00     0.001 A 
ATOM     75  C   UNL A   1      46.806  31.912  28.056  1.00  0.00     0.001 A 
ATOM     76  C   UNL A   1      45.898  32.418  27.129  1.00  0.00     0.000 A 
ENDBRANCH  58  71
ENDBRANCH  32  33
ENDBRANCH  24  27
ENDBRANCH  22  23
ENDBRANCH   1  22
TORSDOF 13
ENDMDL
