MODEL 1
REMARK VINA RESULT:     -12.1      0.000      0.000
REMARK SMILES CSc1ccc(/C=C2\C(C)=C(CC(=O)NCCCCNC(=O)c3ccc(-c4c5nc(c(-c6ccccc6)c6ccc([nH]6)c(-c6ccccc6)c6nc(c(-c7ccccc7)c7ccc4[nH]7)C=C6)C=C5)cc3)c3cc(F)ccc32)cc1
REMARK SMILES IDX 17 1 16 2 15 3 13 4 14 5 12 7 11 8 7 9 8 10 9 11 77 12 10 13
REMARK SMILES IDX 71 14 76 15 72 16 75 17 73 18 74 19 6 20 3 21 4 22 79 23
REMARK SMILES IDX 5 24 78 25 2 26 1 27 18 28 19 29 20 30 21 31 22 33 23 34
REMARK SMILES IDX 24 35 70 36 25 37 69 38 26 39 27 40 28 41 63 42 29 43 68 44
REMARK SMILES IDX 62 45 64 46 30 47 67 48 61 49 60 50 31 52 53 53 38 54 52 55
REMARK SMILES IDX 39 56 42 57 51 58 65 59 40 60 41 61 50 63 66 64 43 65 32 66
REMARK SMILES IDX 33 67 37 68 34 69 36 70 35 71 54 72 55 73 59 74 56 75 58 76
REMARK SMILES IDX 57 77 44 78 45 79 49 80 46 81 48 82 47 83
REMARK H PARENT 15 6 20 32 64 51 42 62
REMARK Flexibility Score: inf
ROOT
ATOM      1  C   UNL A   1      31.515  27.339  26.682  1.00  0.00     0.023 C 
ENDROOT
BRANCH   1   2
ATOM      2  C   UNL A   1      32.100  25.930  26.647  1.00  0.00     0.116 C 
BRANCH   2   3
ATOM      3  N   UNL A   1      31.059  24.924  26.629  1.00  0.00    -0.356 N 
ATOM      4  C   UNL A   1      31.211  23.568  26.558  1.00  0.00     0.224 C 
ATOM      5  O   UNL A   1      30.206  22.865  26.431  1.00  0.00    -0.275 OA
ATOM      6  H   UNL A   1      30.134  25.256  26.673  1.00  0.00     0.163 HD
BRANCH   4   7
ATOM      7  C   UNL A   1      32.601  22.964  26.653  1.00  0.00     0.136 C 
BRANCH   7   8
ATOM      8  C   UNL A   1      33.082  22.479  25.297  1.00  0.00    -0.027 C 
ATOM      9  C   UNL A   1      34.077  25.424  23.739  1.00  0.00     0.017 C 
ATOM     10  C   UNL A   1      34.046  24.140  24.131  1.00  0.00    -0.014 C 
ATOM     11  C   UNL A   1      32.897  23.214  24.161  1.00  0.00    -0.039 C 
ATOM     12  C   UNL A   1      35.172  23.316  24.614  1.00  0.00    -0.010 A 
ATOM     13  C   UNL A   1      32.817  22.452  22.821  1.00  0.00     0.045 C 
ATOM     14  C   UNL A   1      34.543  22.232  25.261  1.00  0.00    -0.011 A 
ATOM     15  C   UNL A   1      36.462  23.200  24.128  1.00  0.00     0.012 A 
ATOM     16  C   UNL A   1      35.170  21.012  25.437  1.00  0.00     0.048 A 
ATOM     17  C   UNL A   1      37.100  21.960  24.282  1.00  0.00     0.040 A 
ATOM     18  C   UNL A   1      36.453  20.888  24.921  1.00  0.00     0.123 A 
ATOM     19  F   UNL A   1      37.045  19.687  24.937  1.00  0.00    -0.207 F 
BRANCH   9  20
ATOM     20  C   UNL A   1      33.088  26.190  22.927  1.00  0.00    -0.025 A 
ATOM     21  C   UNL A   1      31.068  28.122  22.873  1.00  0.00     0.007 A 
ATOM     22  C   UNL A   1      32.360  28.456  22.483  1.00  0.00     0.015 A 
ATOM     23  C   UNL A   1      30.733  26.773  23.010  1.00  0.00     0.015 A 
ATOM     24  C   UNL A   1      33.351  27.476  22.452  1.00  0.00     0.009 A 
ATOM     25  C   UNL A   1      31.745  25.804  23.028  1.00  0.00     0.009 A 
BRANCH  21  26
ATOM     26  S   UNL A   1      30.043  29.427  23.529  1.00  0.00    -0.130 SA
ATOM     27  C   UNL A   1      28.875  29.687  22.187  1.00  0.00     0.091 C 
ENDBRANCH  21  26
ENDBRANCH   9  20
ENDBRANCH   7   8
ENDBRANCH   4   7
ENDBRANCH   2   3
ENDBRANCH   1   2
BRANCH   1  28
ATOM     28  C   UNL A   1      32.450  28.473  26.298  1.00  0.00     0.023 C 
BRANCH  28  29
ATOM     29  C   UNL A   1      33.515  28.781  27.325  1.00  0.00     0.116 C 
BRANCH  29  30
ATOM     30  N   UNL A   1      33.523  30.171  27.756  1.00  0.00    -0.352 N 
ATOM     31  C   UNL A   1      34.573  30.873  28.300  1.00  0.00     0.251 C 
ATOM     32  H   UNL A   1      32.678  30.664  27.648  1.00  0.00     0.163 HD
ATOM     33  O   UNL A   1      34.438  32.022  28.681  1.00  0.00    -0.269 OA
BRANCH  31  34
ATOM     34  C   UNL A   1      35.857  30.164  28.460  1.00  0.00     0.039 A 
ATOM     35  C   UNL A   1      36.768  30.193  27.405  1.00  0.00     0.014 A 
ATOM     36  C   UNL A   1      36.192  29.591  29.689  1.00  0.00     0.014 A 
ATOM     37  C   UNL A   1      38.056  29.701  27.607  1.00  0.00     0.010 A 
ATOM     38  C   UNL A   1      37.498  29.184  29.914  1.00  0.00     0.010 A 
ATOM     39  C   UNL A   1      38.439  29.230  28.874  1.00  0.00    -0.014 A 
BRANCH  39  40
ATOM     40  C   UNL A   1      39.818  28.759  29.130  1.00  0.00     0.031 A 
ATOM     41  C   UNL A   1      40.813  29.687  29.766  1.00  0.00     0.074 A 
ATOM     42  C   UNL A   1      40.190  27.528  28.726  1.00  0.00     0.049 A 
ATOM     43  N   UNL A   1      42.080  29.490  30.016  1.00  0.00    -0.248 NA
ATOM     44  C   UNL A   1      40.325  31.025  30.143  1.00  0.00     0.031 C 
ATOM     45  C   UNL A   1      39.329  26.557  28.046  1.00  0.00     0.029 A 
ATOM     46  N   UNL A   1      41.398  26.887  28.825  1.00  0.00    -0.354 N 
ATOM     47  C   UNL A   1      42.545  30.684  30.554  1.00  0.00     0.074 A 
ATOM     48  C   UNL A   1      41.439  31.615  30.549  1.00  0.00     0.031 C 
ATOM     49  C   UNL A   1      40.029  25.436  27.812  1.00  0.00     0.029 A 
ATOM     50  C   UNL A   1      41.394  25.619  28.295  1.00  0.00     0.049 A 
ATOM     51  H   UNL A   1      42.194  27.296  29.237  1.00  0.00     0.167 HD
ATOM     52  C   UNL A   1      43.777  30.972  31.029  1.00  0.00     0.031 A 
ATOM     53  C   UNL A   1      42.381  24.710  28.209  1.00  0.00     0.031 A 
ATOM     54  C   UNL A   1      44.866  30.034  31.063  1.00  0.00     0.049 A 
ATOM     55  C   UNL A   1      43.735  25.048  28.769  1.00  0.00     0.074 A 
ATOM     56  C   UNL A   1      46.132  30.204  31.592  1.00  0.00     0.029 A 
ATOM     57  N   UNL A   1      44.811  28.749  30.549  1.00  0.00    -0.354 N 
ATOM     58  N   UNL A   1      44.137  26.154  29.346  1.00  0.00    -0.248 NA
ATOM     59  C   UNL A   1      44.767  24.006  28.676  1.00  0.00     0.031 C 
ATOM     60  C   UNL A   1      46.858  29.031  31.364  1.00  0.00     0.029 A 
ATOM     61  C   UNL A   1      46.028  28.118  30.733  1.00  0.00     0.049 A 
ATOM     62  H   UNL A   1      44.024  28.345  30.117  1.00  0.00     0.167 HD
ATOM     63  C   UNL A   1      45.459  25.932  29.709  1.00  0.00     0.074 A 
ATOM     64  C   UNL A   1      45.785  24.581  29.301  1.00  0.00     0.031 C 
ATOM     65  C   UNL A   1      46.327  26.771  30.324  1.00  0.00     0.031 A 
BRANCH  52  66
ATOM     66  C   UNL A   1      44.009  32.358  31.556  1.00  0.00    -0.014 A 
ATOM     67  C   UNL A   1      43.849  32.652  32.920  1.00  0.00     0.009 A 
ATOM     68  C   UNL A   1      44.426  33.376  30.685  1.00  0.00     0.009 A 
ATOM     69  C   UNL A   1      44.072  33.946  33.395  1.00  0.00     0.001 A 
ATOM     70  C   UNL A   1      44.673  34.662  31.167  1.00  0.00     0.001 A 
ATOM     71  C   UNL A   1      44.489  34.947  32.519  1.00  0.00     0.000 A 
ENDBRANCH  52  66
BRANCH  53  72
ATOM     72  C   UNL A   1      42.128  23.385  27.588  1.00  0.00    -0.014 A 
ATOM     73  C   UNL A   1      41.550  22.348  28.335  1.00  0.00     0.009 A 
ATOM     74  C   UNL A   1      42.479  23.144  26.250  1.00  0.00     0.009 A 
ATOM     75  C   UNL A   1      41.356  21.088  27.765  1.00  0.00     0.001 A 
ATOM     76  C   UNL A   1      42.259  21.891  25.675  1.00  0.00     0.001 A 
ATOM     77  C   UNL A   1      41.708  20.861  26.435  1.00  0.00     0.000 A 
ENDBRANCH  53  72
BRANCH  65  78
ATOM     78  C   UNL A   1      47.697  26.239  30.625  1.00  0.00    -0.014 A 
ATOM     79  C   UNL A   1      48.708  26.249  29.652  1.00  0.00     0.009 A 
ATOM     80  C   UNL A   1      47.990  25.765  31.912  1.00  0.00     0.009 A 
ATOM     81  C   UNL A   1      49.981  25.766  29.957  1.00  0.00     0.001 A 
ATOM     82  C   UNL A   1      49.270  25.306  32.222  1.00  0.00     0.001 A 
ATOM     83  C   UNL A   1      50.263  25.299  31.241  1.00  0.00     0.000 A 
ENDBRANCH  65  78
ENDBRANCH  39  40
ENDBRANCH  31  34
ENDBRANCH  29  30
ENDBRANCH  28  29
ENDBRANCH   1  28
TORSDOF 14
ENDMDL
MODEL 2
REMARK VINA RESULT:     -11.9      3.770      6.025
REMARK SMILES CSc1ccc(/C=C2\C(C)=C(CC(=O)NCCCCNC(=O)c3ccc(-c4c5nc(c(-c6ccccc6)c6ccc([nH]6)c(-c6ccccc6)c6nc(c(-c7ccccc7)c7ccc4[nH]7)C=C6)C=C5)cc3)c3cc(F)ccc32)cc1
REMARK SMILES IDX 17 1 16 2 15 3 13 4 14 5 12 7 11 8 7 9 8 10 9 11 77 12 10 13
REMARK SMILES IDX 71 14 76 15 72 16 75 17 73 18 74 19 6 20 3 21 4 22 79 23
REMARK SMILES IDX 5 24 78 25 2 26 1 27 18 28 19 29 20 30 21 31 22 33 23 34
REMARK SMILES IDX 24 35 70 36 25 37 69 38 26 39 27 40 28 41 63 42 29 43 68 44
REMARK SMILES IDX 62 45 64 46 30 47 67 48 61 49 60 50 31 52 53 53 38 54 52 55
REMARK SMILES IDX 39 56 42 57 51 58 65 59 40 60 41 61 50 63 66 64 43 65 32 66
REMARK SMILES IDX 33 67 37 68 34 69 36 70 35 71 54 72 55 73 59 74 56 75 58 76
REMARK SMILES IDX 57 77 44 78 45 79 49 80 46 81 48 82 47 83
REMARK H PARENT 15 6 20 32 64 51 42 62
REMARK Flexibility Score: inf
ROOT
ATOM      1  C   UNL A   1      31.847  30.487  26.890  1.00  0.00     0.023 C 
ENDROOT
BRANCH   1   2
ATOM      2  C   UNL A   1      33.276  29.954  26.904  1.00  0.00     0.116 C 
BRANCH   2   3
ATOM      3  N   UNL A   1      33.778  29.744  25.562  1.00  0.00    -0.356 N 
ATOM      4  C   UNL A   1      33.870  28.563  24.881  1.00  0.00     0.224 C 
ATOM      5  O   UNL A   1      34.437  28.553  23.787  1.00  0.00    -0.275 OA
ATOM      6  H   UNL A   1      34.088  30.547  25.084  1.00  0.00     0.163 HD
BRANCH   4   7
ATOM      7  C   UNL A   1      33.265  27.305  25.479  1.00  0.00     0.136 C 
BRANCH   7   8
ATOM      8  C   UNL A   1      32.477  26.528  24.440  1.00  0.00    -0.027 C 
ATOM      9  C   UNL A   1      31.002  24.007  26.326  1.00  0.00     0.017 C 
ATOM     10  C   UNL A   1      31.183  24.963  25.400  1.00  0.00    -0.014 C 
ATOM     11  C   UNL A   1      32.338  25.171  24.506  1.00  0.00    -0.039 C 
ATOM     12  C   UNL A   1      30.250  26.043  25.024  1.00  0.00    -0.010 A 
ATOM     13  C   UNL A   1      32.107  24.410  23.183  1.00  0.00     0.045 C 
ATOM     14  C   UNL A   1      31.065  26.970  24.342  1.00  0.00    -0.011 A 
ATOM     15  C   UNL A   1      28.884  26.004  24.804  1.00  0.00     0.012 A 
ATOM     16  C   UNL A   1      30.553  27.871  23.427  1.00  0.00     0.048 A 
ATOM     17  C   UNL A   1      28.357  26.899  23.862  1.00  0.00     0.040 A 
ATOM     18  C   UNL A   1      29.187  27.808  23.184  1.00  0.00     0.123 A 
ATOM     19  F   UNL A   1      28.667  28.558  22.204  1.00  0.00    -0.207 F 
BRANCH   9  20
ATOM     20  C   UNL A   1      31.722  22.712  26.503  1.00  0.00    -0.025 A 
ATOM     21  C   UNL A   1      33.890  21.100  25.787  1.00  0.00     0.007 A 
ATOM     22  C   UNL A   1      33.926  21.827  26.972  1.00  0.00     0.015 A 
ATOM     23  C   UNL A   1      32.672  20.959  25.120  1.00  0.00     0.015 A 
ATOM     24  C   UNL A   1      32.819  22.582  27.357  1.00  0.00     0.009 A 
ATOM     25  C   UNL A   1      31.582  21.760  25.485  1.00  0.00     0.009 A 
BRANCH  21  26
ATOM     26  S   UNL A   1      35.450  20.717  25.009  1.00  0.00    -0.130 SA
ATOM     27  C   UNL A   1      36.542  21.932  25.759  1.00  0.00     0.091 C 
ENDBRANCH  21  26
ENDBRANCH   9  20
ENDBRANCH   7   8
ENDBRANCH   4   7
ENDBRANCH   2   3
ENDBRANCH   1   2
BRANCH   1  28
ATOM     28  C   UNL A   1      31.681  31.984  26.689  1.00  0.00     0.023 C 
BRANCH  28  29
ATOM     29  C   UNL A   1      32.796  32.820  27.271  1.00  0.00     0.116 C 
BRANCH  29  30
ATOM     30  N   UNL A   1      32.387  34.172  27.622  1.00  0.00    -0.352 N 
ATOM     31  C   UNL A   1      32.972  35.012  28.542  1.00  0.00     0.251 C 
ATOM     32  H   UNL A   1      31.600  34.525  27.148  1.00  0.00     0.163 HD
ATOM     33  O   UNL A   1      32.498  36.105  28.793  1.00  0.00    -0.269 OA
BRANCH  31  34
ATOM     34  C   UNL A   1      34.162  34.515  29.258  1.00  0.00     0.039 A 
ATOM     35  C   UNL A   1      33.980  33.865  30.478  1.00  0.00     0.014 A 
ATOM     36  C   UNL A   1      35.421  34.587  28.658  1.00  0.00     0.014 A 
ATOM     37  C   UNL A   1      35.064  33.219  31.070  1.00  0.00     0.010 A 
ATOM     38  C   UNL A   1      36.476  33.871  29.204  1.00  0.00     0.010 A 
ATOM     39  C   UNL A   1      36.307  33.186  30.418  1.00  0.00    -0.014 A 
BRANCH  39  40
ATOM     40  C   UNL A   1      37.457  32.456  30.997  1.00  0.00     0.031 A 
ATOM     41  C   UNL A   1      38.069  32.939  32.281  1.00  0.00     0.074 A 
ATOM     42  C   UNL A   1      37.988  31.411  30.334  1.00  0.00     0.049 A 
ATOM     43  N   UNL A   1      39.115  32.481  32.918  1.00  0.00    -0.248 NA
ATOM     44  C   UNL A   1      37.441  34.111  32.917  1.00  0.00     0.031 C 
ATOM     45  C   UNL A   1      37.516  30.885  29.051  1.00  0.00     0.029 A 
ATOM     46  N   UNL A   1      39.053  30.607  30.650  1.00  0.00    -0.354 N 
ATOM     47  C   UNL A   1      39.284  33.322  34.010  1.00  0.00     0.074 A 
ATOM     48  C   UNL A   1      38.267  34.345  33.926  1.00  0.00     0.031 C 
ATOM     49  C   UNL A   1      38.271  29.831  28.702  1.00  0.00     0.029 A 
ATOM     50  C   UNL A   1      39.299  29.627  29.718  1.00  0.00     0.049 A 
ATOM     51  H   UNL A   1      39.591  30.720  31.467  1.00  0.00     0.167 HD
ATOM     52  C   UNL A   1      40.193  33.237  35.007  1.00  0.00     0.031 A 
ATOM     53  C   UNL A   1      40.247  28.674  29.689  1.00  0.00     0.031 A 
ATOM     54  C   UNL A   1      41.183  32.199  35.107  1.00  0.00     0.049 A 
ATOM     55  C   UNL A   1      41.229  28.586  30.823  1.00  0.00     0.074 A 
ATOM     56  C   UNL A   1      42.102  31.980  36.117  1.00  0.00     0.029 A 
ATOM     57  N   UNL A   1      41.376  31.206  34.161  1.00  0.00    -0.354 N 
ATOM     58  N   UNL A   1      41.327  29.341  31.891  1.00  0.00    -0.248 NA
ATOM     59  C   UNL A   1      42.224  27.507  30.755  1.00  0.00     0.031 C 
ATOM     60  C   UNL A   1      42.879  30.873  35.763  1.00  0.00     0.029 A 
ATOM     61  C   UNL A   1      42.413  30.379  34.555  1.00  0.00     0.049 A 
ATOM     62  H   UNL A   1      40.854  31.104  33.333  1.00  0.00     0.167 HD
ATOM     63  C   UNL A   1      42.374  28.812  32.633  1.00  0.00     0.074 A 
ATOM     64  C   UNL A   1      42.870  27.664  31.902  1.00  0.00     0.031 C 
ATOM     65  C   UNL A   1      42.883  29.238  33.814  1.00  0.00     0.031 A 
BRANCH  52  66
ATOM     66  C   UNL A   1      40.153  34.292  36.073  1.00  0.00    -0.014 A 
ATOM     67  C   UNL A   1      40.888  35.482  35.945  1.00  0.00     0.009 A 
ATOM     68  C   UNL A   1      39.344  34.111  37.205  1.00  0.00     0.009 A 
ATOM     69  C   UNL A   1      40.837  36.456  36.945  1.00  0.00     0.001 A 
ATOM     70  C   UNL A   1      39.275  35.097  38.190  1.00  0.00     0.001 A 
ATOM     71  C   UNL A   1      40.026  36.264  38.063  1.00  0.00     0.000 A 
ENDBRANCH  52  66
BRANCH  53  72
ATOM     72  C   UNL A   1      40.307  27.711  28.560  1.00  0.00    -0.014 A 
ATOM     73  C   UNL A   1      39.632  26.484  28.635  1.00  0.00     0.009 A 
ATOM     74  C   UNL A   1      41.053  28.006  27.408  1.00  0.00     0.009 A 
ATOM     75  C   UNL A   1      39.728  25.558  27.593  1.00  0.00     0.001 A 
ATOM     76  C   UNL A   1      41.126  27.090  26.357  1.00  0.00     0.001 A 
ATOM     77  C   UNL A   1      40.472  25.862  26.454  1.00  0.00     0.000 A 
ENDBRANCH  53  72
BRANCH  65  78
ATOM     78  C   UNL A   1      44.007  28.439  34.404  1.00  0.00    -0.014 A 
ATOM     79  C   UNL A   1      45.345  28.766  34.142  1.00  0.00     0.009 A 
ATOM     80  C   UNL A   1      43.720  27.373  35.271  1.00  0.00     0.009 A 
ATOM     81  C   UNL A   1      46.376  28.020  34.714  1.00  0.00     0.001 A 
ATOM     82  C   UNL A   1      44.753  26.645  35.862  1.00  0.00     0.001 A 
ATOM     83  C   UNL A   1      46.080  26.964  35.577  1.00  0.00     0.000 A 
ENDBRANCH  65  78
ENDBRANCH  39  40
ENDBRANCH  31  34
ENDBRANCH  29  30
ENDBRANCH  28  29
ENDBRANCH   1  28
TORSDOF 14
ENDMDL
MODEL 3
REMARK VINA RESULT:     -11.7      2.469      7.126
REMARK SMILES CSc1ccc(/C=C2\C(C)=C(CC(=O)NCCCCNC(=O)c3ccc(-c4c5nc(c(-c6ccccc6)c6ccc([nH]6)c(-c6ccccc6)c6nc(c(-c7ccccc7)c7ccc4[nH]7)C=C6)C=C5)cc3)c3cc(F)ccc32)cc1
REMARK SMILES IDX 17 1 16 2 15 3 13 4 14 5 12 7 11 8 7 9 8 10 9 11 77 12 10 13
REMARK SMILES IDX 71 14 76 15 72 16 75 17 73 18 74 19 6 20 3 21 4 22 79 23
REMARK SMILES IDX 5 24 78 25 2 26 1 27 18 28 19 29 20 30 21 31 22 33 23 34
REMARK SMILES IDX 24 35 70 36 25 37 69 38 26 39 27 40 28 41 63 42 29 43 68 44
REMARK SMILES IDX 62 45 64 46 30 47 67 48 61 49 60 50 31 52 53 53 38 54 52 55
REMARK SMILES IDX 39 56 42 57 51 58 65 59 40 60 41 61 50 63 66 64 43 65 32 66
REMARK SMILES IDX 33 67 37 68 34 69 36 70 35 71 54 72 55 73 59 74 56 75 58 76
REMARK SMILES IDX 57 77 44 78 45 79 49 80 46 81 48 82 47 83
REMARK H PARENT 15 6 20 32 64 51 42 62
REMARK Flexibility Score: inf
ROOT
ATOM      1  C   UNL A   1      37.340  21.357  24.471  1.00  0.00     0.023 C 
ENDROOT
BRANCH   1   2
ATOM      2  C   UNL A   1      37.326  22.550  25.422  1.00  0.00     0.116 C 
BRANCH   2   3
ATOM      3  N   UNL A   1      36.358  22.372  26.483  1.00  0.00    -0.356 N 
ATOM      4  C   UNL A   1      35.174  23.033  26.652  1.00  0.00     0.224 C 
ATOM      5  O   UNL A   1      34.528  22.837  27.683  1.00  0.00    -0.275 OA
ATOM      6  H   UNL A   1      36.578  21.694  27.162  1.00  0.00     0.163 HD
BRANCH   4   7
ATOM      7  C   UNL A   1      34.680  23.973  25.566  1.00  0.00     0.136 C 
BRANCH   7   8
ATOM      8  C   UNL A   1      33.251  23.650  25.169  1.00  0.00    -0.027 C 
ATOM      9  C   UNL A   1      32.963  25.161  22.051  1.00  0.00     0.017 C 
ATOM     10  C   UNL A   1      32.830  24.277  23.054  1.00  0.00    -0.014 C 
ATOM     11  C   UNL A   1      32.481  24.532  24.465  1.00  0.00    -0.039 C 
ATOM     12  C   UNL A   1      32.979  22.810  22.989  1.00  0.00    -0.010 A 
ATOM     13  C   UNL A   1      30.950  24.443  24.639  1.00  0.00     0.045 C 
ATOM     14  C   UNL A   1      33.149  22.428  24.336  1.00  0.00    -0.011 A 
ATOM     15  C   UNL A   1      32.509  21.908  22.050  1.00  0.00     0.012 A 
ATOM     16  C   UNL A   1      32.853  21.155  24.786  1.00  0.00     0.048 A 
ATOM     17  C   UNL A   1      32.186  20.620  22.500  1.00  0.00     0.040 A 
ATOM     18  C   UNL A   1      32.352  20.261  23.849  1.00  0.00     0.123 A 
ATOM     19  F   UNL A   1      31.915  19.065  24.263  1.00  0.00    -0.207 F 
BRANCH   9  20
ATOM     20  C   UNL A   1      32.490  26.573  21.965  1.00  0.00    -0.025 A 
ATOM     21  C   UNL A   1      31.521  28.824  23.311  1.00  0.00     0.007 A 
ATOM     22  C   UNL A   1      32.863  28.752  22.953  1.00  0.00     0.015 A 
ATOM     23  C   UNL A   1      30.625  27.914  22.748  1.00  0.00     0.015 A 
ATOM     24  C   UNL A   1      33.330  27.657  22.229  1.00  0.00     0.009 A 
ATOM     25  C   UNL A   1      31.110  26.791  22.065  1.00  0.00     0.009 A 
BRANCH  21  26
ATOM     26  S   UNL A   1      31.101  29.818  24.733  1.00  0.00    -0.130 SA
ATOM     27  C   UNL A   1      32.650  29.829  25.644  1.00  0.00     0.091 C 
ENDBRANCH  21  26
ENDBRANCH   9  20
ENDBRANCH   7   8
ENDBRANCH   4   7
ENDBRANCH   2   3
ENDBRANCH   1   2
BRANCH   1  28
ATOM     28  C   UNL A   1      38.034  20.100  24.967  1.00  0.00     0.023 C 
BRANCH  28  29
ATOM     29  C   UNL A   1      39.261  20.356  25.811  1.00  0.00     0.116 C 
BRANCH  29  30
ATOM     30  N   UNL A   1      40.205  19.248  25.814  1.00  0.00    -0.352 N 
ATOM     31  C   UNL A   1      41.545  19.290  26.125  1.00  0.00     0.251 C 
ATOM     32  H   UNL A   1      39.843  18.367  25.563  1.00  0.00     0.163 HD
ATOM     33  O   UNL A   1      42.249  18.300  26.032  1.00  0.00    -0.269 OA
BRANCH  31  34
ATOM     34  C   UNL A   1      42.112  20.593  26.520  1.00  0.00     0.039 A 
ATOM     35  C   UNL A   1      42.481  21.488  25.517  1.00  0.00     0.014 A 
ATOM     36  C   UNL A   1      42.154  20.960  27.867  1.00  0.00     0.014 A 
ATOM     37  C   UNL A   1      42.832  22.791  25.866  1.00  0.00     0.010 A 
ATOM     38  C   UNL A   1      42.418  22.278  28.204  1.00  0.00     0.010 A 
ATOM     39  C   UNL A   1      42.764  23.203  27.207  1.00  0.00    -0.014 A 
BRANCH  39  40
ATOM     40  C   UNL A   1      43.074  24.597  27.595  1.00  0.00     0.031 A 
ATOM     41  C   UNL A   1      44.507  25.039  27.689  1.00  0.00     0.074 A 
ATOM     42  C   UNL A   1      42.075  25.436  27.929  1.00  0.00     0.049 A 
ATOM     43  N   UNL A   1      44.989  26.192  28.071  1.00  0.00    -0.248 NA
ATOM     44  C   UNL A   1      45.533  24.043  27.337  1.00  0.00     0.031 C 
ATOM     45  C   UNL A   1      40.647  25.104  27.932  1.00  0.00     0.029 A 
ATOM     46  N   UNL A   1      42.111  26.744  28.341  1.00  0.00    -0.354 N 
ATOM     47  C   UNL A   1      46.371  26.051  28.029  1.00  0.00     0.074 A 
ATOM     48  C   UNL A   1      46.651  24.690  27.633  1.00  0.00     0.031 C 
ATOM     49  C   UNL A   1      39.944  26.187  28.302  1.00  0.00     0.029 A 
ATOM     50  C   UNL A   1      40.870  27.277  28.592  1.00  0.00     0.049 A 
ATOM     51  H   UNL A   1      42.948  27.252  28.447  1.00  0.00     0.167 HD
ATOM     52  C   UNL A   1      47.321  26.980  28.277  1.00  0.00     0.031 A 
ATOM     53  C   UNL A   1      40.521  28.507  29.010  1.00  0.00     0.031 A 
ATOM     54  C   UNL A   1      47.040  28.342  28.638  1.00  0.00     0.049 A 
ATOM     55  C   UNL A   1      41.598  29.528  29.254  1.00  0.00     0.074 A 
ATOM     56  C   UNL A   1      47.931  29.381  28.838  1.00  0.00     0.029 A 
ATOM     57  N   UNL A   1      45.769  28.852  28.848  1.00  0.00    -0.354 N 
ATOM     58  N   UNL A   1      42.898  29.402  29.134  1.00  0.00    -0.248 NA
ATOM     59  C   UNL A   1      41.158  30.864  29.679  1.00  0.00     0.031 C 
ATOM     60  C   UNL A   1      47.200  30.514  29.207  1.00  0.00     0.029 A 
ATOM     61  C   UNL A   1      45.852  30.189  29.193  1.00  0.00     0.049 A 
ATOM     62  H   UNL A   1      44.933  28.340  28.764  1.00  0.00     0.167 HD
ATOM     63  C   UNL A   1      43.428  30.648  29.442  1.00  0.00     0.074 A 
ATOM     64  C   UNL A   1      42.309  31.518  29.739  1.00  0.00     0.031 C 
ATOM     65  C   UNL A   1      44.725  31.037  29.477  1.00  0.00     0.031 A 
BRANCH  52  66
ATOM     66  C   UNL A   1      48.755  26.551  28.160  1.00  0.00    -0.014 A 
ATOM     67  C   UNL A   1      49.436  26.626  26.934  1.00  0.00     0.009 A 
ATOM     68  C   UNL A   1      49.444  26.099  29.295  1.00  0.00     0.009 A 
ATOM     69  C   UNL A   1      50.771  26.226  26.842  1.00  0.00     0.001 A 
ATOM     70  C   UNL A   1      50.785  25.725  29.206  1.00  0.00     0.001 A 
ATOM     71  C   UNL A   1      51.445  25.782  27.979  1.00  0.00     0.000 A 
ENDBRANCH  52  66
BRANCH  53  72
ATOM     72  C   UNL A   1      39.091  28.854  29.207  1.00  0.00    -0.014 A 
ATOM     73  C   UNL A   1      38.331  29.370  28.146  1.00  0.00     0.009 A 
ATOM     74  C   UNL A   1      38.481  28.688  30.461  1.00  0.00     0.009 A 
ATOM     75  C   UNL A   1      36.999  29.741  28.344  1.00  0.00     0.001 A 
ATOM     76  C   UNL A   1      37.142  29.035  30.648  1.00  0.00     0.001 A 
ATOM     77  C   UNL A   1      36.405  29.571  29.594  1.00  0.00     0.000 A 
ENDBRANCH  53  72
BRANCH  65  78
ATOM     78  C   UNL A   1      44.999  32.473  29.814  1.00  0.00    -0.014 A 
ATOM     79  C   UNL A   1      45.029  33.459  28.816  1.00  0.00     0.009 A 
ATOM     80  C   UNL A   1      45.183  32.849  31.153  1.00  0.00     0.009 A 
ATOM     81  C   UNL A   1      45.269  34.792  29.152  1.00  0.00     0.001 A 
ATOM     82  C   UNL A   1      45.397  34.185  31.489  1.00  0.00     0.001 A 
ATOM     83  C   UNL A   1      45.448  35.155  30.488  1.00  0.00     0.000 A 
ENDBRANCH  65  78
ENDBRANCH  39  40
ENDBRANCH  31  34
ENDBRANCH  29  30
ENDBRANCH  28  29
ENDBRANCH   1  28
TORSDOF 14
ENDMDL
