MODEL 1
REMARK VINA RESULT:     -11.7      0.000      0.000
REMARK SMILES CC[C@@H]1CCC[C@@](Cc2ccccn2)(C(=O)NCCCCNC(=O)c2ccc(-c3c4nc(c(-c5ccccc5)c5ccc([nH]5)c(-c5ccccc5)c5nc(c(-c6ccccc6)c6ccc3[nH]6)C=C5)C=C4)cc2)C1
REMARK SMILES IDX 19 1 18 2 17 3 15 4 16 5 7 7 3 8 4 9 73 10 5 11 6 12 2 13
REMARK SMILES IDX 1 14 8 15 9 16 10 17 14 18 11 19 13 20 12 21 20 22 21 23
REMARK SMILES IDX 22 24 23 25 24 27 25 28 26 29 72 30 27 31 71 32 28 33 29 34
REMARK SMILES IDX 30 35 65 36 31 37 70 38 64 39 66 40 32 41 69 42 63 43 62 44
REMARK SMILES IDX 33 46 55 47 40 48 54 49 41 50 44 51 53 52 67 53 42 54 43 55
REMARK SMILES IDX 52 57 68 58 45 59 34 60 35 61 39 62 36 63 38 64 37 65 56 66
REMARK SMILES IDX 57 67 61 68 58 69 60 70 59 71 46 72 47 73 51 74 48 75 50 76
REMARK SMILES IDX 49 77
REMARK H PARENT 17 6 22 26 66 45 44 56
REMARK Flexibility Score: inf
ROOT
ATOM      1  C   UNL A   1      31.822  30.528  26.540  1.00  0.00     0.023 C 
ENDROOT
BRANCH   1   2
ATOM      2  C   UNL A   1      31.489  30.061  25.130  1.00  0.00     0.116 C 
BRANCH   2   3
ATOM      3  N   UNL A   1      32.641  29.623  24.371  1.00  0.00    -0.356 N 
ATOM      4  C   UNL A   1      32.868  28.499  23.637  1.00  0.00     0.226 C 
ATOM      5  O   UNL A   1      33.804  28.587  22.832  1.00  0.00    -0.274 OA
ATOM      6  H   UNL A   1      33.398  30.251  24.388  1.00  0.00     0.163 HD
BRANCH   4   7
ATOM      7  C   UNL A   1      32.019  27.202  23.725  1.00  0.00     0.055 C 
ATOM      8  C   UNL A   1      34.041  25.729  24.532  1.00  0.00    -0.010 C 
ATOM      9  C   UNL A   1      33.420  25.671  25.935  1.00  0.00     0.003 C 
ATOM     10  C   UNL A   1      32.973  25.979  23.446  1.00  0.00     0.021 C 
ATOM     11  C   UNL A   1      32.461  26.821  26.206  1.00  0.00     0.001 C 
ATOM     12  C   UNL A   1      31.399  26.915  25.110  1.00  0.00     0.017 C 
BRANCH   8  13
ATOM     13  C   UNL A   1      34.832  24.427  24.281  1.00  0.00     0.000 C 
ATOM     14  C   UNL A   1      34.138  23.438  23.357  1.00  0.00     0.004 C 
ENDBRANCH   8  13
BRANCH   7  15
ATOM     15  C   UNL A   1      30.972  27.163  22.569  1.00  0.00     0.073 C 
BRANCH  15  16
ATOM     16  C   UNL A   1      29.902  28.223  22.520  1.00  0.00     0.041 A 
ATOM     17  C   UNL A   1      28.669  28.013  23.140  1.00  0.00     0.024 A 
ATOM     18  N   UNL A   1      30.190  29.369  21.856  1.00  0.00    -0.261 NA
ATOM     19  C   UNL A   1      27.693  29.003  23.056  1.00  0.00     0.003 A 
ATOM     20  C   UNL A   1      29.228  30.320  21.805  1.00  0.00     0.111 A 
ATOM     21  C   UNL A   1      27.973  30.179  22.372  1.00  0.00     0.020 A 
ENDBRANCH  15  16
ENDBRANCH   7  15
ENDBRANCH   4   7
ENDBRANCH   2   3
ENDBRANCH   1   2
BRANCH   1  22
ATOM     22  C   UNL A   1      31.497  31.994  26.827  1.00  0.00     0.023 C 
BRANCH  22  23
ATOM     23  C   UNL A   1      32.663  32.864  27.293  1.00  0.00     0.116 C 
BRANCH  23  24
ATOM     24  N   UNL A   1      32.294  34.229  27.639  1.00  0.00    -0.352 N 
ATOM     25  C   UNL A   1      32.905  35.082  28.528  1.00  0.00     0.251 C 
ATOM     26  H   UNL A   1      31.501  34.588  27.179  1.00  0.00     0.163 HD
ATOM     27  O   UNL A   1      32.460  36.207  28.729  1.00  0.00    -0.269 OA
BRANCH  25  28
ATOM     28  C   UNL A   1      34.087  34.608  29.274  1.00  0.00     0.039 A 
ATOM     29  C   UNL A   1      33.900  34.007  30.521  1.00  0.00     0.014 A 
ATOM     30  C   UNL A   1      35.361  34.688  28.707  1.00  0.00     0.014 A 
ATOM     31  C   UNL A   1      34.983  33.404  31.163  1.00  0.00     0.010 A 
ATOM     32  C   UNL A   1      36.427  34.037  29.321  1.00  0.00     0.010 A 
ATOM     33  C   UNL A   1      36.244  33.375  30.545  1.00  0.00    -0.014 A 
BRANCH  33  34
ATOM     34  C   UNL A   1      37.375  32.624  31.144  1.00  0.00     0.031 A 
ATOM     35  C   UNL A   1      37.954  33.049  32.463  1.00  0.00     0.074 A 
ATOM     36  C   UNL A   1      37.933  31.606  30.460  1.00  0.00     0.049 A 
ATOM     37  N   UNL A   1      38.981  32.556  33.109  1.00  0.00    -0.248 NA
ATOM     38  C   UNL A   1      37.311  34.190  33.133  1.00  0.00     0.031 C 
ATOM     39  C   UNL A   1      37.494  31.120  29.149  1.00  0.00     0.029 A 
ATOM     40  N   UNL A   1      39.000  30.800  30.771  1.00  0.00    -0.354 N 
ATOM     41  C   UNL A   1      39.120  33.340  34.247  1.00  0.00     0.074 A 
ATOM     42  C   UNL A   1      38.096  34.361  34.186  1.00  0.00     0.031 C 
ATOM     43  C   UNL A   1      38.268  30.086  28.781  1.00  0.00     0.029 A 
ATOM     44  C   UNL A   1      39.279  29.859  29.809  1.00  0.00     0.049 A 
ATOM     45  H   UNL A   1      39.517  30.888  31.604  1.00  0.00     0.167 HD
ATOM     46  C   UNL A   1      40.009  33.212  35.260  1.00  0.00     0.031 A 
ATOM     47  C   UNL A   1      40.242  28.920  29.759  1.00  0.00     0.031 A 
ATOM     48  C   UNL A   1      41.015  32.187  35.334  1.00  0.00     0.049 A 
ATOM     49  C   UNL A   1      41.219  28.803  30.896  1.00  0.00     0.074 A 
ATOM     50  C   UNL A   1      41.914  31.935  36.355  1.00  0.00     0.029 A 
ATOM     51  N   UNL A   1      41.256  31.246  34.347  1.00  0.00    -0.354 N 
ATOM     52  N   UNL A   1      41.287  29.504  32.000  1.00  0.00    -0.248 NA
ATOM     53  C   UNL A   1      42.245  27.756  30.779  1.00  0.00     0.031 C 
ATOM     54  C   UNL A   1      42.728  30.866  35.967  1.00  0.00     0.029 A 
ATOM     55  C   UNL A   1      42.306  30.426  34.723  1.00  0.00     0.049 A 
ATOM     56  H   UNL A   1      40.756  31.172  33.502  1.00  0.00     0.167 HD
ATOM     57  C   UNL A   1      42.343  28.965  32.724  1.00  0.00     0.074 A 
ATOM     58  C   UNL A   1      42.878  27.872  31.938  1.00  0.00     0.031 C 
ATOM     59  C   UNL A   1      42.824  29.340  33.934  1.00  0.00     0.031 A 
BRANCH  46  60
ATOM     60  C   UNL A   1      39.935  34.216  36.374  1.00  0.00    -0.014 A 
ATOM     61  C   UNL A   1      40.567  35.466  36.268  1.00  0.00     0.009 A 
ATOM     62  C   UNL A   1      39.193  33.925  37.528  1.00  0.00     0.009 A 
ATOM     63  C   UNL A   1      40.483  36.390  37.311  1.00  0.00     0.001 A 
ATOM     64  C   UNL A   1      39.090  34.861  38.558  1.00  0.00     0.001 A 
ATOM     65  C   UNL A   1      39.741  36.088  38.452  1.00  0.00     0.000 A 
ENDBRANCH  46  60
BRANCH  47  66
ATOM     66  C   UNL A   1      40.325  27.995  28.600  1.00  0.00    -0.014 A 
ATOM     67  C   UNL A   1      39.680  26.749  28.643  1.00  0.00     0.009 A 
ATOM     68  C   UNL A   1      41.060  28.341  27.456  1.00  0.00     0.009 A 
ATOM     69  C   UNL A   1      39.794  25.856  27.575  1.00  0.00     0.001 A 
ATOM     70  C   UNL A   1      41.150  27.456  26.379  1.00  0.00     0.001 A 
ATOM     71  C   UNL A   1      40.525  26.211  26.443  1.00  0.00     0.000 A 
ENDBRANCH  47  66
BRANCH  59  72
ATOM     72  C   UNL A   1      43.962  28.541  34.498  1.00  0.00    -0.014 A 
ATOM     73  C   UNL A   1      45.296  28.917  34.276  1.00  0.00     0.009 A 
ATOM     74  C   UNL A   1      43.693  27.417  35.293  1.00  0.00     0.009 A 
ATOM     75  C   UNL A   1      46.340  28.165  34.818  1.00  0.00     0.001 A 
ATOM     76  C   UNL A   1      44.738  26.681  35.855  1.00  0.00     0.001 A 
ATOM     77  C   UNL A   1      46.059  27.051  35.610  1.00  0.00     0.000 A 
ENDBRANCH  59  72
ENDBRANCH  33  34
ENDBRANCH  25  28
ENDBRANCH  23  24
ENDBRANCH  22  23
ENDBRANCH   1  22
TORSDOF 14
ENDMDL
MODEL 2
REMARK VINA RESULT:     -11.6      5.909     11.044
REMARK SMILES CC[C@@H]1CCC[C@@](Cc2ccccn2)(C(=O)NCCCCNC(=O)c2ccc(-c3c4nc(c(-c5ccccc5)c5ccc([nH]5)c(-c5ccccc5)c5nc(c(-c6ccccc6)c6ccc3[nH]6)C=C5)C=C4)cc2)C1
REMARK SMILES IDX 19 1 18 2 17 3 15 4 16 5 7 7 3 8 4 9 73 10 5 11 6 12 2 13
REMARK SMILES IDX 1 14 8 15 9 16 10 17 14 18 11 19 13 20 12 21 20 22 21 23
REMARK SMILES IDX 22 24 23 25 24 27 25 28 26 29 72 30 27 31 71 32 28 33 29 34
REMARK SMILES IDX 30 35 65 36 31 37 70 38 64 39 66 40 32 41 69 42 63 43 62 44
REMARK SMILES IDX 33 46 55 47 40 48 54 49 41 50 44 51 53 52 67 53 42 54 43 55
REMARK SMILES IDX 52 57 68 58 45 59 34 60 35 61 39 62 36 63 38 64 37 65 56 66
REMARK SMILES IDX 57 67 61 68 58 69 60 70 59 71 46 72 47 73 51 74 48 75 50 76
REMARK SMILES IDX 49 77
REMARK H PARENT 17 6 22 26 66 45 44 56
REMARK Flexibility Score: inf
ROOT
ATOM      1  C   UNL A   1      37.246  20.832  24.883  1.00  0.00     0.023 C 
ENDROOT
BRANCH   1   2
ATOM      2  C   UNL A   1      35.788  20.436  25.071  1.00  0.00     0.116 C 
BRANCH   2   3
ATOM      3  N   UNL A   1      35.148  21.077  26.200  1.00  0.00    -0.356 N 
ATOM      4  C   UNL A   1      33.934  21.680  26.332  1.00  0.00     0.226 C 
ATOM      5  O   UNL A   1      33.546  21.809  27.499  1.00  0.00    -0.274 OA
ATOM      6  H   UNL A   1      35.688  21.078  27.023  1.00  0.00     0.163 HD
BRANCH   4   7
ATOM      7  C   UNL A   1      33.045  22.140  25.145  1.00  0.00     0.055 C 
ATOM      8  C   UNL A   1      33.128  24.673  25.843  1.00  0.00    -0.010 C 
ATOM      9  C   UNL A   1      34.051  24.956  24.648  1.00  0.00     0.003 C 
ATOM     10  C   UNL A   1      32.254  23.423  25.603  1.00  0.00     0.021 C 
ATOM     11  C   UNL A   1      34.790  23.717  24.165  1.00  0.00     0.001 C 
ATOM     12  C   UNL A   1      33.814  22.576  23.879  1.00  0.00     0.017 C 
BRANCH   8  13
ATOM     13  C   UNL A   1      32.279  25.930  26.127  1.00  0.00     0.000 C 
ATOM     14  C   UNL A   1      30.804  25.786  25.781  1.00  0.00     0.004 C 
ENDBRANCH   8  13
BRANCH   7  15
ATOM     15  C   UNL A   1      31.943  21.074  24.853  1.00  0.00     0.073 C 
BRANCH  15  16
ATOM     16  C   UNL A   1      32.359  19.648  24.604  1.00  0.00     0.041 A 
ATOM     17  C   UNL A   1      32.546  19.183  23.301  1.00  0.00     0.024 A 
ATOM     18  N   UNL A   1      32.536  18.852  25.687  1.00  0.00    -0.261 NA
ATOM     19  C   UNL A   1      32.907  17.851  23.104  1.00  0.00     0.003 A 
ATOM     20  C   UNL A   1      32.902  17.568  25.465  1.00  0.00     0.111 A 
ATOM     21  C   UNL A   1      33.085  17.024  24.206  1.00  0.00     0.020 A 
ENDBRANCH  15  16
ENDBRANCH   7  15
ENDBRANCH   4   7
ENDBRANCH   2   3
ENDBRANCH   1   2
BRANCH   1  22
ATOM     22  C   UNL A   1      38.243  19.676  24.966  1.00  0.00     0.023 C 
BRANCH  22  23
ATOM     23  C   UNL A   1      39.476  19.910  25.837  1.00  0.00     0.116 C 
BRANCH  23  24
ATOM     24  N   UNL A   1      40.450  18.829  25.802  1.00  0.00    -0.352 N 
ATOM     25  C   UNL A   1      41.802  18.887  26.046  1.00  0.00     0.251 C 
ATOM     26  H   UNL A   1      40.095  17.940  25.572  1.00  0.00     0.163 HD
ATOM     27  O   UNL A   1      42.502  17.883  25.958  1.00  0.00    -0.269 OA
BRANCH  25  28
ATOM     28  C   UNL A   1      42.413  20.189  26.376  1.00  0.00     0.039 A 
ATOM     29  C   UNL A   1      43.059  20.905  25.365  1.00  0.00     0.014 A 
ATOM     30  C   UNL A   1      42.277  20.730  27.656  1.00  0.00     0.014 A 
ATOM     31  C   UNL A   1      43.493  22.208  25.615  1.00  0.00     0.010 A 
ATOM     32  C   UNL A   1      42.659  22.050  27.887  1.00  0.00     0.010 A 
ATOM     33  C   UNL A   1      43.255  22.804  26.864  1.00  0.00    -0.014 A 
BRANCH  33  34
ATOM     34  C   UNL A   1      43.585  24.230  27.109  1.00  0.00     0.031 A 
ATOM     35  C   UNL A   1      44.993  24.723  26.939  1.00  0.00     0.074 A 
ATOM     36  C   UNL A   1      42.629  25.066  27.562  1.00  0.00     0.049 A 
ATOM     37  N   UNL A   1      45.483  25.916  27.169  1.00  0.00    -0.248 NA
ATOM     38  C   UNL A   1      45.987  23.744  26.473  1.00  0.00     0.031 C 
ATOM     39  C   UNL A   1      41.232  24.703  27.811  1.00  0.00     0.029 A 
ATOM     40  N   UNL A   1      42.693  26.394  27.904  1.00  0.00    -0.354 N 
ATOM     41  C   UNL A   1      46.841  25.824  26.897  1.00  0.00     0.074 A 
ATOM     42  C   UNL A   1      47.106  24.452  26.520  1.00  0.00     0.031 C 
ATOM     43  C   UNL A   1      40.565  25.788  28.241  1.00  0.00     0.029 A 
ATOM     44  C   UNL A   1      41.494  26.910  28.334  1.00  0.00     0.049 A 
ATOM     45  H   UNL A   1      43.519  26.925  27.847  1.00  0.00     0.167 HD
ATOM     46  C   UNL A   1      47.781  26.796  26.942  1.00  0.00     0.031 A 
ATOM     47  C   UNL A   1      41.178  28.148  28.757  1.00  0.00     0.031 A 
ATOM     48  C   UNL A   1      47.519  28.165  27.297  1.00  0.00     0.049 A 
ATOM     49  C   UNL A   1      42.243  29.208  28.800  1.00  0.00     0.074 A 
ATOM     50  C   UNL A   1      48.395  29.237  27.301  1.00  0.00     0.029 A 
ATOM     51  N   UNL A   1      46.290  28.650  27.712  1.00  0.00    -0.354 N 
ATOM     52  N   UNL A   1      43.506  29.122  28.466  1.00  0.00    -0.248 NA
ATOM     53  C   UNL A   1      41.831  30.539  29.271  1.00  0.00     0.031 C 
ATOM     54  C   UNL A   1      47.705  30.363  27.760  1.00  0.00     0.029 A 
ATOM     55  C   UNL A   1      46.389  30.001  27.999  1.00  0.00     0.049 A 
ATOM     56  H   UNL A   1      45.469  28.114  27.793  1.00  0.00     0.167 HD
ATOM     57  C   UNL A   1      44.034  30.392  28.657  1.00  0.00     0.074 A 
ATOM     58  C   UNL A   1      42.951  31.233  29.125  1.00  0.00     0.031 C 
ATOM     59  C   UNL A   1      45.303  30.825  28.459  1.00  0.00     0.031 A 
BRANCH  46  60
ATOM     60  C   UNL A   1      49.192  26.409  26.601  1.00  0.00    -0.014 A 
ATOM     61  C   UNL A   1      49.694  26.570  25.299  1.00  0.00     0.009 A 
ATOM     62  C   UNL A   1      50.040  25.913  27.601  1.00  0.00     0.009 A 
ATOM     63  C   UNL A   1      51.010  26.210  25.001  1.00  0.00     0.001 A 
ATOM     64  C   UNL A   1      51.363  25.577  27.305  1.00  0.00     0.001 A 
ATOM     65  C   UNL A   1      51.843  25.718  26.004  1.00  0.00     0.000 A 
ENDBRANCH  46  60
BRANCH  47  66
ATOM     66  C   UNL A   1      39.783  28.468  29.157  1.00  0.00    -0.014 A 
ATOM     67  C   UNL A   1      38.879  28.984  28.216  1.00  0.00     0.009 A 
ATOM     68  C   UNL A   1      39.354  28.278  30.480  1.00  0.00     0.009 A 
ATOM     69  C   UNL A   1      37.581  29.331  28.598  1.00  0.00     0.001 A 
ATOM     70  C   UNL A   1      38.048  28.602  30.852  1.00  0.00     0.001 A 
ATOM     71  C   UNL A   1      37.166  29.137  29.914  1.00  0.00     0.000 A 
ENDBRANCH  47  66
BRANCH  59  72
ATOM     72  C   UNL A   1      45.580  32.278  28.713  1.00  0.00    -0.014 A 
ATOM     73  C   UNL A   1      46.003  32.729  29.972  1.00  0.00     0.009 A 
ATOM     74  C   UNL A   1      45.451  33.202  27.664  1.00  0.00     0.009 A 
ATOM     75  C   UNL A   1      46.265  34.084  30.183  1.00  0.00     0.001 A 
ATOM     76  C   UNL A   1      45.738  34.552  27.872  1.00  0.00     0.001 A 
ATOM     77  C   UNL A   1      46.136  34.992  29.132  1.00  0.00     0.000 A 
ENDBRANCH  59  72
ENDBRANCH  33  34
ENDBRANCH  25  28
ENDBRANCH  23  24
ENDBRANCH  22  23
ENDBRANCH   1  22
TORSDOF 14
ENDMDL
MODEL 3
REMARK VINA RESULT:     -11.6      0.709      6.026
REMARK SMILES CC[C@@H]1CCC[C@@](Cc2ccccn2)(C(=O)NCCCCNC(=O)c2ccc(-c3c4nc(c(-c5ccccc5)c5ccc([nH]5)c(-c5ccccc5)c5nc(c(-c6ccccc6)c6ccc3[nH]6)C=C5)C=C4)cc2)C1
REMARK SMILES IDX 19 1 18 2 17 3 15 4 16 5 7 7 3 8 4 9 73 10 5 11 6 12 2 13
REMARK SMILES IDX 1 14 8 15 9 16 10 17 14 18 11 19 13 20 12 21 20 22 21 23
REMARK SMILES IDX 22 24 23 25 24 27 25 28 26 29 72 30 27 31 71 32 28 33 29 34
REMARK SMILES IDX 30 35 65 36 31 37 70 38 64 39 66 40 32 41 69 42 63 43 62 44
REMARK SMILES IDX 33 46 55 47 40 48 54 49 41 50 44 51 53 52 67 53 42 54 43 55
REMARK SMILES IDX 52 57 68 58 45 59 34 60 35 61 39 62 36 63 38 64 37 65 56 66
REMARK SMILES IDX 57 67 61 68 58 69 60 70 59 71 46 72 47 73 51 74 48 75 50 76
REMARK SMILES IDX 49 77
REMARK H PARENT 17 6 22 26 66 45 44 56
REMARK Flexibility Score: inf
ROOT
ATOM      1  C   UNL A   1      31.779  30.524  26.548  1.00  0.00     0.023 C 
ENDROOT
BRANCH   1   2
ATOM      2  C   UNL A   1      31.480  30.070  25.126  1.00  0.00     0.116 C 
BRANCH   2   3
ATOM      3  N   UNL A   1      32.648  29.631  24.393  1.00  0.00    -0.356 N 
ATOM      4  C   UNL A   1      32.879  28.524  23.635  1.00  0.00     0.226 C 
ATOM      5  O   UNL A   1      33.843  28.617  22.865  1.00  0.00    -0.274 OA
ATOM      6  H   UNL A   1      33.416  30.244  24.453  1.00  0.00     0.163 HD
BRANCH   4   7
ATOM      7  C   UNL A   1      32.005  27.242  23.658  1.00  0.00     0.055 C 
ATOM      8  C   UNL A   1      33.977  25.705  24.469  1.00  0.00    -0.010 C 
ATOM      9  C   UNL A   1      33.316  25.614  25.853  1.00  0.00     0.003 C 
ATOM     10  C   UNL A   1      32.943  26.011  23.364  1.00  0.00     0.021 C 
ATOM     11  C   UNL A   1      32.372  26.773  26.136  1.00  0.00     0.001 C 
ATOM     12  C   UNL A   1      31.342  26.923  25.016  1.00  0.00     0.017 C 
BRANCH   8  13
ATOM     13  C   UNL A   1      34.749  24.397  24.197  1.00  0.00     0.000 C 
ATOM     14  C   UNL A   1      34.064  23.453  23.220  1.00  0.00     0.004 C 
ENDBRANCH   8  13
BRANCH   7  15
ATOM     15  C   UNL A   1      30.989  27.261  22.473  1.00  0.00     0.073 C 
BRANCH  15  16
ATOM     16  C   UNL A   1      29.891  28.293  22.474  1.00  0.00     0.041 A 
ATOM     17  C   UNL A   1      28.723  28.083  23.208  1.00  0.00     0.024 A 
ATOM     18  N   UNL A   1      30.088  29.413  21.736  1.00  0.00    -0.261 NA
ATOM     19  C   UNL A   1      27.717  29.046  23.168  1.00  0.00     0.003 A 
ATOM     20  C   UNL A   1      29.100  30.338  21.729  1.00  0.00     0.111 A 
ATOM     21  C   UNL A   1      27.904  30.195  22.410  1.00  0.00     0.020 A 
ENDBRANCH  15  16
ENDBRANCH   7  15
ENDBRANCH   4   7
ENDBRANCH   2   3
ENDBRANCH   1   2
BRANCH   1  22
ATOM     22  C   UNL A   1      31.371  31.962  26.865  1.00  0.00     0.023 C 
BRANCH  22  23
ATOM     23  C   UNL A   1      32.460  33.021  26.712  1.00  0.00     0.116 C 
BRANCH  23  24
ATOM     24  N   UNL A   1      32.270  34.203  27.542  1.00  0.00    -0.352 N 
ATOM     25  C   UNL A   1      33.055  34.660  28.574  1.00  0.00     0.251 C 
ATOM     26  H   UNL A   1      31.474  34.746  27.337  1.00  0.00     0.163 HD
ATOM     27  O   UNL A   1      32.750  35.671  29.198  1.00  0.00    -0.269 OA
BRANCH  25  28
ATOM     28  C   UNL A   1      34.254  33.888  28.954  1.00  0.00     0.039 A 
ATOM     29  C   UNL A   1      35.513  34.460  28.758  1.00  0.00     0.014 A 
ATOM     30  C   UNL A   1      34.127  32.641  29.571  1.00  0.00     0.014 A 
ATOM     31  C   UNL A   1      36.645  33.818  29.263  1.00  0.00     0.010 A 
ATOM     32  C   UNL A   1      35.250  32.032  30.124  1.00  0.00     0.010 A 
ATOM     33  C   UNL A   1      36.516  32.623  29.989  1.00  0.00    -0.014 A 
BRANCH  33  34
ATOM     34  C   UNL A   1      37.687  31.996  30.651  1.00  0.00     0.031 A 
ATOM     35  C   UNL A   1      38.457  30.909  29.958  1.00  0.00     0.074 A 
ATOM     36  C   UNL A   1      38.009  32.351  31.910  1.00  0.00     0.049 A 
ATOM     37  N   UNL A   1      39.465  30.201  30.402  1.00  0.00    -0.248 NA
ATOM     38  C   UNL A   1      38.025  30.554  28.597  1.00  0.00     0.031 C 
ATOM     39  C   UNL A   1      37.315  33.363  32.712  1.00  0.00     0.029 A 
ATOM     40  N   UNL A   1      38.999  31.892  32.742  1.00  0.00    -0.354 N 
ATOM     41  C   UNL A   1      39.772  29.304  29.387  1.00  0.00     0.074 A 
ATOM     42  C   UNL A   1      38.822  29.533  28.319  1.00  0.00     0.031 C 
ATOM     43  C   UNL A   1      37.916  33.465  33.908  1.00  0.00     0.029 A 
ATOM     44  C   UNL A   1      39.013  32.503  33.973  1.00  0.00     0.049 A 
ATOM     45  H   UNL A   1      39.639  31.191  32.482  1.00  0.00     0.167 HD
ATOM     46  C   UNL A   1      40.764  28.385  29.341  1.00  0.00     0.031 A 
ATOM     47  C   UNL A   1      39.816  32.309  35.036  1.00  0.00     0.031 A 
ATOM     48  C   UNL A   1      41.722  28.168  30.391  1.00  0.00     0.049 A 
ATOM     49  C   UNL A   1      40.907  31.278  34.958  1.00  0.00     0.074 A 
ATOM     50  C   UNL A   1      42.806  27.308  30.405  1.00  0.00     0.029 A 
ATOM     51  N   UNL A   1      41.709  28.816  31.616  1.00  0.00    -0.354 N 
ATOM     52  N   UNL A   1      41.230  30.493  33.961  1.00  0.00    -0.248 NA
ATOM     53  C   UNL A   1      41.749  31.117  36.153  1.00  0.00     0.031 C 
ATOM     54  C   UNL A   1      43.425  27.405  31.655  1.00  0.00     0.029 A 
ATOM     55  C   UNL A   1      42.752  28.358  32.402  1.00  0.00     0.049 A 
ATOM     56  H   UNL A   1      41.055  29.500  31.886  1.00  0.00     0.167 HD
ATOM     57  C   UNL A   1      42.330  29.765  34.396  1.00  0.00     0.074 A 
ATOM     58  C   UNL A   1      42.626  30.211  35.742  1.00  0.00     0.031 C 
ATOM     59  C   UNL A   1      43.036  28.814  33.737  1.00  0.00     0.031 A 
BRANCH  46  60
ATOM     60  C   UNL A   1      40.859  27.534  28.106  1.00  0.00    -0.014 A 
ATOM     61  C   UNL A   1      41.617  27.946  26.998  1.00  0.00     0.009 A 
ATOM     62  C   UNL A   1      40.216  26.289  28.066  1.00  0.00     0.009 A 
ATOM     63  C   UNL A   1      41.700  27.141  25.861  1.00  0.00     0.001 A 
ATOM     64  C   UNL A   1      40.321  25.475  26.937  1.00  0.00     0.001 A 
ATOM     65  C   UNL A   1      41.056  25.905  25.833  1.00  0.00     0.000 A 
ENDBRANCH  46  60
BRANCH  47  66
ATOM     66  C   UNL A   1      39.637  33.122  36.266  1.00  0.00    -0.014 A 
ATOM     67  C   UNL A   1      38.807  32.664  37.301  1.00  0.00     0.009 A 
ATOM     68  C   UNL A   1      40.275  34.364  36.406  1.00  0.00     0.009 A 
ATOM     69  C   UNL A   1      38.598  33.445  38.440  1.00  0.00     0.001 A 
ATOM     70  C   UNL A   1      40.084  35.131  37.556  1.00  0.00     0.001 A 
ATOM     71  C   UNL A   1      39.239  34.677  38.568  1.00  0.00     0.000 A 
ENDBRANCH  47  66
BRANCH  59  72
ATOM     72  C   UNL A   1      44.216  28.219  34.448  1.00  0.00    -0.014 A 
ATOM     73  C   UNL A   1      44.088  27.059  35.226  1.00  0.00     0.009 A 
ATOM     74  C   UNL A   1      45.481  28.809  34.305  1.00  0.00     0.009 A 
ATOM     75  C   UNL A   1      45.201  26.516  35.871  1.00  0.00     0.001 A 
ATOM     76  C   UNL A   1      46.597  28.250  34.930  1.00  0.00     0.001 A 
ATOM     77  C   UNL A   1      46.454  27.111  35.719  1.00  0.00     0.000 A 
ENDBRANCH  59  72
ENDBRANCH  33  34
ENDBRANCH  25  28
ENDBRANCH  23  24
ENDBRANCH  22  23
ENDBRANCH   1  22
TORSDOF 14
ENDMDL
