MODEL 1
REMARK VINA RESULT:     -14.4      0.000      0.000
REMARK SMILES O=C(C[C@H](C(=O)NCCCCNC(=O)c1ccc(-c2c3nc(c(-c4ccccc4)c4ccc([nH]4)c(-c4ccccc4)c4nc(c(-c5ccccc5)c5ccc2[nH]5)C=C4)C=C3)cc1)c1ccccc1)Nc1ccc(Cl)cc1Cl
REMARK SMILES IDX 9 1 8 2 7 3 5 4 6 5 4 7 3 8 2 9 1 10 69 11 70 13 71 14 76 15
REMARK SMILES IDX 72 16 75 17 77 18 73 19 74 20 63 21 64 22 68 23 65 24 67 25
REMARK SMILES IDX 66 26 10 27 11 28 12 29 13 30 14 32 15 33 16 34 62 35 17 36
REMARK SMILES IDX 61 37 18 38 19 39 20 40 55 41 21 42 60 43 54 44 56 45 22 46
REMARK SMILES IDX 59 47 53 48 52 49 23 51 45 52 30 53 44 54 31 55 34 56 43 57
REMARK SMILES IDX 57 58 32 59 33 60 42 62 58 63 35 64 24 65 25 66 29 67 26 68
REMARK SMILES IDX 28 69 27 70 46 71 47 72 51 73 48 74 50 75 49 76 36 77 37 78
REMARK SMILES IDX 41 79 38 80 40 81 39 82
REMARK H PARENT 7 6 69 12 12 31 56 50 34 61
REMARK Flexibility Score: inf
ROOT
ATOM      1  C   UNL A   1      37.400  23.482  25.148  1.00  0.00     0.023 C 
ENDROOT
BRANCH   1   2
ATOM      2  C   UNL A   1      35.710  24.001  25.623  1.00  0.00     0.116 C 
BRANCH   2   3
ATOM      3  N   UNL A   1      34.527  24.210  24.594  1.00  0.00    -0.356 N 
ATOM      4  C   UNL A   1      33.576  23.331  24.058  1.00  0.00     0.228 C 
ATOM      5  O   UNL A   1      33.280  23.306  22.857  1.00  0.00    -0.274 OA
ATOM      6  H   UNL A   1      34.442  25.135  24.268  1.00  0.00     0.163 HD
BRANCH   4   7
ATOM      7  C   UNL A   1      32.915  22.380  25.018  1.00  0.00     0.118 C 
BRANCH   7   8
ATOM      8  C   UNL A   1      31.484  22.904  25.171  1.00  0.00     0.118 C 
BRANCH   8   9
ATOM      9  C   UNL A   1      31.148  23.831  26.417  1.00  0.00     0.225 C 
ATOM     10  O   UNL A   1      30.632  23.265  27.387  1.00  0.00    -0.275 OA
ATOM     11  N   UNL A   1      31.583  25.181  26.466  1.00  0.00    -0.325 N 
ATOM     12  H   UNL A   1      32.554  25.225  26.620  1.00  0.00     0.169 HD
BRANCH  11  13
ATOM     13  C   UNL A   1      30.952  26.687  26.341  1.00  0.00     0.060 A 
ATOM     14  C   UNL A   1      29.747  26.196  25.130  1.00  0.00     0.029 A 
ATOM     15  C   UNL A   1      31.752  28.393  26.136  1.00  0.00     0.066 A 
ATOM     16  C   UNL A   1      29.528  27.092  23.657  1.00  0.00     0.023 A 
ATOM     17  C   UNL A   1      31.499  29.304  24.547  1.00  0.00     0.043 A 
ATOM     18  Cl  UNL A   1      32.367  29.497  27.394  1.00  0.00    -0.082 Cl
ATOM     19  C   UNL A   1      30.353  28.616  23.361  1.00  0.00     0.042 A 
ATOM     20  Cl  UNL A   1      29.885  29.480  21.948  1.00  0.00    -0.084 Cl
ENDBRANCH  11  13
ENDBRANCH   8   9
ENDBRANCH   7   8
BRANCH   7  21
ATOM     21  C   UNL A   1      33.466  21.056  24.473  1.00  0.00    -0.035 A 
ATOM     22  C   UNL A   1      32.451  20.196  23.950  1.00  0.00     0.004 A 
ATOM     23  C   UNL A   1      34.694  20.491  24.807  1.00  0.00     0.004 A 
ATOM     24  C   UNL A   1      32.566  18.814  24.000  1.00  0.00     0.000 A 
ATOM     25  C   UNL A   1      34.836  19.093  24.762  1.00  0.00     0.000 A 
ATOM     26  C   UNL A   1      33.763  18.258  24.420  1.00  0.00     0.000 A 
ENDBRANCH   7  21
ENDBRANCH   4   7
ENDBRANCH   2   3
ENDBRANCH   1   2
BRANCH   1  27
ATOM     27  C   UNL A   1      38.571  22.263  26.082  1.00  0.00     0.023 C 
BRANCH  27  28
ATOM     28  C   UNL A   1      38.825  20.153  25.459  1.00  0.00     0.116 C 
BRANCH  28  29
ATOM     29  N   UNL A   1      40.064  19.103  25.957  1.00  0.00    -0.352 N 
ATOM     30  C   UNL A   1      41.420  19.263  26.021  1.00  0.00     0.251 C 
ATOM     31  H   UNL A   1      39.748  18.219  26.254  1.00  0.00     0.163 HD
ATOM     32  O   UNL A   1      42.212  18.363  25.782  1.00  0.00    -0.269 OA
BRANCH  30  33
ATOM     33  C   UNL A   1      41.852  20.549  26.513  1.00  0.00     0.039 A 
ATOM     34  C   UNL A   1      41.902  20.824  27.873  1.00  0.00     0.014 A 
ATOM     35  C   UNL A   1      42.218  21.469  25.526  1.00  0.00     0.014 A 
ATOM     36  C   UNL A   1      42.360  22.070  28.254  1.00  0.00     0.010 A 
ATOM     37  C   UNL A   1      42.758  22.665  25.906  1.00  0.00     0.010 A 
ATOM     38  C   UNL A   1      42.776  22.984  27.267  1.00  0.00    -0.014 A 
BRANCH  38  39
ATOM     39  C   UNL A   1      43.090  24.368  27.619  1.00  0.00     0.031 A 
ATOM     40  C   UNL A   1      44.527  24.791  27.585  1.00  0.00     0.074 A 
ATOM     41  C   UNL A   1      42.098  25.189  27.987  1.00  0.00     0.049 A 
ATOM     42  N   UNL A   1      45.047  25.945  27.897  1.00  0.00    -0.248 NA
ATOM     43  C   UNL A   1      45.517  23.775  27.172  1.00  0.00     0.031 C 
ATOM     44  C   UNL A   1      40.678  24.832  28.068  1.00  0.00     0.029 A 
ATOM     45  N   UNL A   1      42.140  26.501  28.357  1.00  0.00    -0.354 N 
ATOM     46  C   UNL A   1      46.413  25.795  27.710  1.00  0.00     0.074 A 
ATOM     47  C   UNL A   1      46.658  24.419  27.353  1.00  0.00     0.031 C 
ATOM     48  C   UNL A   1      39.980  25.919  28.434  1.00  0.00     0.029 A 
ATOM     49  C   UNL A   1      40.908  27.024  28.650  1.00  0.00     0.049 A 
ATOM     50  H   UNL A   1      42.975  27.021  28.407  1.00  0.00     0.167 HD
ATOM     51  C   UNL A   1      47.374  26.739  27.784  1.00  0.00     0.031 A 
ATOM     52  C   UNL A   1      40.587  28.264  29.055  1.00  0.00     0.031 A 
ATOM     53  C   UNL A   1      47.109  28.102  28.143  1.00  0.00     0.049 A 
ATOM     54  C   UNL A   1      41.690  29.278  29.189  1.00  0.00     0.074 A 
ATOM     55  C   UNL A   1      47.998  29.153  28.249  1.00  0.00     0.029 A 
ATOM     56  N   UNL A   1      45.851  28.599  28.447  1.00  0.00    -0.354 N 
ATOM     57  N   UNL A   1      42.977  29.143  28.965  1.00  0.00    -0.248 NA
ATOM     58  C   UNL A   1      41.293  30.626  29.609  1.00  0.00     0.031 C 
ATOM     59  C   UNL A   1      47.286  30.276  28.677  1.00  0.00     0.029 A 
ATOM     60  C   UNL A   1      45.941  29.943  28.756  1.00  0.00     0.049 A 
ATOM     61  H   UNL A   1      45.018  28.073  28.445  1.00  0.00     0.167 HD
ATOM     62  C   UNL A   1      43.533  30.399  29.171  1.00  0.00     0.074 A 
ATOM     63  C   UNL A   1      42.438  31.283  29.517  1.00  0.00     0.031 C 
ATOM     64  C   UNL A   1      44.827  30.795  29.081  1.00  0.00     0.031 A 
BRANCH  51  65
ATOM     65  C   UNL A   1      48.779  26.321  27.462  1.00  0.00    -0.014 A 
ATOM     66  C   UNL A   1      49.642  25.848  28.465  1.00  0.00     0.009 A 
ATOM     67  C   UNL A   1      49.239  26.375  26.140  1.00  0.00     0.009 A 
ATOM     68  C   UNL A   1      50.946  25.463  28.153  1.00  0.00     0.001 A 
ATOM     69  C   UNL A   1      50.533  25.956  25.825  1.00  0.00     0.001 A 
ATOM     70  C   UNL A   1      51.387  25.508  26.832  1.00  0.00     0.000 A 
ENDBRANCH  51  65
BRANCH  52  71
ATOM     71  C   UNL A   1      39.176  28.615  29.365  1.00  0.00    -0.014 A 
ATOM     72  C   UNL A   1      38.319  29.105  28.367  1.00  0.00     0.009 A 
ATOM     73  C   UNL A   1      38.697  28.514  30.680  1.00  0.00     0.009 A 
ATOM     74  C   UNL A   1      37.037  29.550  28.695  1.00  0.00     0.001 A 
ATOM     75  C   UNL A   1      37.400  28.920  30.996  1.00  0.00     0.001 A 
ATOM     76  C   UNL A   1      36.579  29.459  30.008  1.00  0.00     0.000 A 
ENDBRANCH  52  71
BRANCH  64  77
ATOM     77  C   UNL A   1      45.112  32.257  29.284  1.00  0.00    -0.014 A 
ATOM     78  C   UNL A   1      45.450  32.779  30.542  1.00  0.00     0.009 A 
ATOM     79  C   UNL A   1      45.069  33.121  28.178  1.00  0.00     0.009 A 
ATOM     80  C   UNL A   1      45.686  34.146  30.696  1.00  0.00     0.001 A 
ATOM     81  C   UNL A   1      45.349  34.479  28.327  1.00  0.00     0.001 A 
ATOM     82  C   UNL A   1      45.642  34.992  29.588  1.00  0.00     0.000 A 
ENDBRANCH  64  77
ENDBRANCH  38  39
ENDBRANCH  30  33
ENDBRANCH  28  29
ENDBRANCH  27  28
ENDBRANCH   1  27
TORSDOF 15
ENDMDL
MODEL 2
REMARK VINA RESULT:     -14.1      1.199      1.924
REMARK SMILES O=C(C[C@H](C(=O)NCCCCNC(=O)c1ccc(-c2c3nc(c(-c4ccccc4)c4ccc([nH]4)c(-c4ccccc4)c4nc(c(-c5ccccc5)c5ccc2[nH]5)C=C4)C=C3)cc1)c1ccccc1)Nc1ccc(Cl)cc1Cl
REMARK SMILES IDX 9 1 8 2 7 3 5 4 6 5 4 7 3 8 2 9 1 10 69 11 70 13 71 14 76 15
REMARK SMILES IDX 72 16 75 17 77 18 73 19 74 20 63 21 64 22 68 23 65 24 67 25
REMARK SMILES IDX 66 26 10 27 11 28 12 29 13 30 14 32 15 33 16 34 62 35 17 36
REMARK SMILES IDX 61 37 18 38 19 39 20 40 55 41 21 42 60 43 54 44 56 45 22 46
REMARK SMILES IDX 59 47 53 48 52 49 23 51 45 52 30 53 44 54 31 55 34 56 43 57
REMARK SMILES IDX 57 58 32 59 33 60 42 62 58 63 35 64 24 65 25 66 29 67 26 68
REMARK SMILES IDX 28 69 27 70 46 71 47 72 51 73 48 74 50 75 49 76 36 77 37 78
REMARK SMILES IDX 41 79 38 80 40 81 39 82
REMARK H PARENT 7 6 69 12 12 31 56 50 34 61
REMARK Flexibility Score: inf
ROOT
ATOM      1  C   UNL A   1      36.772  22.677  25.310  1.00  0.00     0.023 C 
ENDROOT
BRANCH   1   2
ATOM      2  C   UNL A   1      35.997  22.780  23.655  1.00  0.00     0.116 C 
BRANCH   2   3
ATOM      3  N   UNL A   1      34.489  23.188  23.408  1.00  0.00    -0.356 N 
ATOM      4  C   UNL A   1      33.283  22.497  23.585  1.00  0.00     0.228 C 
ATOM      5  O   UNL A   1      32.372  22.501  22.748  1.00  0.00    -0.274 OA
ATOM      6  H   UNL A   1      34.376  24.104  23.064  1.00  0.00     0.163 HD
BRANCH   4   7
ATOM      7  C   UNL A   1      33.130  21.717  24.862  1.00  0.00     0.118 C 
BRANCH   7   8
ATOM      8  C   UNL A   1      31.814  22.207  25.471  1.00  0.00     0.118 C 
BRANCH   8   9
ATOM      9  C   UNL A   1      31.806  23.604  26.230  1.00  0.00     0.225 C 
ATOM     10  O   UNL A   1      31.149  23.647  27.275  1.00  0.00    -0.275 OA
ATOM     11  N   UNL A   1      32.650  24.668  25.817  1.00  0.00    -0.325 N 
ATOM     12  H   UNL A   1      33.586  24.478  26.053  1.00  0.00     0.169 HD
BRANCH  11  13
ATOM     13  C   UNL A   1      32.531  26.117  25.063  1.00  0.00     0.060 A 
ATOM     14  C   UNL A   1      34.070  26.708  25.728  1.00  0.00     0.029 A 
ATOM     15  C   UNL A   1      31.111  27.363  24.909  1.00  0.00     0.066 A 
ATOM     16  C   UNL A   1      34.190  28.266  26.487  1.00  0.00     0.023 A 
ATOM     17  C   UNL A   1      31.280  29.005  25.743  1.00  0.00     0.043 A 
ATOM     18  Cl  UNL A   1      29.787  27.405  23.716  1.00  0.00    -0.082 Cl
ATOM     19  C   UNL A   1      32.853  29.407  26.489  1.00  0.00     0.042 A 
ATOM     20  Cl  UNL A   1      33.186  30.978  27.107  1.00  0.00    -0.084 Cl
ENDBRANCH  11  13
ENDBRANCH   8   9
ENDBRANCH   7   8
BRANCH   7  21
ATOM     21  C   UNL A   1      33.573  20.336  24.362  1.00  0.00    -0.035 A 
ATOM     22  C   UNL A   1      32.487  19.532  23.894  1.00  0.00     0.004 A 
ATOM     23  C   UNL A   1      34.764  19.697  24.695  1.00  0.00     0.004 A 
ATOM     24  C   UNL A   1      32.505  18.148  23.998  1.00  0.00     0.000 A 
ATOM     25  C   UNL A   1      34.805  18.291  24.705  1.00  0.00     0.000 A 
ATOM     26  C   UNL A   1      33.668  17.524  24.417  1.00  0.00     0.000 A 
ENDBRANCH   7  21
ENDBRANCH   4   7
ENDBRANCH   2   3
ENDBRANCH   1   2
BRANCH   1  27
ATOM     27  C   UNL A   1      38.516  21.981  25.760  1.00  0.00     0.023 C 
BRANCH  27  28
ATOM     28  C   UNL A   1      39.044  19.846  25.495  1.00  0.00     0.116 C 
BRANCH  28  29
ATOM     29  N   UNL A   1      40.430  19.073  26.103  1.00  0.00    -0.352 N 
ATOM     30  C   UNL A   1      41.739  19.462  26.152  1.00  0.00     0.251 C 
ATOM     31  H   UNL A   1      40.259  18.184  26.489  1.00  0.00     0.163 HD
ATOM     32  O   UNL A   1      42.673  18.686  26.010  1.00  0.00    -0.269 OA
BRANCH  30  33
ATOM     33  C   UNL A   1      41.943  20.846  26.508  1.00  0.00     0.039 A 
ATOM     34  C   UNL A   1      42.328  21.787  25.562  1.00  0.00     0.014 A 
ATOM     35  C   UNL A   1      41.712  21.152  27.852  1.00  0.00     0.014 A 
ATOM     36  C   UNL A   1      42.467  23.094  25.986  1.00  0.00     0.010 A 
ATOM     37  C   UNL A   1      41.758  22.459  28.248  1.00  0.00     0.010 A 
ATOM     38  C   UNL A   1      42.190  23.419  27.327  1.00  0.00    -0.014 A 
BRANCH  38  39
ATOM     39  C   UNL A   1      42.501  24.747  27.851  1.00  0.00     0.031 A 
ATOM     40  C   UNL A   1      43.932  25.058  28.170  1.00  0.00     0.074 A 
ATOM     41  C   UNL A   1      41.504  25.618  28.057  1.00  0.00     0.049 A 
ATOM     42  N   UNL A   1      44.439  26.144  28.682  1.00  0.00    -0.248 NA
ATOM     43  C   UNL A   1      44.925  23.996  27.904  1.00  0.00     0.031 C 
ATOM     44  C   UNL A   1      40.084  25.369  27.793  1.00  0.00     0.029 A 
ATOM     45  N   UNL A   1      41.544  26.896  28.532  1.00  0.00    -0.354 N 
ATOM     46  C   UNL A   1      45.799  25.899  28.789  1.00  0.00     0.074 A 
ATOM     47  C   UNL A   1      46.033  24.535  28.383  1.00  0.00     0.031 C 
ATOM     48  C   UNL A   1      39.390  26.482  28.084  1.00  0.00     0.029 A 
ATOM     49  C   UNL A   1      40.312  27.494  28.589  1.00  0.00     0.049 A 
ATOM     50  H   UNL A   1      42.376  27.344  28.808  1.00  0.00     0.167 HD
ATOM     51  C   UNL A   1      46.776  26.759  29.150  1.00  0.00     0.031 A 
ATOM     52  C   UNL A   1      39.985  28.725  29.012  1.00  0.00     0.031 A 
ATOM     53  C   UNL A   1      46.522  28.111  29.551  1.00  0.00     0.049 A 
ATOM     54  C   UNL A   1      41.090  29.639  29.469  1.00  0.00     0.074 A 
ATOM     55  C   UNL A   1      47.427  29.079  29.937  1.00  0.00     0.029 A 
ATOM     56  N   UNL A   1      45.261  28.685  29.610  1.00  0.00    -0.354 N 
ATOM     57  N   UNL A   1      42.383  29.417  29.524  1.00  0.00    -0.248 NA
ATOM     58  C   UNL A   1      40.692  30.983  29.900  1.00  0.00     0.031 C 
ATOM     59  C   UNL A   1      46.708  30.225  30.288  1.00  0.00     0.029 A 
ATOM     60  C   UNL A   1      45.362  29.994  30.040  1.00  0.00     0.049 A 
ATOM     61  H   UNL A   1      44.419  28.228  29.381  1.00  0.00     0.167 HD
ATOM     62  C   UNL A   1      42.955  30.610  29.949  1.00  0.00     0.074 A 
ATOM     63  C   UNL A   1      41.868  31.553  30.117  1.00  0.00     0.031 C 
ATOM     64  C   UNL A   1      44.258  30.908  30.180  1.00  0.00     0.031 A 
BRANCH  51  65
ATOM     65  C   UNL A   1      48.188  26.253  29.113  1.00  0.00    -0.014 A 
ATOM     66  C   UNL A   1      48.967  26.365  27.948  1.00  0.00     0.009 A 
ATOM     67  C   UNL A   1      48.759  25.684  30.259  1.00  0.00     0.009 A 
ATOM     68  C   UNL A   1      50.279  25.890  27.926  1.00  0.00     0.001 A 
ATOM     69  C   UNL A   1      50.082  25.242  30.245  1.00  0.00     0.001 A 
ATOM     70  C   UNL A   1      50.838  25.339  29.077  1.00  0.00     0.000 A 
ENDBRANCH  51  65
BRANCH  52  71
ATOM     71  C   UNL A   1      38.566  29.166  29.031  1.00  0.00    -0.014 A 
ATOM     72  C   UNL A   1      37.996  29.814  27.924  1.00  0.00     0.009 A 
ATOM     73  C   UNL A   1      37.787  28.988  30.185  1.00  0.00     0.009 A 
ATOM     74  C   UNL A   1      36.703  30.335  27.999  1.00  0.00     0.001 A 
ATOM     75  C   UNL A   1      36.480  29.472  30.242  1.00  0.00     0.001 A 
ATOM     76  C   UNL A   1      35.947  30.165  29.157  1.00  0.00     0.000 A 
ENDBRANCH  52  71
BRANCH  64  77
ATOM     77  C   UNL A   1      44.580  32.327  30.559  1.00  0.00    -0.014 A 
ATOM     78  C   UNL A   1      44.676  32.732  31.900  1.00  0.00     0.009 A 
ATOM     79  C   UNL A   1      44.822  33.266  29.545  1.00  0.00     0.009 A 
ATOM     80  C   UNL A   1      44.954  34.063  32.213  1.00  0.00     0.001 A 
ATOM     81  C   UNL A   1      45.145  34.585  29.862  1.00  0.00     0.001 A 
ATOM     82  C   UNL A   1      45.195  34.986  31.195  1.00  0.00     0.000 A 
ENDBRANCH  64  77
ENDBRANCH  38  39
ENDBRANCH  30  33
ENDBRANCH  28  29
ENDBRANCH  27  28
ENDBRANCH   1  27
TORSDOF 15
ENDMDL
MODEL 3
REMARK VINA RESULT:     -14.0      1.282      6.106
REMARK SMILES O=C(C[C@H](C(=O)NCCCCNC(=O)c1ccc(-c2c3nc(c(-c4ccccc4)c4ccc([nH]4)c(-c4ccccc4)c4nc(c(-c5ccccc5)c5ccc2[nH]5)C=C4)C=C3)cc1)c1ccccc1)Nc1ccc(Cl)cc1Cl
REMARK SMILES IDX 9 1 8 2 7 3 5 4 6 5 4 7 3 8 2 9 1 10 69 11 70 13 71 14 76 15
REMARK SMILES IDX 72 16 75 17 77 18 73 19 74 20 63 21 64 22 68 23 65 24 67 25
REMARK SMILES IDX 66 26 10 27 11 28 12 29 13 30 14 32 15 33 16 34 62 35 17 36
REMARK SMILES IDX 61 37 18 38 19 39 20 40 55 41 21 42 60 43 54 44 56 45 22 46
REMARK SMILES IDX 59 47 53 48 52 49 23 51 45 52 30 53 44 54 31 55 34 56 43 57
REMARK SMILES IDX 57 58 32 59 33 60 42 62 58 63 35 64 24 65 25 66 29 67 26 68
REMARK SMILES IDX 28 69 27 70 46 71 47 72 51 73 48 74 50 75 49 76 36 77 37 78
REMARK SMILES IDX 41 79 38 80 40 81 39 82
REMARK H PARENT 7 6 69 12 12 31 56 50 34 61
REMARK Flexibility Score: inf
ROOT
ATOM      1  C   UNL A   1      37.166  23.449  24.989  1.00  0.00     0.023 C 
ENDROOT
BRANCH   1   2
ATOM      2  C   UNL A   1      36.124  22.952  23.570  1.00  0.00     0.116 C 
BRANCH   2   3
ATOM      3  N   UNL A   1      34.639  23.449  23.346  1.00  0.00    -0.356 N 
ATOM      4  C   UNL A   1      33.396  22.842  23.572  1.00  0.00     0.228 C 
ATOM      5  O   UNL A   1      32.467  22.880  22.756  1.00  0.00    -0.274 OA
ATOM      6  H   UNL A   1      34.576  24.360  22.977  1.00  0.00     0.163 HD
BRANCH   4   7
ATOM      7  C   UNL A   1      33.227  22.111  24.876  1.00  0.00     0.118 C 
BRANCH   7   8
ATOM      8  C   UNL A   1      31.940  22.675  25.482  1.00  0.00     0.118 C 
BRANCH   8   9
ATOM      9  C   UNL A   1      31.987  24.118  26.147  1.00  0.00     0.225 C 
ATOM     10  O   UNL A   1      31.275  24.276  27.145  1.00  0.00    -0.275 OA
ATOM     11  N   UNL A   1      32.926  25.092  25.720  1.00  0.00    -0.325 N 
ATOM     12  H   UNL A   1      33.831  24.857  26.027  1.00  0.00     0.169 HD
BRANCH  11  13
ATOM     13  C   UNL A   1      32.953  26.491  24.869  1.00  0.00     0.060 A 
ATOM     14  C   UNL A   1      33.744  27.395  26.179  1.00  0.00     0.029 A 
ATOM     15  C   UNL A   1      31.630  27.396  23.858  1.00  0.00     0.066 A 
ATOM     16  C   UNL A   1      33.132  28.930  26.717  1.00  0.00     0.023 A 
ATOM     17  C   UNL A   1      31.002  29.022  24.476  1.00  0.00     0.043 A 
ATOM     18  Cl  UNL A   1      31.177  27.164  22.149  1.00  0.00    -0.082 Cl
ATOM     19  C   UNL A   1      31.813  29.749  25.892  1.00  0.00     0.042 A 
ATOM     20  Cl  UNL A   1      31.450  31.345  26.422  1.00  0.00    -0.084 Cl
ENDBRANCH  11  13
ENDBRANCH   8   9
ENDBRANCH   7   8
BRANCH   7  21
ATOM     21  C   UNL A   1      33.607  20.696  24.416  1.00  0.00    -0.035 A 
ATOM     22  C   UNL A   1      32.480  19.914  24.014  1.00  0.00     0.004 A 
ATOM     23  C   UNL A   1      34.786  20.030  24.736  1.00  0.00     0.004 A 
ATOM     24  C   UNL A   1      32.454  18.535  24.172  1.00  0.00     0.000 A 
ATOM     25  C   UNL A   1      34.780  18.625  24.800  1.00  0.00     0.000 A 
ATOM     26  C   UNL A   1      33.608  17.888  24.578  1.00  0.00     0.000 A 
ENDBRANCH   7  21
ENDBRANCH   4   7
ENDBRANCH   2   3
ENDBRANCH   1   2
BRANCH   1  27
ATOM     27  C   UNL A   1      38.349  22.338  26.036  1.00  0.00     0.023 C 
BRANCH  27  28
ATOM     28  C   UNL A   1      38.829  20.253  25.467  1.00  0.00     0.116 C 
BRANCH  28  29
ATOM     29  N   UNL A   1      40.162  19.347  26.006  1.00  0.00    -0.352 N 
ATOM     30  C   UNL A   1      41.499  19.628  26.033  1.00  0.00     0.251 C 
ATOM     31  H   UNL A   1      39.929  18.460  26.363  1.00  0.00     0.163 HD
ATOM     32  O   UNL A   1      42.364  18.786  25.836  1.00  0.00    -0.269 OA
BRANCH  30  33
ATOM     33  C   UNL A   1      41.824  20.975  26.435  1.00  0.00     0.039 A 
ATOM     34  C   UNL A   1      42.221  21.931  25.509  1.00  0.00     0.014 A 
ATOM     35  C   UNL A   1      41.695  21.233  27.803  1.00  0.00     0.014 A 
ATOM     36  C   UNL A   1      42.479  23.204  25.979  1.00  0.00     0.010 A 
ATOM     37  C   UNL A   1      41.859  22.513  28.251  1.00  0.00     0.010 A 
ATOM     38  C   UNL A   1      42.305  23.483  27.348  1.00  0.00    -0.014 A 
BRANCH  38  39
ATOM     39  C   UNL A   1      42.742  24.760  27.908  1.00  0.00     0.031 A 
ATOM     40  C   UNL A   1      41.710  25.827  28.112  1.00  0.00     0.074 A 
ATOM     41  C   UNL A   1      44.040  24.940  28.187  1.00  0.00     0.049 A 
ATOM     42  N   UNL A   1      41.868  27.045  28.550  1.00  0.00    -0.248 NA
ATOM     43  C   UNL A   1      40.317  25.492  27.748  1.00  0.00     0.031 C 
ATOM     44  C   UNL A   1      45.103  23.951  27.986  1.00  0.00     0.029 A 
ATOM     45  N   UNL A   1      44.680  26.027  28.706  1.00  0.00    -0.354 N 
ATOM     46  C   UNL A   1      40.603  27.611  28.522  1.00  0.00     0.074 A 
ATOM     47  C   UNL A   1      39.703  26.648  27.938  1.00  0.00     0.031 C 
ATOM     48  C   UNL A   1      46.265  24.473  28.413  1.00  0.00     0.029 A 
ATOM     49  C   UNL A   1      46.027  25.837  28.872  1.00  0.00     0.049 A 
ATOM     50  H   UNL A   1      44.219  26.866  28.938  1.00  0.00     0.167 HD
ATOM     51  C   UNL A   1      40.218  28.818  28.991  1.00  0.00     0.031 A 
ATOM     52  C   UNL A   1      46.953  26.690  29.340  1.00  0.00     0.031 A 
ATOM     53  C   UNL A   1      41.130  29.762  29.568  1.00  0.00     0.049 A 
ATOM     54  C   UNL A   1      46.502  28.051  29.797  1.00  0.00     0.074 A 
ATOM     55  C   UNL A   1      40.861  31.015  30.081  1.00  0.00     0.029 A 
ATOM     56  N   UNL A   1      42.492  29.545  29.711  1.00  0.00    -0.354 N 
ATOM     57  N   UNL A   1      45.295  28.566  29.812  1.00  0.00    -0.248 NA
ATOM     58  C   UNL A   1      47.541  28.942  30.324  1.00  0.00     0.031 C 
ATOM     59  C   UNL A   1      42.073  31.583  30.483  1.00  0.00     0.029 A 
ATOM     60  C   UNL A   1      43.083  30.650  30.295  1.00  0.00     0.049 A 
ATOM     61  H   UNL A   1      42.968  28.727  29.438  1.00  0.00     0.167 HD
ATOM     62  C   UNL A   1      45.424  29.821  30.394  1.00  0.00     0.074 A 
ATOM     63  C   UNL A   1      46.824  29.976  30.734  1.00  0.00     0.031 C 
ATOM     64  C   UNL A   1      44.477  30.762  30.633  1.00  0.00     0.031 A 
BRANCH  51  65
ATOM     65  C   UNL A   1      38.760  29.160  28.902  1.00  0.00    -0.014 A 
ATOM     66  C   UNL A   1      38.201  29.642  27.706  1.00  0.00     0.009 A 
ATOM     67  C   UNL A   1      37.928  28.975  30.015  1.00  0.00     0.009 A 
ATOM     68  C   UNL A   1      36.844  29.958  27.636  1.00  0.00     0.001 A 
ATOM     69  C   UNL A   1      36.564  29.258  29.932  1.00  0.00     0.001 A 
ATOM     70  C   UNL A   1      36.025  29.756  28.745  1.00  0.00     0.000 A 
ENDBRANCH  51  65
BRANCH  52  71
ATOM     71  C   UNL A   1      48.384  26.294  29.398  1.00  0.00    -0.014 A 
ATOM     72  C   UNL A   1      48.927  25.717  30.557  1.00  0.00     0.009 A 
ATOM     73  C   UNL A   1      49.231  26.544  28.307  1.00  0.00     0.009 A 
ATOM     74  C   UNL A   1      50.298  25.466  30.645  1.00  0.00     0.001 A 
ATOM     75  C   UNL A   1      50.593  26.252  28.382  1.00  0.00     0.001 A 
ATOM     76  C   UNL A   1      51.129  25.735  29.559  1.00  0.00     0.000 A 
ENDBRANCH  52  71
BRANCH  64  77
ATOM     77  C   UNL A   1      44.914  32.004  31.361  1.00  0.00    -0.014 A 
ATOM     78  C   UNL A   1      44.907  32.083  32.762  1.00  0.00     0.009 A 
ATOM     79  C   UNL A   1      45.373  33.104  30.619  1.00  0.00     0.009 A 
ATOM     80  C   UNL A   1      45.298  33.260  33.402  1.00  0.00     0.001 A 
ATOM     81  C   UNL A   1      45.806  34.262  31.263  1.00  0.00     0.001 A 
ATOM     82  C   UNL A   1      45.753  34.345  32.652  1.00  0.00     0.000 A 
ENDBRANCH  64  77
ENDBRANCH  38  39
ENDBRANCH  30  33
ENDBRANCH  28  29
ENDBRANCH  27  28
ENDBRANCH   1  27
TORSDOF 15
ENDMDL
