MODEL 1
REMARK VINA RESULT:     -12.1      0.000      0.000
REMARK SMILES CC1=C(CC(=O)NCCCCNC(=O)c2ccc(-c3c4nc(c(-c5ccccc5)c5ccc([nH]5)c(-c5ccccc5)c5nc(c(-c6ccccc6)c6ccc3[nH]6)C=C5)C=C4)cc2)c2cc(F)ccc2/C1=C\c1ccc([S@@+](C)[O-])cc1
REMARK SMILES IDX 9 1 8 2 7 3 5 4 6 5 4 7 3 8 1 9 2 10 70 11 63 12 69 13 71 14
REMARK SMILES IDX 64 15 68 16 65 17 67 18 66 19 72 20 73 21 80 22 74 23 79 24
REMARK SMILES IDX 75 25 76 26 77 27 78 28 10 29 11 30 12 31 13 32 14 34 15 35
REMARK SMILES IDX 16 36 62 37 17 38 61 39 18 40 19 41 20 42 55 43 21 44 60 45
REMARK SMILES IDX 54 46 56 47 22 48 59 49 53 50 52 51 23 53 45 54 30 55 44 56
REMARK SMILES IDX 31 57 34 58 43 59 57 60 32 61 33 62 42 64 58 65 35 66 24 67
REMARK SMILES IDX 25 68 29 69 26 70 28 71 27 72 46 73 47 74 51 75 48 76 50 77
REMARK SMILES IDX 49 78 36 79 37 80 41 81 38 82 40 83 39 84
REMARK H PARENT 7 6 12 33 56 52 34 63
REMARK Flexibility Score: inf
ROOT
ATOM      1  C   UNL A   1      36.487  20.436  24.940  1.00  0.00     0.023 C 
ENDROOT
BRANCH   1   2
ATOM      2  C   UNL A   1      35.342  21.110  25.695  1.00  0.00     0.116 C 
BRANCH   2   3
ATOM      3  N   UNL A   1      34.236  20.210  25.942  1.00  0.00    -0.356 N 
ATOM      4  C   UNL A   1      33.085  20.051  25.225  1.00  0.00     0.224 C 
ATOM      5  O   UNL A   1      32.264  19.220  25.622  1.00  0.00    -0.275 OA
ATOM      6  H   UNL A   1      34.326  19.634  26.735  1.00  0.00     0.163 HD
BRANCH   4   7
ATOM      7  C   UNL A   1      32.842  20.859  23.949  1.00  0.00     0.136 C 
BRANCH   7   8
ATOM      8  C   UNL A   1      32.799  22.336  24.177  1.00  0.00    -0.027 C 
ATOM      9  C   UNL A   1      34.503  23.125  22.462  1.00  0.00     0.045 C 
ATOM     10  C   UNL A   1      33.536  23.308  23.586  1.00  0.00    -0.039 C 
ATOM     11  C   UNL A   1      33.213  24.608  24.193  1.00  0.00    -0.014 C 
ATOM     12  C   UNL A   1      31.870  22.984  25.119  1.00  0.00    -0.011 A 
ATOM     13  C   UNL A   1      32.067  24.377  25.097  1.00  0.00    -0.010 A 
ATOM     14  C   UNL A   1      33.916  25.742  23.998  1.00  0.00     0.017 C 
ATOM     15  C   UNL A   1      30.885  22.419  25.919  1.00  0.00     0.048 A 
ATOM     16  C   UNL A   1      31.235  25.216  25.827  1.00  0.00     0.012 A 
ATOM     17  C   UNL A   1      30.095  23.267  26.689  1.00  0.00     0.123 A 
ATOM     18  C   UNL A   1      30.252  24.652  26.642  1.00  0.00     0.040 A 
ATOM     19  F   UNL A   1      29.149  22.746  27.480  1.00  0.00    -0.207 F 
BRANCH  14  20
ATOM     20  C   UNL A   1      33.634  27.035  24.629  1.00  0.00    -0.025 A 
ATOM     21  C   UNL A   1      34.045  27.311  25.939  1.00  0.00     0.013 A 
ATOM     22  C   UNL A   1      32.844  27.962  23.947  1.00  0.00     0.013 A 
ATOM     23  C   UNL A   1      33.560  28.443  26.604  1.00  0.00     0.061 A 
ATOM     24  C   UNL A   1      32.381  29.105  24.604  1.00  0.00     0.061 A 
ATOM     25  C   UNL A   1      32.702  29.334  25.948  1.00  0.00     0.152 A 
BRANCH  25  26
ATOM     26  S   UNL A   1      31.856  30.658  26.848  1.00  0.00    -0.018 S 
ATOM     27  C   UNL A   1      33.280  31.616  27.400  1.00  0.00     0.346 C 
ATOM     28  O   UNL A   1      31.082  31.514  25.784  1.00  0.00    -0.612 OA
ENDBRANCH  25  26
ENDBRANCH  14  20
ENDBRANCH   7   8
ENDBRANCH   4   7
ENDBRANCH   2   3
ENDBRANCH   1   2
BRANCH   1  29
ATOM     29  C   UNL A   1      37.785  21.242  24.875  1.00  0.00     0.023 C 
BRANCH  29  30
ATOM     30  C   UNL A   1      38.768  20.985  26.010  1.00  0.00     0.116 C 
BRANCH  30  31
ATOM     31  N   UNL A   1      39.684  19.879  25.764  1.00  0.00    -0.352 N 
ATOM     32  C   UNL A   1      41.043  19.838  25.985  1.00  0.00     0.251 C 
ATOM     33  H   UNL A   1      39.281  19.061  25.395  1.00  0.00     0.163 HD
ATOM     34  O   UNL A   1      41.701  18.858  25.648  1.00  0.00    -0.269 OA
BRANCH  32  35
ATOM     35  C   UNL A   1      41.711  21.018  26.575  1.00  0.00     0.039 A 
ATOM     36  C   UNL A   1      41.798  21.163  27.960  1.00  0.00     0.014 A 
ATOM     37  C   UNL A   1      42.175  22.030  25.731  1.00  0.00     0.014 A 
ATOM     38  C   UNL A   1      42.160  22.391  28.498  1.00  0.00     0.010 A 
ATOM     39  C   UNL A   1      42.622  23.237  26.279  1.00  0.00     0.010 A 
ATOM     40  C   UNL A   1      42.552  23.451  27.663  1.00  0.00    -0.014 A 
BRANCH  40  41
ATOM     41  C   UNL A   1      42.833  24.780  28.267  1.00  0.00     0.031 A 
ATOM     42  C   UNL A   1      44.250  25.208  28.556  1.00  0.00     0.074 A 
ATOM     43  C   UNL A   1      41.819  25.641  28.470  1.00  0.00     0.049 A 
ATOM     44  N   UNL A   1      44.684  26.358  29.007  1.00  0.00    -0.248 NA
ATOM     45  C   UNL A   1      45.318  24.226  28.307  1.00  0.00     0.031 C 
ATOM     46  C   UNL A   1      40.407  25.355  28.213  1.00  0.00     0.029 A 
ATOM     47  N   UNL A   1      41.821  26.945  28.900  1.00  0.00    -0.354 N 
ATOM     48  C   UNL A   1      46.064  26.231  29.113  1.00  0.00     0.074 A 
ATOM     49  C   UNL A   1      46.398  24.886  28.705  1.00  0.00     0.031 C 
ATOM     50  C   UNL A   1      39.687  26.467  28.425  1.00  0.00     0.029 A 
ATOM     51  C   UNL A   1      40.577  27.528  28.887  1.00  0.00     0.049 A 
ATOM     52  H   UNL A   1      42.635  27.417  29.189  1.00  0.00     0.167 HD
ATOM     53  C   UNL A   1      46.972  27.155  29.504  1.00  0.00     0.031 A 
ATOM     54  C   UNL A   1      40.190  28.778  29.208  1.00  0.00     0.031 A 
ATOM     55  C   UNL A   1      46.648  28.502  29.891  1.00  0.00     0.049 A 
ATOM     56  C   UNL A   1      41.218  29.780  29.649  1.00  0.00     0.074 A 
ATOM     57  C   UNL A   1      47.508  29.507  30.302  1.00  0.00     0.029 A 
ATOM     58  N   UNL A   1      45.371  29.037  29.902  1.00  0.00    -0.354 N 
ATOM     59  N   UNL A   1      42.516  29.637  29.744  1.00  0.00    -0.248 NA
ATOM     60  C   UNL A   1      40.728  31.115  30.020  1.00  0.00     0.031 C 
ATOM     61  C   UNL A   1      46.745  30.638  30.601  1.00  0.00     0.029 A 
ATOM     62  C   UNL A   1      45.419  30.355  30.322  1.00  0.00     0.049 A 
ATOM     63  H   UNL A   1      44.552  28.552  29.649  1.00  0.00     0.167 HD
ATOM     64  C   UNL A   1      43.001  30.867  30.168  1.00  0.00     0.074 A 
ATOM     65  C   UNL A   1      41.861  31.750  30.295  1.00  0.00     0.031 C 
ATOM     66  C   UNL A   1      44.280  31.227  30.432  1.00  0.00     0.031 A 
BRANCH  53  67
ATOM     67  C   UNL A   1      48.420  26.753  29.544  1.00  0.00    -0.014 A 
ATOM     68  C   UNL A   1      49.207  26.866  28.386  1.00  0.00     0.009 A 
ATOM     69  C   UNL A   1      48.977  26.164  30.689  1.00  0.00     0.009 A 
ATOM     70  C   UNL A   1      50.517  26.385  28.369  1.00  0.00     0.001 A 
ATOM     71  C   UNL A   1      50.295  25.705  30.676  1.00  0.00     0.001 A 
ATOM     72  C   UNL A   1      51.061  25.807  29.515  1.00  0.00     0.000 A 
ENDBRANCH  53  67
BRANCH  54  73
ATOM     73  C   UNL A   1      38.754  29.146  29.101  1.00  0.00    -0.014 A 
ATOM     74  C   UNL A   1      38.241  29.671  27.903  1.00  0.00     0.009 A 
ATOM     75  C   UNL A   1      37.898  29.015  30.205  1.00  0.00     0.009 A 
ATOM     76  C   UNL A   1      36.909  30.076  27.819  1.00  0.00     0.001 A 
ATOM     77  C   UNL A   1      36.557  29.392  30.108  1.00  0.00     0.001 A 
ATOM     78  C   UNL A   1      36.065  29.930  28.920  1.00  0.00     0.000 A 
ENDBRANCH  54  73
BRANCH  66  79
ATOM     79  C   UNL A   1      44.538  32.644  30.858  1.00  0.00    -0.014 A 
ATOM     80  C   UNL A   1      44.842  33.615  29.890  1.00  0.00     0.009 A 
ATOM     81  C   UNL A   1      44.583  32.994  32.215  1.00  0.00     0.009 A 
ATOM     82  C   UNL A   1      45.199  34.907  30.273  1.00  0.00     0.001 A 
ATOM     83  C   UNL A   1      44.917  34.296  32.594  1.00  0.00     0.001 A 
ATOM     84  C   UNL A   1      45.233  35.249  31.624  1.00  0.00     0.000 A 
ENDBRANCH  66  79
ENDBRANCH  40  41
ENDBRANCH  32  35
ENDBRANCH  30  31
ENDBRANCH  29  30
ENDBRANCH   1  29
TORSDOF 14
ENDMDL
MODEL 2
REMARK VINA RESULT:     -12.0      4.788      9.725
REMARK SMILES CC1=C(CC(=O)NCCCCNC(=O)c2ccc(-c3c4nc(c(-c5ccccc5)c5ccc([nH]5)c(-c5ccccc5)c5nc(c(-c6ccccc6)c6ccc3[nH]6)C=C5)C=C4)cc2)c2cc(F)ccc2/C1=C\c1ccc([S@@+](C)[O-])cc1
REMARK SMILES IDX 9 1 8 2 7 3 5 4 6 5 4 7 3 8 1 9 2 10 70 11 63 12 69 13 71 14
REMARK SMILES IDX 64 15 68 16 65 17 67 18 66 19 72 20 73 21 80 22 74 23 79 24
REMARK SMILES IDX 75 25 76 26 77 27 78 28 10 29 11 30 12 31 13 32 14 34 15 35
REMARK SMILES IDX 16 36 62 37 17 38 61 39 18 40 19 41 20 42 55 43 21 44 60 45
REMARK SMILES IDX 54 46 56 47 22 48 59 49 53 50 52 51 23 53 45 54 30 55 44 56
REMARK SMILES IDX 31 57 34 58 43 59 57 60 32 61 33 62 42 64 58 65 35 66 24 67
REMARK SMILES IDX 25 68 29 69 26 70 28 71 27 72 46 73 47 74 51 75 48 76 50 77
REMARK SMILES IDX 49 78 36 79 37 80 41 81 38 82 40 83 39 84
REMARK H PARENT 7 6 12 33 56 52 34 63
REMARK Flexibility Score: inf
ROOT
ATOM      1  C   UNL A   1      46.092  21.390  24.709  1.00  0.00     0.023 C 
ENDROOT
BRANCH   1   2
ATOM      2  C   UNL A   1      45.734  22.861  24.922  1.00  0.00     0.116 C 
BRANCH   2   3
ATOM      3  N   UNL A   1      46.594  23.753  24.174  1.00  0.00    -0.356 N 
ATOM      4  C   UNL A   1      47.204  24.902  24.589  1.00  0.00     0.224 C 
ATOM      5  O   UNL A   1      47.897  25.517  23.775  1.00  0.00    -0.275 OA
ATOM      6  H   UNL A   1      46.761  23.497  23.238  1.00  0.00     0.163 HD
BRANCH   4   7
ATOM      7  C   UNL A   1      47.056  25.388  26.032  1.00  0.00     0.136 C 
BRANCH   7   8
ATOM      8  C   UNL A   1      46.473  26.759  26.142  1.00  0.00    -0.027 C 
ATOM      9  C   UNL A   1      48.569  28.125  26.595  1.00  0.00     0.045 C 
ATOM     10  C   UNL A   1      47.098  27.927  26.431  1.00  0.00    -0.039 C 
ATOM     11  C   UNL A   1      46.105  29.008  26.520  1.00  0.00    -0.014 C 
ATOM     12  C   UNL A   1      45.049  27.056  25.911  1.00  0.00    -0.011 A 
ATOM     13  C   UNL A   1      44.817  28.433  26.078  1.00  0.00    -0.010 A 
ATOM     14  C   UNL A   1      46.354  30.241  27.005  1.00  0.00     0.017 C 
ATOM     15  C   UNL A   1      44.016  26.203  25.540  1.00  0.00     0.048 A 
ATOM     16  C   UNL A   1      43.566  28.974  25.810  1.00  0.00     0.012 A 
ATOM     17  C   UNL A   1      42.754  26.748  25.329  1.00  0.00     0.123 A 
ATOM     18  C   UNL A   1      42.523  28.119  25.449  1.00  0.00     0.040 A 
ATOM     19  F   UNL A   1      41.739  25.945  24.986  1.00  0.00    -0.207 F 
BRANCH  14  20
ATOM     20  C   UNL A   1      45.366  31.316  27.142  1.00  0.00    -0.025 A 
ATOM     21  C   UNL A   1      45.162  32.251  26.120  1.00  0.00     0.013 A 
ATOM     22  C   UNL A   1      44.700  31.471  28.359  1.00  0.00     0.013 A 
ATOM     23  C   UNL A   1      44.401  33.400  26.363  1.00  0.00     0.061 A 
ATOM     24  C   UNL A   1      43.921  32.606  28.591  1.00  0.00     0.061 A 
ATOM     25  C   UNL A   1      43.798  33.599  27.610  1.00  0.00     0.152 A 
BRANCH  25  26
ATOM     26  S   UNL A   1      43.028  35.180  28.042  1.00  0.00    -0.018 S 
ATOM     27  C   UNL A   1      44.424  35.998  28.836  1.00  0.00     0.346 C 
ATOM     28  O   UNL A   1      42.732  35.930  26.695  1.00  0.00    -0.612 OA
ENDBRANCH  25  26
ENDBRANCH  14  20
ENDBRANCH   7   8
ENDBRANCH   4   7
ENDBRANCH   2   3
ENDBRANCH   1   2
BRANCH   1  29
ATOM     29  C   UNL A   1      44.901  20.463  24.461  1.00  0.00     0.023 C 
BRANCH  29  30
ATOM     30  C   UNL A   1      44.424  19.677  25.675  1.00  0.00     0.116 C 
BRANCH  30  31
ATOM     31  N   UNL A   1      43.105  19.079  25.515  1.00  0.00    -0.352 N 
ATOM     32  C   UNL A   1      41.885  19.606  25.874  1.00  0.00     0.251 C 
ATOM     33  H   UNL A   1      43.085  18.188  25.098  1.00  0.00     0.163 HD
ATOM     34  O   UNL A   1      40.858  18.945  25.752  1.00  0.00    -0.269 OA
BRANCH  32  35
ATOM     35  C   UNL A   1      41.835  20.959  26.471  1.00  0.00     0.039 A 
ATOM     36  C   UNL A   1      42.018  22.091  25.674  1.00  0.00     0.014 A 
ATOM     37  C   UNL A   1      41.691  21.088  27.854  1.00  0.00     0.014 A 
ATOM     38  C   UNL A   1      42.256  23.319  26.277  1.00  0.00     0.010 A 
ATOM     39  C   UNL A   1      41.846  22.342  28.452  1.00  0.00     0.010 A 
ATOM     40  C   UNL A   1      42.198  23.455  27.674  1.00  0.00    -0.014 A 
BRANCH  40  41
ATOM     41  C   UNL A   1      42.560  24.760  28.288  1.00  0.00     0.031 A 
ATOM     42  C   UNL A   1      41.514  25.825  28.500  1.00  0.00     0.074 A 
ATOM     43  C   UNL A   1      43.813  24.952  28.742  1.00  0.00     0.049 A 
ATOM     44  N   UNL A   1      41.634  26.988  29.090  1.00  0.00    -0.248 NA
ATOM     45  C   UNL A   1      40.159  25.555  27.989  1.00  0.00     0.031 C 
ATOM     46  C   UNL A   1      44.910  23.992  28.616  1.00  0.00     0.029 A 
ATOM     47  N   UNL A   1      44.365  25.999  29.436  1.00  0.00    -0.354 N 
ATOM     48  C   UNL A   1      40.385  27.592  29.004  1.00  0.00     0.074 A 
ATOM     49  C   UNL A   1      39.524  26.682  28.284  1.00  0.00     0.031 C 
ATOM     50  C   UNL A   1      45.983  24.464  29.268  1.00  0.00     0.029 A 
ATOM     51  C   UNL A   1      45.669  25.782  29.810  1.00  0.00     0.049 A 
ATOM     52  H   UNL A   1      43.874  26.827  29.646  1.00  0.00     0.167 HD
ATOM     53  C   UNL A   1      39.989  28.790  29.491  1.00  0.00     0.031 A 
ATOM     54  C   UNL A   1      46.521  26.553  30.513  1.00  0.00     0.031 A 
ATOM     55  C   UNL A   1      40.835  29.691  30.226  1.00  0.00     0.049 A 
ATOM     56  C   UNL A   1      46.057  27.883  31.032  1.00  0.00     0.074 A 
ATOM     57  C   UNL A   1      40.515  30.928  30.759  1.00  0.00     0.029 A 
ATOM     58  N   UNL A   1      42.161  29.447  30.547  1.00  0.00    -0.354 N 
ATOM     59  N   UNL A   1      44.873  28.435  30.937  1.00  0.00    -0.248 NA
ATOM     60  C   UNL A   1      47.043  28.694  31.761  1.00  0.00     0.031 C 
ATOM     61  C   UNL A   1      41.658  31.452  31.365  1.00  0.00     0.029 A 
ATOM     62  C   UNL A   1      42.673  30.516  31.261  1.00  0.00     0.049 A 
ATOM     63  H   UNL A   1      42.662  28.635  30.303  1.00  0.00     0.167 HD
ATOM     64  C   UNL A   1      44.966  29.648  31.608  1.00  0.00     0.074 A 
ATOM     65  C   UNL A   1      46.316  29.744  32.120  1.00  0.00     0.031 C 
ATOM     66  C   UNL A   1      44.014  30.596  31.777  1.00  0.00     0.031 A 
BRANCH  53  67
ATOM     67  C   UNL A   1      38.569  29.220  29.246  1.00  0.00    -0.014 A 
ATOM     68  C   UNL A   1      37.611  29.072  30.263  1.00  0.00     0.009 A 
ATOM     69  C   UNL A   1      38.155  29.668  27.982  1.00  0.00     0.009 A 
ATOM     70  C   UNL A   1      36.266  29.350  30.015  1.00  0.00     0.001 A 
ATOM     71  C   UNL A   1      36.812  29.967  27.745  1.00  0.00     0.001 A 
ATOM     72  C   UNL A   1      35.868  29.799  28.757  1.00  0.00     0.000 A 
ENDBRANCH  53  67
BRANCH  54  73
ATOM     73  C   UNL A   1      47.899  26.063  30.777  1.00  0.00    -0.014 A 
ATOM     74  C   UNL A   1      48.868  26.084  29.760  1.00  0.00     0.009 A 
ATOM     75  C   UNL A   1      48.243  25.537  32.031  1.00  0.00     0.009 A 
ATOM     76  C   UNL A   1      50.145  25.568  29.988  1.00  0.00     0.001 A 
ATOM     77  C   UNL A   1      49.530  25.050  32.265  1.00  0.00     0.001 A 
ATOM     78  C   UNL A   1      50.478  25.057  31.241  1.00  0.00     0.000 A 
ENDBRANCH  54  73
BRANCH  66  79
ATOM     79  C   UNL A   1      44.372  31.818  32.572  1.00  0.00    -0.014 A 
ATOM     80  C   UNL A   1      44.125  31.843  33.955  1.00  0.00     0.009 A 
ATOM     81  C   UNL A   1      44.854  32.975  31.944  1.00  0.00     0.009 A 
ATOM     82  C   UNL A   1      44.342  33.008  34.691  1.00  0.00     0.001 A 
ATOM     83  C   UNL A   1      45.094  34.132  32.688  1.00  0.00     0.001 A 
ATOM     84  C   UNL A   1      44.830  34.150  34.059  1.00  0.00     0.000 A 
ENDBRANCH  66  79
ENDBRANCH  40  41
ENDBRANCH  32  35
ENDBRANCH  30  31
ENDBRANCH  29  30
ENDBRANCH   1  29
TORSDOF 14
ENDMDL
MODEL 3
REMARK VINA RESULT:     -11.9      4.367      9.676
REMARK SMILES CC1=C(CC(=O)NCCCCNC(=O)c2ccc(-c3c4nc(c(-c5ccccc5)c5ccc([nH]5)c(-c5ccccc5)c5nc(c(-c6ccccc6)c6ccc3[nH]6)C=C5)C=C4)cc2)c2cc(F)ccc2/C1=C\c1ccc([S@@+](C)[O-])cc1
REMARK SMILES IDX 9 1 8 2 7 3 5 4 6 5 4 7 3 8 1 9 2 10 70 11 63 12 69 13 71 14
REMARK SMILES IDX 64 15 68 16 65 17 67 18 66 19 72 20 73 21 80 22 74 23 79 24
REMARK SMILES IDX 75 25 76 26 77 27 78 28 10 29 11 30 12 31 13 32 14 34 15 35
REMARK SMILES IDX 16 36 62 37 17 38 61 39 18 40 19 41 20 42 55 43 21 44 60 45
REMARK SMILES IDX 54 46 56 47 22 48 59 49 53 50 52 51 23 53 45 54 30 55 44 56
REMARK SMILES IDX 31 57 34 58 43 59 57 60 32 61 33 62 42 64 58 65 35 66 24 67
REMARK SMILES IDX 25 68 29 69 26 70 28 71 27 72 46 73 47 74 51 75 48 76 50 77
REMARK SMILES IDX 49 78 36 79 37 80 41 81 38 82 40 83 39 84
REMARK H PARENT 7 6 12 33 56 52 34 63
REMARK Flexibility Score: inf
ROOT
ATOM      1  C   UNL A   1      32.757  30.083  25.765  1.00  0.00     0.023 C 
ENDROOT
BRANCH   1   2
ATOM      2  C   UNL A   1      31.845  29.067  25.076  1.00  0.00     0.116 C 
BRANCH   2   3
ATOM      3  N   UNL A   1      32.446  28.500  23.888  1.00  0.00    -0.356 N 
ATOM      4  C   UNL A   1      33.269  27.416  23.778  1.00  0.00     0.224 C 
ATOM      5  O   UNL A   1      33.675  27.108  22.655  1.00  0.00    -0.275 OA
ATOM      6  H   UNL A   1      32.233  28.960  23.043  1.00  0.00     0.163 HD
BRANCH   4   7
ATOM      7  C   UNL A   1      33.644  26.593  25.011  1.00  0.00     0.136 C 
BRANCH   7   8
ATOM      8  C   UNL A   1      33.522  25.118  24.803  1.00  0.00    -0.027 C 
ATOM      9  C   UNL A   1      31.103  24.951  24.038  1.00  0.00     0.045 C 
ATOM     10  C   UNL A   1      32.432  24.400  24.436  1.00  0.00    -0.039 C 
ATOM     11  C   UNL A   1      32.762  22.966  24.446  1.00  0.00    -0.014 C 
ATOM     12  C   UNL A   1      34.650  24.182  24.952  1.00  0.00    -0.011 A 
ATOM     13  C   UNL A   1      34.218  22.871  24.679  1.00  0.00    -0.010 A 
ATOM     14  C   UNL A   1      31.859  21.970  24.349  1.00  0.00     0.017 C 
ATOM     15  C   UNL A   1      35.979  24.441  25.264  1.00  0.00     0.048 A 
ATOM     16  C   UNL A   1      35.129  21.822  24.652  1.00  0.00     0.012 A 
ATOM     17  C   UNL A   1      36.870  23.373  25.289  1.00  0.00     0.123 A 
ATOM     18  C   UNL A   1      36.462  22.076  24.977  1.00  0.00     0.040 A 
ATOM     19  F   UNL A   1      38.153  23.594  25.602  1.00  0.00    -0.207 F 
BRANCH  14  20
ATOM     20  C   UNL A   1      32.165  20.538  24.401  1.00  0.00    -0.025 A 
ATOM     21  C   UNL A   1      32.391  19.885  25.620  1.00  0.00     0.013 A 
ATOM     22  C   UNL A   1      32.343  19.840  23.206  1.00  0.00     0.013 A 
ATOM     23  C   UNL A   1      32.916  18.589  25.635  1.00  0.00     0.061 A 
ATOM     24  C   UNL A   1      32.845  18.537  23.223  1.00  0.00     0.061 A 
ATOM     25  C   UNL A   1      33.173  17.916  24.435  1.00  0.00     0.152 A 
BRANCH  25  26
ATOM     26  S   UNL A   1      34.086  16.352  24.410  1.00  0.00    -0.018 S 
ATOM     27  C   UNL A   1      32.878  15.275  25.204  1.00  0.00     0.346 C 
ATOM     28  O   UNL A   1      34.209  15.916  22.908  1.00  0.00    -0.612 OA
ENDBRANCH  25  26
ENDBRANCH  14  20
ENDBRANCH   7   8
ENDBRANCH   4   7
ENDBRANCH   2   3
ENDBRANCH   1   2
BRANCH   1  29
ATOM     29  C   UNL A   1      32.033  31.186  26.537  1.00  0.00     0.023 C 
BRANCH  29  30
ATOM     30  C   UNL A   1      32.922  32.064  27.407  1.00  0.00     0.116 C 
BRANCH  30  31
ATOM     31  N   UNL A   1      32.427  33.423  27.583  1.00  0.00    -0.352 N 
ATOM     32  C   UNL A   1      32.968  34.431  28.348  1.00  0.00     0.251 C 
ATOM     33  H   UNL A   1      31.603  33.647  27.092  1.00  0.00     0.163 HD
ATOM     34  O   UNL A   1      32.388  35.507  28.466  1.00  0.00    -0.269 OA
BRANCH  32  35
ATOM     35  C   UNL A   1      34.227  34.179  29.083  1.00  0.00     0.039 A 
ATOM     36  C   UNL A   1      35.460  34.431  28.479  1.00  0.00     0.014 A 
ATOM     37  C   UNL A   1      34.170  33.600  30.353  1.00  0.00     0.014 A 
ATOM     38  C   UNL A   1      36.619  33.927  29.056  1.00  0.00     0.010 A 
ATOM     39  C   UNL A   1      35.348  33.170  30.971  1.00  0.00     0.010 A 
ATOM     40  C   UNL A   1      36.574  33.268  30.296  1.00  0.00    -0.014 A 
BRANCH  40  41
ATOM     41  C   UNL A   1      37.816  32.651  30.831  1.00  0.00     0.031 A 
ATOM     42  C   UNL A   1      38.410  33.128  32.133  1.00  0.00     0.074 A 
ATOM     43  C   UNL A   1      38.360  31.598  30.193  1.00  0.00     0.049 A 
ATOM     44  N   UNL A   1      39.442  32.654  32.787  1.00  0.00    -0.248 NA
ATOM     45  C   UNL A   1      37.768  34.278  32.789  1.00  0.00     0.031 C 
ATOM     46  C   UNL A   1      37.868  31.030  28.936  1.00  0.00     0.029 A 
ATOM     47  N   UNL A   1      39.418  30.792  30.531  1.00  0.00    -0.354 N 
ATOM     48  C   UNL A   1      39.582  33.456  33.913  1.00  0.00     0.074 A 
ATOM     49  C   UNL A   1      38.549  34.464  33.846  1.00  0.00     0.031 C 
ATOM     50  C   UNL A   1      38.579  29.931  28.644  1.00  0.00     0.029 A 
ATOM     51  C   UNL A   1      39.611  29.747  29.660  1.00  0.00     0.049 A 
ATOM     52  H   UNL A   1      39.983  30.947  31.322  1.00  0.00     0.167 HD
ATOM     53  C   UNL A   1      40.483  33.355  34.917  1.00  0.00     0.031 A 
ATOM     54  C   UNL A   1      40.515  28.749  29.673  1.00  0.00     0.031 A 
ATOM     55  C   UNL A   1      41.500  32.342  35.000  1.00  0.00     0.049 A 
ATOM     56  C   UNL A   1      41.510  28.667  30.795  1.00  0.00     0.074 A 
ATOM     57  C   UNL A   1      42.457  32.164  35.985  1.00  0.00     0.029 A 
ATOM     58  N   UNL A   1      41.685  31.328  34.074  1.00  0.00    -0.354 N 
ATOM     59  N   UNL A   1      41.626  29.438  31.848  1.00  0.00    -0.248 NA
ATOM     60  C   UNL A   1      42.494  27.576  30.734  1.00  0.00     0.031 C 
ATOM     61  C   UNL A   1      43.246  31.068  35.634  1.00  0.00     0.029 A 
ATOM     62  C   UNL A   1      42.746  30.529  34.461  1.00  0.00     0.049 A 
ATOM     63  H   UNL A   1      41.142  31.197  33.263  1.00  0.00     0.167 HD
ATOM     64  C   UNL A   1      42.682  28.916  32.584  1.00  0.00     0.074 A 
ATOM     65  C   UNL A   1      43.162  27.753  31.867  1.00  0.00     0.031 C 
ATOM     66  C   UNL A   1      43.206  29.367  33.748  1.00  0.00     0.031 A 
BRANCH  53  67
ATOM     67  C   UNL A   1      40.426  34.371  36.024  1.00  0.00    -0.014 A 
ATOM     68  C   UNL A   1      39.582  34.156  37.125  1.00  0.00     0.009 A 
ATOM     69  C   UNL A   1      41.123  35.586  35.928  1.00  0.00     0.009 A 
ATOM     70  C   UNL A   1      39.423  35.141  38.101  1.00  0.00     0.001 A 
ATOM     71  C   UNL A   1      40.980  36.560  36.918  1.00  0.00     0.001 A 
ATOM     72  C   UNL A   1      40.125  36.342  37.997  1.00  0.00     0.000 A 
ENDBRANCH  53  67
BRANCH  54  73
ATOM     73  C   UNL A   1      40.499  27.735  28.586  1.00  0.00    -0.014 A 
ATOM     74  C   UNL A   1      41.232  27.945  27.407  1.00  0.00     0.009 A 
ATOM     75  C   UNL A   1      39.720  26.574  28.703  1.00  0.00     0.009 A 
ATOM     76  C   UNL A   1      41.170  27.024  26.360  1.00  0.00     0.001 A 
ATOM     77  C   UNL A   1      39.684  25.640  27.666  1.00  0.00     0.001 A 
ATOM     78  C   UNL A   1      40.401  25.869  26.492  1.00  0.00     0.000 A 
ENDBRANCH  54  73
BRANCH  66  79
ATOM     79  C   UNL A   1      44.344  28.596  34.352  1.00  0.00    -0.014 A 
ATOM     80  C   UNL A   1      45.666  28.946  34.034  1.00  0.00     0.009 A 
ATOM     81  C   UNL A   1      44.110  27.464  35.147  1.00  0.00     0.009 A 
ATOM     82  C   UNL A   1      46.733  28.171  34.491  1.00  0.00     0.001 A 
ATOM     83  C   UNL A   1      45.181  26.705  35.623  1.00  0.00     0.001 A 
ATOM     84  C   UNL A   1      46.490  27.054  35.288  1.00  0.00     0.000 A 
ENDBRANCH  66  79
ENDBRANCH  40  41
ENDBRANCH  32  35
ENDBRANCH  30  31
ENDBRANCH  29  30
ENDBRANCH   1  29
TORSDOF 14
ENDMDL
