MODEL 1
REMARK VINA RESULT:     -11.5      0.000      0.000
REMARK SMILES C[C@@H](Cc1cnn(-c2ccccc2)n1)C(=O)NCCCCNC(=O)c1ccc(-c2c3nc(c(-c4ccccc4)c4ccc([nH]4)c(-c4ccccc4)c4nc(c(-c5ccccc5)c5ccc2[nH]5)C=C4)C=C3)cc1
REMARK SMILES IDX 19 1 18 2 17 3 15 4 16 5 2 7 1 8 3 9 4 10 5 11 14 12 6 13
REMARK SMILES IDX 7 14 8 15 9 16 13 17 10 18 12 19 11 20 20 21 21 22 22 23
REMARK SMILES IDX 23 24 24 26 25 27 26 28 72 29 27 30 71 31 28 32 29 33 30 34
REMARK SMILES IDX 65 35 31 36 70 37 64 38 66 39 32 40 69 41 63 42 62 43 33 45
REMARK SMILES IDX 55 46 40 47 54 48 41 49 44 50 53 51 67 52 42 53 43 54 52 56
REMARK SMILES IDX 68 57 45 58 34 59 35 60 39 61 36 62 38 63 37 64 56 65 57 66
REMARK SMILES IDX 61 67 58 68 60 69 59 70 46 71 47 72 51 73 48 74 50 75 49 76
REMARK H PARENT 17 6 22 25 66 44 44 55
REMARK Flexibility Score: inf
ROOT
ATOM      1  C   UNL A   1      36.576  21.307  25.072  1.00  0.00     0.023 C 
ENDROOT
BRANCH   1   2
ATOM      2  C   UNL A   1      36.673  22.777  24.663  1.00  0.00     0.116 C 
BRANCH   2   3
ATOM      3  N   UNL A   1      35.813  23.154  23.565  1.00  0.00    -0.356 N 
ATOM      4  C   UNL A   1      34.762  24.019  23.545  1.00  0.00     0.223 C 
ATOM      5  O   UNL A   1      34.247  24.236  22.442  1.00  0.00    -0.275 OA
ATOM      6  H   UNL A   1      36.017  22.722  22.705  1.00  0.00     0.163 HD
BRANCH   4   7
ATOM      7  C   UNL A   1      34.207  24.729  24.786  1.00  0.00     0.081 C 
ATOM      8  C   UNL A   1      34.052  26.241  24.645  1.00  0.00     0.018 C 
BRANCH   7   9
ATOM      9  C   UNL A   1      33.100  23.964  25.533  1.00  0.00     0.073 C 
BRANCH   9  10
ATOM     10  C   UNL A   1      33.164  22.480  25.700  1.00  0.00     0.084 A 
ATOM     11  C   UNL A   1      33.461  21.755  26.870  1.00  0.00     0.161 A 
ATOM     12  N   UNL A   1      32.842  21.612  24.736  1.00  0.00    -0.153 NA
ATOM     13  N   UNL A   1      33.318  20.445  26.659  1.00  0.00    -0.157 NA
ATOM     14  N   UNL A   1      33.041  20.403  25.329  1.00  0.00    -0.151 N 
BRANCH  14  15
ATOM     15  C   UNL A   1      33.205  19.214  24.572  1.00  0.00     0.086 A 
ATOM     16  C   UNL A   1      34.300  18.373  24.796  1.00  0.00     0.030 A 
ATOM     17  C   UNL A   1      32.326  18.947  23.514  1.00  0.00     0.030 A 
ATOM     18  C   UNL A   1      34.541  17.307  23.927  1.00  0.00     0.002 A 
ATOM     19  C   UNL A   1      32.605  17.916  22.615  1.00  0.00     0.002 A 
ATOM     20  C   UNL A   1      33.721  17.108  22.814  1.00  0.00     0.000 A 
ENDBRANCH  14  15
ENDBRANCH   9  10
ENDBRANCH   7   9
ENDBRANCH   4   7
ENDBRANCH   2   3
ENDBRANCH   1   2
BRANCH   1  21
ATOM     21  C   UNL A   1      37.786  20.378  24.890  1.00  0.00     0.023 C 
BRANCH  21  22
ATOM     22  C   UNL A   1      39.058  20.669  25.672  1.00  0.00     0.116 C 
BRANCH  22  23
ATOM     23  N   UNL A   1      39.963  19.529  25.827  1.00  0.00    -0.352 N 
ATOM     24  C   UNL A   1      41.355  19.560  25.954  1.00  0.00     0.251 C 
ATOM     25  H   UNL A   1      39.543  18.639  25.845  1.00  0.00     0.163 HD
ATOM     26  O   UNL A   1      42.065  18.630  25.674  1.00  0.00    -0.269 OA
BRANCH  24  27
ATOM     27  C   UNL A   1      41.927  20.806  26.498  1.00  0.00     0.039 A 
ATOM     28  C   UNL A   1      42.473  21.816  25.699  1.00  0.00     0.014 A 
ATOM     29  C   UNL A   1      41.802  20.953  27.872  1.00  0.00     0.014 A 
ATOM     30  C   UNL A   1      42.785  23.034  26.297  1.00  0.00     0.010 A 
ATOM     31  C   UNL A   1      41.891  22.199  28.404  1.00  0.00     0.010 A 
ATOM     32  C   UNL A   1      42.458  23.218  27.647  1.00  0.00    -0.014 A 
BRANCH  32  33
ATOM     33  C   UNL A   1      42.565  24.498  28.320  1.00  0.00     0.031 A 
ATOM     34  C   UNL A   1      41.432  25.421  28.079  1.00  0.00     0.074 A 
ATOM     35  C   UNL A   1      43.415  24.660  29.355  1.00  0.00     0.049 A 
ATOM     36  N   UNL A   1      41.455  26.523  27.409  1.00  0.00    -0.248 NA
ATOM     37  C   UNL A   1      40.084  25.012  28.506  1.00  0.00     0.031 C 
ATOM     38  C   UNL A   1      44.330  23.672  29.947  1.00  0.00     0.029 A 
ATOM     39  N   UNL A   1      43.503  25.702  30.216  1.00  0.00    -0.354 N 
ATOM     40  C   UNL A   1      40.177  27.057  27.515  1.00  0.00     0.074 A 
ATOM     41  C   UNL A   1      39.335  25.986  27.985  1.00  0.00     0.031 C 
ATOM     42  C   UNL A   1      44.671  24.069  31.192  1.00  0.00     0.029 A 
ATOM     43  C   UNL A   1      44.145  25.403  31.411  1.00  0.00     0.049 A 
ATOM     44  H   UNL A   1      43.144  26.595  30.013  1.00  0.00     0.167 HD
ATOM     45  C   UNL A   1      39.969  28.404  27.487  1.00  0.00     0.031 A 
ATOM     46  C   UNL A   1      44.191  26.189  32.514  1.00  0.00     0.031 A 
ATOM     47  C   UNL A   1      41.176  29.113  27.132  1.00  0.00     0.049 A 
ATOM     48  C   UNL A   1      43.867  27.571  32.074  1.00  0.00     0.074 A 
ATOM     49  C   UNL A   1      42.038  29.082  26.053  1.00  0.00     0.029 A 
ATOM     50  N   UNL A   1      41.885  29.683  28.166  1.00  0.00    -0.354 N 
ATOM     51  N   UNL A   1      44.637  28.264  31.282  1.00  0.00    -0.248 NA
ATOM     52  C   UNL A   1      42.478  28.004  32.117  1.00  0.00     0.031 C 
ATOM     53  C   UNL A   1      43.342  29.169  26.627  1.00  0.00     0.029 A 
ATOM     54  C   UNL A   1      43.204  29.341  28.006  1.00  0.00     0.049 A 
ATOM     55  H   UNL A   1      41.513  30.235  28.891  1.00  0.00     0.167 HD
ATOM     56  C   UNL A   1      43.764  28.883  30.396  1.00  0.00     0.074 A 
ATOM     57  C   UNL A   1      42.452  28.792  31.036  1.00  0.00     0.031 C 
ATOM     58  C   UNL A   1      44.131  29.129  29.100  1.00  0.00     0.031 A 
BRANCH  45  59
ATOM     59  C   UNL A   1      38.825  29.106  28.174  1.00  0.00    -0.014 A 
ATOM     60  C   UNL A   1      38.711  28.992  29.571  1.00  0.00     0.009 A 
ATOM     61  C   UNL A   1      37.721  29.653  27.494  1.00  0.00     0.009 A 
ATOM     62  C   UNL A   1      37.530  29.338  30.238  1.00  0.00     0.001 A 
ATOM     63  C   UNL A   1      36.557  30.042  28.161  1.00  0.00     0.001 A 
ATOM     64  C   UNL A   1      36.451  29.859  29.531  1.00  0.00     0.000 A 
ENDBRANCH  45  59
BRANCH  46  65
ATOM     65  C   UNL A   1      44.259  25.788  33.935  1.00  0.00    -0.014 A 
ATOM     66  C   UNL A   1      43.145  25.224  34.573  1.00  0.00     0.009 A 
ATOM     67  C   UNL A   1      45.497  25.721  34.604  1.00  0.00     0.009 A 
ATOM     68  C   UNL A   1      43.273  24.572  35.807  1.00  0.00     0.001 A 
ATOM     69  C   UNL A   1      45.624  25.077  35.839  1.00  0.00     0.001 A 
ATOM     70  C   UNL A   1      44.515  24.486  36.432  1.00  0.00     0.000 A 
ENDBRANCH  46  65
BRANCH  58  71
ATOM     71  C   UNL A   1      45.579  28.904  28.719  1.00  0.00    -0.014 A 
ATOM     72  C   UNL A   1      46.085  27.651  28.322  1.00  0.00     0.009 A 
ATOM     73  C   UNL A   1      46.423  30.017  28.606  1.00  0.00     0.009 A 
ATOM     74  C   UNL A   1      47.400  27.513  27.866  1.00  0.00     0.001 A 
ATOM     75  C   UNL A   1      47.730  29.884  28.129  1.00  0.00     0.001 A 
ATOM     76  C   UNL A   1      48.221  28.632  27.766  1.00  0.00     0.000 A 
ENDBRANCH  58  71
ENDBRANCH  32  33
ENDBRANCH  24  27
ENDBRANCH  22  23
ENDBRANCH  21  22
ENDBRANCH   1  21
TORSDOF 14
ENDMDL
MODEL 2
REMARK VINA RESULT:     -11.5      1.422      3.431
REMARK SMILES C[C@@H](Cc1cnn(-c2ccccc2)n1)C(=O)NCCCCNC(=O)c1ccc(-c2c3nc(c(-c4ccccc4)c4ccc([nH]4)c(-c4ccccc4)c4nc(c(-c5ccccc5)c5ccc2[nH]5)C=C4)C=C3)cc1
REMARK SMILES IDX 19 1 18 2 17 3 15 4 16 5 2 7 1 8 3 9 4 10 5 11 14 12 6 13
REMARK SMILES IDX 7 14 8 15 9 16 13 17 10 18 12 19 11 20 20 21 21 22 22 23
REMARK SMILES IDX 23 24 24 26 25 27 26 28 72 29 27 30 71 31 28 32 29 33 30 34
REMARK SMILES IDX 65 35 31 36 70 37 64 38 66 39 32 40 69 41 63 42 62 43 33 45
REMARK SMILES IDX 55 46 40 47 54 48 41 49 44 50 53 51 67 52 42 53 43 54 52 56
REMARK SMILES IDX 68 57 45 58 34 59 35 60 39 61 36 62 38 63 37 64 56 65 57 66
REMARK SMILES IDX 61 67 58 68 60 69 59 70 46 71 47 72 51 73 48 74 50 75 49 76
REMARK H PARENT 17 6 22 25 66 44 44 55
REMARK Flexibility Score: inf
ROOT
ATOM      1  C   UNL A   1      36.924  21.456  24.557  1.00  0.00     0.023 C 
ENDROOT
BRANCH   1   2
ATOM      2  C   UNL A   1      36.528  22.541  25.559  1.00  0.00     0.116 C 
BRANCH   2   3
ATOM      3  N   UNL A   1      35.588  22.113  26.569  1.00  0.00    -0.356 N 
ATOM      4  C   UNL A   1      34.385  21.493  26.426  1.00  0.00     0.223 C 
ATOM      5  O   UNL A   1      33.814  21.148  27.468  1.00  0.00    -0.275 OA
ATOM      6  H   UNL A   1      35.856  22.298  27.497  1.00  0.00     0.163 HD
BRANCH   4   7
ATOM      7  C   UNL A   1      33.723  21.197  25.075  1.00  0.00     0.081 C 
ATOM      8  C   UNL A   1      33.693  19.721  24.684  1.00  0.00     0.018 C 
BRANCH   7   9
ATOM      9  C   UNL A   1      32.478  22.045  24.760  1.00  0.00     0.073 C 
BRANCH   9  10
ATOM     10  C   UNL A   1      32.225  23.338  25.464  1.00  0.00     0.084 A 
ATOM     11  C   UNL A   1      31.346  23.579  26.538  1.00  0.00     0.161 A 
ATOM     12  N   UNL A   1      32.900  24.463  25.211  1.00  0.00    -0.153 NA
ATOM     13  N   UNL A   1      31.469  24.835  26.972  1.00  0.00    -0.157 NA
ATOM     14  N   UNL A   1      32.345  25.358  26.075  1.00  0.00    -0.151 N 
BRANCH  14  15
ATOM     15  C   UNL A   1      32.472  26.759  25.888  1.00  0.00     0.086 A 
ATOM     16  C   UNL A   1      31.473  27.481  25.226  1.00  0.00     0.030 A 
ATOM     17  C   UNL A   1      33.661  27.397  26.265  1.00  0.00     0.030 A 
ATOM     18  C   UNL A   1      31.695  28.819  24.894  1.00  0.00     0.002 A 
ATOM     19  C   UNL A   1      33.899  28.717  25.878  1.00  0.00     0.002 A 
ATOM     20  C   UNL A   1      32.922  29.421  25.179  1.00  0.00     0.000 A 
ENDBRANCH  14  15
ENDBRANCH   9  10
ENDBRANCH   7   9
ENDBRANCH   4   7
ENDBRANCH   2   3
ENDBRANCH   1   2
BRANCH   1  21
ATOM     21  C   UNL A   1      37.835  20.301  24.998  1.00  0.00     0.023 C 
BRANCH  21  22
ATOM     22  C   UNL A   1      39.122  20.623  25.742  1.00  0.00     0.116 C 
BRANCH  22  23
ATOM     23  N   UNL A   1      40.058  19.506  25.872  1.00  0.00    -0.352 N 
ATOM     24  C   UNL A   1      41.451  19.572  25.965  1.00  0.00     0.251 C 
ATOM     25  H   UNL A   1      39.660  18.605  25.898  1.00  0.00     0.163 HD
ATOM     26  O   UNL A   1      42.177  18.660  25.664  1.00  0.00    -0.269 OA
BRANCH  24  27
ATOM     27  C   UNL A   1      42.006  20.829  26.499  1.00  0.00     0.039 A 
ATOM     28  C   UNL A   1      42.492  21.861  25.688  1.00  0.00     0.014 A 
ATOM     29  C   UNL A   1      41.926  20.964  27.877  1.00  0.00     0.014 A 
ATOM     30  C   UNL A   1      42.789  23.083  26.285  1.00  0.00     0.010 A 
ATOM     31  C   UNL A   1      41.997  22.207  28.415  1.00  0.00     0.010 A 
ATOM     32  C   UNL A   1      42.506  23.248  27.647  1.00  0.00    -0.014 A 
BRANCH  32  33
ATOM     33  C   UNL A   1      42.600  24.526  28.326  1.00  0.00     0.031 A 
ATOM     34  C   UNL A   1      41.459  25.440  28.086  1.00  0.00     0.074 A 
ATOM     35  C   UNL A   1      43.445  24.691  29.364  1.00  0.00     0.049 A 
ATOM     36  N   UNL A   1      41.473  26.544  27.422  1.00  0.00    -0.248 NA
ATOM     37  C   UNL A   1      40.113  25.016  28.508  1.00  0.00     0.031 C 
ATOM     38  C   UNL A   1      44.367  23.709  29.955  1.00  0.00     0.029 A 
ATOM     39  N   UNL A   1      43.521  25.730  30.231  1.00  0.00    -0.354 N 
ATOM     40  C   UNL A   1      40.190  27.066  27.527  1.00  0.00     0.074 A 
ATOM     41  C   UNL A   1      39.357  25.986  27.990  1.00  0.00     0.031 C 
ATOM     42  C   UNL A   1      44.702  24.103  31.202  1.00  0.00     0.029 A 
ATOM     43  C   UNL A   1      44.163  25.431  31.426  1.00  0.00     0.049 A 
ATOM     44  H   UNL A   1      43.154  26.620  30.031  1.00  0.00     0.167 HD
ATOM     45  C   UNL A   1      39.969  28.412  27.505  1.00  0.00     0.031 A 
ATOM     46  C   UNL A   1      44.198  26.213  32.532  1.00  0.00     0.031 A 
ATOM     47  C   UNL A   1      41.171  29.133  27.156  1.00  0.00     0.049 A 
ATOM     48  C   UNL A   1      43.863  27.593  32.098  1.00  0.00     0.074 A 
ATOM     49  C   UNL A   1      42.036  29.115  26.079  1.00  0.00     0.029 A 
ATOM     50  N   UNL A   1      41.872  29.705  28.195  1.00  0.00    -0.354 N 
ATOM     51  N   UNL A   1      44.628  28.297  31.311  1.00  0.00    -0.248 NA
ATOM     52  C   UNL A   1      42.470  28.013  32.139  1.00  0.00     0.031 C 
ATOM     53  C   UNL A   1      43.337  29.211  26.657  1.00  0.00     0.029 A 
ATOM     54  C   UNL A   1      43.195  29.376  28.036  1.00  0.00     0.049 A 
ATOM     55  H   UNL A   1      41.492  30.251  28.921  1.00  0.00     0.167 HD
ATOM     56  C   UNL A   1      43.752  28.912  30.426  1.00  0.00     0.074 A 
ATOM     57  C   UNL A   1      42.439  28.806  31.062  1.00  0.00     0.031 C 
ATOM     58  C   UNL A   1      44.120  29.168  29.132  1.00  0.00     0.031 A 
BRANCH  45  59
ATOM     59  C   UNL A   1      38.817  29.100  28.191  1.00  0.00    -0.014 A 
ATOM     60  C   UNL A   1      38.633  28.884  29.569  1.00  0.00     0.009 A 
ATOM     61  C   UNL A   1      37.765  29.735  27.507  1.00  0.00     0.009 A 
ATOM     62  C   UNL A   1      37.434  29.221  30.208  1.00  0.00     0.001 A 
ATOM     63  C   UNL A   1      36.583  30.114  28.149  1.00  0.00     0.001 A 
ATOM     64  C   UNL A   1      36.407  29.831  29.495  1.00  0.00     0.000 A 
ENDBRANCH  45  59
BRANCH  46  65
ATOM     65  C   UNL A   1      44.267  25.805  33.952  1.00  0.00    -0.014 A 
ATOM     66  C   UNL A   1      43.119  25.356  34.622  1.00  0.00     0.009 A 
ATOM     67  C   UNL A   1      45.510  25.613  34.585  1.00  0.00     0.009 A 
ATOM     68  C   UNL A   1      43.217  24.694  35.854  1.00  0.00     0.001 A 
ATOM     69  C   UNL A   1      45.607  24.959  35.818  1.00  0.00     0.001 A 
ATOM     70  C   UNL A   1      44.461  24.482  36.444  1.00  0.00     0.000 A 
ENDBRANCH  46  65
BRANCH  58  71
ATOM     71  C   UNL A   1      45.571  28.957  28.754  1.00  0.00    -0.014 A 
ATOM     72  C   UNL A   1      46.092  27.710  28.362  1.00  0.00     0.009 A 
ATOM     73  C   UNL A   1      46.402  30.080  28.639  1.00  0.00     0.009 A 
ATOM     74  C   UNL A   1      47.409  27.585  27.908  1.00  0.00     0.001 A 
ATOM     75  C   UNL A   1      47.712  29.960  28.164  1.00  0.00     0.001 A 
ATOM     76  C   UNL A   1      48.218  28.712  27.806  1.00  0.00     0.000 A 
ENDBRANCH  58  71
ENDBRANCH  32  33
ENDBRANCH  24  27
ENDBRANCH  22  23
ENDBRANCH  21  22
ENDBRANCH   1  21
TORSDOF 14
ENDMDL
MODEL 3
REMARK VINA RESULT:     -11.2      4.389      8.916
REMARK SMILES C[C@@H](Cc1cnn(-c2ccccc2)n1)C(=O)NCCCCNC(=O)c1ccc(-c2c3nc(c(-c4ccccc4)c4ccc([nH]4)c(-c4ccccc4)c4nc(c(-c5ccccc5)c5ccc2[nH]5)C=C4)C=C3)cc1
REMARK SMILES IDX 19 1 18 2 17 3 15 4 16 5 2 7 1 8 3 9 4 10 5 11 14 12 6 13
REMARK SMILES IDX 7 14 8 15 9 16 13 17 10 18 12 19 11 20 20 21 21 22 22 23
REMARK SMILES IDX 23 24 24 26 25 27 26 28 72 29 27 30 71 31 28 32 29 33 30 34
REMARK SMILES IDX 65 35 31 36 70 37 64 38 66 39 32 40 69 41 63 42 62 43 33 45
REMARK SMILES IDX 55 46 40 47 54 48 41 49 44 50 53 51 67 52 42 53 43 54 52 56
REMARK SMILES IDX 68 57 45 58 34 59 35 60 39 61 36 62 38 63 37 64 56 65 57 66
REMARK SMILES IDX 61 67 58 68 60 69 59 70 46 71 47 72 51 73 48 74 50 75 49 76
REMARK H PARENT 17 6 22 25 66 44 44 55
REMARK Flexibility Score: inf
ROOT
ATOM      1  C   UNL A   1      31.998  29.911  26.466  1.00  0.00     0.023 C 
ENDROOT
BRANCH   1   2
ATOM      2  C   UNL A   1      32.123  29.388  25.034  1.00  0.00     0.116 C 
BRANCH   2   3
ATOM      3  N   UNL A   1      31.027  29.748  24.165  1.00  0.00    -0.356 N 
ATOM      4  C   UNL A   1      30.104  28.952  23.559  1.00  0.00     0.223 C 
ATOM      5  O   UNL A   1      29.205  29.526  22.934  1.00  0.00    -0.275 OA
ATOM      6  H   UNL A   1      30.934  30.710  23.983  1.00  0.00     0.163 HD
BRANCH   4   7
ATOM      7  C   UNL A   1      30.115  27.419  23.621  1.00  0.00     0.081 C 
ATOM      8  C   UNL A   1      28.743  26.774  23.803  1.00  0.00     0.018 C 
BRANCH   7   9
ATOM      9  C   UNL A   1      31.104  26.736  22.661  1.00  0.00     0.073 C 
BRANCH   9  10
ATOM     10  C   UNL A   1      31.844  25.502  23.062  1.00  0.00     0.084 A 
ATOM     11  C   UNL A   1      31.310  24.239  23.380  1.00  0.00     0.161 A 
ATOM     12  N   UNL A   1      33.178  25.413  23.082  1.00  0.00    -0.153 NA
ATOM     13  N   UNL A   1      32.288  23.355  23.587  1.00  0.00    -0.157 NA
ATOM     14  N   UNL A   1      33.397  24.134  23.495  1.00  0.00    -0.151 N 
BRANCH  14  15
ATOM     15  C   UNL A   1      34.643  23.723  24.035  1.00  0.00     0.086 A 
ATOM     16  C   UNL A   1      35.072  24.200  25.278  1.00  0.00     0.030 A 
ATOM     17  C   UNL A   1      35.499  22.929  23.259  1.00  0.00     0.030 A 
ATOM     18  C   UNL A   1      36.372  23.928  25.710  1.00  0.00     0.002 A 
ATOM     19  C   UNL A   1      36.815  22.711  23.670  1.00  0.00     0.002 A 
ATOM     20  C   UNL A   1      37.254  23.225  24.888  1.00  0.00     0.000 A 
ENDBRANCH  14  15
ENDBRANCH   9  10
ENDBRANCH   7   9
ENDBRANCH   4   7
ENDBRANCH   2   3
ENDBRANCH   1   2
BRANCH   1  21
ATOM     21  C   UNL A   1      31.806  31.413  26.721  1.00  0.00     0.023 C 
BRANCH  21  22
ATOM     22  C   UNL A   1      32.920  32.191  27.404  1.00  0.00     0.116 C 
BRANCH  22  23
ATOM     23  N   UNL A   1      32.647  33.613  27.610  1.00  0.00    -0.352 N 
ATOM     24  C   UNL A   1      33.161  34.441  28.612  1.00  0.00     0.251 C 
ATOM     25  H   UNL A   1      32.030  34.035  26.969  1.00  0.00     0.163 HD
ATOM     26  O   UNL A   1      32.616  35.449  28.982  1.00  0.00    -0.269 OA
BRANCH  24  27
ATOM     27  C   UNL A   1      34.456  34.033  29.188  1.00  0.00     0.039 A 
ATOM     28  C   UNL A   1      34.576  33.319  30.385  1.00  0.00     0.014 A 
ATOM     29  C   UNL A   1      35.561  34.327  28.403  1.00  0.00     0.014 A 
ATOM     30  C   UNL A   1      35.824  32.801  30.721  1.00  0.00     0.010 A 
ATOM     31  C   UNL A   1      36.711  33.638  28.612  1.00  0.00     0.010 A 
ATOM     32  C   UNL A   1      36.874  32.944  29.806  1.00  0.00    -0.014 A 
BRANCH  32  33
ATOM     33  C   UNL A   1      38.158  32.289  29.966  1.00  0.00     0.031 A 
ATOM     34  C   UNL A   1      38.193  30.878  29.515  1.00  0.00     0.074 A 
ATOM     35  C   UNL A   1      39.282  33.013  30.143  1.00  0.00     0.049 A 
ATOM     36  N   UNL A   1      38.314  29.828  30.253  1.00  0.00    -0.248 NA
ATOM     37  C   UNL A   1      37.921  30.582  28.098  1.00  0.00     0.031 C 
ATOM     38  C   UNL A   1      39.422  34.475  30.217  1.00  0.00     0.029 A 
ATOM     39  N   UNL A   1      40.569  32.592  30.109  1.00  0.00    -0.354 N 
ATOM     40  C   UNL A   1      38.355  28.751  29.376  1.00  0.00     0.074 A 
ATOM     41  C   UNL A   1      37.875  29.248  28.111  1.00  0.00     0.031 C 
ATOM     42  C   UNL A   1      40.704  34.815  29.965  1.00  0.00     0.029 A 
ATOM     43  C   UNL A   1      41.496  33.603  29.885  1.00  0.00     0.049 A 
ATOM     44  H   UNL A   1      40.826  31.651  30.234  1.00  0.00     0.167 HD
ATOM     45  C   UNL A   1      39.049  27.617  29.679  1.00  0.00     0.031 A 
ATOM     46  C   UNL A   1      42.811  33.435  29.606  1.00  0.00     0.031 A 
ATOM     47  C   UNL A   1      39.510  27.636  31.048  1.00  0.00     0.049 A 
ATOM     48  C   UNL A   1      43.176  32.064  30.046  1.00  0.00     0.074 A 
ATOM     49  C   UNL A   1      38.893  27.755  32.278  1.00  0.00     0.029 A 
ATOM     50  N   UNL A   1      40.829  27.977  31.251  1.00  0.00    -0.354 N 
ATOM     51  N   UNL A   1      43.170  31.693  31.296  1.00  0.00    -0.248 NA
ATOM     52  C   UNL A   1      43.079  30.978  29.081  1.00  0.00     0.031 C 
ATOM     53  C   UNL A   1      39.741  28.626  33.027  1.00  0.00     0.029 A 
ATOM     54  C   UNL A   1      40.867  28.914  32.254  1.00  0.00     0.049 A 
ATOM     55  H   UNL A   1      41.604  27.615  30.765  1.00  0.00     0.167 HD
ATOM     56  C   UNL A   1      42.603  30.424  31.285  1.00  0.00     0.074 A 
ATOM     57  C   UNL A   1      42.689  29.987  29.892  1.00  0.00     0.031 C 
ATOM     58  C   UNL A   1      41.844  29.982  32.334  1.00  0.00     0.031 A 
BRANCH  45  59
ATOM     59  C   UNL A   1      39.671  26.698  28.658  1.00  0.00    -0.014 A 
ATOM     60  C   UNL A   1      40.455  27.264  27.637  1.00  0.00     0.009 A 
ATOM     61  C   UNL A   1      39.316  25.346  28.504  1.00  0.00     0.009 A 
ATOM     62  C   UNL A   1      40.801  26.536  26.493  1.00  0.00     0.001 A 
ATOM     63  C   UNL A   1      39.696  24.601  27.384  1.00  0.00     0.001 A 
ATOM     64  C   UNL A   1      40.416  25.206  26.365  1.00  0.00     0.000 A 
ENDBRANCH  45  59
BRANCH  46  65
ATOM     65  C   UNL A   1      43.697  34.282  28.780  1.00  0.00    -0.014 A 
ATOM     66  C   UNL A   1      45.007  34.563  29.195  1.00  0.00     0.009 A 
ATOM     67  C   UNL A   1      43.347  34.611  27.456  1.00  0.00     0.009 A 
ATOM     68  C   UNL A   1      45.945  35.103  28.305  1.00  0.00     0.001 A 
ATOM     69  C   UNL A   1      44.282  35.158  26.569  1.00  0.00     0.001 A 
ATOM     70  C   UNL A   1      45.586  35.386  26.989  1.00  0.00     0.000 A 
ENDBRANCH  46  65
BRANCH  58  71
ATOM     71  C   UNL A   1      41.813  30.824  33.592  1.00  0.00    -0.014 A 
ATOM     72  C   UNL A   1      40.950  31.923  33.763  1.00  0.00     0.009 A 
ATOM     73  C   UNL A   1      42.567  30.405  34.697  1.00  0.00     0.009 A 
ATOM     74  C   UNL A   1      40.872  32.600  34.985  1.00  0.00     0.001 A 
ATOM     75  C   UNL A   1      42.473  31.067  35.925  1.00  0.00     0.001 A 
ATOM     76  C   UNL A   1      41.633  32.168  36.067  1.00  0.00     0.000 A 
ENDBRANCH  58  71
ENDBRANCH  32  33
ENDBRANCH  24  27
ENDBRANCH  22  23
ENDBRANCH  21  22
ENDBRANCH   1  21
TORSDOF 14
ENDMDL
