MODEL 1
REMARK VINA RESULT:     -11.4      0.000      0.000
REMARK SMILES O=C(NCCCCNC(=O)c1cc(S[C@H]2CCO[C@@]3(CCOC3)C2)cs1)c1ccc(-c2c3nc(c(-c4ccccc4)c4ccc([nH]4)c(-c4ccccc4)c4nc(c(-c5ccccc5)c5ccc2[nH]5)C=C4)C=C3)cc1
REMARK SMILES IDX 5 1 4 2 3 3 1 4 2 5 27 7 28 8 74 9 29 10 73 11 30 12 31 13
REMARK SMILES IDX 32 14 67 15 33 16 72 17 66 18 68 19 34 20 71 21 65 22 64 23
REMARK SMILES IDX 35 25 57 26 42 27 56 28 43 29 46 30 55 31 69 32 44 33 45 34
REMARK SMILES IDX 54 36 70 37 47 38 36 39 37 40 41 41 38 42 40 43 39 44 58 45
REMARK SMILES IDX 59 46 63 47 60 48 62 49 61 50 48 51 49 52 53 53 50 54 52 55
REMARK SMILES IDX 51 56 6 57 7 58 8 59 9 60 10 62 11 63 12 64 26 65 13 66
REMARK SMILES IDX 25 67 14 68 15 69 16 70 24 71 17 72 19 73 18 74 20 75 23 76
REMARK SMILES IDX 21 77 22 78
REMARK H PARENT 3 6 68 24 46 35 8 61
REMARK Flexibility Score: inf
ROOT
ATOM      1  C   UNL A   1      33.754  28.446  25.687  1.00  0.00     0.023 C 
ENDROOT
BRANCH   1   2
ATOM      2  C   UNL A   1      33.643  28.600  27.200  1.00  0.00     0.116 C 
BRANCH   2   3
ATOM      3  N   UNL A   1      33.615  29.991  27.623  1.00  0.00    -0.352 N 
ATOM      4  O   UNL A   1      34.296  31.859  28.678  1.00  0.00    -0.269 OA
ATOM      5  C   UNL A   1      34.573  30.738  28.264  1.00  0.00     0.251 C 
ATOM      6  H   UNL A   1      32.779  30.471  27.420  1.00  0.00     0.163 HD
BRANCH   5   7
ATOM      7  C   UNL A   1      35.928  30.190  28.479  1.00  0.00     0.039 A 
ATOM      8  C   UNL A   1      36.293  29.626  29.704  1.00  0.00     0.014 A 
ATOM      9  C   UNL A   1      36.843  30.224  27.423  1.00  0.00     0.014 A 
ATOM     10  C   UNL A   1      37.609  29.223  29.918  1.00  0.00     0.010 A 
ATOM     11  C   UNL A   1      38.145  29.757  27.617  1.00  0.00     0.010 A 
ATOM     12  C   UNL A   1      38.547  29.287  28.876  1.00  0.00    -0.014 A 
BRANCH  12  13
ATOM     13  C   UNL A   1      39.941  28.832  29.103  1.00  0.00     0.031 A 
ATOM     14  C   UNL A   1      40.952  29.745  29.737  1.00  0.00     0.074 A 
ATOM     15  C   UNL A   1      40.295  27.587  28.733  1.00  0.00     0.049 A 
ATOM     16  N   UNL A   1      42.222  29.528  29.976  1.00  0.00    -0.248 NA
ATOM     17  C   UNL A   1      40.480  31.075  30.152  1.00  0.00     0.031 C 
ATOM     18  C   UNL A   1      39.404  26.605  28.112  1.00  0.00     0.029 A 
ATOM     19  N   UNL A   1      41.498  26.937  28.828  1.00  0.00    -0.354 N 
ATOM     20  C   UNL A   1      42.705  30.700  30.543  1.00  0.00     0.074 A 
ATOM     21  C   UNL A   1      41.598  31.631  30.599  1.00  0.00     0.031 C 
ATOM     22  C   UNL A   1      40.086  25.469  27.904  1.00  0.00     0.029 A 
ATOM     23  C   UNL A   1      41.468  25.659  28.327  1.00  0.00     0.049 A 
ATOM     24  H   UNL A   1      42.305  27.346  29.219  1.00  0.00     0.167 HD
ATOM     25  C   UNL A   1      43.959  30.975  30.978  1.00  0.00     0.031 A 
ATOM     26  C   UNL A   1      42.449  24.747  28.200  1.00  0.00     0.031 A 
ATOM     27  C   UNL A   1      45.059  30.050  30.927  1.00  0.00     0.049 A 
ATOM     28  C   UNL A   1      43.834  25.085  28.663  1.00  0.00     0.074 A 
ATOM     29  C   UNL A   1      46.358  30.229  31.373  1.00  0.00     0.029 A 
ATOM     30  N   UNL A   1      44.991  28.773  30.394  1.00  0.00    -0.354 N 
ATOM     31  N   UNL A   1      44.270  26.190  29.217  1.00  0.00    -0.248 NA
ATOM     32  C   UNL A   1      44.862  24.051  28.484  1.00  0.00     0.031 C 
ATOM     33  C   UNL A   1      47.086  29.072  31.074  1.00  0.00     0.029 A 
ATOM     34  C   UNL A   1      46.230  28.158  30.482  1.00  0.00     0.049 A 
ATOM     35  H   UNL A   1      44.183  28.362  30.011  1.00  0.00     0.167 HD
ATOM     36  C   UNL A   1      45.619  25.981  29.468  1.00  0.00     0.074 A 
ATOM     37  C   UNL A   1      45.927  24.638  29.017  1.00  0.00     0.031 C 
ATOM     38  C   UNL A   1      46.519  26.825  30.025  1.00  0.00     0.031 A 
BRANCH  25  39
ATOM     39  C   UNL A   1      44.212  32.353  31.521  1.00  0.00    -0.014 A 
ATOM     40  C   UNL A   1      44.063  32.638  32.887  1.00  0.00     0.009 A 
ATOM     41  C   UNL A   1      44.634  33.374  30.655  1.00  0.00     0.009 A 
ATOM     42  C   UNL A   1      44.300  33.927  33.370  1.00  0.00     0.001 A 
ATOM     43  C   UNL A   1      44.893  34.656  31.144  1.00  0.00     0.001 A 
ATOM     44  C   UNL A   1      44.717  34.934  32.499  1.00  0.00     0.000 A 
ENDBRANCH  25  39
BRANCH  26  45
ATOM     45  C   UNL A   1      42.142  23.429  27.593  1.00  0.00    -0.014 A 
ATOM     46  C   UNL A   1      41.494  22.435  28.341  1.00  0.00     0.009 A 
ATOM     47  C   UNL A   1      42.459  23.176  26.249  1.00  0.00     0.009 A 
ATOM     48  C   UNL A   1      41.177  21.208  27.755  1.00  0.00     0.001 A 
ATOM     49  C   UNL A   1      42.119  21.958  25.661  1.00  0.00     0.001 A 
ATOM     50  C   UNL A   1      41.484  20.973  26.415  1.00  0.00     0.000 A 
ENDBRANCH  26  45
BRANCH  38  51
ATOM     51  C   UNL A   1      47.918  26.310  30.201  1.00  0.00    -0.014 A 
ATOM     52  C   UNL A   1      48.345  25.773  31.424  1.00  0.00     0.009 A 
ATOM     53  C   UNL A   1      48.807  26.330  29.115  1.00  0.00     0.009 A 
ATOM     54  C   UNL A   1      49.645  25.286  31.565  1.00  0.00     0.001 A 
ATOM     55  C   UNL A   1      50.100  25.823  29.252  1.00  0.00     0.001 A 
ATOM     56  C   UNL A   1      50.520  25.308  30.478  1.00  0.00     0.000 A 
ENDBRANCH  38  51
ENDBRANCH  12  13
ENDBRANCH   5   7
ENDBRANCH   2   3
ENDBRANCH   1   2
BRANCH   1  57
ATOM     57  C   UNL A   1      32.940  29.447  24.867  1.00  0.00     0.023 C 
BRANCH  57  58
ATOM     58  C   UNL A   1      31.426  29.344  25.023  1.00  0.00     0.116 C 
BRANCH  58  59
ATOM     59  N   UNL A   1      30.716  29.662  23.796  1.00  0.00    -0.351 N 
ATOM     60  C   UNL A   1      30.471  28.855  22.709  1.00  0.00     0.261 C 
ATOM     61  H   UNL A   1      30.362  30.579  23.734  1.00  0.00     0.163 HD
ATOM     62  O   UNL A   1      30.002  29.395  21.699  1.00  0.00    -0.268 OA
BRANCH  60  63
ATOM     63  C   UNL A   1      30.749  27.439  22.813  1.00  0.00     0.093 A 
ATOM     64  C   UNL A   1      31.773  26.714  22.230  1.00  0.00     0.040 A 
ATOM     65  S   UNL A   1      29.764  26.441  23.790  1.00  0.00    -0.137 S 
ATOM     66  C   UNL A   1      31.719  25.328  22.537  1.00  0.00     0.019 A 
ATOM     67  C   UNL A   1      30.663  25.043  23.374  1.00  0.00     0.080 A 
BRANCH  66  68
ATOM     68  S   UNL A   1      32.840  24.090  21.976  1.00  0.00    -0.122 SA
BRANCH  68  69
ATOM     69  C   UNL A   1      32.977  22.916  23.369  1.00  0.00     0.057 C 
ATOM     70  C   UNL A   1      32.268  21.597  23.058  1.00  0.00     0.043 C 
ATOM     71  C   UNL A   1      34.458  22.620  23.659  1.00  0.00     0.053 C 
ATOM     72  C   UNL A   1      32.429  20.671  24.250  1.00  0.00     0.162 C 
ATOM     73  C   UNL A   1      34.619  21.527  24.742  1.00  0.00     0.095 C 
ATOM     74  O   UNL A   1      33.807  20.386  24.457  1.00  0.00    -0.372 OA
ATOM     75  C   UNL A   1      36.062  21.056  24.838  1.00  0.00     0.066 C 
ATOM     76  C   UNL A   1      34.422  22.064  26.163  1.00  0.00     0.195 C 
ATOM     77  C   UNL A   1      36.711  22.079  25.743  1.00  0.00     0.163 C 
ATOM     78  O   UNL A   1      35.678  22.624  26.577  1.00  0.00    -0.378 OA
ENDBRANCH  68  69
ENDBRANCH  66  68
ENDBRANCH  60  63
ENDBRANCH  58  59
ENDBRANCH  57  58
ENDBRANCH   1  57
TORSDOF 13
ENDMDL
MODEL 2
REMARK VINA RESULT:     -11.4      2.212      7.789
REMARK SMILES O=C(NCCCCNC(=O)c1cc(S[C@H]2CCO[C@@]3(CCOC3)C2)cs1)c1ccc(-c2c3nc(c(-c4ccccc4)c4ccc([nH]4)c(-c4ccccc4)c4nc(c(-c5ccccc5)c5ccc2[nH]5)C=C4)C=C3)cc1
REMARK SMILES IDX 5 1 4 2 3 3 1 4 2 5 27 7 28 8 74 9 29 10 73 11 30 12 31 13
REMARK SMILES IDX 32 14 67 15 33 16 72 17 66 18 68 19 34 20 71 21 65 22 64 23
REMARK SMILES IDX 35 25 57 26 42 27 56 28 43 29 46 30 55 31 69 32 44 33 45 34
REMARK SMILES IDX 54 36 70 37 47 38 36 39 37 40 41 41 38 42 40 43 39 44 58 45
REMARK SMILES IDX 59 46 63 47 60 48 62 49 61 50 48 51 49 52 53 53 50 54 52 55
REMARK SMILES IDX 51 56 6 57 7 58 8 59 9 60 10 62 11 63 12 64 26 65 13 66
REMARK SMILES IDX 25 67 14 68 15 69 16 70 24 71 17 72 19 73 18 74 20 75 23 76
REMARK SMILES IDX 21 77 22 78
REMARK H PARENT 3 6 68 24 46 35 8 61
REMARK Flexibility Score: inf
ROOT
ATOM      1  C   UNL A   1      37.583  20.031  24.760  1.00  0.00     0.023 C 
ENDROOT
BRANCH   1   2
ATOM      2  C   UNL A   1      38.682  20.403  25.750  1.00  0.00     0.116 C 
BRANCH   2   3
ATOM      3  N   UNL A   1      39.758  19.427  25.789  1.00  0.00    -0.352 N 
ATOM      4  O   UNL A   1      41.873  18.664  25.903  1.00  0.00    -0.269 OA
ATOM      5  C   UNL A   1      41.091  19.593  26.079  1.00  0.00     0.251 C 
ATOM      6  H   UNL A   1      39.490  18.503  25.575  1.00  0.00     0.163 HD
BRANCH   5   7
ATOM      7  C   UNL A   1      41.592  20.891  26.575  1.00  0.00     0.039 A 
ATOM      8  C   UNL A   1      41.733  21.137  27.943  1.00  0.00     0.014 A 
ATOM      9  C   UNL A   1      41.948  21.873  25.646  1.00  0.00     0.014 A 
ATOM     10  C   UNL A   1      42.097  22.405  28.386  1.00  0.00     0.010 A 
ATOM     11  C   UNL A   1      42.379  23.125  26.091  1.00  0.00     0.010 A 
ATOM     12  C   UNL A   1      42.422  23.412  27.463  1.00  0.00    -0.014 A 
BRANCH  12  13
ATOM     13  C   UNL A   1      42.832  24.754  27.943  1.00  0.00     0.031 A 
ATOM     14  C   UNL A   1      41.805  25.804  28.259  1.00  0.00     0.074 A 
ATOM     15  C   UNL A   1      44.142  25.026  28.093  1.00  0.00     0.049 A 
ATOM     16  N   UNL A   1      41.985  27.041  28.651  1.00  0.00    -0.248 NA
ATOM     17  C   UNL A   1      40.393  25.420  28.110  1.00  0.00     0.031 C 
ATOM     18  C   UNL A   1      45.236  24.090  27.824  1.00  0.00     0.029 A 
ATOM     19  N   UNL A   1      44.774  26.169  28.510  1.00  0.00    -0.354 N 
ATOM     20  C   UNL A   1      40.715  27.589  28.770  1.00  0.00     0.074 A 
ATOM     21  C   UNL A   1      39.772  26.556  28.395  1.00  0.00     0.031 C 
ATOM     22  C   UNL A   1      46.402  24.689  28.106  1.00  0.00     0.029 A 
ATOM     23  C   UNL A   1      46.142  26.062  28.524  1.00  0.00     0.049 A 
ATOM     24  H   UNL A   1      44.293  26.987  28.775  1.00  0.00     0.167 HD
ATOM     25  C   UNL A   1      40.365  28.839  29.158  1.00  0.00     0.031 A 
ATOM     26  C   UNL A   1      47.088  26.973  28.818  1.00  0.00     0.031 A 
ATOM     27  C   UNL A   1      41.301  29.865  29.536  1.00  0.00     0.049 A 
ATOM     28  C   UNL A   1      46.677  28.358  29.218  1.00  0.00     0.074 A 
ATOM     29  C   UNL A   1      41.038  31.152  29.974  1.00  0.00     0.029 A 
ATOM     30  N   UNL A   1      42.679  29.721  29.518  1.00  0.00    -0.354 N 
ATOM     31  N   UNL A   1      45.470  28.854  29.347  1.00  0.00    -0.248 NA
ATOM     32  C   UNL A   1      47.757  29.309  29.513  1.00  0.00     0.031 C 
ATOM     33  C   UNL A   1      42.261  31.800  30.183  1.00  0.00     0.029 A 
ATOM     34  C   UNL A   1      43.282  30.903  29.917  1.00  0.00     0.049 A 
ATOM     35  H   UNL A   1      43.158  28.902  29.260  1.00  0.00     0.167 HD
ATOM     36  C   UNL A   1      45.644  30.169  29.753  1.00  0.00     0.074 A 
ATOM     37  C   UNL A   1      47.072  30.391  29.861  1.00  0.00     0.031 C 
ATOM     38  C   UNL A   1      44.703  31.107  30.015  1.00  0.00     0.031 A 
BRANCH  25  39
ATOM     39  C   UNL A   1      38.902  29.175  29.161  1.00  0.00    -0.014 A 
ATOM     40  C   UNL A   1      38.118  29.015  30.315  1.00  0.00     0.009 A 
ATOM     41  C   UNL A   1      38.304  29.687  27.999  1.00  0.00     0.009 A 
ATOM     42  C   UNL A   1      36.758  29.330  30.295  1.00  0.00     0.001 A 
ATOM     43  C   UNL A   1      36.948  30.022  27.988  1.00  0.00     0.001 A 
ATOM     44  C   UNL A   1      36.174  29.835  29.133  1.00  0.00     0.000 A 
ENDBRANCH  25  39
BRANCH  26  45
ATOM     45  C   UNL A   1      48.518  26.591  28.730  1.00  0.00    -0.014 A 
ATOM     46  C   UNL A   1      49.240  26.808  27.547  1.00  0.00     0.009 A 
ATOM     47  C   UNL A   1      49.177  26.046  29.843  1.00  0.00     0.009 A 
ATOM     48  C   UNL A   1      50.596  26.478  27.480  1.00  0.00     0.001 A 
ATOM     49  C   UNL A   1      50.536  25.740  29.779  1.00  0.00     0.001 A 
ATOM     50  C   UNL A   1      51.243  25.950  28.597  1.00  0.00     0.000 A 
ENDBRANCH  26  45
BRANCH  38  51
ATOM     51  C   UNL A   1      45.189  32.452  30.471  1.00  0.00    -0.014 A 
ATOM     52  C   UNL A   1      45.439  33.483  29.553  1.00  0.00     0.009 A 
ATOM     53  C   UNL A   1      45.360  32.700  31.842  1.00  0.00     0.009 A 
ATOM     54  C   UNL A   1      45.876  34.731  29.997  1.00  0.00     0.001 A 
ATOM     55  C   UNL A   1      45.777  33.956  32.285  1.00  0.00     0.001 A 
ATOM     56  C   UNL A   1      46.041  34.968  31.363  1.00  0.00     0.000 A 
ENDBRANCH  38  51
ENDBRANCH  12  13
ENDBRANCH   5   7
ENDBRANCH   2   3
ENDBRANCH   1   2
BRANCH   1  57
ATOM     57  C   UNL A   1      36.499  21.091  24.559  1.00  0.00     0.023 C 
BRANCH  57  58
ATOM     58  C   UNL A   1      35.376  21.082  25.590  1.00  0.00     0.116 C 
BRANCH  58  59
ATOM     59  N   UNL A   1      34.432  19.998  25.377  1.00  0.00    -0.351 N 
ATOM     60  C   UNL A   1      33.077  20.069  25.153  1.00  0.00     0.261 C 
ATOM     61  H   UNL A   1      34.814  19.091  25.397  1.00  0.00     0.163 HD
ATOM     62  O   UNL A   1      32.444  19.005  25.180  1.00  0.00    -0.268 OA
BRANCH  60  63
ATOM     63  C   UNL A   1      32.479  21.357  24.879  1.00  0.00     0.093 A 
ATOM     64  C   UNL A   1      31.871  22.233  25.760  1.00  0.00     0.040 A 
ATOM     65  S   UNL A   1      32.506  21.996  23.293  1.00  0.00    -0.137 S 
ATOM     66  C   UNL A   1      31.375  23.404  25.128  1.00  0.00     0.019 A 
ATOM     67  C   UNL A   1      31.647  23.396  23.778  1.00  0.00     0.080 A 
BRANCH  66  68
ATOM     68  S   UNL A   1      30.536  24.740  25.914  1.00  0.00    -0.122 SA
BRANCH  68  69
ATOM     69  C   UNL A   1      31.057  26.228  24.992  1.00  0.00     0.057 C 
ATOM     70  C   UNL A   1      29.956  26.713  24.047  1.00  0.00     0.043 C 
ATOM     71  C   UNL A   1      31.394  27.361  25.977  1.00  0.00     0.053 C 
ATOM     72  C   UNL A   1      30.454  27.952  23.324  1.00  0.00     0.162 C 
ATOM     73  C   UNL A   1      31.710  28.682  25.236  1.00  0.00     0.095 C 
ATOM     74  O   UNL A   1      30.710  28.988  24.263  1.00  0.00    -0.372 OA
ATOM     75  C   UNL A   1      31.785  29.852  26.207  1.00  0.00     0.066 C 
ATOM     76  C   UNL A   1      33.132  28.721  24.669  1.00  0.00     0.195 C 
ATOM     77  C   UNL A   1      33.199  29.785  26.737  1.00  0.00     0.163 C 
ATOM     78  O   UNL A   1      33.998  29.139  25.736  1.00  0.00    -0.378 OA
ENDBRANCH  68  69
ENDBRANCH  66  68
ENDBRANCH  60  63
ENDBRANCH  58  59
ENDBRANCH  57  58
ENDBRANCH   1  57
TORSDOF 13
ENDMDL
MODEL 3
REMARK VINA RESULT:     -11.3      2.084      7.877
REMARK SMILES O=C(NCCCCNC(=O)c1cc(S[C@H]2CCO[C@@]3(CCOC3)C2)cs1)c1ccc(-c2c3nc(c(-c4ccccc4)c4ccc([nH]4)c(-c4ccccc4)c4nc(c(-c5ccccc5)c5ccc2[nH]5)C=C4)C=C3)cc1
REMARK SMILES IDX 5 1 4 2 3 3 1 4 2 5 27 7 28 8 74 9 29 10 73 11 30 12 31 13
REMARK SMILES IDX 32 14 67 15 33 16 72 17 66 18 68 19 34 20 71 21 65 22 64 23
REMARK SMILES IDX 35 25 57 26 42 27 56 28 43 29 46 30 55 31 69 32 44 33 45 34
REMARK SMILES IDX 54 36 70 37 47 38 36 39 37 40 41 41 38 42 40 43 39 44 58 45
REMARK SMILES IDX 59 46 63 47 60 48 62 49 61 50 48 51 49 52 53 53 50 54 52 55
REMARK SMILES IDX 51 56 6 57 7 58 8 59 9 60 10 62 11 63 12 64 26 65 13 66
REMARK SMILES IDX 25 67 14 68 15 69 16 70 24 71 17 72 19 73 18 74 20 75 23 76
REMARK SMILES IDX 21 77 22 78
REMARK H PARENT 3 6 68 24 46 35 8 61
REMARK Flexibility Score: inf
ROOT
ATOM      1  C   UNL A   1      37.377  20.050  24.786  1.00  0.00     0.023 C 
ENDROOT
BRANCH   1   2
ATOM      2  C   UNL A   1      38.521  20.514  25.680  1.00  0.00     0.116 C 
BRANCH   2   3
ATOM      3  N   UNL A   1      39.628  19.572  25.712  1.00  0.00    -0.352 N 
ATOM      4  O   UNL A   1      41.763  18.874  25.862  1.00  0.00    -0.269 OA
ATOM      5  C   UNL A   1      40.945  19.768  26.052  1.00  0.00     0.251 C 
ATOM      6  H   UNL A   1      39.398  18.651  25.449  1.00  0.00     0.163 HD
BRANCH   5   7
ATOM      7  C   UNL A   1      41.386  21.059  26.620  1.00  0.00     0.039 A 
ATOM      8  C   UNL A   1      41.312  21.307  27.993  1.00  0.00     0.014 A 
ATOM      9  C   UNL A   1      41.904  22.030  25.759  1.00  0.00     0.014 A 
ATOM     10  C   UNL A   1      41.626  22.570  28.486  1.00  0.00     0.010 A 
ATOM     11  C   UNL A   1      42.283  23.276  26.264  1.00  0.00     0.010 A 
ATOM     12  C   UNL A   1      42.113  23.567  27.626  1.00  0.00    -0.014 A 
BRANCH  12  13
ATOM     13  C   UNL A   1      42.468  24.903  28.163  1.00  0.00     0.031 A 
ATOM     14  C   UNL A   1      43.884  25.222  28.550  1.00  0.00     0.074 A 
ATOM     15  C   UNL A   1      41.505  25.833  28.304  1.00  0.00     0.049 A 
ATOM     16  N   UNL A   1      44.367  26.323  29.072  1.00  0.00    -0.248 NA
ATOM     17  C   UNL A   1      44.888  24.170  28.330  1.00  0.00     0.031 C 
ATOM     18  C   UNL A   1      40.094  25.646  27.960  1.00  0.00     0.029 A 
ATOM     19  N   UNL A   1      41.569  27.120  28.771  1.00  0.00    -0.354 N 
ATOM     20  C   UNL A   1      45.722  26.087  29.266  1.00  0.00     0.074 A 
ATOM     21  C   UNL A   1      45.983  24.735  28.821  1.00  0.00     0.031 C 
ATOM     22  C   UNL A   1      39.431  26.786  28.205  1.00  0.00     0.029 A 
ATOM     23  C   UNL A   1      40.355  27.762  28.770  1.00  0.00     0.049 A 
ATOM     24  H   UNL A   1      42.404  27.544  29.076  1.00  0.00     0.167 HD
ATOM     25  C   UNL A   1      46.663  26.922  29.768  1.00  0.00     0.031 A 
ATOM     26  C   UNL A   1      40.017  28.992  29.197  1.00  0.00     0.031 A 
ATOM     27  C   UNL A   1      46.406  28.268  30.207  1.00  0.00     0.049 A 
ATOM     28  C   UNL A   1      41.071  29.887  29.775  1.00  0.00     0.074 A 
ATOM     29  C   UNL A   1      47.303  29.200  30.700  1.00  0.00     0.029 A 
ATOM     30  N   UNL A   1      45.159  28.873  30.206  1.00  0.00    -0.354 N 
ATOM     31  N   UNL A   1      42.352  29.657  29.932  1.00  0.00    -0.248 NA
ATOM     32  C   UNL A   1      40.634  31.212  30.235  1.00  0.00     0.031 C 
ATOM     33  C   UNL A   1      46.591  30.357  31.036  1.00  0.00     0.029 A 
ATOM     34  C   UNL A   1      45.259  30.160  30.710  1.00  0.00     0.049 A 
ATOM     35  H   UNL A   1      44.327  28.452  29.894  1.00  0.00     0.167 HD
ATOM     36  C   UNL A   1      42.877  30.812  30.493  1.00  0.00     0.074 A 
ATOM     37  C   UNL A   1      41.779  31.746  30.639  1.00  0.00     0.031 C 
ATOM     38  C   UNL A   1      44.156  31.074  30.852  1.00  0.00     0.031 A 
BRANCH  25  39
ATOM     39  C   UNL A   1      48.060  26.386  29.900  1.00  0.00    -0.014 A 
ATOM     40  C   UNL A   1      48.500  25.779  31.086  1.00  0.00     0.009 A 
ATOM     41  C   UNL A   1      48.939  26.463  28.808  1.00  0.00     0.009 A 
ATOM     42  C   UNL A   1      49.804  25.290  31.188  1.00  0.00     0.001 A 
ATOM     43  C   UNL A   1      50.236  25.953  28.905  1.00  0.00     0.001 A 
ATOM     44  C   UNL A   1      50.670  25.375  30.097  1.00  0.00     0.000 A 
ENDBRANCH  25  39
BRANCH  26  45
ATOM     45  C   UNL A   1      38.604  29.432  29.098  1.00  0.00    -0.014 A 
ATOM     46  C   UNL A   1      38.102  29.947  27.893  1.00  0.00     0.009 A 
ATOM     47  C   UNL A   1      37.741  29.300  30.197  1.00  0.00     0.009 A 
ATOM     48  C   UNL A   1      36.762  30.328  27.796  1.00  0.00     0.001 A 
ATOM     49  C   UNL A   1      36.398  29.660  30.088  1.00  0.00     0.001 A 
ATOM     50  C   UNL A   1      35.911  30.179  28.890  1.00  0.00     0.000 A 
ENDBRANCH  26  45
BRANCH  38  51
ATOM     51  C   UNL A   1      44.442  32.436  31.414  1.00  0.00    -0.014 A 
ATOM     52  C   UNL A   1      44.738  33.520  30.575  1.00  0.00     0.009 A 
ATOM     53  C   UNL A   1      44.374  32.643  32.801  1.00  0.00     0.009 A 
ATOM     54  C   UNL A   1      44.986  34.782  31.115  1.00  0.00     0.001 A 
ATOM     55  C   UNL A   1      44.602  33.911  33.337  1.00  0.00     0.001 A 
ATOM     56  C   UNL A   1      44.914  34.978  32.495  1.00  0.00     0.000 A 
ENDBRANCH  38  51
ENDBRANCH  12  13
ENDBRANCH   5   7
ENDBRANCH   2   3
ENDBRANCH   1   2
BRANCH   1  57
ATOM     57  C   UNL A   1      36.234  21.051  24.615  1.00  0.00     0.023 C 
BRANCH  57  58
ATOM     58  C   UNL A   1      35.148  20.993  25.684  1.00  0.00     0.116 C 
BRANCH  58  59
ATOM     59  N   UNL A   1      34.204  19.911  25.463  1.00  0.00    -0.351 N 
ATOM     60  C   UNL A   1      32.855  19.986  25.203  1.00  0.00     0.261 C 
ATOM     61  H   UNL A   1      34.580  19.002  25.505  1.00  0.00     0.163 HD
ATOM     62  O   UNL A   1      32.216  18.926  25.229  1.00  0.00    -0.268 OA
BRANCH  60  63
ATOM     63  C   UNL A   1      32.272  21.273  24.896  1.00  0.00     0.093 A 
ATOM     64  C   UNL A   1      31.690  22.186  25.756  1.00  0.00     0.040 A 
ATOM     65  S   UNL A   1      32.285  21.859  23.290  1.00  0.00    -0.137 S 
ATOM     66  C   UNL A   1      31.201  23.343  25.093  1.00  0.00     0.019 A 
ATOM     67  C   UNL A   1      31.453  23.287  23.741  1.00  0.00     0.080 A 
BRANCH  66  68
ATOM     68  S   UNL A   1      30.393  24.716  25.847  1.00  0.00    -0.122 SA
BRANCH  68  69
ATOM     69  C   UNL A   1      30.721  26.124  24.729  1.00  0.00     0.057 C 
ATOM     70  C   UNL A   1      29.466  26.521  23.951  1.00  0.00     0.043 C 
ATOM     71  C   UNL A   1      31.198  27.338  25.545  1.00  0.00     0.053 C 
ATOM     72  C   UNL A   1      29.809  27.697  23.054  1.00  0.00     0.162 C 
ATOM     73  C   UNL A   1      31.357  28.594  24.655  1.00  0.00     0.095 C 
ATOM     74  O   UNL A   1      30.201  28.811  23.846  1.00  0.00    -0.372 OA
ATOM     75  C   UNL A   1      31.574  29.841  25.499  1.00  0.00     0.066 C 
ATOM     76  C   UNL A   1      32.661  28.591  23.851  1.00  0.00     0.195 C 
ATOM     77  C   UNL A   1      33.059  29.826  25.783  1.00  0.00     0.163 C 
ATOM     78  O   UNL A   1      33.688  29.102  24.715  1.00  0.00    -0.378 OA
ENDBRANCH  68  69
ENDBRANCH  66  68
ENDBRANCH  60  63
ENDBRANCH  58  59
ENDBRANCH  57  58
ENDBRANCH   1  57
TORSDOF 13
ENDMDL
