MODEL 1
REMARK VINA RESULT:     -10.9      0.000      0.000
REMARK SMILES C[C@H](O)[C@H](C)[N@H+]1Cc2ccccc2C[C@@H]1C(=O)NCCCCNC(=O)c1ccc(-c2c3nc(c(-c4ccccc4)c4ccc([nH]4)c(-c4ccccc4)c4nc(c(-c5ccccc5)c5ccc2[nH]5)C=C4)C=C3)cc1
REMARK SMILES IDX 20 1 19 2 18 3 16 4 17 5 15 7 6 8 7 9 8 11 14 12 9 13 13 14
REMARK SMILES IDX 10 15 12 16 11 17 4 18 5 19 2 20 1 21 3 22 21 24 22 25 23 26
REMARK SMILES IDX 24 27 25 29 26 30 27 31 73 32 28 33 72 34 29 35 30 36 31 37
REMARK SMILES IDX 66 38 32 39 71 40 65 41 67 42 33 43 70 44 64 45 63 46 34 48
REMARK SMILES IDX 56 49 41 50 55 51 42 52 45 53 54 54 68 55 43 56 44 57 53 59
REMARK SMILES IDX 69 60 46 61 35 62 36 63 40 64 37 65 39 66 38 67 57 68 58 69
REMARK SMILES IDX 62 70 59 71 61 72 60 73 47 74 48 75 52 76 49 77 51 78 50 79
REMARK H PARENT 18 6 6 10 3 23 23 28 67 47 45 58
REMARK Flexibility Score: inf
ROOT
ATOM      1  C   UNL A   1      36.415  20.824  25.345  1.00  0.00     0.023 C 
ENDROOT
BRANCH   1   2
ATOM      2  C   UNL A   1      36.530  22.291  25.754  1.00  0.00     0.116 C 
BRANCH   2   3
ATOM      3  N   UNL A   1      36.307  23.162  24.619  1.00  0.00    -0.351 N 
ATOM      4  C   UNL A   1      35.150  23.496  23.978  1.00  0.00     0.278 C 
ATOM      5  O   UNL A   1      35.278  23.998  22.858  1.00  0.00    -0.268 OA
ATOM      6  H   UNL A   1      37.120  23.581  24.252  1.00  0.00     0.163 HD
BRANCH   4   7
ATOM      7  C   UNL A   1      33.769  23.282  24.663  1.00  0.00     0.279 C 
ATOM      8  N   UNL A   1      32.695  23.282  23.629  1.00  0.00    -0.316 N 
ATOM      9  C   UNL A   1      31.919  24.525  23.518  1.00  0.00     0.300 C 
ATOM     10  H   UNL A   1      33.187  23.306  22.736  1.00  0.00     0.349 HD
ATOM     11  C   UNL A   1      32.605  25.774  24.024  1.00  0.00     0.010 A 
ATOM     12  C   UNL A   1      33.603  24.333  25.781  1.00  0.00     0.111 C 
ATOM     13  C   UNL A   1      32.412  27.018  23.415  1.00  0.00     0.010 A 
ATOM     14  C   UNL A   1      33.370  25.697  25.198  1.00  0.00    -0.033 A 
ATOM     15  C   UNL A   1      32.979  28.167  23.972  1.00  0.00     0.001 A 
ATOM     16  C   UNL A   1      33.914  26.850  25.768  1.00  0.00     0.004 A 
ATOM     17  C   UNL A   1      33.721  28.084  25.150  1.00  0.00     0.000 A 
BRANCH   8  18
ATOM     18  C   UNL A   1      31.942  22.002  23.556  1.00  0.00     0.210 C 
ATOM     19  C   UNL A   1      31.944  21.262  22.208  1.00  0.00     0.078 C 
BRANCH  18  20
ATOM     20  C   UNL A   1      32.435  21.010  24.661  1.00  0.00     0.169 C 
ATOM     21  C   UNL A   1      32.737  19.631  24.084  1.00  0.00     0.045 C 
BRANCH  20  22
ATOM     22  O   UNL A   1      31.457  20.849  25.691  1.00  0.00    -0.387 OA
ATOM     23  H   UNL A   1      30.595  21.159  25.370  1.00  0.00     0.211 HD
ENDBRANCH  20  22
ENDBRANCH  18  20
ENDBRANCH   8  18
ENDBRANCH   4   7
ENDBRANCH   2   3
ENDBRANCH   1   2
BRANCH   1  24
ATOM     24  C   UNL A   1      37.719  20.168  24.901  1.00  0.00     0.023 C 
BRANCH  24  25
ATOM     25  C   UNL A   1      38.936  20.534  25.734  1.00  0.00     0.116 C 
BRANCH  25  26
ATOM     26  N   UNL A   1      39.956  19.495  25.748  1.00  0.00    -0.352 N 
ATOM     27  C   UNL A   1      41.281  19.593  26.100  1.00  0.00     0.251 C 
ATOM     28  H   UNL A   1      39.656  18.600  25.467  1.00  0.00     0.163 HD
ATOM     29  O   UNL A   1      42.038  18.639  25.952  1.00  0.00    -0.269 OA
BRANCH  27  30
ATOM     30  C   UNL A   1      41.792  20.875  26.621  1.00  0.00     0.039 A 
ATOM     31  C   UNL A   1      42.326  21.803  25.726  1.00  0.00     0.014 A 
ATOM     32  C   UNL A   1      41.684  21.180  27.981  1.00  0.00     0.014 A 
ATOM     33  C   UNL A   1      42.677  23.074  26.184  1.00  0.00     0.010 A 
ATOM     34  C   UNL A   1      41.954  22.470  28.417  1.00  0.00     0.010 A 
ATOM     35  C   UNL A   1      42.451  23.431  27.524  1.00  0.00    -0.014 A 
BRANCH  35  36
ATOM     36  C   UNL A   1      42.723  24.804  28.016  1.00  0.00     0.031 A 
ATOM     37  C   UNL A   1      44.111  25.182  28.452  1.00  0.00     0.074 A 
ATOM     38  C   UNL A   1      41.708  25.681  28.148  1.00  0.00     0.049 A 
ATOM     39  N   UNL A   1      44.529  26.292  29.003  1.00  0.00    -0.248 NA
ATOM     40  C   UNL A   1      45.162  24.166  28.272  1.00  0.00     0.031 C 
ATOM     41  C   UNL A   1      40.307  25.423  27.804  1.00  0.00     0.029 A 
ATOM     42  N   UNL A   1      41.700  26.970  28.619  1.00  0.00    -0.354 N 
ATOM     43  C   UNL A   1      45.880  26.101  29.254  1.00  0.00     0.074 A 
ATOM     44  C   UNL A   1      46.204  24.752  28.842  1.00  0.00     0.031 C 
ATOM     45  C   UNL A   1      39.582  26.524  28.055  1.00  0.00     0.029 A 
ATOM     46  C   UNL A   1      40.455  27.551  28.613  1.00  0.00     0.049 A 
ATOM     47  H   UNL A   1      42.510  27.433  28.932  1.00  0.00     0.167 HD
ATOM     48  C   UNL A   1      46.780  26.976  29.761  1.00  0.00     0.031 A 
ATOM     49  C   UNL A   1      40.060  28.772  29.022  1.00  0.00     0.031 A 
ATOM     50  C   UNL A   1      46.467  28.324  30.151  1.00  0.00     0.049 A 
ATOM     51  C   UNL A   1      41.080  29.724  29.581  1.00  0.00     0.074 A 
ATOM     52  C   UNL A   1      47.320  29.303  30.627  1.00  0.00     0.029 A 
ATOM     53  N   UNL A   1      45.200  28.881  30.105  1.00  0.00    -0.354 N 
ATOM     54  N   UNL A   1      42.367  29.547  29.756  1.00  0.00    -0.248 NA
ATOM     55  C   UNL A   1      40.592  31.049  29.991  1.00  0.00     0.031 C 
ATOM     56  C   UNL A   1      46.561  30.444  30.905  1.00  0.00     0.029 A 
ATOM     57  C   UNL A   1      45.244  30.188  30.557  1.00  0.00     0.049 A 
ATOM     58  H   UNL A   1      44.388  28.416  29.797  1.00  0.00     0.167 HD
ATOM     59  C   UNL A   1      42.846  30.744  30.271  1.00  0.00     0.074 A 
ATOM     60  C   UNL A   1      41.716  31.646  30.362  1.00  0.00     0.031 C 
ATOM     61  C   UNL A   1      44.110  31.070  30.636  1.00  0.00     0.031 A 
BRANCH  48  62
ATOM     62  C   UNL A   1      48.196  26.498  29.917  1.00  0.00    -0.014 A 
ATOM     63  C   UNL A   1      49.144  26.696  28.899  1.00  0.00     0.009 A 
ATOM     64  C   UNL A   1      48.599  25.875  31.109  1.00  0.00     0.009 A 
ATOM     65  C   UNL A   1      50.456  26.250  29.059  1.00  0.00     0.001 A 
ATOM     66  C   UNL A   1      49.919  25.454  31.276  1.00  0.00     0.001 A 
ATOM     67  C   UNL A   1      50.845  25.634  30.249  1.00  0.00     0.000 A 
ENDBRANCH  48  62
BRANCH  49  68
ATOM     68  C   UNL A   1      38.634  29.175  28.910  1.00  0.00    -0.014 A 
ATOM     69  C   UNL A   1      37.770  29.044  30.009  1.00  0.00     0.009 A 
ATOM     70  C   UNL A   1      38.123  29.670  27.700  1.00  0.00     0.009 A 
ATOM     71  C   UNL A   1      36.418  29.371  29.888  1.00  0.00     0.001 A 
ATOM     72  C   UNL A   1      36.776  30.022  27.591  1.00  0.00     0.001 A 
ATOM     73  C   UNL A   1      35.922  29.863  28.681  1.00  0.00     0.000 A 
ENDBRANCH  49  68
BRANCH  61  74
ATOM     74  C   UNL A   1      44.342  32.468  31.132  1.00  0.00    -0.014 A 
ATOM     75  C   UNL A   1      44.296  32.771  32.501  1.00  0.00     0.009 A 
ATOM     76  C   UNL A   1      44.648  33.486  30.216  1.00  0.00     0.009 A 
ATOM     77  C   UNL A   1      44.524  34.076  32.942  1.00  0.00     0.001 A 
ATOM     78  C   UNL A   1      44.901  34.785  30.661  1.00  0.00     0.001 A 
ATOM     79  C   UNL A   1      44.831  35.080  32.022  1.00  0.00     0.000 A 
ENDBRANCH  61  74
ENDBRANCH  35  36
ENDBRANCH  27  30
ENDBRANCH  25  26
ENDBRANCH  24  25
ENDBRANCH   1  24
TORSDOF 14
ENDMDL
MODEL 2
REMARK VINA RESULT:     -10.9      2.680      4.327
REMARK SMILES C[C@H](O)[C@H](C)[N@H+]1Cc2ccccc2C[C@@H]1C(=O)NCCCCNC(=O)c1ccc(-c2c3nc(c(-c4ccccc4)c4ccc([nH]4)c(-c4ccccc4)c4nc(c(-c5ccccc5)c5ccc2[nH]5)C=C4)C=C3)cc1
REMARK SMILES IDX 20 1 19 2 18 3 16 4 17 5 15 7 6 8 7 9 8 11 14 12 9 13 13 14
REMARK SMILES IDX 10 15 12 16 11 17 4 18 5 19 2 20 1 21 3 22 21 24 22 25 23 26
REMARK SMILES IDX 24 27 25 29 26 30 27 31 73 32 28 33 72 34 29 35 30 36 31 37
REMARK SMILES IDX 66 38 32 39 71 40 65 41 67 42 33 43 70 44 64 45 63 46 34 48
REMARK SMILES IDX 56 49 41 50 55 51 42 52 45 53 54 54 68 55 43 56 44 57 53 59
REMARK SMILES IDX 69 60 46 61 35 62 36 63 40 64 37 65 39 66 38 67 57 68 58 69
REMARK SMILES IDX 62 70 59 71 61 72 60 73 47 74 48 75 52 76 49 77 51 78 50 79
REMARK H PARENT 18 6 6 10 3 23 23 28 67 47 45 58
REMARK Flexibility Score: inf
ROOT
ATOM      1  C   UNL A   1      34.894  24.008  23.650  1.00  0.00     0.023 C 
ENDROOT
BRANCH   1   2
ATOM      2  C   UNL A   1      33.616  24.758  23.280  1.00  0.00     0.116 C 
BRANCH   2   3
ATOM      3  N   UNL A   1      33.890  26.160  23.046  1.00  0.00    -0.351 N 
ATOM      4  C   UNL A   1      33.063  27.244  23.117  1.00  0.00     0.278 C 
ATOM      5  O   UNL A   1      33.469  28.270  22.565  1.00  0.00    -0.268 OA
ATOM      6  H   UNL A   1      34.820  26.365  22.796  1.00  0.00     0.163 HD
BRANCH   4   7
ATOM      7  C   UNL A   1      31.716  27.168  23.891  1.00  0.00     0.279 C 
ATOM      8  N   UNL A   1      30.902  28.382  23.594  1.00  0.00    -0.316 N 
ATOM      9  C   UNL A   1      30.902  29.419  24.637  1.00  0.00     0.300 C 
ATOM     10  H   UNL A   1      31.417  28.874  22.864  1.00  0.00     0.349 HD
ATOM     11  C   UNL A   1      32.087  29.405  25.577  1.00  0.00     0.010 A 
ATOM     12  C   UNL A   1      32.016  26.930  25.386  1.00  0.00     0.111 C 
ATOM     13  C   UNL A   1      32.629  30.584  26.096  1.00  0.00     0.010 A 
ATOM     14  C   UNL A   1      32.584  28.169  26.019  1.00  0.00    -0.033 A 
ATOM     15  C   UNL A   1      33.655  30.527  27.041  1.00  0.00     0.001 A 
ATOM     16  C   UNL A   1      33.593  28.113  26.983  1.00  0.00     0.004 A 
ATOM     17  C   UNL A   1      34.130  29.294  27.490  1.00  0.00     0.000 A 
BRANCH   8  18
ATOM     18  C   UNL A   1      29.604  28.080  22.937  1.00  0.00     0.210 C 
ATOM     19  C   UNL A   1      28.671  27.087  23.651  1.00  0.00     0.078 C 
BRANCH  18  20
ATOM     20  C   UNL A   1      28.804  29.398  22.668  1.00  0.00     0.169 C 
ATOM     21  C   UNL A   1      27.318  29.223  22.962  1.00  0.00     0.045 C 
BRANCH  20  22
ATOM     22  O   UNL A   1      28.935  29.819  21.308  1.00  0.00    -0.387 OA
ATOM     23  H   UNL A   1      28.072  30.110  20.975  1.00  0.00     0.211 HD
ENDBRANCH  20  22
ENDBRANCH  18  20
ENDBRANCH   8  18
ENDBRANCH   4   7
ENDBRANCH   2   3
ENDBRANCH   1   2
BRANCH   1  24
ATOM     24  C   UNL A   1      35.086  23.747  25.141  1.00  0.00     0.023 C 
BRANCH  24  25
ATOM     25  C   UNL A   1      36.470  24.078  25.676  1.00  0.00     0.116 C 
BRANCH  25  26
ATOM     26  N   UNL A   1      37.384  22.944  25.643  1.00  0.00    -0.352 N 
ATOM     27  C   UNL A   1      38.688  22.877  26.070  1.00  0.00     0.251 C 
ATOM     28  H   UNL A   1      37.017  22.113  25.265  1.00  0.00     0.163 HD
ATOM     29  O   UNL A   1      39.359  21.869  25.871  1.00  0.00    -0.269 OA
BRANCH  27  30
ATOM     30  C   UNL A   1      39.287  24.051  26.734  1.00  0.00     0.039 A 
ATOM     31  C   UNL A   1      40.037  24.949  25.973  1.00  0.00     0.014 A 
ATOM     32  C   UNL A   1      39.053  24.291  28.091  1.00  0.00     0.014 A 
ATOM     33  C   UNL A   1      40.485  26.135  26.555  1.00  0.00     0.010 A 
ATOM     34  C   UNL A   1      39.427  25.509  28.645  1.00  0.00     0.010 A 
ATOM     35  C   UNL A   1      40.144  26.444  27.883  1.00  0.00    -0.014 A 
BRANCH  35  36
ATOM     36  C   UNL A   1      40.522  27.740  28.498  1.00  0.00     0.031 A 
ATOM     37  C   UNL A   1      41.906  27.930  29.051  1.00  0.00     0.074 A 
ATOM     38  C   UNL A   1      39.598  28.713  28.632  1.00  0.00     0.049 A 
ATOM     39  N   UNL A   1      42.397  28.946  29.714  1.00  0.00    -0.248 NA
ATOM     40  C   UNL A   1      42.855  26.820  28.862  1.00  0.00     0.031 C 
ATOM     41  C   UNL A   1      38.207  28.636  28.178  1.00  0.00     0.029 A 
ATOM     42  N   UNL A   1      39.691  29.958  29.201  1.00  0.00    -0.354 N 
ATOM     43  C   UNL A   1      43.699  28.589  30.038  1.00  0.00     0.074 A 
ATOM     44  C   UNL A   1      43.908  27.245  29.543  1.00  0.00     0.031 C 
ATOM     45  C   UNL A   1      37.585  29.790  28.466  1.00  0.00     0.029 A 
ATOM     46  C   UNL A   1      38.519  30.672  29.159  1.00  0.00     0.049 A 
ATOM     47  H   UNL A   1      40.521  30.305  29.602  1.00  0.00     0.167 HD
ATOM     48  C   UNL A   1      44.647  29.321  30.669  1.00  0.00     0.031 A 
ATOM     49  C   UNL A   1      38.225  31.897  29.636  1.00  0.00     0.031 A 
ATOM     50  C   UNL A   1      44.450  30.664  31.142  1.00  0.00     0.049 A 
ATOM     51  C   UNL A   1      39.296  32.688  30.333  1.00  0.00     0.074 A 
ATOM     52  C   UNL A   1      45.363  31.507  31.748  1.00  0.00     0.029 A 
ATOM     53  N   UNL A   1      43.254  31.360  31.058  1.00  0.00    -0.354 N 
ATOM     54  N   UNL A   1      40.541  32.358  30.578  1.00  0.00    -0.248 NA
ATOM     55  C   UNL A   1      38.921  34.026  30.814  1.00  0.00     0.031 C 
ATOM     56  C   UNL A   1      44.710  32.703  32.065  1.00  0.00     0.029 A 
ATOM     57  C   UNL A   1      43.403  32.619  31.613  1.00  0.00     0.049 A 
ATOM     58  H   UNL A   1      42.423  31.011  30.661  1.00  0.00     0.167 HD
ATOM     59  C   UNL A   1      41.105  33.456  31.215  1.00  0.00     0.074 A 
ATOM     60  C   UNL A   1      40.072  34.468  31.303  1.00  0.00     0.031 C 
ATOM     61  C   UNL A   1      42.365  33.612  31.686  1.00  0.00     0.031 A 
BRANCH  48  62
ATOM     62  C   UNL A   1      45.989  28.679  30.879  1.00  0.00    -0.014 A 
ATOM     63  C   UNL A   1      47.047  28.904  29.983  1.00  0.00     0.009 A 
ATOM     64  C   UNL A   1      46.211  27.870  32.004  1.00  0.00     0.009 A 
ATOM     65  C   UNL A   1      48.290  28.304  30.193  1.00  0.00     0.001 A 
ATOM     66  C   UNL A   1      47.463  27.294  32.225  1.00  0.00     0.001 A 
ATOM     67  C   UNL A   1      48.499  27.504  31.316  1.00  0.00     0.000 A 
ENDBRANCH  48  62
BRANCH  49  68
ATOM     68  C   UNL A   1      36.861  32.462  29.463  1.00  0.00    -0.014 A 
ATOM     69  C   UNL A   1      36.530  33.176  28.301  1.00  0.00     0.009 A 
ATOM     70  C   UNL A   1      35.892  32.309  30.465  1.00  0.00     0.009 A 
ATOM     71  C   UNL A   1      35.266  33.753  28.161  1.00  0.00     0.001 A 
ATOM     72  C   UNL A   1      34.620  32.864  30.311  1.00  0.00     0.001 A 
ATOM     73  C   UNL A   1      34.311  33.594  29.165  1.00  0.00     0.000 A 
ENDBRANCH  49  68
BRANCH  61  74
ATOM     74  C   UNL A   1      42.706  34.938  32.305  1.00  0.00    -0.014 A 
ATOM     75  C   UNL A   1      42.360  35.231  33.632  1.00  0.00     0.009 A 
ATOM     76  C   UNL A   1      43.417  35.889  31.557  1.00  0.00     0.009 A 
ATOM     77  C   UNL A   1      42.695  36.467  34.190  1.00  0.00     0.001 A 
ATOM     78  C   UNL A   1      43.775  37.112  32.126  1.00  0.00     0.001 A 
ATOM     79  C   UNL A   1      43.406  37.403  33.438  1.00  0.00     0.000 A 
ENDBRANCH  61  74
ENDBRANCH  35  36
ENDBRANCH  27  30
ENDBRANCH  25  26
ENDBRANCH  24  25
ENDBRANCH   1  24
TORSDOF 14
ENDMDL
MODEL 3
REMARK VINA RESULT:     -10.8      4.623      9.572
REMARK SMILES C[C@H](O)[C@H](C)[N@H+]1Cc2ccccc2C[C@@H]1C(=O)NCCCCNC(=O)c1ccc(-c2c3nc(c(-c4ccccc4)c4ccc([nH]4)c(-c4ccccc4)c4nc(c(-c5ccccc5)c5ccc2[nH]5)C=C4)C=C3)cc1
REMARK SMILES IDX 20 1 19 2 18 3 16 4 17 5 15 7 6 8 7 9 8 11 14 12 9 13 13 14
REMARK SMILES IDX 10 15 12 16 11 17 4 18 5 19 2 20 1 21 3 22 21 24 22 25 23 26
REMARK SMILES IDX 24 27 25 29 26 30 27 31 73 32 28 33 72 34 29 35 30 36 31 37
REMARK SMILES IDX 66 38 32 39 71 40 65 41 67 42 33 43 70 44 64 45 63 46 34 48
REMARK SMILES IDX 56 49 41 50 55 51 42 52 45 53 54 54 68 55 43 56 44 57 53 59
REMARK SMILES IDX 69 60 46 61 35 62 36 63 40 64 37 65 39 66 38 67 57 68 58 69
REMARK SMILES IDX 62 70 59 71 61 72 60 73 47 74 48 75 52 76 49 77 51 78 50 79
REMARK H PARENT 18 6 6 10 3 23 23 28 67 47 45 58
REMARK Flexibility Score: inf
ROOT
ATOM      1  C   UNL A   1      31.760  30.719  26.265  1.00  0.00     0.023 C 
ENDROOT
BRANCH   1   2
ATOM      2  C   UNL A   1      32.606  29.908  27.245  1.00  0.00     0.116 C 
BRANCH   2   3
ATOM      3  N   UNL A   1      31.977  28.638  27.541  1.00  0.00    -0.351 N 
ATOM      4  C   UNL A   1      31.881  27.504  26.787  1.00  0.00     0.278 C 
ATOM      5  O   UNL A   1      31.028  26.688  27.145  1.00  0.00    -0.268 OA
ATOM      6  H   UNL A   1      31.551  28.583  28.428  1.00  0.00     0.163 HD
BRANCH   4   7
ATOM      7  C   UNL A   1      32.835  27.268  25.581  1.00  0.00     0.279 C 
ATOM      8  N   UNL A   1      32.040  27.217  24.321  1.00  0.00    -0.316 N 
ATOM      9  C   UNL A   1      31.788  25.873  23.781  1.00  0.00     0.300 C 
ATOM     10  H   UNL A   1      31.091  27.473  24.596  1.00  0.00     0.349 HD
ATOM     11  C   UNL A   1      31.861  24.740  24.779  1.00  0.00     0.010 A 
ATOM     12  C   UNL A   1      33.692  26.016  25.865  1.00  0.00     0.111 C 
ATOM     13  C   UNL A   1      31.028  23.622  24.686  1.00  0.00     0.010 A 
ATOM     14  C   UNL A   1      32.864  24.768  25.761  1.00  0.00    -0.033 A 
ATOM     15  C   UNL A   1      31.194  22.548  25.564  1.00  0.00     0.001 A 
ATOM     16  C   UNL A   1      33.046  23.683  26.622  1.00  0.00     0.004 A 
ATOM     17  C   UNL A   1      32.206  22.576  26.524  1.00  0.00     0.000 A 
BRANCH   8  18
ATOM     18  C   UNL A   1      32.400  28.283  23.349  1.00  0.00     0.210 C 
ATOM     19  C   UNL A   1      33.425  27.922  22.260  1.00  0.00     0.078 C 
BRANCH  18  20
ATOM     20  C   UNL A   1      31.118  28.845  22.650  1.00  0.00     0.169 C 
ATOM     21  C   UNL A   1      29.980  29.049  23.643  1.00  0.00     0.045 C 
BRANCH  20  22
ATOM     22  O   UNL A   1      30.653  27.962  21.626  1.00  0.00    -0.387 OA
ATOM     23  H   UNL A   1      30.146  28.467  20.970  1.00  0.00     0.211 HD
ENDBRANCH  20  22
ENDBRANCH  18  20
ENDBRANCH   8  18
ENDBRANCH   4   7
ENDBRANCH   2   3
ENDBRANCH   1   2
BRANCH   1  24
ATOM     24  C   UNL A   1      31.479  32.158  26.686  1.00  0.00     0.023 C 
BRANCH  24  25
ATOM     25  C   UNL A   1      32.669  32.896  27.279  1.00  0.00     0.116 C 
BRANCH  25  26
ATOM     26  N   UNL A   1      32.372  34.279  27.626  1.00  0.00    -0.352 N 
ATOM     27  C   UNL A   1      32.969  35.076  28.572  1.00  0.00     0.251 C 
ATOM     28  H   UNL A   1      31.646  34.700  27.112  1.00  0.00     0.163 HD
ATOM     29  O   UNL A   1      32.526  36.194  28.817  1.00  0.00    -0.269 OA
BRANCH  27  30
ATOM     30  C   UNL A   1      34.128  34.555  29.323  1.00  0.00     0.039 A 
ATOM     31  C   UNL A   1      33.916  33.980  30.578  1.00  0.00     0.014 A 
ATOM     32  C   UNL A   1      35.405  34.579  28.759  1.00  0.00     0.014 A 
ATOM     33  C   UNL A   1      34.977  33.354  31.233  1.00  0.00     0.010 A 
ATOM     34  C   UNL A   1      36.439  33.882  29.373  1.00  0.00     0.010 A 
ATOM     35  C   UNL A   1      36.235  33.261  30.614  1.00  0.00    -0.014 A 
BRANCH  35  36
ATOM     36  C   UNL A   1      37.354  32.516  31.242  1.00  0.00     0.031 A 
ATOM     37  C   UNL A   1      37.916  32.979  32.557  1.00  0.00     0.074 A 
ATOM     38  C   UNL A   1      37.916  31.478  30.592  1.00  0.00     0.049 A 
ATOM     39  N   UNL A   1      38.952  32.528  33.216  1.00  0.00    -0.248 NA
ATOM     40  C   UNL A   1      37.242  34.119  33.202  1.00  0.00     0.031 C 
ATOM     41  C   UNL A   1      37.494  30.959  29.288  1.00  0.00     0.029 A 
ATOM     42  N   UNL A   1      38.975  30.678  30.938  1.00  0.00    -0.354 N 
ATOM     43  C   UNL A   1      39.067  33.339  34.337  1.00  0.00     0.074 A 
ATOM     44  C   UNL A   1      38.027  34.341  34.246  1.00  0.00     0.031 C 
ATOM     45  C   UNL A   1      38.271  29.915  28.957  1.00  0.00     0.029 A 
ATOM     46  C   UNL A   1      39.270  29.717  30.002  1.00  0.00     0.049 A 
ATOM     47  H   UNL A   1      39.477  30.784  31.779  1.00  0.00     0.167 HD
ATOM     48  C   UNL A   1      39.944  33.246  35.364  1.00  0.00     0.031 A 
ATOM     49  C   UNL A   1      40.242  28.785  29.983  1.00  0.00     0.031 A 
ATOM     50  C   UNL A   1      40.964  32.239  35.468  1.00  0.00     0.049 A 
ATOM     51  C   UNL A   1      41.203  28.705  31.137  1.00  0.00     0.074 A 
ATOM     52  C   UNL A   1      41.867  32.031  36.494  1.00  0.00     0.029 A 
ATOM     53  N   UNL A   1      41.212  31.269  34.510  1.00  0.00    -0.354 N 
ATOM     54  N   UNL A   1      41.260  29.443  32.219  1.00  0.00    -0.248 NA
ATOM     55  C   UNL A   1      42.230  27.655  31.069  1.00  0.00     0.031 C 
ATOM     56  C   UNL A   1      42.689  30.955  36.140  1.00  0.00     0.029 A 
ATOM     57  C   UNL A   1      42.264  30.466  34.916  1.00  0.00     0.049 A 
ATOM     58  H   UNL A   1      40.714  31.165  33.667  1.00  0.00     0.167 HD
ATOM     59  C   UNL A   1      42.308  28.931  32.971  1.00  0.00     0.074 A 
ATOM     60  C   UNL A   1      42.848  27.808  32.231  1.00  0.00     0.031 C 
ATOM     61  C   UNL A   1      42.783  29.352  34.168  1.00  0.00     0.031 A 
BRANCH  48  62
ATOM     62  C   UNL A   1      39.831  34.265  36.462  1.00  0.00    -0.014 A 
ATOM     63  C   UNL A   1      39.062  34.009  37.610  1.00  0.00     0.009 A 
ATOM     64  C   UNL A   1      40.528  35.479  36.367  1.00  0.00     0.009 A 
ATOM     65  C   UNL A   1      38.969  34.963  38.625  1.00  0.00     0.001 A 
ATOM     66  C   UNL A   1      40.454  36.420  37.396  1.00  0.00     0.001 A 
ATOM     67  C   UNL A   1      39.669  36.165  38.520  1.00  0.00     0.000 A 
ENDBRANCH  48  62
BRANCH  49  68
ATOM     68  C   UNL A   1      40.355  27.842  28.840  1.00  0.00    -0.014 A 
ATOM     69  C   UNL A   1      41.118  28.182  27.712  1.00  0.00     0.009 A 
ATOM     70  C   UNL A   1      39.685  26.610  28.861  1.00  0.00     0.009 A 
ATOM     71  C   UNL A   1      41.181  27.320  26.615  1.00  0.00     0.001 A 
ATOM     72  C   UNL A   1      39.772  25.738  27.773  1.00  0.00     0.001 A 
ATOM     73  C   UNL A   1      40.510  26.098  26.647  1.00  0.00     0.000 A 
ENDBRANCH  49  68
BRANCH  61  74
ATOM     74  C   UNL A   1      43.919  28.573  34.768  1.00  0.00    -0.014 A 
ATOM     75  C   UNL A   1      45.253  28.932  34.527  1.00  0.00     0.009 A 
ATOM     76  C   UNL A   1      43.644  27.490  35.616  1.00  0.00     0.009 A 
ATOM     77  C   UNL A   1      46.294  28.199  35.102  1.00  0.00     0.001 A 
ATOM     78  C   UNL A   1      44.685  26.776  36.211  1.00  0.00     0.001 A 
ATOM     79  C   UNL A   1      46.008  27.126  35.947  1.00  0.00     0.000 A 
ENDBRANCH  61  74
ENDBRANCH  35  36
ENDBRANCH  27  30
ENDBRANCH  25  26
ENDBRANCH  24  25
ENDBRANCH   1  24
TORSDOF 14
ENDMDL
