MODEL 1
REMARK VINA RESULT:     -11.0      0.000      0.000
REMARK SMILES Cc1ccc(OCCn2ccnc2)c(/C=C/C(=O)NCCCCNC(=O)c2ccc(-c3c4nc(c(-c5ccccc5)c5ccc([nH]5)c(-c5ccccc5)c5nc(c(-c6ccccc6)c6ccc3[nH]6)C=C5)C=C4)cc2)n1
REMARK SMILES IDX 20 1 19 2 17 3 18 4 16 6 15 7 14 8 1 9 2 10 3 11 75 12 4 13
REMARK SMILES IDX 5 14 6 15 7 16 8 17 9 18 10 19 13 20 11 21 12 22 21 23 22 24
REMARK SMILES IDX 23 25 24 26 25 27 26 29 27 30 28 31 74 32 29 33 73 34 30 35
REMARK SMILES IDX 31 36 32 37 67 38 33 39 72 40 66 41 68 42 34 43 71 44 65 45
REMARK SMILES IDX 64 46 35 48 57 49 42 50 56 51 43 52 46 53 55 54 69 55 44 56
REMARK SMILES IDX 45 57 54 59 70 60 47 61 36 62 37 63 41 64 38 65 40 66 39 67
REMARK SMILES IDX 58 68 59 69 63 70 60 71 62 72 61 73 48 74 49 75 53 76 50 77
REMARK SMILES IDX 52 78 51 79
REMARK H PARENT 19 5 24 28 68 47 46 58
REMARK Flexibility Score: inf
ROOT
ATOM      1  C   UNL A   1      39.899  21.142  26.329  1.00  0.00     0.116 C 
ENDROOT
BRANCH   1   2
ATOM      2  N   UNL A   1      39.392  22.484  26.124  1.00  0.00    -0.353 N 
ATOM      3  C   UNL A   1      38.148  23.003  25.960  1.00  0.00     0.244 C 
ATOM      4  O   UNL A   1      38.053  24.231  25.907  1.00  0.00    -0.270 OA
ATOM      5  H   UNL A   1      40.101  23.166  26.099  1.00  0.00     0.163 HD
BRANCH   3   6
ATOM      6  C   UNL A   1      36.902  22.199  25.859  1.00  0.00     0.073 C 
ATOM      7  C   UNL A   1      36.220  21.858  24.759  1.00  0.00     0.038 C 
BRANCH   7   8
ATOM      8  C   UNL A   1      34.939  21.129  24.709  1.00  0.00     0.105 A 
ATOM      9  C   UNL A   1      33.885  17.600  24.653  1.00  0.00     0.067 C 
ATOM     10  C   UNL A   1      33.828  19.094  24.778  1.00  0.00     0.038 A 
ATOM     11  C   UNL A   1      32.607  19.732  24.951  1.00  0.00     0.027 A 
ATOM     12  N   UNL A   1      34.999  19.773  24.715  1.00  0.00    -0.250 NA
ATOM     13  C   UNL A   1      32.561  21.123  24.923  1.00  0.00     0.050 A 
ATOM     14  C   UNL A   1      33.729  21.845  24.709  1.00  0.00     0.145 A 
BRANCH  14  15
ATOM     15  O   UNL A   1      33.779  23.196  24.477  1.00  0.00    -0.489 OA
BRANCH  15  16
ATOM     16  C   UNL A   1      33.176  24.089  25.422  1.00  0.00     0.251 C 
BRANCH  16  17
ATOM     17  C   UNL A   1      32.270  25.164  24.800  1.00  0.00     0.164 C 
BRANCH  17  18
ATOM     18  N   UNL A   1      32.553  25.448  23.408  1.00  0.00    -0.334 N 
ATOM     19  C   UNL A   1      31.683  25.316  22.364  1.00  0.00     0.107 A 
ATOM     20  C   UNL A   1      33.729  25.931  22.908  1.00  0.00     0.199 A 
ATOM     21  C   UNL A   1      32.350  25.839  21.280  1.00  0.00     0.130 A 
ATOM     22  N   UNL A   1      33.623  26.212  21.628  1.00  0.00    -0.245 NA
ENDBRANCH  17  18
ENDBRANCH  16  17
ENDBRANCH  15  16
ENDBRANCH  14  15
ENDBRANCH   7   8
ENDBRANCH   3   6
ENDBRANCH   1   2
BRANCH   1  23
ATOM     23  C   UNL A   1      40.926  21.058  27.466  1.00  0.00     0.023 C 
BRANCH  23  24
ATOM     24  C   UNL A   1      42.178  20.216  27.168  1.00  0.00     0.023 C 
BRANCH  24  25
ATOM     25  C   UNL A   1      42.254  19.616  25.764  1.00  0.00     0.116 C 
BRANCH  25  26
ATOM     26  N   UNL A   1      43.619  19.335  25.312  1.00  0.00    -0.352 N 
ATOM     27  C   UNL A   1      44.555  20.236  24.821  1.00  0.00     0.251 C 
ATOM     28  H   UNL A   1      43.907  18.394  25.363  1.00  0.00     0.163 HD
ATOM     29  O   UNL A   1      45.486  19.879  24.124  1.00  0.00    -0.269 OA
BRANCH  27  30
ATOM     30  C   UNL A   1      44.407  21.651  25.205  1.00  0.00     0.039 A 
ATOM     31  C   UNL A   1      43.422  22.480  24.669  1.00  0.00     0.014 A 
ATOM     32  C   UNL A   1      45.260  22.108  26.202  1.00  0.00     0.014 A 
ATOM     33  C   UNL A   1      43.246  23.747  25.225  1.00  0.00     0.010 A 
ATOM     34  C   UNL A   1      44.961  23.265  26.869  1.00  0.00     0.010 A 
ATOM     35  C   UNL A   1      44.001  24.124  26.349  1.00  0.00    -0.014 A 
BRANCH  35  36
ATOM     36  C   UNL A   1      43.748  25.380  27.051  1.00  0.00     0.031 A 
ATOM     37  C   UNL A   1      44.693  26.488  26.735  1.00  0.00     0.074 A 
ATOM     38  C   UNL A   1      42.640  25.605  27.793  1.00  0.00     0.049 A 
ATOM     39  N   UNL A   1      45.566  27.016  27.525  1.00  0.00    -0.248 NA
ATOM     40  C   UNL A   1      44.757  26.994  25.355  1.00  0.00     0.031 C 
ATOM     41  C   UNL A   1      41.455  24.755  27.977  1.00  0.00     0.029 A 
ATOM     42  N   UNL A   1      42.297  26.729  28.477  1.00  0.00    -0.354 N 
ATOM     43  C   UNL A   1      46.179  28.039  26.809  1.00  0.00     0.074 A 
ATOM     44  C   UNL A   1      45.742  27.892  25.443  1.00  0.00     0.031 C 
ATOM     45  C   UNL A   1      40.444  25.485  28.500  1.00  0.00     0.029 A 
ATOM     46  C   UNL A   1      40.968  26.781  28.878  1.00  0.00     0.049 A 
ATOM     47  H   UNL A   1      42.940  27.447  28.673  1.00  0.00     0.167 HD
ATOM     48  C   UNL A   1      46.841  29.050  27.440  1.00  0.00     0.031 A 
ATOM     49  C   UNL A   1      40.343  27.819  29.482  1.00  0.00     0.031 A 
ATOM     50  C   UNL A   1      47.082  28.740  28.825  1.00  0.00     0.049 A 
ATOM     51  C   UNL A   1      41.396  28.664  30.087  1.00  0.00     0.074 A 
ATOM     52  C   UNL A   1      47.797  27.768  29.494  1.00  0.00     0.029 A 
ATOM     53  N   UNL A   1      46.199  29.259  29.742  1.00  0.00    -0.354 N 
ATOM     54  N   UNL A   1      42.149  28.267  31.073  1.00  0.00    -0.248 NA
ATOM     55  C   UNL A   1      41.925  29.764  29.298  1.00  0.00     0.031 C 
ATOM     56  C   UNL A   1      46.973  27.413  30.603  1.00  0.00     0.029 A 
ATOM     57  C   UNL A   1      45.849  28.242  30.591  1.00  0.00     0.049 A 
ATOM     58  H   UNL A   1      45.877  30.189  29.782  1.00  0.00     0.167 HD
ATOM     59  C   UNL A   1      43.413  28.746  30.765  1.00  0.00     0.074 A 
ATOM     60  C   UNL A   1      43.194  29.740  29.714  1.00  0.00     0.031 C 
ATOM     61  C   UNL A   1      44.538  28.097  31.185  1.00  0.00     0.031 A 
BRANCH  48  62
ATOM     62  C   UNL A   1      46.922  30.466  26.929  1.00  0.00    -0.014 A 
ATOM     63  C   UNL A   1      48.142  31.159  27.056  1.00  0.00     0.009 A 
ATOM     64  C   UNL A   1      45.789  31.232  26.603  1.00  0.00     0.009 A 
ATOM     65  C   UNL A   1      48.204  32.554  26.945  1.00  0.00     0.001 A 
ATOM     66  C   UNL A   1      45.855  32.621  26.453  1.00  0.00     0.001 A 
ATOM     67  C   UNL A   1      47.057  33.284  26.654  1.00  0.00     0.000 A 
ENDBRANCH  48  62
BRANCH  49  68
ATOM     68  C   UNL A   1      38.949  28.281  29.326  1.00  0.00    -0.014 A 
ATOM     69  C   UNL A   1      38.123  28.466  30.445  1.00  0.00     0.009 A 
ATOM     70  C   UNL A   1      38.523  28.821  28.098  1.00  0.00     0.009 A 
ATOM     71  C   UNL A   1      36.936  29.207  30.349  1.00  0.00     0.001 A 
ATOM     72  C   UNL A   1      37.340  29.562  28.003  1.00  0.00     0.001 A 
ATOM     73  C   UNL A   1      36.554  29.769  29.132  1.00  0.00     0.000 A 
ENDBRANCH  49  68
BRANCH  61  74
ATOM     74  C   UNL A   1      44.381  26.962  32.170  1.00  0.00    -0.014 A 
ATOM     75  C   UNL A   1      44.321  25.609  31.785  1.00  0.00     0.009 A 
ATOM     76  C   UNL A   1      44.482  27.259  33.537  1.00  0.00     0.009 A 
ATOM     77  C   UNL A   1      44.349  24.590  32.744  1.00  0.00     0.001 A 
ATOM     78  C   UNL A   1      44.530  26.241  34.491  1.00  0.00     0.001 A 
ATOM     79  C   UNL A   1      44.461  24.907  34.096  1.00  0.00     0.000 A 
ENDBRANCH  61  74
ENDBRANCH  35  36
ENDBRANCH  27  30
ENDBRANCH  25  26
ENDBRANCH  24  25
ENDBRANCH  23  24
ENDBRANCH   1  23
TORSDOF 16
ENDMDL
MODEL 2
REMARK VINA RESULT:     -10.7      4.332      9.990
REMARK SMILES Cc1ccc(OCCn2ccnc2)c(/C=C/C(=O)NCCCCNC(=O)c2ccc(-c3c4nc(c(-c5ccccc5)c5ccc([nH]5)c(-c5ccccc5)c5nc(c(-c6ccccc6)c6ccc3[nH]6)C=C5)C=C4)cc2)n1
REMARK SMILES IDX 20 1 19 2 17 3 18 4 16 6 15 7 14 8 1 9 2 10 3 11 75 12 4 13
REMARK SMILES IDX 5 14 6 15 7 16 8 17 9 18 10 19 13 20 11 21 12 22 21 23 22 24
REMARK SMILES IDX 23 25 24 26 25 27 26 29 27 30 28 31 74 32 29 33 73 34 30 35
REMARK SMILES IDX 31 36 32 37 67 38 33 39 72 40 66 41 68 42 34 43 71 44 65 45
REMARK SMILES IDX 64 46 35 48 57 49 42 50 56 51 43 52 46 53 55 54 69 55 44 56
REMARK SMILES IDX 45 57 54 59 70 60 47 61 36 62 37 63 41 64 38 65 40 66 39 67
REMARK SMILES IDX 58 68 59 69 63 70 60 71 62 72 61 73 48 74 49 75 53 76 50 77
REMARK SMILES IDX 52 78 51 79
REMARK H PARENT 19 5 24 28 68 47 46 58
REMARK Flexibility Score: inf
ROOT
ATOM      1  C   UNL A   1      37.976  31.438  34.569  1.00  0.00     0.116 C 
ENDROOT
BRANCH   1   2
ATOM      2  N   UNL A   1      37.860  30.050  34.169  1.00  0.00    -0.353 N 
ATOM      3  C   UNL A   1      37.487  29.432  33.019  1.00  0.00     0.244 C 
ATOM      4  O   UNL A   1      37.595  28.205  32.979  1.00  0.00    -0.270 OA
ATOM      5  H   UNL A   1      38.103  29.420  34.885  1.00  0.00     0.163 HD
BRANCH   3   6
ATOM      6  C   UNL A   1      36.977  30.131  31.810  1.00  0.00     0.073 C 
ATOM      7  C   UNL A   1      36.122  31.158  31.742  1.00  0.00     0.038 C 
BRANCH   7   8
ATOM      8  C   UNL A   1      35.576  31.767  30.516  1.00  0.00     0.105 A 
ATOM      9  C   UNL A   1      34.524  30.576  27.193  1.00  0.00     0.067 C 
ATOM     10  C   UNL A   1      34.704  31.465  28.387  1.00  0.00     0.038 A 
ATOM     11  C   UNL A   1      34.262  32.781  28.348  1.00  0.00     0.027 A 
ATOM     12  N   UNL A   1      35.306  30.934  29.479  1.00  0.00    -0.250 NA
ATOM     13  C   UNL A   1      34.565  33.628  29.412  1.00  0.00     0.050 A 
ATOM     14  C   UNL A   1      35.313  33.149  30.480  1.00  0.00     0.145 A 
BRANCH  14  15
ATOM     15  O   UNL A   1      35.827  33.929  31.484  1.00  0.00    -0.489 OA
BRANCH  15  16
ATOM     16  C   UNL A   1      35.220  33.884  32.782  1.00  0.00     0.251 C 
BRANCH  16  17
ATOM     17  C   UNL A   1      33.754  34.342  32.820  1.00  0.00     0.164 C 
BRANCH  17  18
ATOM     18  N   UNL A   1      33.551  35.722  32.431  1.00  0.00    -0.334 N 
ATOM     19  C   UNL A   1      34.093  36.821  33.037  1.00  0.00     0.107 A 
ATOM     20  C   UNL A   1      32.811  36.159  31.369  1.00  0.00     0.199 A 
ATOM     21  C   UNL A   1      33.738  37.879  32.233  1.00  0.00     0.130 A 
ATOM     22  N   UNL A   1      32.937  37.457  31.203  1.00  0.00    -0.245 NA
ENDBRANCH  17  18
ENDBRANCH  16  17
ENDBRANCH  15  16
ENDBRANCH  14  15
ENDBRANCH   7   8
ENDBRANCH   3   6
ENDBRANCH   1   2
BRANCH   1  23
ATOM     23  C   UNL A   1      38.880  32.255  33.636  1.00  0.00     0.023 C 
BRANCH  23  24
ATOM     24  C   UNL A   1      40.379  32.232  33.978  1.00  0.00     0.023 C 
BRANCH  24  25
ATOM     25  C   UNL A   1      41.231  33.302  33.296  1.00  0.00     0.116 C 
BRANCH  25  26
ATOM     26  N   UNL A   1      40.526  34.041  32.245  1.00  0.00    -0.352 N 
ATOM     27  C   UNL A   1      40.610  33.854  30.871  1.00  0.00     0.251 C 
ATOM     28  H   UNL A   1      39.921  34.756  32.549  1.00  0.00     0.163 HD
ATOM     29  O   UNL A   1      40.312  34.732  30.084  1.00  0.00    -0.269 OA
BRANCH  27  30
ATOM     30  C   UNL A   1      41.040  32.529  30.388  1.00  0.00     0.039 A 
ATOM     31  C   UNL A   1      42.372  32.221  30.114  1.00  0.00     0.014 A 
ATOM     32  C   UNL A   1      40.047  31.561  30.291  1.00  0.00     0.014 A 
ATOM     33  C   UNL A   1      42.703  30.894  29.838  1.00  0.00     0.010 A 
ATOM     34  C   UNL A   1      40.398  30.241  30.211  1.00  0.00     0.010 A 
ATOM     35  C   UNL A   1      41.712  29.899  29.918  1.00  0.00    -0.014 A 
BRANCH  35  36
ATOM     36  C   UNL A   1      42.042  28.483  29.779  1.00  0.00     0.031 A 
ATOM     37  C   UNL A   1      42.744  27.874  30.942  1.00  0.00     0.074 A 
ATOM     38  C   UNL A   1      41.591  27.714  28.762  1.00  0.00     0.049 A 
ATOM     39  N   UNL A   1      43.963  27.449  30.981  1.00  0.00    -0.248 NA
ATOM     40  C   UNL A   1      42.058  27.833  32.243  1.00  0.00     0.031 C 
ATOM     41  C   UNL A   1      40.644  28.051  27.689  1.00  0.00     0.029 A 
ATOM     42  N   UNL A   1      41.822  26.393  28.536  1.00  0.00    -0.354 N 
ATOM     43  C   UNL A   1      44.158  26.926  32.256  1.00  0.00     0.074 A 
ATOM     44  C   UNL A   1      43.004  27.311  33.029  1.00  0.00     0.031 C 
ATOM     45  C   UNL A   1      40.199  26.919  27.098  1.00  0.00     0.029 A 
ATOM     46  C   UNL A   1      40.978  25.808  27.601  1.00  0.00     0.049 A 
ATOM     47  H   UNL A   1      42.532  25.893  28.998  1.00  0.00     0.167 HD
ATOM     48  C   UNL A   1      45.163  26.042  32.514  1.00  0.00     0.031 A 
ATOM     49  C   UNL A   1      40.926  24.497  27.264  1.00  0.00     0.031 A 
ATOM     50  C   UNL A   1      46.121  26.003  31.440  1.00  0.00     0.049 A 
ATOM     51  C   UNL A   1      42.217  23.896  27.665  1.00  0.00     0.074 A 
ATOM     52  C   UNL A   1      46.983  26.918  30.871  1.00  0.00     0.029 A 
ATOM     53  N   UNL A   1      45.984  24.990  30.520  1.00  0.00    -0.354 N 
ATOM     54  N   UNL A   1      43.352  24.213  27.111  1.00  0.00    -0.248 NA
ATOM     55  C   UNL A   1      42.310  23.297  28.986  1.00  0.00     0.031 C 
ATOM     56  C   UNL A   1      46.913  26.658  29.470  1.00  0.00     0.029 A 
ATOM     57  C   UNL A   1      46.080  25.554  29.275  1.00  0.00     0.049 A 
ATOM     58  H   UNL A   1      45.843  24.035  30.719  1.00  0.00     0.167 HD
ATOM     59  C   UNL A   1      44.253  24.271  28.163  1.00  0.00     0.074 A 
ATOM     60  C   UNL A   1      43.577  23.605  29.276  1.00  0.00     0.031 C 
ATOM     61  C   UNL A   1      45.340  25.097  28.119  1.00  0.00     0.031 A 
BRANCH  48  62
ATOM     62  C   UNL A   1      45.085  24.936  33.534  1.00  0.00    -0.014 A 
ATOM     63  C   UNL A   1      44.266  23.823  33.261  1.00  0.00     0.009 A 
ATOM     64  C   UNL A   1      45.544  25.075  34.856  1.00  0.00     0.009 A 
ATOM     65  C   UNL A   1      43.861  22.948  34.276  1.00  0.00     0.001 A 
ATOM     66  C   UNL A   1      45.173  24.179  35.865  1.00  0.00     0.001 A 
ATOM     67  C   UNL A   1      44.307  23.134  35.580  1.00  0.00     0.000 A 
ENDBRANCH  48  62
BRANCH  49  68
ATOM     68  C   UNL A   1      39.751  23.680  26.896  1.00  0.00    -0.014 A 
ATOM     69  C   UNL A   1      38.509  24.280  26.640  1.00  0.00     0.009 A 
ATOM     70  C   UNL A   1      39.925  22.338  26.508  1.00  0.00     0.009 A 
ATOM     71  C   UNL A   1      37.493  23.577  25.977  1.00  0.00     0.001 A 
ATOM     72  C   UNL A   1      38.912  21.638  25.845  1.00  0.00     0.001 A 
ATOM     73  C   UNL A   1      37.701  22.262  25.564  1.00  0.00     0.000 A 
ENDBRANCH  49  68
BRANCH  61  74
ATOM     74  C   UNL A   1      45.658  25.790  26.815  1.00  0.00    -0.014 A 
ATOM     75  C   UNL A   1      45.067  27.006  26.424  1.00  0.00     0.009 A 
ATOM     76  C   UNL A   1      46.721  25.292  26.049  1.00  0.00     0.009 A 
ATOM     77  C   UNL A   1      45.521  27.691  25.291  1.00  0.00     0.001 A 
ATOM     78  C   UNL A   1      47.187  25.987  24.931  1.00  0.00     0.001 A 
ATOM     79  C   UNL A   1      46.587  27.184  24.550  1.00  0.00     0.000 A 
ENDBRANCH  61  74
ENDBRANCH  35  36
ENDBRANCH  27  30
ENDBRANCH  25  26
ENDBRANCH  24  25
ENDBRANCH  23  24
ENDBRANCH   1  23
TORSDOF 16
ENDMDL
MODEL 3
REMARK VINA RESULT:     -10.7      4.320      8.242
REMARK SMILES Cc1ccc(OCCn2ccnc2)c(/C=C/C(=O)NCCCCNC(=O)c2ccc(-c3c4nc(c(-c5ccccc5)c5ccc([nH]5)c(-c5ccccc5)c5nc(c(-c6ccccc6)c6ccc3[nH]6)C=C5)C=C4)cc2)n1
REMARK SMILES IDX 20 1 19 2 17 3 18 4 16 6 15 7 14 8 1 9 2 10 3 11 75 12 4 13
REMARK SMILES IDX 5 14 6 15 7 16 8 17 9 18 10 19 13 20 11 21 12 22 21 23 22 24
REMARK SMILES IDX 23 25 24 26 25 27 26 29 27 30 28 31 74 32 29 33 73 34 30 35
REMARK SMILES IDX 31 36 32 37 67 38 33 39 72 40 66 41 68 42 34 43 71 44 65 45
REMARK SMILES IDX 64 46 35 48 57 49 42 50 56 51 43 52 46 53 55 54 69 55 44 56
REMARK SMILES IDX 45 57 54 59 70 60 47 61 36 62 37 63 41 64 38 65 40 66 39 67
REMARK SMILES IDX 58 68 59 69 63 70 60 71 62 72 61 73 48 74 49 75 53 76 50 77
REMARK SMILES IDX 52 78 51 79
REMARK H PARENT 19 5 24 28 68 47 46 58
REMARK Flexibility Score: inf
ROOT
ATOM      1  C   UNL A   1      47.935  25.745  26.902  1.00  0.00     0.116 C 
ENDROOT
BRANCH   1   2
ATOM      2  N   UNL A   1      47.734  26.242  25.554  1.00  0.00    -0.353 N 
ATOM      3  C   UNL A   1      46.665  26.751  24.891  1.00  0.00     0.244 C 
ATOM      4  O   UNL A   1      46.862  27.182  23.753  1.00  0.00    -0.270 OA
ATOM      5  H   UNL A   1      48.548  26.202  25.003  1.00  0.00     0.163 HD
BRANCH   3   6
ATOM      6  C   UNL A   1      45.288  26.838  25.444  1.00  0.00     0.073 C 
ATOM      7  C   UNL A   1      44.368  25.871  25.539  1.00  0.00     0.038 C 
BRANCH   7   8
ATOM      8  C   UNL A   1      42.981  26.021  26.017  1.00  0.00     0.105 A 
ATOM      9  C   UNL A   1      40.627  28.808  26.521  1.00  0.00     0.067 C 
ATOM     10  C   UNL A   1      41.161  27.415  26.373  1.00  0.00     0.038 A 
ATOM     11  C   UNL A   1      40.326  26.323  26.577  1.00  0.00     0.027 A 
ATOM     12  N   UNL A   1      42.466  27.277  26.037  1.00  0.00    -0.250 NA
ATOM     13  C   UNL A   1      40.874  25.043  26.573  1.00  0.00     0.050 A 
ATOM     14  C   UNL A   1      42.241  24.881  26.381  1.00  0.00     0.145 A 
BRANCH  14  15
ATOM     15  O   UNL A   1      42.916  23.698  26.540  1.00  0.00    -0.489 OA
BRANCH  15  16
ATOM     16  C   UNL A   1      42.634  22.609  25.653  1.00  0.00     0.251 C 
BRANCH  16  17
ATOM     17  C   UNL A   1      42.696  21.219  26.304  1.00  0.00     0.164 C 
BRANCH  17  18
ATOM     18  N   UNL A   1      43.516  20.262  25.590  1.00  0.00    -0.334 N 
ATOM     19  C   UNL A   1      44.682  20.532  24.929  1.00  0.00     0.107 A 
ATOM     20  C   UNL A   1      43.283  18.920  25.486  1.00  0.00     0.199 A 
ATOM     21  C   UNL A   1      45.162  19.302  24.545  1.00  0.00     0.130 A 
ATOM     22  N   UNL A   1      44.283  18.308  24.890  1.00  0.00    -0.245 NA
ENDBRANCH  17  18
ENDBRANCH  16  17
ENDBRANCH  15  16
ENDBRANCH  14  15
ENDBRANCH   7   8
ENDBRANCH   3   6
ENDBRANCH   1   2
BRANCH   1  23
ATOM     23  C   UNL A   1      48.145  26.867  27.927  1.00  0.00     0.023 C 
BRANCH  23  24
ATOM     24  C   UNL A   1      46.884  27.321  28.680  1.00  0.00     0.023 C 
BRANCH  24  25
ATOM     25  C   UNL A   1      46.805  26.908  30.150  1.00  0.00     0.116 C 
BRANCH  25  26
ATOM     26  N   UNL A   1      46.247  25.570  30.361  1.00  0.00    -0.352 N 
ATOM     27  C   UNL A   1      45.034  25.237  30.950  1.00  0.00     0.251 C 
ATOM     28  H   UNL A   1      46.799  24.816  30.048  1.00  0.00     0.163 HD
ATOM     29  O   UNL A   1      44.832  24.137  31.428  1.00  0.00    -0.269 OA
BRANCH  27  30
ATOM     30  C   UNL A   1      43.971  26.258  30.945  1.00  0.00     0.039 A 
ATOM     31  C   UNL A   1      43.713  27.085  32.038  1.00  0.00     0.014 A 
ATOM     32  C   UNL A   1      43.276  26.413  29.752  1.00  0.00     0.014 A 
ATOM     33  C   UNL A   1      42.813  28.138  31.876  1.00  0.00     0.010 A 
ATOM     34  C   UNL A   1      42.547  27.551  29.539  1.00  0.00     0.010 A 
ATOM     35  C   UNL A   1      42.253  28.386  30.610  1.00  0.00    -0.014 A 
BRANCH  35  36
ATOM     36  C   UNL A   1      41.421  29.560  30.361  1.00  0.00     0.031 A 
ATOM     37  C   UNL A   1      42.161  30.800  29.997  1.00  0.00     0.074 A 
ATOM     38  C   UNL A   1      40.072  29.508  30.278  1.00  0.00     0.049 A 
ATOM     39  N   UNL A   1      42.270  31.877  30.700  1.00  0.00    -0.248 NA
ATOM     40  C   UNL A   1      42.964  30.811  28.764  1.00  0.00     0.031 C 
ATOM     41  C   UNL A   1      39.182  28.338  30.305  1.00  0.00     0.029 A 
ATOM     42  N   UNL A   1      39.202  30.526  30.043  1.00  0.00    -0.354 N 
ATOM     43  C   UNL A   1      43.010  32.774  29.936  1.00  0.00     0.074 A 
ATOM     44  C   UNL A   1      43.524  32.022  28.819  1.00  0.00     0.031 C 
ATOM     45  C   UNL A   1      37.957  28.683  29.848  1.00  0.00     0.029 A 
ATOM     46  C   UNL A   1      37.917  30.123  29.699  1.00  0.00     0.049 A 
ATOM     47  H   UNL A   1      39.462  31.472  30.111  1.00  0.00     0.167 HD
ATOM     48  C   UNL A   1      42.971  34.115  30.180  1.00  0.00     0.031 A 
ATOM     49  C   UNL A   1      36.891  30.921  29.320  1.00  0.00     0.031 A 
ATOM     50  C   UNL A   1      42.370  34.403  31.456  1.00  0.00     0.049 A 
ATOM     51  C   UNL A   1      37.199  32.283  29.809  1.00  0.00     0.074 A 
ATOM     52  C   UNL A   1      42.682  34.108  32.768  1.00  0.00     0.029 A 
ATOM     53  N   UNL A   1      41.040  34.752  31.453  1.00  0.00    -0.354 N 
ATOM     54  N   UNL A   1      37.253  32.590  31.074  1.00  0.00    -0.248 NA
ATOM     55  C   UNL A   1      37.905  33.185  28.915  1.00  0.00     0.031 C 
ATOM     56  C   UNL A   1      41.428  33.808  33.378  1.00  0.00     0.029 A 
ATOM     57  C   UNL A   1      40.423  34.016  32.430  1.00  0.00     0.049 A 
ATOM     58  H   UNL A   1      40.610  35.409  30.858  1.00  0.00     0.167 HD
ATOM     59  C   UNL A   1      38.341  33.443  31.184  1.00  0.00     0.074 A 
ATOM     60  C   UNL A   1      38.643  33.847  29.810  1.00  0.00     0.031 C 
ATOM     61  C   UNL A   1      39.068  33.517  32.337  1.00  0.00     0.031 A 
BRANCH  48  62
ATOM     62  C   UNL A   1      43.107  35.179  29.121  1.00  0.00    -0.014 A 
ATOM     63  C   UNL A   1      44.107  36.158  29.274  1.00  0.00     0.009 A 
ATOM     64  C   UNL A   1      42.122  35.426  28.148  1.00  0.00     0.009 A 
ATOM     65  C   UNL A   1      44.072  37.357  28.552  1.00  0.00     0.001 A 
ATOM     66  C   UNL A   1      42.106  36.606  27.397  1.00  0.00     0.001 A 
ATOM     67  C   UNL A   1      43.064  37.584  27.622  1.00  0.00     0.000 A 
ENDBRANCH  48  62
BRANCH  49  68
ATOM     68  C   UNL A   1      35.826  30.657  28.332  1.00  0.00    -0.014 A 
ATOM     69  C   UNL A   1      35.732  29.411  27.691  1.00  0.00     0.009 A 
ATOM     70  C   UNL A   1      34.725  31.528  28.237  1.00  0.00     0.009 A 
ATOM     71  C   UNL A   1      34.560  29.034  27.020  1.00  0.00     0.001 A 
ATOM     72  C   UNL A   1      33.556  31.150  27.569  1.00  0.00     0.001 A 
ATOM     73  C   UNL A   1      33.467  29.896  26.975  1.00  0.00     0.000 A 
ENDBRANCH  49  68
BRANCH  61  74
ATOM     74  C   UNL A   1      38.539  32.809  33.562  1.00  0.00    -0.014 A 
ATOM     75  C   UNL A   1      38.805  31.457  33.847  1.00  0.00     0.009 A 
ATOM     76  C   UNL A   1      37.907  33.583  34.546  1.00  0.00     0.009 A 
ATOM     77  C   UNL A   1      38.437  30.898  35.076  1.00  0.00     0.001 A 
ATOM     78  C   UNL A   1      37.558  33.030  35.779  1.00  0.00     0.001 A 
ATOM     79  C   UNL A   1      37.820  31.688  36.044  1.00  0.00     0.000 A 
ENDBRANCH  61  74
ENDBRANCH  35  36
ENDBRANCH  27  30
ENDBRANCH  25  26
ENDBRANCH  24  25
ENDBRANCH  23  24
ENDBRANCH   1  23
TORSDOF 16
ENDMDL
