MODEL 1
REMARK VINA RESULT:     -10.5      0.000      0.000
REMARK SMILES CN(C[C@@H]1CCC[N@H+]1C)C(=O)c1csc(/C=C/C(=O)NCCCCNC(=O)c2ccc(-c3c4nc(c(-c5ccccc5)c5ccc([nH]5)c(-c5ccccc5)c5nc(c(-c6ccccc6)c6ccc3[nH]6)C=C5)C=C4)cc2)c1
REMARK SMILES IDX 21 1 20 2 18 3 19 4 17 6 16 7 15 8 12 9 13 10 76 11 14 12
REMARK SMILES IDX 10 13 11 14 2 15 1 16 3 17 4 18 5 19 8 20 6 21 7 22 9 23
REMARK SMILES IDX 22 25 23 26 24 27 25 28 26 29 27 31 28 32 29 33 75 34 30 35
REMARK SMILES IDX 74 36 31 37 32 38 33 39 68 40 34 41 73 42 67 43 69 44 35 45
REMARK SMILES IDX 72 46 66 47 65 48 36 50 58 51 43 52 57 53 44 54 47 55 56 56
REMARK SMILES IDX 70 57 45 58 46 59 55 61 71 62 48 63 37 64 38 65 42 66 39 67
REMARK SMILES IDX 41 68 40 69 59 70 60 71 64 72 61 73 63 74 62 75 49 76 50 77
REMARK SMILES IDX 54 78 51 79 53 80 52 81
REMARK H PARENT 20 5 8 24 25 30 69 49 47 60
REMARK Flexibility Score: inf
ROOT
ATOM      1  C   UNL A   1      34.085  32.261  28.100  1.00  0.00     0.116 C 
ENDROOT
BRANCH   1   2
ATOM      2  N   UNL A   1      35.324  31.518  27.943  1.00  0.00    -0.353 N 
ATOM      3  C   UNL A   1      35.522  30.212  27.614  1.00  0.00     0.244 C 
ATOM      4  O   UNL A   1      36.661  29.774  27.484  1.00  0.00    -0.270 OA
ATOM      5  H   UNL A   1      36.145  32.039  28.098  1.00  0.00     0.163 HD
BRANCH   3   6
ATOM      6  C   UNL A   1      34.362  29.358  27.289  1.00  0.00     0.072 C 
ATOM      7  C   UNL A   1      34.422  28.315  26.448  1.00  0.00     0.024 C 
BRANCH   7   8
ATOM      8  C   UNL A   1      33.339  27.405  26.263  1.00  0.00     0.028 A 
ATOM      9  C   UNL A   1      32.160  25.407  25.804  1.00  0.00     0.051 A 
ATOM     10  C   UNL A   1      31.191  26.191  26.392  1.00  0.00     0.079 A 
ATOM     11  C   UNL A   1      33.408  26.114  25.761  1.00  0.00     0.033 A 
ATOM     12  S   UNL A   1      31.715  27.781  26.693  1.00  0.00    -0.144 S 
BRANCH   9  13
ATOM     13  C   UNL A   1      31.979  23.998  25.471  1.00  0.00     0.254 C 
ATOM     14  O   UNL A   1      31.849  23.177  26.377  1.00  0.00    -0.269 OA
BRANCH  13  15
ATOM     15  N   UNL A   1      31.967  23.620  24.127  1.00  0.00    -0.336 N 
ATOM     16  C   UNL A   1      30.717  23.827  23.412  1.00  0.00     0.147 C 
BRANCH  15  17
ATOM     17  C   UNL A   1      33.030  22.888  23.419  1.00  0.00     0.184 C 
BRANCH  17  18
ATOM     18  C   UNL A   1      34.354  22.741  24.193  1.00  0.00     0.203 C 
ATOM     19  C   UNL A   1      35.586  23.286  23.475  1.00  0.00     0.073 C 
ATOM     20  N   UNL A   1      34.818  21.364  24.451  1.00  0.00    -0.333 N 
ATOM     21  C   UNL A   1      36.737  22.749  24.316  1.00  0.00     0.068 C 
ATOM     22  C   UNL A   1      36.158  21.532  25.035  1.00  0.00     0.262 C 
ATOM     23  C   UNL A   1      33.939  20.588  25.311  1.00  0.00     0.333 C 
ATOM     24  H   UNL A   1      34.828  20.821  23.588  1.00  0.00     0.348 HD
ENDBRANCH  17  18
ENDBRANCH  15  17
ENDBRANCH  13  15
ENDBRANCH   9  13
ENDBRANCH   7   8
ENDBRANCH   3   6
ENDBRANCH   1   2
BRANCH   1  25
ATOM     25  C   UNL A   1      34.289  33.461  29.027  1.00  0.00     0.023 C 
BRANCH  25  26
ATOM     26  C   UNL A   1      33.251  34.569  28.850  1.00  0.00     0.023 C 
BRANCH  26  27
ATOM     27  C   UNL A   1      33.559  35.856  29.604  1.00  0.00     0.116 C 
BRANCH  27  28
ATOM     28  N   UNL A   1      32.535  36.219  30.572  1.00  0.00    -0.352 N 
ATOM     29  C   UNL A   1      32.492  35.904  31.912  1.00  0.00     0.251 C 
ATOM     30  H   UNL A   1      31.782  36.752  30.228  1.00  0.00     0.163 HD
ATOM     31  O   UNL A   1      31.526  36.187  32.600  1.00  0.00    -0.269 OA
BRANCH  29  32
ATOM     32  C   UNL A   1      33.636  35.169  32.488  1.00  0.00     0.039 A 
ATOM     33  C   UNL A   1      33.446  33.854  32.916  1.00  0.00     0.014 A 
ATOM     34  C   UNL A   1      34.903  35.756  32.511  1.00  0.00     0.014 A 
ATOM     35  C   UNL A   1      34.551  33.093  33.298  1.00  0.00     0.010 A 
ATOM     36  C   UNL A   1      36.008  34.977  32.828  1.00  0.00     0.010 A 
ATOM     37  C   UNL A   1      35.842  33.637  33.216  1.00  0.00    -0.014 A 
BRANCH  37  38
ATOM     38  C   UNL A   1      37.047  32.831  33.524  1.00  0.00     0.031 A 
ATOM     39  C   UNL A   1      37.800  33.078  34.799  1.00  0.00     0.074 A 
ATOM     40  C   UNL A   1      37.516  31.952  32.617  1.00  0.00     0.049 A 
ATOM     41  N   UNL A   1      38.946  32.582  35.191  1.00  0.00    -0.248 NA
ATOM     42  C   UNL A   1      37.200  34.034  35.745  1.00  0.00     0.031 C 
ATOM     43  C   UNL A   1      36.895  31.648  31.327  1.00  0.00     0.029 A 
ATOM     44  N   UNL A   1      38.641  31.166  32.638  1.00  0.00    -0.354 N 
ATOM     45  C   UNL A   1      39.214  33.183  36.414  1.00  0.00     0.074 A 
ATOM     46  C   UNL A   1      38.137  34.112  36.677  1.00  0.00     0.031 C 
ATOM     47  C   UNL A   1      37.640  30.733  30.686  1.00  0.00     0.029 A 
ATOM     48  C   UNL A   1      38.810  30.418  31.498  1.00  0.00     0.049 A 
ATOM     49  H   UNL A   1      39.267  31.141  33.397  1.00  0.00     0.167 HD
ATOM     50  C   UNL A   1      40.256  32.968  37.251  1.00  0.00     0.031 A 
ATOM     51  C   UNL A   1      39.806  29.585  31.141  1.00  0.00     0.031 A 
ATOM     52  C   UNL A   1      41.318  32.034  36.995  1.00  0.00     0.049 A 
ATOM     53  C   UNL A   1      40.959  29.372  32.082  1.00  0.00     0.074 A 
ATOM     54  C   UNL A   1      42.391  31.707  37.804  1.00  0.00     0.029 A 
ATOM     55  N   UNL A   1      41.438  31.278  35.841  1.00  0.00    -0.354 N 
ATOM     56  N   UNL A   1      41.171  29.905  33.260  1.00  0.00    -0.248 NA
ATOM     57  C   UNL A   1      42.005  28.435  31.647  1.00  0.00     0.031 C 
ATOM     58  C   UNL A   1      43.184  30.780  37.121  1.00  0.00     0.029 A 
ATOM     59  C   UNL A   1      42.577  30.495  35.907  1.00  0.00     0.049 A 
ATOM     60  H   UNL A   1      40.807  31.293  35.085  1.00  0.00     0.167 HD
ATOM     61  C   UNL A   1      42.358  29.350  33.719  1.00  0.00     0.074 A 
ATOM     62  C   UNL A   1      42.815  28.432  32.696  1.00  0.00     0.031 C 
ATOM     63  C   UNL A   1      43.010  29.580  34.884  1.00  0.00     0.031 A 
BRANCH  50  64
ATOM     64  C   UNL A   1      40.292  33.769  38.522  1.00  0.00    -0.014 A 
ATOM     65  C   UNL A   1      39.669  33.303  39.692  1.00  0.00     0.009 A 
ATOM     66  C   UNL A   1      40.972  34.995  38.557  1.00  0.00     0.009 A 
ATOM     67  C   UNL A   1      39.692  34.068  40.859  1.00  0.00     0.001 A 
ATOM     68  C   UNL A   1      41.019  35.744  39.733  1.00  0.00     0.001 A 
ATOM     69  C   UNL A   1      40.370  35.286  40.880  1.00  0.00     0.000 A 
ENDBRANCH  50  64
BRANCH  51  70
ATOM     70  C   UNL A   1      39.754  28.882  29.833  1.00  0.00    -0.014 A 
ATOM     71  C   UNL A   1      39.276  27.566  29.752  1.00  0.00     0.009 A 
ATOM     72  C   UNL A   1      40.180  29.524  28.659  1.00  0.00     0.009 A 
ATOM     73  C   UNL A   1      39.247  26.898  28.525  1.00  0.00     0.001 A 
ATOM     74  C   UNL A   1      40.125  28.862  27.430  1.00  0.00     0.001 A 
ATOM     75  C   UNL A   1      39.667  27.548  27.365  1.00  0.00     0.000 A 
ENDBRANCH  51  70
BRANCH  63  76
ATOM     76  C   UNL A   1      44.265  28.797  35.140  1.00  0.00    -0.014 A 
ATOM     77  C   UNL A   1      45.516  29.269  34.716  1.00  0.00     0.009 A 
ATOM     78  C   UNL A   1      44.197  27.605  35.879  1.00  0.00     0.009 A 
ATOM     79  C   UNL A   1      46.676  28.548  35.012  1.00  0.00     0.001 A 
ATOM     80  C   UNL A   1      45.360  26.900  36.192  1.00  0.00     0.001 A 
ATOM     81  C   UNL A   1      46.597  27.370  35.754  1.00  0.00     0.000 A 
ENDBRANCH  63  76
ENDBRANCH  37  38
ENDBRANCH  29  32
ENDBRANCH  27  28
ENDBRANCH  26  27
ENDBRANCH  25  26
ENDBRANCH   1  25
TORSDOF 16
ENDMDL
MODEL 2
REMARK VINA RESULT:     -10.2      6.655     12.039
REMARK SMILES CN(C[C@@H]1CCC[N@H+]1C)C(=O)c1csc(/C=C/C(=O)NCCCCNC(=O)c2ccc(-c3c4nc(c(-c5ccccc5)c5ccc([nH]5)c(-c5ccccc5)c5nc(c(-c6ccccc6)c6ccc3[nH]6)C=C5)C=C4)cc2)c1
REMARK SMILES IDX 21 1 20 2 18 3 19 4 17 6 16 7 15 8 12 9 13 10 76 11 14 12
REMARK SMILES IDX 10 13 11 14 2 15 1 16 3 17 4 18 5 19 8 20 6 21 7 22 9 23
REMARK SMILES IDX 22 25 23 26 24 27 25 28 26 29 27 31 28 32 29 33 75 34 30 35
REMARK SMILES IDX 74 36 31 37 32 38 33 39 68 40 34 41 73 42 67 43 69 44 35 45
REMARK SMILES IDX 72 46 66 47 65 48 36 50 58 51 43 52 57 53 44 54 47 55 56 56
REMARK SMILES IDX 70 57 45 58 46 59 55 61 71 62 48 63 37 64 38 65 42 66 39 67
REMARK SMILES IDX 41 68 40 69 59 70 60 71 64 72 61 73 63 74 62 75 49 76 50 77
REMARK SMILES IDX 54 78 51 79 53 80 52 81
REMARK H PARENT 20 5 8 24 25 30 69 49 47 60
REMARK Flexibility Score: inf
ROOT
ATOM      1  C   UNL A   1      39.985  21.627  26.791  1.00  0.00     0.116 C 
ENDROOT
BRANCH   1   2
ATOM      2  N   UNL A   1      39.826  23.023  27.163  1.00  0.00    -0.353 N 
ATOM      3  C   UNL A   1      38.830  23.899  26.859  1.00  0.00     0.244 C 
ATOM      4  O   UNL A   1      38.852  25.040  27.310  1.00  0.00    -0.270 OA
ATOM      5  H   UNL A   1      40.550  23.390  27.721  1.00  0.00     0.163 HD
BRANCH   3   6
ATOM      6  C   UNL A   1      37.660  23.433  26.088  1.00  0.00     0.072 C 
ATOM      7  C   UNL A   1      36.618  24.219  25.775  1.00  0.00     0.024 C 
BRANCH   7   8
ATOM      8  C   UNL A   1      35.571  23.804  24.899  1.00  0.00     0.028 A 
ATOM      9  C   UNL A   1      33.834  23.905  23.298  1.00  0.00     0.051 A 
ATOM     10  C   UNL A   1      34.107  22.555  23.349  1.00  0.00     0.079 A 
ATOM     11  C   UNL A   1      34.709  24.620  24.182  1.00  0.00     0.033 A 
ATOM     12  S   UNL A   1      35.232  22.151  24.560  1.00  0.00    -0.144 S 
BRANCH   9  13
ATOM     13  C   UNL A   1      32.929  24.517  22.331  1.00  0.00     0.254 C 
ATOM     14  O   UNL A   1      33.218  24.494  21.136  1.00  0.00    -0.269 OA
BRANCH  13  15
ATOM     15  N   UNL A   1      31.759  25.124  22.793  1.00  0.00    -0.336 N 
ATOM     16  C   UNL A   1      30.741  24.233  23.327  1.00  0.00     0.147 C 
BRANCH  15  17
ATOM     17  C   UNL A   1      31.396  26.542  22.642  1.00  0.00     0.184 C 
BRANCH  17  18
ATOM     18  C   UNL A   1      31.896  27.472  23.764  1.00  0.00     0.203 C 
ATOM     19  C   UNL A   1      30.799  28.207  24.530  1.00  0.00     0.073 C 
ATOM     20  N   UNL A   1      32.711  28.630  23.347  1.00  0.00    -0.333 N 
ATOM     21  C   UNL A   1      31.578  29.238  25.338  1.00  0.00     0.068 C 
ATOM     22  C   UNL A   1      32.892  29.415  24.578  1.00  0.00     0.262 C 
ATOM     23  C   UNL A   1      33.980  28.277  22.731  1.00  0.00     0.333 C 
ATOM     24  H   UNL A   1      32.240  29.153  22.609  1.00  0.00     0.348 HD
ENDBRANCH  17  18
ENDBRANCH  15  17
ENDBRANCH  13  15
ENDBRANCH   9  13
ENDBRANCH   7   8
ENDBRANCH   3   6
ENDBRANCH   1   2
BRANCH   1  25
ATOM     25  C   UNL A   1      41.386  21.373  26.234  1.00  0.00     0.023 C 
BRANCH  25  26
ATOM     26  C   UNL A   1      41.655  19.914  25.865  1.00  0.00     0.023 C 
BRANCH  26  27
ATOM     27  C   UNL A   1      43.041  19.407  26.243  1.00  0.00     0.116 C 
BRANCH  27  28
ATOM     28  N   UNL A   1      43.775  18.842  25.120  1.00  0.00    -0.352 N 
ATOM     29  C   UNL A   1      44.677  19.479  24.297  1.00  0.00     0.251 C 
ATOM     30  H   UNL A   1      43.607  17.892  24.926  1.00  0.00     0.163 HD
ATOM     31  O   UNL A   1      45.156  18.918  23.326  1.00  0.00    -0.269 OA
BRANCH  29  32
ATOM     32  C   UNL A   1      45.016  20.885  24.596  1.00  0.00     0.039 A 
ATOM     33  C   UNL A   1      44.617  21.880  23.701  1.00  0.00     0.014 A 
ATOM     34  C   UNL A   1      45.640  21.211  25.802  1.00  0.00     0.014 A 
ATOM     35  C   UNL A   1      44.776  23.220  24.055  1.00  0.00     0.010 A 
ATOM     36  C   UNL A   1      45.736  22.544  26.179  1.00  0.00     0.010 A 
ATOM     37  C   UNL A   1      45.297  23.559  25.313  1.00  0.00    -0.014 A 
BRANCH  37  38
ATOM     38  C   UNL A   1      45.394  24.969  25.761  1.00  0.00     0.031 A 
ATOM     39  C   UNL A   1      46.721  25.669  25.728  1.00  0.00     0.074 A 
ATOM     40  C   UNL A   1      44.315  25.582  26.286  1.00  0.00     0.049 A 
ATOM     41  N   UNL A   1      47.046  26.845  26.199  1.00  0.00    -0.248 NA
ATOM     42  C   UNL A   1      47.839  24.935  25.111  1.00  0.00     0.031 C 
ATOM     43  C   UNL A   1      42.978  24.996  26.405  1.00  0.00     0.029 A 
ATOM     44  N   UNL A   1      44.182  26.832  26.837  1.00  0.00    -0.354 N 
ATOM     45  C   UNL A   1      48.408  26.981  25.958  1.00  0.00     0.074 A 
ATOM     46  C   UNL A   1      48.855  25.751  25.341  1.00  0.00     0.031 C 
ATOM     47  C   UNL A   1      42.158  25.890  26.981  1.00  0.00     0.029 A 
ATOM     48  C   UNL A   1      42.918  27.091  27.309  1.00  0.00     0.049 A 
ATOM     49  H   UNL A   1      44.920  27.480  26.888  1.00  0.00     0.167 HD
ATOM     50  C   UNL A   1      49.209  28.042  26.212  1.00  0.00     0.031 A 
ATOM     51  C   UNL A   1      42.431  28.171  27.949  1.00  0.00     0.031 A 
ATOM     52  C   UNL A   1      48.760  29.268  26.811  1.00  0.00     0.049 A 
ATOM     53  C   UNL A   1      43.344  29.332  28.232  1.00  0.00     0.074 A 
ATOM     54  C   UNL A   1      49.484  30.420  27.062  1.00  0.00     0.029 A 
ATOM     55  N   UNL A   1      47.467  29.501  27.251  1.00  0.00    -0.354 N 
ATOM     56  N   UNL A   1      44.616  29.468  27.948  1.00  0.00    -0.248 NA
ATOM     57  C   UNL A   1      42.751  30.491  28.916  1.00  0.00     0.031 C 
ATOM     58  C   UNL A   1      48.637  31.337  27.693  1.00  0.00     0.029 A 
ATOM     59  C   UNL A   1      47.374  30.772  27.789  1.00  0.00     0.049 A 
ATOM     60  H   UNL A   1      46.724  28.857  27.190  1.00  0.00     0.167 HD
ATOM     61  C   UNL A   1      44.970  30.736  28.392  1.00  0.00     0.074 A 
ATOM     62  C   UNL A   1      43.776  31.331  28.956  1.00  0.00     0.031 C 
ATOM     63  C   UNL A   1      46.175  31.351  28.336  1.00  0.00     0.031 A 
BRANCH  50  64
ATOM     64  C   UNL A   1      50.660  27.910  25.842  1.00  0.00    -0.014 A 
ATOM     65  C   UNL A   1      51.604  27.431  26.766  1.00  0.00     0.009 A 
ATOM     66  C   UNL A   1      51.086  28.251  24.550  1.00  0.00     0.009 A 
ATOM     67  C   UNL A   1      52.951  27.335  26.415  1.00  0.00     0.001 A 
ATOM     68  C   UNL A   1      52.429  28.126  24.192  1.00  0.00     0.001 A 
ATOM     69  C   UNL A   1      53.363  27.679  25.127  1.00  0.00     0.000 A 
ENDBRANCH  50  64
BRANCH  51  70
ATOM     70  C   UNL A   1      41.005  28.210  28.364  1.00  0.00    -0.014 A 
ATOM     71  C   UNL A   1      40.043  28.814  27.541  1.00  0.00     0.009 A 
ATOM     72  C   UNL A   1      40.598  27.641  29.580  1.00  0.00     0.009 A 
ATOM     73  C   UNL A   1      38.705  28.869  27.939  1.00  0.00     0.001 A 
ATOM     74  C   UNL A   1      39.254  27.675  29.964  1.00  0.00     0.001 A 
ATOM     75  C   UNL A   1      38.311  28.295  29.148  1.00  0.00     0.000 A 
ENDBRANCH  51  70
BRANCH  63  76
ATOM     76  C   UNL A   1      46.260  32.756  28.859  1.00  0.00    -0.014 A 
ATOM     77  C   UNL A   1      46.000  33.857  28.029  1.00  0.00     0.009 A 
ATOM     78  C   UNL A   1      46.534  32.972  30.219  1.00  0.00     0.009 A 
ATOM     79  C   UNL A   1      46.034  35.152  28.550  1.00  0.00     0.001 A 
ATOM     80  C   UNL A   1      46.543  34.266  30.741  1.00  0.00     0.001 A 
ATOM     81  C   UNL A   1      46.298  35.355  29.905  1.00  0.00     0.000 A 
ENDBRANCH  63  76
ENDBRANCH  37  38
ENDBRANCH  29  32
ENDBRANCH  27  28
ENDBRANCH  26  27
ENDBRANCH  25  26
ENDBRANCH   1  25
TORSDOF 16
ENDMDL
MODEL 3
REMARK VINA RESULT:     -10.2      2.106      3.162
REMARK SMILES CN(C[C@@H]1CCC[N@H+]1C)C(=O)c1csc(/C=C/C(=O)NCCCCNC(=O)c2ccc(-c3c4nc(c(-c5ccccc5)c5ccc([nH]5)c(-c5ccccc5)c5nc(c(-c6ccccc6)c6ccc3[nH]6)C=C5)C=C4)cc2)c1
REMARK SMILES IDX 21 1 20 2 18 3 19 4 17 6 16 7 15 8 12 9 13 10 76 11 14 12
REMARK SMILES IDX 10 13 11 14 2 15 1 16 3 17 4 18 5 19 8 20 6 21 7 22 9 23
REMARK SMILES IDX 22 25 23 26 24 27 25 28 26 29 27 31 28 32 29 33 75 34 30 35
REMARK SMILES IDX 74 36 31 37 32 38 33 39 68 40 34 41 73 42 67 43 69 44 35 45
REMARK SMILES IDX 72 46 66 47 65 48 36 50 58 51 43 52 57 53 44 54 47 55 56 56
REMARK SMILES IDX 70 57 45 58 46 59 55 61 71 62 48 63 37 64 38 65 42 66 39 67
REMARK SMILES IDX 41 68 40 69 59 70 60 71 64 72 61 73 63 74 62 75 49 76 50 77
REMARK SMILES IDX 54 78 51 79 53 80 52 81
REMARK H PARENT 20 5 8 24 25 30 69 49 47 60
REMARK Flexibility Score: inf
ROOT
ATOM      1  C   UNL A   1      34.539  29.395  27.474  1.00  0.00     0.116 C 
ENDROOT
BRANCH   1   2
ATOM      2  N   UNL A   1      33.143  29.136  27.783  1.00  0.00    -0.353 N 
ATOM      3  C   UNL A   1      32.334  28.119  27.379  1.00  0.00     0.244 C 
ATOM      4  O   UNL A   1      31.180  28.048  27.789  1.00  0.00    -0.270 OA
ATOM      5  H   UNL A   1      32.718  29.798  28.375  1.00  0.00     0.163 HD
BRANCH   3   6
ATOM      6  C   UNL A   1      32.890  27.032  26.548  1.00  0.00     0.072 C 
ATOM      7  C   UNL A   1      32.408  26.702  25.340  1.00  0.00     0.024 C 
BRANCH   7   8
ATOM      8  C   UNL A   1      33.049  25.760  24.482  1.00  0.00     0.028 A 
ATOM      9  C   UNL A   1      34.604  24.163  23.691  1.00  0.00     0.051 A 
ATOM     10  C   UNL A   1      33.561  24.023  22.800  1.00  0.00     0.079 A 
ATOM     11  C   UNL A   1      34.281  25.154  24.677  1.00  0.00     0.033 A 
ATOM     12  S   UNL A   1      32.335  25.180  23.027  1.00  0.00    -0.144 S 
BRANCH   9  13
ATOM     13  C   UNL A   1      35.765  23.280  23.732  1.00  0.00     0.254 C 
ATOM     14  O   UNL A   1      36.337  22.988  22.683  1.00  0.00    -0.269 OA
BRANCH  13  15
ATOM     15  N   UNL A   1      36.190  22.783  24.965  1.00  0.00    -0.336 N 
ATOM     16  C   UNL A   1      37.276  23.505  25.610  1.00  0.00     0.147 C 
BRANCH  15  17
ATOM     17  C   UNL A   1      35.763  21.520  25.588  1.00  0.00     0.184 C 
BRANCH  17  18
ATOM     18  C   UNL A   1      34.593  20.804  24.887  1.00  0.00     0.203 C 
ATOM     19  C   UNL A   1      33.203  21.244  25.338  1.00  0.00     0.073 C 
ATOM     20  N   UNL A   1      34.471  19.352  25.123  1.00  0.00    -0.333 N 
ATOM     21  C   UNL A   1      32.293  20.193  24.717  1.00  0.00     0.068 C 
ATOM     22  C   UNL A   1      33.196  18.982  24.488  1.00  0.00     0.262 C 
ATOM     23  C   UNL A   1      35.585  18.568  24.613  1.00  0.00     0.333 C 
ATOM     24  H   UNL A   1      34.489  19.148  26.122  1.00  0.00     0.348 HD
ENDBRANCH  17  18
ENDBRANCH  15  17
ENDBRANCH  13  15
ENDBRANCH   9  13
ENDBRANCH   7   8
ENDBRANCH   3   6
ENDBRANCH   1   2
BRANCH   1  25
ATOM     25  C   UNL A   1      34.917  30.829  27.847  1.00  0.00     0.023 C 
BRANCH  25  26
ATOM     26  C   UNL A   1      33.744  31.810  27.824  1.00  0.00     0.023 C 
BRANCH  26  27
ATOM     27  C   UNL A   1      34.143  33.279  27.775  1.00  0.00     0.116 C 
BRANCH  27  28
ATOM     28  N   UNL A   1      33.406  34.110  28.716  1.00  0.00    -0.352 N 
ATOM     29  C   UNL A   1      33.674  34.311  30.052  1.00  0.00     0.251 C 
ATOM     30  H   UNL A   1      32.622  34.583  28.355  1.00  0.00     0.163 HD
ATOM     31  O   UNL A   1      32.921  34.958  30.759  1.00  0.00    -0.269 OA
BRANCH  29  32
ATOM     32  C   UNL A   1      34.882  33.679  30.619  1.00  0.00     0.039 A 
ATOM     33  C   UNL A   1      34.733  32.589  31.479  1.00  0.00     0.014 A 
ATOM     34  C   UNL A   1      36.149  34.112  30.221  1.00  0.00     0.014 A 
ATOM     35  C   UNL A   1      35.863  31.877  31.882  1.00  0.00     0.010 A 
ATOM     36  C   UNL A   1      37.264  33.362  30.569  1.00  0.00     0.010 A 
ATOM     37  C   UNL A   1      37.130  32.234  31.395  1.00  0.00    -0.014 A 
BRANCH  37  38
ATOM     38  C   UNL A   1      38.340  31.445  31.726  1.00  0.00     0.031 A 
ATOM     39  C   UNL A   1      39.162  31.814  32.927  1.00  0.00     0.074 A 
ATOM     40  C   UNL A   1      38.751  30.466  30.896  1.00  0.00     0.049 A 
ATOM     41  N   UNL A   1      40.322  31.344  33.310  1.00  0.00    -0.248 NA
ATOM     42  C   UNL A   1      38.623  32.876  33.794  1.00  0.00     0.031 C 
ATOM     43  C   UNL A   1      38.059  30.036  29.680  1.00  0.00     0.029 A 
ATOM     44  N   UNL A   1      39.867  29.669  30.944  1.00  0.00    -0.354 N 
ATOM     45  C   UNL A   1      40.660  32.068  34.447  1.00  0.00     0.074 A 
ATOM     46  C   UNL A   1      39.609  33.037  34.663  1.00  0.00     0.031 C 
ATOM     47  C   UNL A   1      38.759  29.045  29.104  1.00  0.00     0.029 A 
ATOM     48  C   UNL A   1      39.967  28.800  29.884  1.00  0.00     0.049 A 
ATOM     49  H   UNL A   1      40.532  29.714  31.668  1.00  0.00     0.167 HD
ATOM     50  C   UNL A   1      41.742  31.926  35.247  1.00  0.00     0.031 A 
ATOM     51  C   UNL A   1      40.933  27.916  29.569  1.00  0.00     0.031 A 
ATOM     52  C   UNL A   1      42.779  30.953  35.039  1.00  0.00     0.049 A 
ATOM     53  C   UNL A   1      42.132  27.786  30.466  1.00  0.00     0.074 A 
ATOM     54  C   UNL A   1      43.890  30.696  35.823  1.00  0.00     0.029 A 
ATOM     55  N   UNL A   1      42.830  30.075  33.969  1.00  0.00    -0.354 N 
ATOM     56  N   UNL A   1      42.412  28.439  31.568  1.00  0.00    -0.248 NA
ATOM     57  C   UNL A   1      43.143  26.791  30.082  1.00  0.00     0.031 C 
ATOM     58  C   UNL A   1      44.635  29.688  35.203  1.00  0.00     0.029 A 
ATOM     59  C   UNL A   1      43.962  29.285  34.061  1.00  0.00     0.049 A 
ATOM     60  H   UNL A   1      42.160  30.020  33.249  1.00  0.00     0.167 HD
ATOM     61  C   UNL A   1      43.615  27.916  32.022  1.00  0.00     0.074 A 
ATOM     62  C   UNL A   1      44.007  26.886  31.083  1.00  0.00     0.031 C 
ATOM     63  C   UNL A   1      44.330  28.258  33.121  1.00  0.00     0.031 A 
BRANCH  50  64
ATOM     64  C   UNL A   1      41.854  32.858  36.421  1.00  0.00    -0.014 A 
ATOM     65  C   UNL A   1      42.521  34.089  36.310  1.00  0.00     0.009 A 
ATOM     66  C   UNL A   1      41.271  32.509  37.648  1.00  0.00     0.009 A 
ATOM     67  C   UNL A   1      42.636  34.934  37.415  1.00  0.00     0.001 A 
ATOM     68  C   UNL A   1      41.362  33.369  38.744  1.00  0.00     0.001 A 
ATOM     69  C   UNL A   1      42.053  34.575  38.630  1.00  0.00     0.000 A 
ENDBRANCH  50  64
BRANCH  51  70
ATOM     70  C   UNL A   1      40.805  27.079  28.348  1.00  0.00    -0.014 A 
ATOM     71  C   UNL A   1      40.156  25.837  28.404  1.00  0.00     0.009 A 
ATOM     72  C   UNL A   1      41.327  27.518  27.121  1.00  0.00     0.009 A 
ATOM     73  C   UNL A   1      40.053  25.040  27.261  1.00  0.00     0.001 A 
ATOM     74  C   UNL A   1      41.199  26.730  25.974  1.00  0.00     0.001 A 
ATOM     75  C   UNL A   1      40.571  25.489  26.047  1.00  0.00     0.000 A 
ENDBRANCH  51  70
BRANCH  63  76
ATOM     76  C   UNL A   1      45.588  27.487  33.396  1.00  0.00    -0.014 A 
ATOM     77  C   UNL A   1      46.833  27.938  32.934  1.00  0.00     0.009 A 
ATOM     78  C   UNL A   1      45.529  26.329  34.188  1.00  0.00     0.009 A 
ATOM     79  C   UNL A   1      47.997  27.230  33.246  1.00  0.00     0.001 A 
ATOM     80  C   UNL A   1      46.696  25.638  34.517  1.00  0.00     0.001 A 
ATOM     81  C   UNL A   1      47.927  26.087  34.042  1.00  0.00     0.000 A 
ENDBRANCH  63  76
ENDBRANCH  37  38
ENDBRANCH  29  32
ENDBRANCH  27  28
ENDBRANCH  26  27
ENDBRANCH  25  26
ENDBRANCH   1  25
TORSDOF 16
ENDMDL
