MODEL 1
REMARK VINA RESULT:     -11.8      0.000      0.000
REMARK SMILES O=C(CN1C(=O)/C(=C\c2c(F)cccc2Cl)Oc2ccccc21)NCCCCNC(=O)c1ccc(-c2c3nc(c(-c4ccccc4)c4ccc([nH]4)c(-c4ccccc4)c4nc(c(-c5ccccc5)c5ccc2[nH]5)C=C4)C=C3)cc1
REMARK SMILES IDX 26 1 25 2 24 3 1 4 2 5 3 7 4 8 5 9 23 10 6 11 7 12 18 13
REMARK SMILES IDX 22 14 8 15 17 16 19 17 21 18 20 19 9 20 10 21 15 22 11 23
REMARK SMILES IDX 12 24 14 25 16 26 13 27 27 28 28 29 29 30 30 31 31 33 32 34
REMARK SMILES IDX 33 35 79 36 34 37 78 38 35 39 36 40 37 41 72 42 38 43 77 44
REMARK SMILES IDX 71 45 73 46 39 47 76 48 70 49 69 50 40 52 62 53 47 54 61 55
REMARK SMILES IDX 48 56 51 57 60 58 74 59 49 60 50 61 59 63 75 64 52 65 41 66
REMARK SMILES IDX 42 67 46 68 43 69 45 70 44 71 63 72 64 73 68 74 65 75 67 76
REMARK SMILES IDX 66 77 53 78 54 79 58 80 55 81 57 82 56 83
REMARK H PARENT 24 6 29 32 73 51 51 62
REMARK Flexibility Score: inf
ROOT
ATOM      1  C   UNL A   1      34.443  31.893  27.630  1.00  0.00     0.023 C 
ENDROOT
BRANCH   1   2
ATOM      2  C   UNL A   1      34.290  30.372  27.509  1.00  0.00     0.116 C 
BRANCH   2   3
ATOM      3  N   UNL A   1      33.898  29.932  26.185  1.00  0.00    -0.355 N 
ATOM      4  O   UNL A   1      31.712  29.597  26.750  1.00  0.00    -0.273 OA
ATOM      5  C   UNL A   1      32.594  29.595  25.891  1.00  0.00     0.240 C 
ATOM      6  H   UNL A   1      34.580  29.872  25.478  1.00  0.00     0.163 HD
BRANCH   5   7
ATOM      7  C   UNL A   1      32.345  28.979  24.511  1.00  0.00     0.226 C 
BRANCH   7   8
ATOM      8  N   UNL A   1      31.101  28.240  24.302  1.00  0.00    -0.293 N 
ATOM      9  C   UNL A   1      31.146  26.877  24.561  1.00  0.00     0.294 C 
ATOM     10  C   UNL A   1      29.933  28.837  23.758  1.00  0.00     0.088 A 
ATOM     11  O   UNL A   1      32.055  26.355  25.204  1.00  0.00    -0.265 OA
ATOM     12  C   UNL A   1      30.038  26.074  23.945  1.00  0.00     0.193 C 
ATOM     13  C   UNL A   1      28.813  28.033  23.511  1.00  0.00     0.151 A 
ATOM     14  C   UNL A   1      29.838  30.208  23.488  1.00  0.00     0.030 A 
ATOM     15  C   UNL A   1      30.231  24.808  23.530  1.00  0.00     0.065 C 
ATOM     16  O   UNL A   1      28.811  26.673  23.705  1.00  0.00    -0.449 OA
ATOM     17  C   UNL A   1      27.627  28.579  23.012  1.00  0.00     0.049 A 
ATOM     18  C   UNL A   1      28.654  30.757  22.982  1.00  0.00     0.002 A 
ATOM     19  C   UNL A   1      27.549  29.943  22.746  1.00  0.00     0.004 A 
BRANCH  15  20
ATOM     20  C   UNL A   1      31.527  24.112  23.535  1.00  0.00     0.033 A 
ATOM     21  C   UNL A   1      32.438  24.338  22.497  1.00  0.00     0.132 A 
ATOM     22  C   UNL A   1      31.860  23.158  24.512  1.00  0.00     0.051 A 
ATOM     23  F   UNL A   1      32.165  25.247  21.549  1.00  0.00    -0.206 F 
ATOM     24  C   UNL A   1      33.631  23.622  22.410  1.00  0.00     0.040 A 
ATOM     25  C   UNL A   1      33.061  22.442  24.433  1.00  0.00     0.021 A 
ATOM     26  Cl  UNL A   1      30.808  22.812  25.844  1.00  0.00    -0.084 Cl
ATOM     27  C   UNL A   1      33.943  22.669  23.376  1.00  0.00     0.005 A 
ENDBRANCH  15  20
ENDBRANCH   7   8
ENDBRANCH   5   7
ENDBRANCH   2   3
ENDBRANCH   1   2
BRANCH   1  28
ATOM     28  C   UNL A   1      33.175  32.650  28.031  1.00  0.00     0.023 C 
BRANCH  28  29
ATOM     29  C   UNL A   1      33.321  34.163  28.141  1.00  0.00     0.116 C 
BRANCH  29  30
ATOM     30  N   UNL A   1      33.035  34.676  29.473  1.00  0.00    -0.352 N 
ATOM     31  C   UNL A   1      33.694  34.444  30.658  1.00  0.00     0.251 C 
ATOM     32  H   UNL A   1      32.258  35.277  29.534  1.00  0.00     0.163 HD
ATOM     33  O   UNL A   1      33.250  34.897  31.709  1.00  0.00    -0.269 OA
BRANCH  31  34
ATOM     34  C   UNL A   1      34.916  33.606  30.678  1.00  0.00     0.039 A 
ATOM     35  C   UNL A   1      34.936  32.371  31.328  1.00  0.00     0.014 A 
ATOM     36  C   UNL A   1      36.071  34.085  30.051  1.00  0.00     0.014 A 
ATOM     37  C   UNL A   1      36.144  31.702  31.500  1.00  0.00     0.010 A 
ATOM     38  C   UNL A   1      37.270  33.374  30.161  1.00  0.00     0.010 A 
ATOM     39  C   UNL A   1      37.327  32.206  30.935  1.00  0.00    -0.014 A 
BRANCH  39  40
ATOM     40  C   UNL A   1      38.613  31.510  31.195  1.00  0.00     0.031 A 
ATOM     41  C   UNL A   1      39.445  31.856  32.400  1.00  0.00     0.074 A 
ATOM     42  C   UNL A   1      38.999  30.506  30.385  1.00  0.00     0.049 A 
ATOM     43  N   UNL A   1      40.549  31.294  32.827  1.00  0.00    -0.248 NA
ATOM     44  C   UNL A   1      38.979  32.972  33.239  1.00  0.00     0.031 C 
ATOM     45  C   UNL A   1      38.274  30.061  29.194  1.00  0.00     0.029 A 
ATOM     46  N   UNL A   1      40.072  29.655  30.462  1.00  0.00    -0.354 N 
ATOM     47  C   UNL A   1      40.913  31.991  33.971  1.00  0.00     0.074 A 
ATOM     48  C   UNL A   1      39.931  33.037  34.160  1.00  0.00     0.031 C 
ATOM     49  C   UNL A   1      38.889  28.982  28.686  1.00  0.00     0.029 A 
ATOM     50  C   UNL A   1      40.076  28.690  29.485  1.00  0.00     0.049 A 
ATOM     51  H   UNL A   1      40.772  29.730  31.151  1.00  0.00     0.167 HD
ATOM     52  C   UNL A   1      41.962  31.774  34.800  1.00  0.00     0.031 A 
ATOM     53  C   UNL A   1      40.934  27.679  29.255  1.00  0.00     0.031 A 
ATOM     54  C   UNL A   1      42.944  30.739  34.620  1.00  0.00     0.049 A 
ATOM     55  C   UNL A   1      42.115  27.485  30.159  1.00  0.00     0.074 A 
ATOM     56  C   UNL A   1      44.036  30.441  35.416  1.00  0.00     0.029 A 
ATOM     57  N   UNL A   1      42.953  29.832  33.572  1.00  0.00    -0.354 N 
ATOM     58  N   UNL A   1      42.441  28.154  31.237  1.00  0.00    -0.248 NA
ATOM     59  C   UNL A   1      43.048  26.404  29.812  1.00  0.00     0.031 C 
ATOM     60  C   UNL A   1      44.732  29.382  34.826  1.00  0.00     0.029 A 
ATOM     61  C   UNL A   1      44.044  28.988  33.690  1.00  0.00     0.049 A 
ATOM     62  H   UNL A   1      42.283  29.794  32.851  1.00  0.00     0.167 HD
ATOM     63  C   UNL A   1      43.616  27.577  31.699  1.00  0.00     0.074 A 
ATOM     64  C   UNL A   1      43.933  26.489  30.796  1.00  0.00     0.031 C 
ATOM     65  C   UNL A   1      44.362  27.922  32.776  1.00  0.00     0.031 A 
BRANCH  52  66
ATOM     66  C   UNL A   1      42.114  32.690  35.983  1.00  0.00    -0.014 A 
ATOM     67  C   UNL A   1      42.891  33.853  35.871  1.00  0.00     0.009 A 
ATOM     68  C   UNL A   1      41.535  32.373  37.221  1.00  0.00     0.009 A 
ATOM     69  C   UNL A   1      43.086  34.682  36.977  1.00  0.00     0.001 A 
ATOM     70  C   UNL A   1      41.713  33.216  38.320  1.00  0.00     0.001 A 
ATOM     71  C   UNL A   1      42.493  34.366  38.199  1.00  0.00     0.000 A 
ENDBRANCH  52  66
BRANCH  53  72
ATOM     72  C   UNL A   1      40.678  26.764  28.114  1.00  0.00    -0.014 A 
ATOM     73  C   UNL A   1      39.904  25.607  28.291  1.00  0.00     0.009 A 
ATOM     74  C   UNL A   1      41.269  27.006  26.865  1.00  0.00     0.009 A 
ATOM     75  C   UNL A   1      39.748  24.694  27.247  1.00  0.00     0.001 A 
ATOM     76  C   UNL A   1      41.092  26.102  25.816  1.00  0.00     0.001 A 
ATOM     77  C   UNL A   1      40.341  24.943  26.011  1.00  0.00     0.000 A 
ENDBRANCH  53  72
BRANCH  65  78
ATOM     78  C   UNL A   1      45.606  27.127  33.044  1.00  0.00    -0.014 A 
ATOM     79  C   UNL A   1      46.815  27.491  32.430  1.00  0.00     0.009 A 
ATOM     80  C   UNL A   1      45.564  25.968  33.834  1.00  0.00     0.009 A 
ATOM     81  C   UNL A   1      47.956  26.704  32.594  1.00  0.00     0.001 A 
ATOM     82  C   UNL A   1      46.711  25.196  34.014  1.00  0.00     0.001 A 
ATOM     83  C   UNL A   1      47.905  25.559  33.389  1.00  0.00     0.000 A 
ENDBRANCH  65  78
ENDBRANCH  39  40
ENDBRANCH  31  34
ENDBRANCH  29  30
ENDBRANCH  28  29
ENDBRANCH   1  28
TORSDOF 13
ENDMDL
MODEL 2
REMARK VINA RESULT:     -11.8      4.057      8.990
REMARK SMILES O=C(CN1C(=O)/C(=C\c2c(F)cccc2Cl)Oc2ccccc21)NCCCCNC(=O)c1ccc(-c2c3nc(c(-c4ccccc4)c4ccc([nH]4)c(-c4ccccc4)c4nc(c(-c5ccccc5)c5ccc2[nH]5)C=C4)C=C3)cc1
REMARK SMILES IDX 26 1 25 2 24 3 1 4 2 5 3 7 4 8 5 9 23 10 6 11 7 12 18 13
REMARK SMILES IDX 22 14 8 15 17 16 19 17 21 18 20 19 9 20 10 21 15 22 11 23
REMARK SMILES IDX 12 24 14 25 16 26 13 27 27 28 28 29 29 30 30 31 31 33 32 34
REMARK SMILES IDX 33 35 79 36 34 37 78 38 35 39 36 40 37 41 72 42 38 43 77 44
REMARK SMILES IDX 71 45 73 46 39 47 76 48 70 49 69 50 40 52 62 53 47 54 61 55
REMARK SMILES IDX 48 56 51 57 60 58 74 59 49 60 50 61 59 63 75 64 52 65 41 66
REMARK SMILES IDX 42 67 46 68 43 69 45 70 44 71 63 72 64 73 68 74 65 75 67 76
REMARK SMILES IDX 66 77 53 78 54 79 58 80 55 81 57 82 56 83
REMARK H PARENT 24 6 29 32 73 51 51 62
REMARK Flexibility Score: inf
ROOT
ATOM      1  C   UNL A   1      39.481  22.919  26.709  1.00  0.00     0.023 C 
ENDROOT
BRANCH   1   2
ATOM      2  C   UNL A   1      38.362  23.817  26.166  1.00  0.00     0.116 C 
BRANCH   2   3
ATOM      3  N   UNL A   1      37.030  23.318  26.451  1.00  0.00    -0.355 N 
ATOM      4  O   UNL A   1      36.628  22.652  24.305  1.00  0.00    -0.273 OA
ATOM      5  C   UNL A   1      36.254  22.731  25.476  1.00  0.00     0.240 C 
ATOM      6  H   UNL A   1      36.672  23.402  27.364  1.00  0.00     0.163 HD
BRANCH   5   7
ATOM      7  C   UNL A   1      34.806  22.411  25.860  1.00  0.00     0.226 C 
BRANCH   7   8
ATOM      8  N   UNL A   1      33.861  22.106  24.787  1.00  0.00    -0.293 N 
ATOM      9  C   UNL A   1      33.238  23.194  24.192  1.00  0.00     0.294 C 
ATOM     10  C   UNL A   1      33.499  20.779  24.433  1.00  0.00     0.088 A 
ATOM     11  O   UNL A   1      33.649  24.346  24.323  1.00  0.00    -0.265 OA
ATOM     12  C   UNL A   1      31.987  22.873  23.427  1.00  0.00     0.193 C 
ATOM     13  C   UNL A   1      32.519  20.583  23.451  1.00  0.00     0.151 A 
ATOM     14  C   UNL A   1      34.105  19.651  25.001  1.00  0.00     0.030 A 
ATOM     15  C   UNL A   1      30.962  23.741  23.355  1.00  0.00     0.065 C 
ATOM     16  O   UNL A   1      31.837  21.617  22.858  1.00  0.00    -0.449 OA
ATOM     17  C   UNL A   1      32.155  19.297  23.042  1.00  0.00     0.049 A 
ATOM     18  C   UNL A   1      33.737  18.363  24.597  1.00  0.00     0.002 A 
ATOM     19  C   UNL A   1      32.764  18.186  23.617  1.00  0.00     0.004 A 
BRANCH  15  20
ATOM     20  C   UNL A   1      30.897  25.024  24.073  1.00  0.00     0.033 A 
ATOM     21  C   UNL A   1      31.164  26.215  23.388  1.00  0.00     0.132 A 
ATOM     22  C   UNL A   1      30.648  25.097  25.454  1.00  0.00     0.051 A 
ATOM     23  F   UNL A   1      31.397  26.192  22.067  1.00  0.00    -0.206 F 
ATOM     24  C   UNL A   1      31.214  27.439  24.053  1.00  0.00     0.040 A 
ATOM     25  C   UNL A   1      30.688  26.325  26.125  1.00  0.00     0.021 A 
ATOM     26  Cl  UNL A   1      30.294  23.683  26.391  1.00  0.00    -0.084 Cl
ATOM     27  C   UNL A   1      30.980  27.496  25.425  1.00  0.00     0.005 A 
ENDBRANCH  15  20
ENDBRANCH   7   8
ENDBRANCH   5   7
ENDBRANCH   2   3
ENDBRANCH   1   2
BRANCH   1  28
ATOM     28  C   UNL A   1      39.528  21.505  26.127  1.00  0.00     0.023 C 
BRANCH  28  29
ATOM     29  C   UNL A   1      40.417  20.517  26.873  1.00  0.00     0.116 C 
BRANCH  29  30
ATOM     30  N   UNL A   1      41.519  20.009  26.069  1.00  0.00    -0.352 N 
ATOM     31  C   UNL A   1      42.720  20.604  25.756  1.00  0.00     0.251 C 
ATOM     32  H   UNL A   1      41.385  19.108  25.694  1.00  0.00     0.163 HD
ATOM     33  O   UNL A   1      43.496  20.053  24.982  1.00  0.00    -0.269 OA
BRANCH  31  34
ATOM     34  C   UNL A   1      43.058  21.933  26.314  1.00  0.00     0.039 A 
ATOM     35  C   UNL A   1      43.317  22.102  27.675  1.00  0.00     0.014 A 
ATOM     36  C   UNL A   1      43.092  23.036  25.454  1.00  0.00     0.014 A 
ATOM     37  C   UNL A   1      43.435  23.386  28.200  1.00  0.00     0.010 A 
ATOM     38  C   UNL A   1      43.285  24.320  25.973  1.00  0.00     0.010 A 
ATOM     39  C   UNL A   1      43.401  24.509  27.358  1.00  0.00    -0.014 A 
BRANCH  39  40
ATOM     40  C   UNL A   1      43.458  25.869  27.953  1.00  0.00     0.031 A 
ATOM     41  C   UNL A   1      44.778  26.558  28.171  1.00  0.00     0.074 A 
ATOM     42  C   UNL A   1      42.313  26.520  28.230  1.00  0.00     0.049 A 
ATOM     43  N   UNL A   1      45.010  27.774  28.600  1.00  0.00    -0.248 NA
ATOM     44  C   UNL A   1      45.995  25.791  27.863  1.00  0.00     0.031 C 
ATOM     45  C   UNL A   1      40.968  25.969  28.051  1.00  0.00     0.029 A 
ATOM     46  N   UNL A   1      42.095  27.795  28.685  1.00  0.00    -0.354 N 
ATOM     47  C   UNL A   1      46.391  27.912  28.624  1.00  0.00     0.074 A 
ATOM     48  C   UNL A   1      46.950  26.649  28.194  1.00  0.00     0.031 C 
ATOM     49  C   UNL A   1      40.066  26.921  28.332  1.00  0.00     0.029 A 
ATOM     50  C   UNL A   1      40.765  28.130  28.760  1.00  0.00     0.049 A 
ATOM     51  H   UNL A   1      42.821  28.411  28.934  1.00  0.00     0.167 HD
ATOM     52  C   UNL A   1      47.131  28.996  28.960  1.00  0.00     0.031 A 
ATOM     53  C   UNL A   1      40.168  29.279  29.127  1.00  0.00     0.031 A 
ATOM     54  C   UNL A   1      46.585  30.255  29.390  1.00  0.00     0.049 A 
ATOM     55  C   UNL A   1      41.007  30.452  29.539  1.00  0.00     0.074 A 
ATOM     56  C   UNL A   1      47.261  31.410  29.742  1.00  0.00     0.029 A 
ATOM     57  N   UNL A   1      45.232  30.525  29.526  1.00  0.00    -0.354 N 
ATOM     58  N   UNL A   1      42.312  30.563  29.553  1.00  0.00    -0.248 NA
ATOM     59  C   UNL A   1      40.292  31.654  29.991  1.00  0.00     0.031 C 
ATOM     60  C   UNL A   1      46.318  32.366  30.134  1.00  0.00     0.029 A 
ATOM     61  C   UNL A   1      45.054  31.821  29.977  1.00  0.00     0.049 A 
ATOM     62  H   UNL A   1      44.506  29.888  29.331  1.00  0.00     0.167 HD
ATOM     63  C   UNL A   1      42.577  31.845  30.016  1.00  0.00     0.074 A 
ATOM     64  C   UNL A   1      41.296  32.481  30.249  1.00  0.00     0.031 C 
ATOM     65  C   UNL A   1      43.777  32.438  30.226  1.00  0.00     0.031 A 
BRANCH  52  66
ATOM     66  C   UNL A   1      48.627  28.865  28.889  1.00  0.00    -0.014 A 
ATOM     67  C   UNL A   1      49.298  29.146  27.689  1.00  0.00     0.009 A 
ATOM     68  C   UNL A   1      49.365  28.410  29.993  1.00  0.00     0.009 A 
ATOM     69  C   UNL A   1      50.680  28.974  27.595  1.00  0.00     0.001 A 
ATOM     70  C   UNL A   1      50.750  28.260  29.902  1.00  0.00     0.001 A 
ATOM     71  C   UNL A   1      51.406  28.537  28.702  1.00  0.00     0.000 A 
ENDBRANCH  52  66
BRANCH  53  72
ATOM     72  C   UNL A   1      38.687  29.362  29.097  1.00  0.00    -0.014 A 
ATOM     73  C   UNL A   1      38.018  29.707  27.912  1.00  0.00     0.009 A 
ATOM     74  C   UNL A   1      37.942  29.171  30.270  1.00  0.00     0.009 A 
ATOM     75  C   UNL A   1      36.634  29.886  27.908  1.00  0.00     0.001 A 
ATOM     76  C   UNL A   1      36.555  29.329  30.257  1.00  0.00     0.001 A 
ATOM     77  C   UNL A   1      35.905  29.696  29.080  1.00  0.00     0.000 A 
ENDBRANCH  53  72
BRANCH  65  78
ATOM     78  C   UNL A   1      43.776  33.846  30.745  1.00  0.00    -0.014 A 
ATOM     79  C   UNL A   1      43.798  34.923  29.846  1.00  0.00     0.009 A 
ATOM     80  C   UNL A   1      43.840  34.105  32.123  1.00  0.00     0.009 A 
ATOM     81  C   UNL A   1      43.895  36.234  30.316  1.00  0.00     0.001 A 
ATOM     82  C   UNL A   1      43.915  35.417  32.590  1.00  0.00     0.001 A 
ATOM     83  C   UNL A   1      43.950  36.480  31.687  1.00  0.00     0.000 A 
ENDBRANCH  65  78
ENDBRANCH  39  40
ENDBRANCH  31  34
ENDBRANCH  29  30
ENDBRANCH  28  29
ENDBRANCH   1  28
TORSDOF 13
ENDMDL
MODEL 3
REMARK VINA RESULT:     -11.7      3.142      8.870
REMARK SMILES O=C(CN1C(=O)/C(=C\c2c(F)cccc2Cl)Oc2ccccc21)NCCCCNC(=O)c1ccc(-c2c3nc(c(-c4ccccc4)c4ccc([nH]4)c(-c4ccccc4)c4nc(c(-c5ccccc5)c5ccc2[nH]5)C=C4)C=C3)cc1
REMARK SMILES IDX 26 1 25 2 24 3 1 4 2 5 3 7 4 8 5 9 23 10 6 11 7 12 18 13
REMARK SMILES IDX 22 14 8 15 17 16 19 17 21 18 20 19 9 20 10 21 15 22 11 23
REMARK SMILES IDX 12 24 14 25 16 26 13 27 27 28 28 29 29 30 30 31 31 33 32 34
REMARK SMILES IDX 33 35 79 36 34 37 78 38 35 39 36 40 37 41 72 42 38 43 77 44
REMARK SMILES IDX 71 45 73 46 39 47 76 48 70 49 69 50 40 52 62 53 47 54 61 55
REMARK SMILES IDX 48 56 51 57 60 58 74 59 49 60 50 61 59 63 75 64 52 65 41 66
REMARK SMILES IDX 42 67 46 68 43 69 45 70 44 71 63 72 64 73 68 74 65 75 67 76
REMARK SMILES IDX 66 77 53 78 54 79 58 80 55 81 57 82 56 83
REMARK H PARENT 24 6 29 32 73 51 51 62
REMARK Flexibility Score: inf
ROOT
ATOM      1  C   UNL A   1      39.511  22.971  27.138  1.00  0.00     0.023 C 
ENDROOT
BRANCH   1   2
ATOM      2  C   UNL A   1      38.673  24.111  26.545  1.00  0.00     0.116 C 
BRANCH   2   3
ATOM      3  N   UNL A   1      38.053  23.775  25.278  1.00  0.00    -0.355 N 
ATOM      4  O   UNL A   1      35.920  23.919  26.079  1.00  0.00    -0.273 OA
ATOM      5  C   UNL A   1      36.683  23.732  25.131  1.00  0.00     0.240 C 
ATOM      6  H   UNL A   1      38.625  23.572  24.503  1.00  0.00     0.163 HD
BRANCH   5   7
ATOM      7  C   UNL A   1      36.159  23.192  23.797  1.00  0.00     0.226 C 
BRANCH   7   8
ATOM      8  N   UNL A   1      34.727  22.926  23.678  1.00  0.00    -0.293 N 
ATOM      9  C   UNL A   1      33.951  23.959  23.169  1.00  0.00     0.294 C 
ATOM     10  C   UNL A   1      34.123  21.731  24.152  1.00  0.00     0.088 A 
ATOM     11  O   UNL A   1      34.435  24.920  22.575  1.00  0.00    -0.265 OA
ATOM     12  C   UNL A   1      32.481  23.851  23.451  1.00  0.00     0.193 C 
ATOM     13  C   UNL A   1      32.731  21.598  24.075  1.00  0.00     0.151 A 
ATOM     14  C   UNL A   1      34.865  20.660  24.666  1.00  0.00     0.030 A 
ATOM     15  C   UNL A   1      31.717  24.943  23.636  1.00  0.00     0.065 C 
ATOM     16  O   UNL A   1      31.908  22.600  23.623  1.00  0.00    -0.449 OA
ATOM     17  C   UNL A   1      32.093  20.427  24.495  1.00  0.00     0.049 A 
ATOM     18  C   UNL A   1      34.228  19.489  25.093  1.00  0.00     0.002 A 
ATOM     19  C   UNL A   1      32.844  19.372  25.005  1.00  0.00     0.004 A 
BRANCH  15  20
ATOM     20  C   UNL A   1      32.223  26.323  23.684  1.00  0.00     0.033 A 
ATOM     21  C   UNL A   1      32.105  27.143  22.556  1.00  0.00     0.132 A 
ATOM     22  C   UNL A   1      32.897  26.835  24.806  1.00  0.00     0.051 A 
ATOM     23  F   UNL A   1      31.461  26.698  21.466  1.00  0.00    -0.206 F 
ATOM     24  C   UNL A   1      32.663  28.420  22.525  1.00  0.00     0.040 A 
ATOM     25  C   UNL A   1      33.451  28.120  24.783  1.00  0.00     0.021 A 
ATOM     26  Cl  UNL A   1      33.086  25.906  26.256  1.00  0.00    -0.084 Cl
ATOM     27  C   UNL A   1      33.342  28.910  23.638  1.00  0.00     0.005 A 
ENDBRANCH  15  20
ENDBRANCH   7   8
ENDBRANCH   5   7
ENDBRANCH   2   3
ENDBRANCH   1   2
BRANCH   1  28
ATOM     28  C   UNL A   1      40.047  21.957  26.128  1.00  0.00     0.023 C 
BRANCH  28  29
ATOM     29  C   UNL A   1      41.475  21.481  26.370  1.00  0.00     0.116 C 
BRANCH  29  30
ATOM     30  N   UNL A   1      42.416  21.936  25.357  1.00  0.00    -0.352 N 
ATOM     31  C   UNL A   1      43.091  23.132  25.265  1.00  0.00     0.251 C 
ATOM     32  H   UNL A   1      42.596  21.295  24.632  1.00  0.00     0.163 HD
ATOM     33  O   UNL A   1      43.781  23.376  24.281  1.00  0.00    -0.269 OA
BRANCH  31  34
ATOM     34  C   UNL A   1      42.947  24.150  26.332  1.00  0.00     0.039 A 
ATOM     35  C   UNL A   1      42.992  23.797  27.681  1.00  0.00     0.014 A 
ATOM     36  C   UNL A   1      42.737  25.485  25.964  1.00  0.00     0.014 A 
ATOM     37  C   UNL A   1      42.657  24.738  28.651  1.00  0.00     0.010 A 
ATOM     38  C   UNL A   1      42.474  26.445  26.946  1.00  0.00     0.010 A 
ATOM     39  C   UNL A   1      42.375  26.066  28.293  1.00  0.00    -0.014 A 
BRANCH  39  40
ATOM     40  C   UNL A   1      41.951  27.029  29.341  1.00  0.00     0.031 A 
ATOM     41  C   UNL A   1      40.677  27.815  29.192  1.00  0.00     0.074 A 
ATOM     42  C   UNL A   1      42.676  27.142  30.470  1.00  0.00     0.049 A 
ATOM     43  N   UNL A   1      40.112  28.636  30.044  1.00  0.00    -0.248 NA
ATOM     44  C   UNL A   1      39.936  27.661  27.930  1.00  0.00     0.031 C 
ATOM     45  C   UNL A   1      43.922  26.424  30.745  1.00  0.00     0.029 A 
ATOM     46  N   UNL A   1      42.451  27.872  31.609  1.00  0.00    -0.354 N 
ATOM     47  C   UNL A   1      38.962  29.100  29.419  1.00  0.00     0.074 A 
ATOM     48  C   UNL A   1      38.921  28.495  28.106  1.00  0.00     0.031 C 
ATOM     49  C   UNL A   1      44.319  26.701  31.996  1.00  0.00     0.029 A 
ATOM     50  C   UNL A   1      43.385  27.653  32.592  1.00  0.00     0.049 A 
ATOM     51  H   UNL A   1      41.694  28.493  31.712  1.00  0.00     0.167 HD
ATOM     52  C   UNL A   1      38.017  29.943  29.899  1.00  0.00     0.031 A 
ATOM     53  C   UNL A   1      43.483  28.155  33.837  1.00  0.00     0.031 A 
ATOM     54  C   UNL A   1      38.051  30.550  31.202  1.00  0.00     0.049 A 
ATOM     55  C   UNL A   1      42.450  29.124  34.331  1.00  0.00     0.074 A 
ATOM     56  C   UNL A   1      37.130  31.411  31.774  1.00  0.00     0.029 A 
ATOM     57  N   UNL A   1      39.057  30.361  32.136  1.00  0.00    -0.354 N 
ATOM     58  N   UNL A   1      41.368  29.549  33.725  1.00  0.00    -0.248 NA
ATOM     59  C   UNL A   1      42.652  29.685  35.674  1.00  0.00     0.031 C 
ATOM     60  C   UNL A   1      37.601  31.778  33.038  1.00  0.00     0.029 A 
ATOM     61  C   UNL A   1      38.789  31.106  33.272  1.00  0.00     0.049 A 
ATOM     62  H   UNL A   1      39.844  29.783  32.010  1.00  0.00     0.167 HD
ATOM     63  C   UNL A   1      40.761  30.428  34.611  1.00  0.00     0.074 A 
ATOM     64  C   UNL A   1      41.582  30.458  35.804  1.00  0.00     0.031 C 
ATOM     65  C   UNL A   1      39.623  31.145  34.446  1.00  0.00     0.031 A 
BRANCH  52  66
ATOM     66  C   UNL A   1      36.860  30.274  28.998  1.00  0.00    -0.014 A 
ATOM     67  C   UNL A   1      36.690  31.587  28.532  1.00  0.00     0.009 A 
ATOM     68  C   UNL A   1      35.908  29.301  28.656  1.00  0.00     0.009 A 
ATOM     69  C   UNL A   1      35.589  31.919  27.741  1.00  0.00     0.001 A 
ATOM     70  C   UNL A   1      34.821  29.632  27.846  1.00  0.00     0.001 A 
ATOM     71  C   UNL A   1      34.659  30.942  27.393  1.00  0.00     0.000 A 
ENDBRANCH  52  66
BRANCH  53  72
ATOM     72  C   UNL A   1      44.610  27.723  34.701  1.00  0.00    -0.014 A 
ATOM     73  C   UNL A   1      45.840  28.399  34.656  1.00  0.00     0.009 A 
ATOM     74  C   UNL A   1      44.484  26.589  35.515  1.00  0.00     0.009 A 
ATOM     75  C   UNL A   1      46.930  27.931  35.390  1.00  0.00     0.001 A 
ATOM     76  C   UNL A   1      45.571  26.137  36.267  1.00  0.00     0.001 A 
ATOM     77  C   UNL A   1      46.794  26.802  36.195  1.00  0.00     0.000 A 
ENDBRANCH  53  72
BRANCH  65  78
ATOM     78  C   UNL A   1      39.192  32.036  35.574  1.00  0.00    -0.014 A 
ATOM     79  C   UNL A   1      38.311  31.550  36.553  1.00  0.00     0.009 A 
ATOM     80  C   UNL A   1      39.588  33.381  35.620  1.00  0.00     0.009 A 
ATOM     81  C   UNL A   1      37.828  32.396  37.552  1.00  0.00     0.001 A 
ATOM     82  C   UNL A   1      39.120  34.219  36.632  1.00  0.00     0.001 A 
ATOM     83  C   UNL A   1      38.235  33.729  37.592  1.00  0.00     0.000 A 
ENDBRANCH  65  78
ENDBRANCH  39  40
ENDBRANCH  31  34
ENDBRANCH  29  30
ENDBRANCH  28  29
ENDBRANCH   1  28
TORSDOF 13
ENDMDL
