MODEL 1
REMARK VINA RESULT:     -11.0      0.000      0.000
REMARK SMILES Cc1cccc(Cl)c1Nc1ccccc1CC(=O)NCCCCNC(=O)c1ccc(-c2c3nc(c(-c4ccccc4)c4ccc([nH]4)c(-c4ccccc4)c4nc(c(-c5ccccc5)c5ccc2[nH]5)C=C4)C=C3)cc1
REMARK SMILES IDX 21 1 20 2 19 3 17 4 18 5 16 7 15 8 10 9 11 10 12 11 14 12
REMARK SMILES IDX 13 13 9 14 8 16 1 17 2 18 3 19 4 20 6 21 5 22 7 23 22 24
REMARK SMILES IDX 23 25 24 26 25 27 26 29 27 30 28 31 74 32 29 33 73 34 30 35
REMARK SMILES IDX 31 36 32 37 67 38 33 39 72 40 66 41 68 42 34 43 71 44 65 45
REMARK SMILES IDX 64 46 35 48 57 49 42 50 56 51 43 52 46 53 55 54 69 55 44 56
REMARK SMILES IDX 45 57 54 59 70 60 47 61 36 62 37 63 41 64 38 65 40 66 39 67
REMARK SMILES IDX 58 68 59 69 63 70 60 71 62 72 61 73 48 74 49 75 53 76 50 77
REMARK SMILES IDX 52 78 51 79
REMARK H PARENT 19 6 9 15 24 28 68 47 46 58
REMARK Flexibility Score: inf
ROOT
ATOM      1  C   UNL A   1      36.530  21.036  25.011  1.00  0.00     0.023 C 
ENDROOT
BRANCH   1   2
ATOM      2  C   UNL A   1      36.849  22.530  24.982  1.00  0.00     0.116 C 
BRANCH   2   3
ATOM      3  N   UNL A   1      36.019  23.239  24.030  1.00  0.00    -0.356 N 
ATOM      4  C   UNL A   1      35.056  24.175  24.283  1.00  0.00     0.224 C 
ATOM      5  O   UNL A   1      34.386  24.595  23.337  1.00  0.00    -0.275 OA
ATOM      6  H   UNL A   1      36.167  23.018  23.082  1.00  0.00     0.163 HD
BRANCH   4   7
ATOM      7  C   UNL A   1      34.864  24.706  25.697  1.00  0.00     0.137 C 
BRANCH   7   8
ATOM      8  C   UNL A   1      33.626  25.560  25.874  1.00  0.00    -0.015 A 
ATOM      9  C   UNL A   1      32.337  25.024  26.094  1.00  0.00     0.042 A 
ATOM     10  C   UNL A   1      31.239  25.905  26.125  1.00  0.00     0.026 A 
ATOM     11  C   UNL A   1      31.402  27.282  25.975  1.00  0.00     0.002 A 
ATOM     12  C   UNL A   1      33.776  26.959  25.760  1.00  0.00     0.006 A 
ATOM     13  C   UNL A   1      32.674  27.811  25.805  1.00  0.00     0.000 A 
BRANCH   9  14
ATOM     14  N   UNL A   1      32.067  23.662  26.336  1.00  0.00    -0.354 N 
ATOM     15  H   UNL A   1      31.589  23.495  27.180  1.00  0.00     0.167 HD
BRANCH  14  16
ATOM     16  C   UNL A   1      32.349  22.485  25.598  1.00  0.00     0.060 A 
ATOM     17  C   UNL A   1      33.678  21.642  27.617  1.00  0.00     0.046 C 
ATOM     18  C   UNL A   1      33.119  21.471  26.227  1.00  0.00    -0.026 A 
ATOM     19  C   UNL A   1      33.349  20.249  25.569  1.00  0.00     0.005 A 
ATOM     20  C   UNL A   1      32.840  20.017  24.296  1.00  0.00     0.002 A 
ATOM     21  C   UNL A   1      31.868  22.237  24.292  1.00  0.00     0.064 A 
ATOM     22  C   UNL A   1      32.109  21.012  23.656  1.00  0.00     0.023 A 
ATOM     23  Cl  UNL A   1      31.057  23.432  23.335  1.00  0.00    -0.082 Cl
ENDBRANCH  14  16
ENDBRANCH   9  14
ENDBRANCH   7   8
ENDBRANCH   4   7
ENDBRANCH   2   3
ENDBRANCH   1   2
BRANCH   1  24
ATOM     24  C   UNL A   1      37.746  20.122  24.845  1.00  0.00     0.023 C 
BRANCH  24  25
ATOM     25  C   UNL A   1      38.950  20.493  25.699  1.00  0.00     0.116 C 
BRANCH  25  26
ATOM     26  N   UNL A   1      39.965  19.451  25.748  1.00  0.00    -0.352 N 
ATOM     27  C   UNL A   1      41.279  19.564  26.129  1.00  0.00     0.251 C 
ATOM     28  H   UNL A   1      39.672  18.553  25.473  1.00  0.00     0.163 HD
ATOM     29  O   UNL A   1      42.049  18.615  26.021  1.00  0.00    -0.269 OA
BRANCH  27  30
ATOM     30  C   UNL A   1      41.769  20.863  26.634  1.00  0.00     0.039 A 
ATOM     31  C   UNL A   1      42.304  21.783  25.729  1.00  0.00     0.014 A 
ATOM     32  C   UNL A   1      41.651  21.187  27.988  1.00  0.00     0.014 A 
ATOM     33  C   UNL A   1      42.653  23.060  26.170  1.00  0.00     0.010 A 
ATOM     34  C   UNL A   1      41.939  22.479  28.412  1.00  0.00     0.010 A 
ATOM     35  C   UNL A   1      42.437  23.429  27.507  1.00  0.00    -0.014 A 
BRANCH  35  36
ATOM     36  C   UNL A   1      42.716  24.805  27.987  1.00  0.00     0.031 A 
ATOM     37  C   UNL A   1      44.104  25.181  28.422  1.00  0.00     0.074 A 
ATOM     38  C   UNL A   1      41.705  25.686  28.114  1.00  0.00     0.049 A 
ATOM     39  N   UNL A   1      44.523  26.293  28.972  1.00  0.00    -0.248 NA
ATOM     40  C   UNL A   1      45.152  24.166  28.240  1.00  0.00     0.031 C 
ATOM     41  C   UNL A   1      40.306  25.432  27.762  1.00  0.00     0.029 A 
ATOM     42  N   UNL A   1      41.698  26.971  28.594  1.00  0.00    -0.354 N 
ATOM     43  C   UNL A   1      45.875  26.100  29.223  1.00  0.00     0.074 A 
ATOM     44  C   UNL A   1      46.197  24.753  28.804  1.00  0.00     0.031 C 
ATOM     45  C   UNL A   1      39.582  26.532  28.021  1.00  0.00     0.029 A 
ATOM     46  C   UNL A   1      40.452  27.552  28.594  1.00  0.00     0.049 A 
ATOM     47  H   UNL A   1      42.508  27.434  28.908  1.00  0.00     0.167 HD
ATOM     48  C   UNL A   1      46.772  26.970  29.743  1.00  0.00     0.031 A 
ATOM     49  C   UNL A   1      40.055  28.766  29.020  1.00  0.00     0.031 A 
ATOM     50  C   UNL A   1      46.458  28.315  30.143  1.00  0.00     0.049 A 
ATOM     51  C   UNL A   1      41.070  29.712  29.599  1.00  0.00     0.074 A 
ATOM     52  C   UNL A   1      47.310  29.292  30.627  1.00  0.00     0.029 A 
ATOM     53  N   UNL A   1      45.189  28.871  30.107  1.00  0.00    -0.354 N 
ATOM     54  N   UNL A   1      42.357  29.536  29.775  1.00  0.00    -0.248 NA
ATOM     55  C   UNL A   1      40.576  31.029  30.030  1.00  0.00     0.031 C 
ATOM     56  C   UNL A   1      46.550  30.428  30.921  1.00  0.00     0.029 A 
ATOM     57  C   UNL A   1      45.232  30.173  30.576  1.00  0.00     0.049 A 
ATOM     58  H   UNL A   1      44.378  28.409  29.794  1.00  0.00     0.167 HD
ATOM     59  C   UNL A   1      42.832  30.727  30.308  1.00  0.00     0.074 A 
ATOM     60  C   UNL A   1      41.698  31.621  30.419  1.00  0.00     0.031 C 
ATOM     61  C   UNL A   1      44.096  31.051  30.672  1.00  0.00     0.031 A 
BRANCH  48  62
ATOM     62  C   UNL A   1      48.185  26.486  29.915  1.00  0.00    -0.014 A 
ATOM     63  C   UNL A   1      48.597  25.854  31.099  1.00  0.00     0.009 A 
ATOM     64  C   UNL A   1      49.105  26.636  28.867  1.00  0.00     0.009 A 
ATOM     65  C   UNL A   1      49.914  25.414  31.242  1.00  0.00     0.001 A 
ATOM     66  C   UNL A   1      50.415  26.171  29.003  1.00  0.00     0.001 A 
ATOM     67  C   UNL A   1      50.820  25.569  30.195  1.00  0.00     0.000 A 
ENDBRANCH  48  62
BRANCH  49  68
ATOM     68  C   UNL A   1      38.630  29.165  28.904  1.00  0.00    -0.014 A 
ATOM     69  C   UNL A   1      37.761  29.021  29.997  1.00  0.00     0.009 A 
ATOM     70  C   UNL A   1      38.127  29.688  27.702  1.00  0.00     0.009 A 
ATOM     71  C   UNL A   1      36.413  29.369  29.881  1.00  0.00     0.001 A 
ATOM     72  C   UNL A   1      36.785  30.060  27.597  1.00  0.00     0.001 A 
ATOM     73  C   UNL A   1      35.928  29.892  28.683  1.00  0.00     0.000 A 
ENDBRANCH  49  68
BRANCH  61  74
ATOM     74  C   UNL A   1      44.331  32.443  31.182  1.00  0.00    -0.014 A 
ATOM     75  C   UNL A   1      44.273  32.737  32.552  1.00  0.00     0.009 A 
ATOM     76  C   UNL A   1      44.668  33.463  30.278  1.00  0.00     0.009 A 
ATOM     77  C   UNL A   1      44.526  34.033  33.005  1.00  0.00     0.001 A 
ATOM     78  C   UNL A   1      44.944  34.752  30.736  1.00  0.00     0.001 A 
ATOM     79  C   UNL A   1      44.867  35.037  32.099  1.00  0.00     0.000 A 
ENDBRANCH  61  74
ENDBRANCH  35  36
ENDBRANCH  27  30
ENDBRANCH  25  26
ENDBRANCH  24  25
ENDBRANCH   1  24
TORSDOF 14
ENDMDL
MODEL 2
REMARK VINA RESULT:     -11.0      1.237      2.827
REMARK SMILES Cc1cccc(Cl)c1Nc1ccccc1CC(=O)NCCCCNC(=O)c1ccc(-c2c3nc(c(-c4ccccc4)c4ccc([nH]4)c(-c4ccccc4)c4nc(c(-c5ccccc5)c5ccc2[nH]5)C=C4)C=C3)cc1
REMARK SMILES IDX 21 1 20 2 19 3 17 4 18 5 16 7 15 8 10 9 11 10 12 11 14 12
REMARK SMILES IDX 13 13 9 14 8 16 1 17 2 18 3 19 4 20 6 21 5 22 7 23 22 24
REMARK SMILES IDX 23 25 24 26 25 27 26 29 27 30 28 31 74 32 29 33 73 34 30 35
REMARK SMILES IDX 31 36 32 37 67 38 33 39 72 40 66 41 68 42 34 43 71 44 65 45
REMARK SMILES IDX 64 46 35 48 57 49 42 50 56 51 43 52 46 53 55 54 69 55 44 56
REMARK SMILES IDX 45 57 54 59 70 60 47 61 36 62 37 63 41 64 38 65 40 66 39 67
REMARK SMILES IDX 58 68 59 69 63 70 60 71 62 72 61 73 48 74 49 75 53 76 50 77
REMARK SMILES IDX 52 78 51 79
REMARK H PARENT 19 6 9 15 24 28 68 47 46 58
REMARK Flexibility Score: inf
ROOT
ATOM      1  C   UNL A   1      36.619  21.123  24.942  1.00  0.00     0.023 C 
ENDROOT
BRANCH   1   2
ATOM      2  C   UNL A   1      37.063  22.493  24.430  1.00  0.00     0.116 C 
BRANCH   2   3
ATOM      3  N   UNL A   1      36.144  23.020  23.440  1.00  0.00    -0.356 N 
ATOM      4  C   UNL A   1      35.052  23.817  23.643  1.00  0.00     0.224 C 
ATOM      5  O   UNL A   1      34.334  24.082  22.677  1.00  0.00    -0.275 OA
ATOM      6  H   UNL A   1      36.330  22.772  22.505  1.00  0.00     0.163 HD
BRANCH   4   7
ATOM      7  C   UNL A   1      34.775  24.389  25.026  1.00  0.00     0.137 C 
BRANCH   7   8
ATOM      8  C   UNL A   1      33.349  24.192  25.502  1.00  0.00    -0.015 A 
ATOM      9  C   UNL A   1      32.319  25.131  25.276  1.00  0.00     0.042 A 
ATOM     10  C   UNL A   1      31.060  24.904  25.865  1.00  0.00     0.026 A 
ATOM     11  C   UNL A   1      30.808  23.767  26.632  1.00  0.00     0.002 A 
ATOM     12  C   UNL A   1      33.065  23.030  26.251  1.00  0.00     0.006 A 
ATOM     13  C   UNL A   1      31.808  22.822  26.814  1.00  0.00     0.000 A 
BRANCH   9  14
ATOM     14  N   UNL A   1      32.440  26.272  24.456  1.00  0.00    -0.354 N 
ATOM     15  H   UNL A   1      32.857  26.091  23.583  1.00  0.00     0.167 HD
BRANCH  14  16
ATOM     16  C   UNL A   1      32.077  27.629  24.644  1.00  0.00     0.060 A 
ATOM     17  C   UNL A   1      30.306  27.317  22.822  1.00  0.00     0.046 C 
ATOM     18  C   UNL A   1      31.010  28.150  23.864  1.00  0.00    -0.026 A 
ATOM     19  C   UNL A   1      30.556  29.463  24.078  1.00  0.00     0.005 A 
ATOM     20  C   UNL A   1      31.145  30.274  25.042  1.00  0.00     0.002 A 
ATOM     21  C   UNL A   1      32.680  28.484  25.595  1.00  0.00     0.064 A 
ATOM     22  C   UNL A   1      32.209  29.788  25.792  1.00  0.00     0.023 A 
ATOM     23  Cl  UNL A   1      34.091  28.050  26.503  1.00  0.00    -0.082 Cl
ENDBRANCH  14  16
ENDBRANCH   9  14
ENDBRANCH   7   8
ENDBRANCH   4   7
ENDBRANCH   2   3
ENDBRANCH   1   2
BRANCH   1  24
ATOM     24  C   UNL A   1      37.725  20.067  24.973  1.00  0.00     0.023 C 
BRANCH  24  25
ATOM     25  C   UNL A   1      38.969  20.462  25.757  1.00  0.00     0.116 C 
BRANCH  25  26
ATOM     26  N   UNL A   1      39.982  19.418  25.793  1.00  0.00    -0.352 N 
ATOM     27  C   UNL A   1      41.306  19.532  26.140  1.00  0.00     0.251 C 
ATOM     28  H   UNL A   1      39.681  18.517  25.536  1.00  0.00     0.163 HD
ATOM     29  O   UNL A   1      42.071  18.580  26.024  1.00  0.00    -0.269 OA
BRANCH  27  30
ATOM     30  C   UNL A   1      41.811  20.835  26.618  1.00  0.00     0.039 A 
ATOM     31  C   UNL A   1      42.304  21.752  25.687  1.00  0.00     0.014 A 
ATOM     32  C   UNL A   1      41.748  21.166  27.974  1.00  0.00     0.014 A 
ATOM     33  C   UNL A   1      42.666  23.033  26.106  1.00  0.00     0.010 A 
ATOM     34  C   UNL A   1      42.048  22.462  28.380  1.00  0.00     0.010 A 
ATOM     35  C   UNL A   1      42.504  23.409  27.449  1.00  0.00    -0.014 A 
BRANCH  35  36
ATOM     36  C   UNL A   1      42.796  24.788  27.910  1.00  0.00     0.031 A 
ATOM     37  C   UNL A   1      44.200  25.172  28.286  1.00  0.00     0.074 A 
ATOM     38  C   UNL A   1      41.788  25.666  28.073  1.00  0.00     0.049 A 
ATOM     39  N   UNL A   1      44.637  26.288  28.813  1.00  0.00    -0.248 NA
ATOM     40  C   UNL A   1      45.244  24.159  28.068  1.00  0.00     0.031 C 
ATOM     41  C   UNL A   1      40.378  25.405  27.779  1.00  0.00     0.029 A 
ATOM     42  N   UNL A   1      41.796  26.954  28.546  1.00  0.00    -0.354 N 
ATOM     43  C   UNL A   1      45.998  26.101  29.010  1.00  0.00     0.074 A 
ATOM     44  C   UNL A   1      46.308  24.753  28.586  1.00  0.00     0.031 C 
ATOM     45  C   UNL A   1      39.660  26.504  28.062  1.00  0.00     0.029 A 
ATOM     46  C   UNL A   1      40.549  27.531  28.594  1.00  0.00     0.049 A 
ATOM     47  H   UNL A   1      42.616  27.421  28.824  1.00  0.00     0.167 HD
ATOM     48  C   UNL A   1      46.912  26.978  29.489  1.00  0.00     0.031 A 
ATOM     49  C   UNL A   1      40.165  28.745  29.029  1.00  0.00     0.031 A 
ATOM     50  C   UNL A   1      46.609  28.324  29.894  1.00  0.00     0.049 A 
ATOM     51  C   UNL A   1      41.198  29.698  29.562  1.00  0.00     0.074 A 
ATOM     52  C   UNL A   1      47.477  29.306  30.337  1.00  0.00     0.029 A 
ATOM     53  N   UNL A   1      45.338  28.874  29.906  1.00  0.00    -0.354 N 
ATOM     54  N   UNL A   1      42.492  29.528  29.685  1.00  0.00    -0.248 NA
ATOM     55  C   UNL A   1      40.718  31.016  30.005  1.00  0.00     0.031 C 
ATOM     56  C   UNL A   1      46.725  30.441  30.656  1.00  0.00     0.029 A 
ATOM     57  C   UNL A   1      45.395  30.179  30.366  1.00  0.00     0.049 A 
ATOM     58  H   UNL A   1      44.517  28.408  29.629  1.00  0.00     0.167 HD
ATOM     59  C   UNL A   1      42.984  30.723  30.193  1.00  0.00     0.074 A 
ATOM     60  C   UNL A   1      41.852  31.614  30.344  1.00  0.00     0.031 C 
ATOM     61  C   UNL A   1      44.260  31.054  30.503  1.00  0.00     0.031 A 
BRANCH  48  62
ATOM     62  C   UNL A   1      48.333  26.500  29.605  1.00  0.00    -0.014 A 
ATOM     63  C   UNL A   1      48.779  25.824  30.752  1.00  0.00     0.009 A 
ATOM     64  C   UNL A   1      49.226  26.700  28.542  1.00  0.00     0.009 A 
ATOM     65  C   UNL A   1      50.103  25.391  30.845  1.00  0.00     0.001 A 
ATOM     66  C   UNL A   1      50.542  26.241  28.627  1.00  0.00     0.001 A 
ATOM     67  C   UNL A   1      50.981  25.595  29.782  1.00  0.00     0.000 A 
ENDBRANCH  48  62
BRANCH  49  68
ATOM     68  C   UNL A   1      38.734  29.138  28.968  1.00  0.00    -0.014 A 
ATOM     69  C   UNL A   1      37.903  28.966  30.086  1.00  0.00     0.009 A 
ATOM     70  C   UNL A   1      38.190  29.684  27.795  1.00  0.00     0.009 A 
ATOM     71  C   UNL A   1      36.550  29.308  30.022  1.00  0.00     0.001 A 
ATOM     72  C   UNL A   1      36.843  30.051  27.743  1.00  0.00     0.001 A 
ATOM     73  C   UNL A   1      36.023  29.854  28.853  1.00  0.00     0.000 A 
ENDBRANCH  49  68
BRANCH  61  74
ATOM     74  C   UNL A   1      44.510  32.450  30.995  1.00  0.00    -0.014 A 
ATOM     75  C   UNL A   1      44.440  32.765  32.361  1.00  0.00     0.009 A 
ATOM     76  C   UNL A   1      44.875  33.451  30.082  1.00  0.00     0.009 A 
ATOM     77  C   UNL A   1      44.707  34.064  32.798  1.00  0.00     0.001 A 
ATOM     78  C   UNL A   1      45.165  34.742  30.524  1.00  0.00     0.001 A 
ATOM     79  C   UNL A   1      45.075  35.048  31.881  1.00  0.00     0.000 A 
ENDBRANCH  61  74
ENDBRANCH  35  36
ENDBRANCH  27  30
ENDBRANCH  25  26
ENDBRANCH  24  25
ENDBRANCH   1  24
TORSDOF 14
ENDMDL
MODEL 3
REMARK VINA RESULT:     -10.9      1.403      6.047
REMARK SMILES Cc1cccc(Cl)c1Nc1ccccc1CC(=O)NCCCCNC(=O)c1ccc(-c2c3nc(c(-c4ccccc4)c4ccc([nH]4)c(-c4ccccc4)c4nc(c(-c5ccccc5)c5ccc2[nH]5)C=C4)C=C3)cc1
REMARK SMILES IDX 21 1 20 2 19 3 17 4 18 5 16 7 15 8 10 9 11 10 12 11 14 12
REMARK SMILES IDX 13 13 9 14 8 16 1 17 2 18 3 19 4 20 6 21 5 22 7 23 22 24
REMARK SMILES IDX 23 25 24 26 25 27 26 29 27 30 28 31 74 32 29 33 73 34 30 35
REMARK SMILES IDX 31 36 32 37 67 38 33 39 72 40 66 41 68 42 34 43 71 44 65 45
REMARK SMILES IDX 64 46 35 48 57 49 42 50 56 51 43 52 46 53 55 54 69 55 44 56
REMARK SMILES IDX 45 57 54 59 70 60 47 61 36 62 37 63 41 64 38 65 40 66 39 67
REMARK SMILES IDX 58 68 59 69 63 70 60 71 62 72 61 73 48 74 49 75 53 76 50 77
REMARK SMILES IDX 52 78 51 79
REMARK H PARENT 19 6 9 15 24 28 68 47 46 58
REMARK Flexibility Score: inf
ROOT
ATOM      1  C   UNL A   1      36.701  21.340  25.111  1.00  0.00     0.023 C 
ENDROOT
BRANCH   1   2
ATOM      2  C   UNL A   1      37.130  22.732  24.648  1.00  0.00     0.116 C 
BRANCH   2   3
ATOM      3  N   UNL A   1      36.154  23.326  23.757  1.00  0.00    -0.356 N 
ATOM      4  C   UNL A   1      35.105  24.142  24.080  1.00  0.00     0.224 C 
ATOM      5  O   UNL A   1      34.323  24.469  23.185  1.00  0.00    -0.275 OA
ATOM      6  H   UNL A   1      36.260  23.117  22.801  1.00  0.00     0.163 HD
BRANCH   4   7
ATOM      7  C   UNL A   1      34.952  24.656  25.504  1.00  0.00     0.137 C 
BRANCH   7   8
ATOM      8  C   UNL A   1      33.690  25.462  25.738  1.00  0.00    -0.015 A 
ATOM      9  C   UNL A   1      32.440  24.878  26.040  1.00  0.00     0.042 A 
ATOM     10  C   UNL A   1      31.309  25.713  26.120  1.00  0.00     0.026 A 
ATOM     11  C   UNL A   1      31.405  27.092  25.937  1.00  0.00     0.002 A 
ATOM     12  C   UNL A   1      33.774  26.863  25.592  1.00  0.00     0.006 A 
ATOM     13  C   UNL A   1      32.642  27.670  25.687  1.00  0.00     0.000 A 
BRANCH   9  14
ATOM     14  N   UNL A   1      32.242  23.510  26.319  1.00  0.00    -0.354 N 
ATOM     15  H   UNL A   1      31.864  23.338  27.212  1.00  0.00     0.167 HD
BRANCH  14  16
ATOM     16  C   UNL A   1      32.480  22.335  25.564  1.00  0.00     0.060 A 
ATOM     17  C   UNL A   1      33.863  21.456  27.531  1.00  0.00     0.046 C 
ATOM     18  C   UNL A   1      33.256  21.304  26.159  1.00  0.00    -0.026 A 
ATOM     19  C   UNL A   1      33.444  20.084  25.485  1.00  0.00     0.005 A 
ATOM     20  C   UNL A   1      32.889  19.870  24.228  1.00  0.00     0.002 A 
ATOM     21  C   UNL A   1      31.952  22.104  24.273  1.00  0.00     0.064 A 
ATOM     22  C   UNL A   1      32.152  20.881  23.620  1.00  0.00     0.023 A 
ATOM     23  Cl  UNL A   1      31.129  23.320  23.353  1.00  0.00    -0.082 Cl
ENDBRANCH  14  16
ENDBRANCH   9  14
ENDBRANCH   7   8
ENDBRANCH   4   7
ENDBRANCH   2   3
ENDBRANCH   1   2
BRANCH   1  24
ATOM     24  C   UNL A   1      37.771  20.258  24.954  1.00  0.00     0.023 C 
BRANCH  24  25
ATOM     25  C   UNL A   1      39.046  20.495  25.751  1.00  0.00     0.116 C 
BRANCH  25  26
ATOM     26  N   UNL A   1      39.938  19.346  25.765  1.00  0.00    -0.352 N 
ATOM     27  C   UNL A   1      41.289  19.323  26.011  1.00  0.00     0.251 C 
ATOM     28  H   UNL A   1      39.521  18.475  25.574  1.00  0.00     0.163 HD
ATOM     29  O   UNL A   1      41.934  18.287  25.887  1.00  0.00    -0.269 OA
BRANCH  27  30
ATOM     30  C   UNL A   1      41.969  20.579  26.387  1.00  0.00     0.039 A 
ATOM     31  C   UNL A   1      42.385  21.452  25.379  1.00  0.00     0.014 A 
ATOM     32  C   UNL A   1      42.147  20.913  27.733  1.00  0.00     0.014 A 
ATOM     33  C   UNL A   1      42.914  22.697  25.721  1.00  0.00     0.010 A 
ATOM     34  C   UNL A   1      42.613  22.179  28.070  1.00  0.00     0.010 A 
ATOM     35  C   UNL A   1      42.995  23.085  27.067  1.00  0.00    -0.014 A 
BRANCH  35  36
ATOM     36  C   UNL A   1      43.470  24.435  27.460  1.00  0.00     0.031 A 
ATOM     37  C   UNL A   1      42.481  25.484  27.881  1.00  0.00     0.074 A 
ATOM     38  C   UNL A   1      44.777  24.741  27.352  1.00  0.00     0.049 A 
ATOM     39  N   UNL A   1      42.685  26.748  28.154  1.00  0.00    -0.248 NA
ATOM     40  C   UNL A   1      41.075  25.065  27.984  1.00  0.00     0.031 C 
ATOM     41  C   UNL A   1      45.833  23.823  26.920  1.00  0.00     0.029 A 
ATOM     42  N   UNL A   1      45.437  25.922  27.583  1.00  0.00    -0.354 N 
ATOM     43  C   UNL A   1      41.433  27.278  28.435  1.00  0.00     0.074 A 
ATOM     44  C   UNL A   1      40.471  26.211  28.261  1.00  0.00     0.031 C 
ATOM     45  C   UNL A   1      47.009  24.470  26.933  1.00  0.00     0.029 A 
ATOM     46  C   UNL A   1      46.787  25.855  27.334  1.00  0.00     0.049 A 
ATOM     47  H   UNL A   1      44.987  26.739  27.897  1.00  0.00     0.167 HD
ATOM     48  C   UNL A   1      41.113  28.537  28.818  1.00  0.00     0.031 A 
ATOM     49  C   UNL A   1      47.737  26.806  27.409  1.00  0.00     0.031 A 
ATOM     50  C   UNL A   1      42.069  29.593  29.009  1.00  0.00     0.049 A 
ATOM     51  C   UNL A   1      47.355  28.197  27.830  1.00  0.00     0.074 A 
ATOM     52  C   UNL A   1      41.848  30.886  29.451  1.00  0.00     0.029 A 
ATOM     53  N   UNL A   1      43.428  29.477  28.767  1.00  0.00    -0.354 N 
ATOM     54  N   UNL A   1      46.174  28.668  28.151  1.00  0.00    -0.248 NA
ATOM     55  C   UNL A   1      48.440  29.187  27.910  1.00  0.00     0.031 C 
ATOM     56  C   UNL A   1      43.070  31.566  29.439  1.00  0.00     0.029 A 
ATOM     57  C   UNL A   1      44.058  30.682  29.034  1.00  0.00     0.049 A 
ATOM     58  H   UNL A   1      43.879  28.661  28.452  1.00  0.00     0.167 HD
ATOM     59  C   UNL A   1      46.377  29.997  28.497  1.00  0.00     0.074 A 
ATOM     60  C   UNL A   1      47.796  30.256  28.357  1.00  0.00     0.031 C 
ATOM     61  C   UNL A   1      45.471  30.920  28.898  1.00  0.00     0.031 A 
BRANCH  48  62
ATOM     62  C   UNL A   1      39.659  28.839  29.049  1.00  0.00    -0.014 A 
ATOM     63  C   UNL A   1      39.073  28.667  30.313  1.00  0.00     0.009 A 
ATOM     64  C   UNL A   1      38.873  29.332  27.996  1.00  0.00     0.009 A 
ATOM     65  C   UNL A   1      37.720  28.949  30.509  1.00  0.00     0.001 A 
ATOM     66  C   UNL A   1      37.526  29.639  28.202  1.00  0.00     0.001 A 
ATOM     67  C   UNL A   1      36.949  29.438  29.456  1.00  0.00     0.000 A 
ENDBRANCH  48  62
BRANCH  49  68
ATOM     68  C   UNL A   1      49.148  26.474  27.089  1.00  0.00    -0.014 A 
ATOM     69  C   UNL A   1      49.613  26.549  25.767  1.00  0.00     0.009 A 
ATOM     70  C   UNL A   1      50.038  26.078  28.100  1.00  0.00     0.009 A 
ATOM     71  C   UNL A   1      50.933  26.209  25.460  1.00  0.00     0.001 A 
ATOM     72  C   UNL A   1      51.364  25.765  27.794  1.00  0.00     0.001 A 
ATOM     73  C   UNL A   1      51.808  25.822  26.474  1.00  0.00     0.000 A 
ENDBRANCH  49  68
BRANCH  61  74
ATOM     74  C   UNL A   1      45.987  32.283  29.256  1.00  0.00    -0.014 A 
ATOM     75  C   UNL A   1      46.411  32.582  30.560  1.00  0.00     0.009 A 
ATOM     76  C   UNL A   1      46.098  33.265  28.259  1.00  0.00     0.009 A 
ATOM     77  C   UNL A   1      46.915  33.849  30.862  1.00  0.00     0.001 A 
ATOM     78  C   UNL A   1      46.626  34.521  28.559  1.00  0.00     0.001 A 
ATOM     79  C   UNL A   1      47.028  34.814  29.861  1.00  0.00     0.000 A 
ENDBRANCH  61  74
ENDBRANCH  35  36
ENDBRANCH  27  30
ENDBRANCH  25  26
ENDBRANCH  24  25
ENDBRANCH   1  24
TORSDOF 14
ENDMDL
