MODEL 1
REMARK VINA RESULT:     -11.0      0.000      0.000
REMARK SMILES O=C(/C=N/O)Nc1cccc(C(=O)NCCCCNC(=O)c2ccc(-c3c4nc(c(-c5ccccc5)c5ccc([nH]5)c(-c5ccccc5)c5nc(c(-c6ccccc6)c6ccc3[nH]6)C=C5)C=C4)cc2)c1
REMARK SMILES IDX 16 1 15 2 14 3 12 4 13 5 11 7 7 8 8 9 70 10 9 11 10 12 6 13
REMARK SMILES IDX 1 14 2 15 3 17 4 18 5 19 17 21 18 22 19 23 20 24 21 26 22 27
REMARK SMILES IDX 23 28 69 29 24 30 68 31 25 32 26 33 27 34 62 35 28 36 67 37
REMARK SMILES IDX 61 38 63 39 29 40 66 41 60 42 59 43 30 45 52 46 37 47 51 48
REMARK SMILES IDX 38 49 41 50 50 51 64 52 39 53 40 54 49 56 65 57 42 58 31 59
REMARK SMILES IDX 32 60 36 61 33 62 35 63 34 64 53 65 54 66 58 67 55 68 57 69
REMARK SMILES IDX 56 70 43 71 44 72 48 73 45 74 47 75 46 76
REMARK H PARENT 14 6 6 16 5 20 19 25 63 44 41 55
REMARK Flexibility Score: inf
ROOT
ATOM      1  C   UNL A   1      33.749  28.167  24.862  1.00  0.00     0.023 C 
ENDROOT
BRANCH   1   2
ATOM      2  C   UNL A   1      33.908  26.668  24.643  1.00  0.00     0.116 C 
BRANCH   2   3
ATOM      3  N   UNL A   1      34.003  26.257  23.248  1.00  0.00    -0.352 N 
ATOM      4  C   UNL A   1      33.018  26.172  22.281  1.00  0.00     0.251 C 
ATOM      5  O   UNL A   1      33.306  25.785  21.153  1.00  0.00    -0.269 OA
ATOM      6  H   UNL A   1      34.905  26.003  22.947  1.00  0.00     0.163 HD
BRANCH   4   7
ATOM      7  C   UNL A   1      31.601  26.465  22.617  1.00  0.00     0.041 A 
ATOM      8  C   UNL A   1      29.886  28.118  23.013  1.00  0.00     0.042 A 
ATOM      9  C   UNL A   1      29.137  27.161  23.705  1.00  0.00     0.026 A 
ATOM     10  C   UNL A   1      31.046  27.718  22.357  1.00  0.00     0.040 A 
ATOM     11  C   UNL A   1      29.599  25.844  23.811  1.00  0.00     0.003 A 
ATOM     12  C   UNL A   1      30.851  25.503  23.298  1.00  0.00     0.014 A 
BRANCH   8  13
ATOM     13  N   UNL A   1      29.528  29.475  23.147  1.00  0.00    -0.321 N 
ATOM     14  O   UNL A   1      28.353  29.914  21.152  1.00  0.00    -0.268 OA
ATOM     15  C   UNL A   1      28.911  30.254  22.187  1.00  0.00     0.270 C 
ATOM     16  H   UNL A   1      29.738  29.910  24.005  1.00  0.00     0.170 HD
BRANCH  15  17
ATOM     17  C   UNL A   1      29.019  31.734  22.440  1.00  0.00     0.225 C 
ATOM     18  N   UNL A   1      27.961  32.480  22.426  1.00  0.00    -0.092 NA
BRANCH  18  19
ATOM     19  O   UNL A   1      28.339  33.785  22.766  1.00  0.00    -0.411 OA
ATOM     20  H   UNL A   1      28.249  34.084  23.649  1.00  0.00     0.330 HD
ENDBRANCH  18  19
ENDBRANCH  15  17
ENDBRANCH   8  13
ENDBRANCH   4   7
ENDBRANCH   2   3
ENDBRANCH   1   2
BRANCH   1  21
ATOM     21  C   UNL A   1      32.778  28.590  25.956  1.00  0.00     0.023 C 
BRANCH  21  22
ATOM     22  C   UNL A   1      33.378  28.785  27.342  1.00  0.00     0.116 C 
BRANCH  22  23
ATOM     23  N   UNL A   1      33.484  30.177  27.753  1.00  0.00    -0.352 N 
ATOM     24  C   UNL A   1      34.557  30.859  28.281  1.00  0.00     0.251 C 
ATOM     25  H   UNL A   1      32.666  30.712  27.635  1.00  0.00     0.163 HD
ATOM     26  O   UNL A   1      34.435  32.024  28.645  1.00  0.00    -0.269 OA
BRANCH  24  27
ATOM     27  C   UNL A   1      35.855  30.170  28.454  1.00  0.00     0.039 A 
ATOM     28  C   UNL A   1      36.734  30.104  27.369  1.00  0.00     0.014 A 
ATOM     29  C   UNL A   1      36.220  29.622  29.686  1.00  0.00     0.014 A 
ATOM     30  C   UNL A   1      38.018  29.581  27.547  1.00  0.00     0.010 A 
ATOM     31  C   UNL A   1      37.523  29.179  29.882  1.00  0.00     0.010 A 
ATOM     32  C   UNL A   1      38.440  29.162  28.819  1.00  0.00    -0.014 A 
BRANCH  32  33
ATOM     33  C   UNL A   1      39.833  28.712  29.071  1.00  0.00     0.031 A 
ATOM     34  C   UNL A   1      40.839  29.667  29.653  1.00  0.00     0.074 A 
ATOM     35  C   UNL A   1      40.219  27.478  28.691  1.00  0.00     0.049 A 
ATOM     36  N   UNL A   1      42.125  29.504  29.832  1.00  0.00    -0.248 NA
ATOM     37  C   UNL A   1      40.336  30.990  30.057  1.00  0.00     0.031 C 
ATOM     38  C   UNL A   1      39.357  26.467  28.076  1.00  0.00     0.029 A 
ATOM     39  N   UNL A   1      41.449  26.871  28.753  1.00  0.00    -0.354 N 
ATOM     40  C   UNL A   1      42.588  30.712  30.338  1.00  0.00     0.074 A 
ATOM     41  C   UNL A   1      41.456  31.609  30.400  1.00  0.00     0.031 C 
ATOM     42  C   UNL A   1      40.079  25.359  27.838  1.00  0.00     0.029 A 
ATOM     43  C   UNL A   1      41.461  25.595  28.242  1.00  0.00     0.049 A 
ATOM     44  H   UNL A   1      42.249  27.309  29.127  1.00  0.00     0.167 HD
ATOM     45  C   UNL A   1      43.842  31.041  30.732  1.00  0.00     0.031 A 
ATOM     46  C   UNL A   1      42.472  24.717  28.106  1.00  0.00     0.031 A 
ATOM     47  C   UNL A   1      44.965  30.145  30.697  1.00  0.00     0.049 A 
ATOM     48  C   UNL A   1      43.852  25.103  28.559  1.00  0.00     0.074 A 
ATOM     49  C   UNL A   1      46.260  30.368  31.133  1.00  0.00     0.029 A 
ATOM     50  N   UNL A   1      44.925  28.851  30.202  1.00  0.00    -0.354 N 
ATOM     51  N   UNL A   1      44.262  26.228  29.088  1.00  0.00    -0.248 NA
ATOM     52  C   UNL A   1      44.906  24.090  28.404  1.00  0.00     0.031 C 
ATOM     53  C   UNL A   1      47.013  29.219  30.867  1.00  0.00     0.029 A 
ATOM     54  C   UNL A   1      46.175  28.268  30.309  1.00  0.00     0.049 A 
ATOM     55  H   UNL A   1      44.126  28.413  29.831  1.00  0.00     0.167 HD
ATOM     56  C   UNL A   1      45.613  26.052  29.356  1.00  0.00     0.074 A 
ATOM     57  C   UNL A   1      45.951  24.706  28.940  1.00  0.00     0.031 C 
ATOM     58  C   UNL A   1      46.494  26.925  29.899  1.00  0.00     0.031 A 
BRANCH  45  59
ATOM     59  C   UNL A   1      44.060  32.441  31.233  1.00  0.00    -0.014 A 
ATOM     60  C   UNL A   1      43.924  32.754  32.595  1.00  0.00     0.009 A 
ATOM     61  C   UNL A   1      44.427  33.455  30.335  1.00  0.00     0.009 A 
ATOM     62  C   UNL A   1      44.114  34.063  33.041  1.00  0.00     0.001 A 
ATOM     63  C   UNL A   1      44.644  34.757  30.789  1.00  0.00     0.001 A 
ATOM     64  C   UNL A   1      44.478  35.063  32.138  1.00  0.00     0.000 A 
ENDBRANCH  45  59
BRANCH  46  65
ATOM     65  C   UNL A   1      42.216  23.371  27.529  1.00  0.00    -0.014 A 
ATOM     66  C   UNL A   1      41.731  22.334  28.340  1.00  0.00     0.009 A 
ATOM     67  C   UNL A   1      42.464  23.114  26.172  1.00  0.00     0.009 A 
ATOM     68  C   UNL A   1      41.521  21.059  27.810  1.00  0.00     0.001 A 
ATOM     69  C   UNL A   1      42.228  21.845  25.639  1.00  0.00     0.001 A 
ATOM     70  C   UNL A   1      41.766  20.817  26.460  1.00  0.00     0.000 A 
ENDBRANCH  46  65
BRANCH  58  71
ATOM     71  C   UNL A   1      47.898  26.440  30.118  1.00  0.00    -0.014 A 
ATOM     72  C   UNL A   1      48.283  25.849  31.330  1.00  0.00     0.009 A 
ATOM     73  C   UNL A   1      48.832  26.534  29.075  1.00  0.00     0.009 A 
ATOM     74  C   UNL A   1      49.589  25.384  31.501  1.00  0.00     0.001 A 
ATOM     75  C   UNL A   1      50.129  26.047  29.242  1.00  0.00     0.001 A 
ATOM     76  C   UNL A   1      50.508  25.479  30.457  1.00  0.00     0.000 A 
ENDBRANCH  58  71
ENDBRANCH  32  33
ENDBRANCH  24  27
ENDBRANCH  22  23
ENDBRANCH  21  22
ENDBRANCH   1  21
TORSDOF 14
ENDMDL
MODEL 2
REMARK VINA RESULT:     -10.6      3.935      8.530
REMARK SMILES O=C(/C=N/O)Nc1cccc(C(=O)NCCCCNC(=O)c2ccc(-c3c4nc(c(-c5ccccc5)c5ccc([nH]5)c(-c5ccccc5)c5nc(c(-c6ccccc6)c6ccc3[nH]6)C=C5)C=C4)cc2)c1
REMARK SMILES IDX 16 1 15 2 14 3 12 4 13 5 11 7 7 8 8 9 70 10 9 11 10 12 6 13
REMARK SMILES IDX 1 14 2 15 3 17 4 18 5 19 17 21 18 22 19 23 20 24 21 26 22 27
REMARK SMILES IDX 23 28 69 29 24 30 68 31 25 32 26 33 27 34 62 35 28 36 67 37
REMARK SMILES IDX 61 38 63 39 29 40 66 41 60 42 59 43 30 45 52 46 37 47 51 48
REMARK SMILES IDX 38 49 41 50 50 51 64 52 39 53 40 54 49 56 65 57 42 58 31 59
REMARK SMILES IDX 32 60 36 61 33 62 35 63 34 64 53 65 54 66 58 67 55 68 57 69
REMARK SMILES IDX 56 70 43 71 44 72 48 73 45 74 47 75 46 76
REMARK H PARENT 14 6 6 16 5 20 19 25 63 44 41 55
REMARK Flexibility Score: inf
ROOT
ATOM      1  C   UNL A   1      37.070  22.566  23.854  1.00  0.00     0.023 C 
ENDROOT
BRANCH   1   2
ATOM      2  C   UNL A   1      35.652  22.992  23.497  1.00  0.00     0.116 C 
BRANCH   2   3
ATOM      3  N   UNL A   1      34.814  23.352  24.634  1.00  0.00    -0.352 N 
ATOM      4  C   UNL A   1      33.610  22.813  25.051  1.00  0.00     0.251 C 
ATOM      5  O   UNL A   1      33.049  23.275  26.041  1.00  0.00    -0.269 OA
ATOM      6  H   UNL A   1      35.156  24.089  25.189  1.00  0.00     0.163 HD
BRANCH   4   7
ATOM      7  C   UNL A   1      32.950  21.738  24.267  1.00  0.00     0.041 A 
ATOM      8  C   UNL A   1      32.799  19.389  23.727  1.00  0.00     0.042 A 
ATOM      9  C   UNL A   1      32.155  19.717  22.530  1.00  0.00     0.026 A 
ATOM     10  C   UNL A   1      33.063  20.401  24.646  1.00  0.00     0.040 A 
ATOM     11  C   UNL A   1      31.867  21.051  22.225  1.00  0.00     0.003 A 
ATOM     12  C   UNL A   1      32.297  22.068  23.077  1.00  0.00     0.014 A 
BRANCH   8  13
ATOM     13  N   UNL A   1      33.304  18.083  23.883  1.00  0.00    -0.321 N 
ATOM     14  O   UNL A   1      31.977  17.204  25.621  1.00  0.00    -0.268 OA
ATOM     15  C   UNL A   1      32.934  17.176  24.858  1.00  0.00     0.270 C 
ATOM     16  H   UNL A   1      33.985  17.787  23.236  1.00  0.00     0.170 HD
BRANCH  15  17
ATOM     17  C   UNL A   1      33.905  16.039  25.035  1.00  0.00     0.225 C 
ATOM     18  N   UNL A   1      35.180  16.264  25.051  1.00  0.00    -0.092 NA
BRANCH  18  19
ATOM     19  O   UNL A   1      35.835  15.053  25.306  1.00  0.00    -0.411 OA
ATOM     20  H   UNL A   1      35.973  14.772  26.189  1.00  0.00     0.330 HD
ENDBRANCH  18  19
ENDBRANCH  15  17
ENDBRANCH   8  13
ENDBRANCH   4   7
ENDBRANCH   2   3
ENDBRANCH   1   2
BRANCH   1  21
ATOM     21  C   UNL A   1      37.216  21.221  24.551  1.00  0.00     0.023 C 
BRANCH  21  22
ATOM     22  C   UNL A   1      38.235  21.161  25.681  1.00  0.00     0.116 C 
BRANCH  22  23
ATOM     23  N   UNL A   1      39.170  20.050  25.580  1.00  0.00    -0.352 N 
ATOM     24  C   UNL A   1      40.500  19.984  25.930  1.00  0.00     0.251 C 
ATOM     25  H   UNL A   1      38.795  19.220  25.205  1.00  0.00     0.163 HD
ATOM     26  O   UNL A   1      41.155  18.974  25.695  1.00  0.00    -0.269 OA
BRANCH  24  27
ATOM     27  C   UNL A   1      41.157  21.155  26.552  1.00  0.00     0.039 A 
ATOM     28  C   UNL A   1      41.758  22.110  25.727  1.00  0.00     0.014 A 
ATOM     29  C   UNL A   1      41.151  21.330  27.938  1.00  0.00     0.014 A 
ATOM     30  C   UNL A   1      42.262  23.289  26.283  1.00  0.00     0.010 A 
ATOM     31  C   UNL A   1      41.578  22.537  28.480  1.00  0.00     0.010 A 
ATOM     32  C   UNL A   1      42.128  23.534  27.659  1.00  0.00    -0.014 A 
BRANCH  32  33
ATOM     33  C   UNL A   1      42.544  24.824  28.267  1.00  0.00     0.031 A 
ATOM     34  C   UNL A   1      41.530  25.912  28.491  1.00  0.00     0.074 A 
ATOM     35  C   UNL A   1      43.846  25.054  28.528  1.00  0.00     0.049 A 
ATOM     36  N   UNL A   1      41.715  27.144  28.893  1.00  0.00    -0.248 NA
ATOM     37  C   UNL A   1      40.128  25.578  28.195  1.00  0.00     0.031 C 
ATOM     38  C   UNL A   1      44.938  24.103  28.319  1.00  0.00     0.029 A 
ATOM     39  N   UNL A   1      44.472  26.175  29.016  1.00  0.00    -0.354 N 
ATOM     40  C   UNL A   1      40.461  27.739  28.866  1.00  0.00     0.074 A 
ATOM     41  C   UNL A   1      39.531  26.747  28.372  1.00  0.00     0.031 C 
ATOM     42  C   UNL A   1      46.096  24.672  28.695  1.00  0.00     0.029 A 
ATOM     43  C   UNL A   1      45.835  26.039  29.132  1.00  0.00     0.049 A 
ATOM     44  H   UNL A   1      43.991  26.999  29.259  1.00  0.00     0.167 HD
ATOM     45  C   UNL A   1      40.109  28.994  29.234  1.00  0.00     0.031 A 
ATOM     46  C   UNL A   1      46.771  26.919  29.534  1.00  0.00     0.031 A 
ATOM     47  C   UNL A   1      41.025  29.975  29.750  1.00  0.00     0.049 A 
ATOM     48  C   UNL A   1      46.354  28.302  29.947  1.00  0.00     0.074 A 
ATOM     49  C   UNL A   1      40.752  31.252  30.208  1.00  0.00     0.029 A 
ATOM     50  N   UNL A   1      42.392  29.784  29.881  1.00  0.00    -0.354 N 
ATOM     51  N   UNL A   1      45.156  28.831  29.971  1.00  0.00    -0.248 NA
ATOM     52  C   UNL A   1      47.422  29.207  30.399  1.00  0.00     0.031 C 
ATOM     53  C   UNL A   1      41.962  31.848  30.583  1.00  0.00     0.029 A 
ATOM     54  C   UNL A   1      42.978  30.925  30.400  1.00  0.00     0.049 A 
ATOM     55  H   UNL A   1      42.872  28.960  29.640  1.00  0.00     0.167 HD
ATOM     56  C   UNL A   1      45.320  30.118  30.465  1.00  0.00     0.074 A 
ATOM     57  C   UNL A   1      46.732  30.287  30.739  1.00  0.00     0.031 C 
ATOM     58  C   UNL A   1      44.383  31.074  30.675  1.00  0.00     0.031 A 
BRANCH  45  59
ATOM     59  C   UNL A   1      38.664  29.375  29.085  1.00  0.00    -0.014 A 
ATOM     60  C   UNL A   1      38.158  29.841  27.862  1.00  0.00     0.009 A 
ATOM     61  C   UNL A   1      37.791  29.245  30.177  1.00  0.00     0.009 A 
ATOM     62  C   UNL A   1      36.815  30.206  27.746  1.00  0.00     0.001 A 
ATOM     63  C   UNL A   1      36.443  29.584  30.050  1.00  0.00     0.001 A 
ATOM     64  C   UNL A   1      35.958  30.074  28.838  1.00  0.00     0.000 A 
ENDBRANCH  45  59
BRANCH  46  65
ATOM     65  C   UNL A   1      48.199  26.514  29.587  1.00  0.00    -0.014 A 
ATOM     66  C   UNL A   1      49.050  26.775  28.503  1.00  0.00     0.009 A 
ATOM     67  C   UNL A   1      48.717  25.859  30.715  1.00  0.00     0.009 A 
ATOM     68  C   UNL A   1      50.386  26.368  28.535  1.00  0.00     0.001 A 
ATOM     69  C   UNL A   1      50.060  25.475  30.755  1.00  0.00     0.001 A 
ATOM     70  C   UNL A   1      50.890  25.721  29.662  1.00  0.00     0.000 A 
ENDBRANCH  46  65
BRANCH  58  71
ATOM     71  C   UNL A   1      44.846  32.373  31.270  1.00  0.00    -0.014 A 
ATOM     72  C   UNL A   1      44.909  32.555  32.659  1.00  0.00     0.009 A 
ATOM     73  C   UNL A   1      45.272  33.408  30.423  1.00  0.00     0.009 A 
ATOM     74  C   UNL A   1      45.365  33.764  33.189  1.00  0.00     0.001 A 
ATOM     75  C   UNL A   1      45.750  34.606  30.957  1.00  0.00     0.001 A 
ATOM     76  C   UNL A   1      45.789  34.785  32.339  1.00  0.00     0.000 A 
ENDBRANCH  58  71
ENDBRANCH  32  33
ENDBRANCH  24  27
ENDBRANCH  22  23
ENDBRANCH  21  22
ENDBRANCH   1  21
TORSDOF 14
ENDMDL
MODEL 3
REMARK VINA RESULT:     -10.6      2.348      6.896
REMARK SMILES O=C(/C=N/O)Nc1cccc(C(=O)NCCCCNC(=O)c2ccc(-c3c4nc(c(-c5ccccc5)c5ccc([nH]5)c(-c5ccccc5)c5nc(c(-c6ccccc6)c6ccc3[nH]6)C=C5)C=C4)cc2)c1
REMARK SMILES IDX 16 1 15 2 14 3 12 4 13 5 11 7 7 8 8 9 70 10 9 11 10 12 6 13
REMARK SMILES IDX 1 14 2 15 3 17 4 18 5 19 17 21 18 22 19 23 20 24 21 26 22 27
REMARK SMILES IDX 23 28 69 29 24 30 68 31 25 32 26 33 27 34 62 35 28 36 67 37
REMARK SMILES IDX 61 38 63 39 29 40 66 41 60 42 59 43 30 45 52 46 37 47 51 48
REMARK SMILES IDX 38 49 41 50 50 51 64 52 39 53 40 54 49 56 65 57 42 58 31 59
REMARK SMILES IDX 32 60 36 61 33 62 35 63 34 64 53 65 54 66 58 67 55 68 57 69
REMARK SMILES IDX 56 70 43 71 44 72 48 73 45 74 47 75 46 76
REMARK H PARENT 14 6 6 16 5 20 19 25 63 44 41 55
REMARK Flexibility Score: inf
ROOT
ATOM      1  C   UNL A   1      33.376  29.317  25.098  1.00  0.00     0.023 C 
ENDROOT
BRANCH   1   2
ATOM      2  C   UNL A   1      33.437  27.806  25.284  1.00  0.00     0.116 C 
BRANCH   2   3
ATOM      3  N   UNL A   1      33.827  27.056  24.096  1.00  0.00    -0.352 N 
ATOM      4  C   UNL A   1      33.063  26.645  23.019  1.00  0.00     0.251 C 
ATOM      5  O   UNL A   1      33.587  26.002  22.114  1.00  0.00    -0.269 OA
ATOM      6  H   UNL A   1      34.778  26.805  24.054  1.00  0.00     0.163 HD
BRANCH   4   7
ATOM      7  C   UNL A   1      31.601  26.902  22.987  1.00  0.00     0.041 A 
ATOM      8  C   UNL A   1      29.801  28.511  22.922  1.00  0.00     0.042 A 
ATOM      9  C   UNL A   1      28.927  27.537  23.416  1.00  0.00     0.026 A 
ATOM     10  C   UNL A   1      31.098  28.138  22.582  1.00  0.00     0.040 A 
ATOM     11  C   UNL A   1      29.380  26.234  23.649  1.00  0.00     0.003 A 
ATOM     12  C   UNL A   1      30.728  25.924  23.470  1.00  0.00     0.014 A 
BRANCH   8  13
ATOM     13  N   UNL A   1      29.388  29.858  22.946  1.00  0.00    -0.321 N 
ATOM     14  O   UNL A   1      28.101  30.055  20.982  1.00  0.00    -0.268 OA
ATOM     15  C   UNL A   1      28.691  30.516  21.951  1.00  0.00     0.270 C 
ATOM     16  H   UNL A   1      29.618  30.381  23.749  1.00  0.00     0.170 HD
BRANCH  15  17
ATOM     17  C   UNL A   1      28.743  32.016  22.058  1.00  0.00     0.225 C 
ATOM     18  N   UNL A   1      27.997  32.638  22.914  1.00  0.00    -0.092 NA
BRANCH  18  19
ATOM     19  O   UNL A   1      28.303  34.003  22.854  1.00  0.00    -0.411 OA
ATOM     20  H   UNL A   1      28.310  34.446  22.028  1.00  0.00     0.330 HD
ENDBRANCH  18  19
ENDBRANCH  15  17
ENDBRANCH   8  13
ENDBRANCH   4   7
ENDBRANCH   2   3
ENDBRANCH   1   2
BRANCH   1  21
ATOM     21  C   UNL A   1      32.305  30.052  25.893  1.00  0.00     0.023 C 
BRANCH  21  22
ATOM     22  C   UNL A   1      32.772  30.727  27.176  1.00  0.00     0.116 C 
BRANCH  22  23
ATOM     23  N   UNL A   1      32.364  32.120  27.296  1.00  0.00    -0.352 N 
ATOM     24  C   UNL A   1      33.017  33.180  27.885  1.00  0.00     0.251 C 
ATOM     25  H   UNL A   1      31.492  32.336  26.896  1.00  0.00     0.163 HD
ATOM     26  O   UNL A   1      32.476  34.278  27.960  1.00  0.00    -0.269 OA
BRANCH  24  27
ATOM     27  C   UNL A   1      34.360  32.983  28.472  1.00  0.00     0.039 A 
ATOM     28  C   UNL A   1      34.469  32.340  29.709  1.00  0.00     0.014 A 
ATOM     29  C   UNL A   1      35.509  33.398  27.795  1.00  0.00     0.014 A 
ATOM     30  C   UNL A   1      35.732  32.022  30.217  1.00  0.00     0.010 A 
ATOM     31  C   UNL A   1      36.760  33.009  28.260  1.00  0.00     0.010 A 
ATOM     32  C   UNL A   1      36.886  32.309  29.470  1.00  0.00    -0.014 A 
BRANCH  32  33
ATOM     33  C   UNL A   1      38.235  31.880  29.921  1.00  0.00     0.031 A 
ATOM     34  C   UNL A   1      38.834  30.603  29.398  1.00  0.00     0.074 A 
ATOM     35  C   UNL A   1      38.881  32.586  30.870  1.00  0.00     0.049 A 
ATOM     36  N   UNL A   1      39.937  29.999  29.760  1.00  0.00    -0.248 NA
ATOM     37  C   UNL A   1      38.074  29.898  28.353  1.00  0.00     0.031 C 
ATOM     38  C   UNL A   1      38.397  33.819  31.493  1.00  0.00     0.029 A 
ATOM     39  N   UNL A   1      40.085  32.354  31.489  1.00  0.00    -0.354 N 
ATOM     40  C   UNL A   1      39.986  28.830  29.011  1.00  0.00     0.074 A 
ATOM     41  C   UNL A   1      38.785  28.790  28.206  1.00  0.00     0.031 C 
ATOM     42  C   UNL A   1      39.303  34.246  32.389  1.00  0.00     0.029 A 
ATOM     43  C   UNL A   1      40.411  33.297  32.434  1.00  0.00     0.049 A 
ATOM     44  H   UNL A   1      40.661  31.584  31.275  1.00  0.00     0.167 HD
ATOM     45  C   UNL A   1      40.952  27.882  28.983  1.00  0.00     0.031 A 
ATOM     46  C   UNL A   1      41.475  33.384  33.252  1.00  0.00     0.031 A 
ATOM     47  C   UNL A   1      42.160  27.930  29.762  1.00  0.00     0.049 A 
ATOM     48  C   UNL A   1      42.539  32.323  33.195  1.00  0.00     0.074 A 
ATOM     49  C   UNL A   1      43.226  27.046  29.755  1.00  0.00     0.029 A 
ATOM     50  N   UNL A   1      42.463  28.920  30.683  1.00  0.00    -0.354 N 
ATOM     51  N   UNL A   1      42.598  31.254  32.441  1.00  0.00    -0.248 NA
ATOM     52  C   UNL A   1      43.687  32.489  34.098  1.00  0.00     0.031 C 
ATOM     53  C   UNL A   1      44.160  27.484  30.701  1.00  0.00     0.029 A 
ATOM     54  C   UNL A   1      43.694  28.662  31.261  1.00  0.00     0.049 A 
ATOM     55  H   UNL A   1      41.890  29.690  30.894  1.00  0.00     0.167 HD
ATOM     56  C   UNL A   1      43.801  30.635  32.756  1.00  0.00     0.074 A 
ATOM     57  C   UNL A   1      44.445  31.453  33.762  1.00  0.00     0.031 C 
ATOM     58  C   UNL A   1      44.325  29.491  32.255  1.00  0.00     0.031 A 
BRANCH  45  59
ATOM     59  C   UNL A   1      40.733  26.703  28.077  1.00  0.00    -0.014 A 
ATOM     60  C   UNL A   1      41.227  26.697  26.763  1.00  0.00     0.009 A 
ATOM     61  C   UNL A   1      40.043  25.577  28.551  1.00  0.00     0.009 A 
ATOM     62  C   UNL A   1      41.000  25.600  25.929  1.00  0.00     0.001 A 
ATOM     63  C   UNL A   1      39.843  24.470  27.722  1.00  0.00     0.001 A 
ATOM     64  C   UNL A   1      40.312  24.487  26.410  1.00  0.00     0.000 A 
ENDBRANCH  45  59
BRANCH  46  65
ATOM     65  C   UNL A   1      41.604  34.531  34.188  1.00  0.00    -0.014 A 
ATOM     66  C   UNL A   1      41.089  34.444  35.490  1.00  0.00     0.009 A 
ATOM     67  C   UNL A   1      42.234  35.718  33.784  1.00  0.00     0.009 A 
ATOM     68  C   UNL A   1      41.179  35.531  36.362  1.00  0.00     0.001 A 
ATOM     69  C   UNL A   1      42.345  36.795  34.666  1.00  0.00     0.001 A 
ATOM     70  C   UNL A   1      41.809  36.704  35.951  1.00  0.00     0.000 A 
ENDBRANCH  46  65
BRANCH  58  71
ATOM     71  C   UNL A   1      45.681  29.079  32.752  1.00  0.00    -0.014 A 
ATOM     72  C   UNL A   1      45.822  28.233  33.862  1.00  0.00     0.009 A 
ATOM     73  C   UNL A   1      46.828  29.507  32.067  1.00  0.00     0.009 A 
ATOM     74  C   UNL A   1      47.093  27.845  34.292  1.00  0.00     0.001 A 
ATOM     75  C   UNL A   1      48.095  29.098  32.486  1.00  0.00     0.001 A 
ATOM     76  C   UNL A   1      48.227  28.274  33.602  1.00  0.00     0.000 A 
ENDBRANCH  58  71
ENDBRANCH  32  33
ENDBRANCH  24  27
ENDBRANCH  22  23
ENDBRANCH  21  22
ENDBRANCH   1  21
TORSDOF 14
ENDMDL
