MODEL 1
REMARK VINA RESULT:     -12.0      0.000      0.000
REMARK SMILES Nn1c(S[C@@H](C(=O)NCCCCNC(=O)c2ccc(-c3c4nc(c(-c5ccccc5)c5ccc([nH]5)c(-c5ccccc5)c5nc(c(-c6ccccc6)c6ccc3[nH]6)C=C5)C=C4)cc2)c2ccccc2)nc2ccc(Br)cc2c1=O
REMARK SMILES IDX 10 1 9 2 8 3 6 4 7 5 5 7 4 8 3 9 2 10 78 11 70 12 77 13
REMARK SMILES IDX 79 14 71 15 76 16 72 17 74 18 73 19 75 20 1 21 64 24 65 25
REMARK SMILES IDX 69 26 66 27 68 28 67 29 11 30 12 31 13 32 14 33 15 35 16 36
REMARK SMILES IDX 17 37 63 38 18 39 62 40 19 41 20 42 21 43 56 44 22 45 61 46
REMARK SMILES IDX 55 47 57 48 23 49 60 50 54 51 53 52 24 54 46 55 31 56 45 57
REMARK SMILES IDX 32 58 35 59 44 60 58 61 33 62 34 63 43 65 59 66 36 67 25 68
REMARK SMILES IDX 26 69 30 70 27 71 29 72 28 73 47 74 48 75 52 76 49 77 51 78
REMARK SMILES IDX 50 79 37 80 38 81 42 82 39 83 41 84 40 85
REMARK H PARENT 8 6 1 22 1 23 13 34 57 53 35 64
REMARK Flexibility Score: inf
ROOT
ATOM      1  C   UNL A   1      38.203  21.860  25.232  1.00  0.00     0.023 C 
ENDROOT
BRANCH   1   2
ATOM      2  C   UNL A   1      36.818  22.505  25.120  1.00  0.00     0.116 C 
BRANCH   2   3
ATOM      3  N   UNL A   1      35.915  22.064  26.166  1.00  0.00    -0.355 N 
ATOM      4  C   UNL A   1      34.818  21.238  26.136  1.00  0.00     0.238 C 
ATOM      5  O   UNL A   1      34.283  21.087  27.240  1.00  0.00    -0.273 OA
ATOM      6  H   UNL A   1      36.127  22.421  27.059  1.00  0.00     0.163 HD
BRANCH   4   7
ATOM      7  C   UNL A   1      34.373  20.540  24.820  1.00  0.00     0.174 C 
BRANCH   7   8
ATOM      8  S   UNL A   1      33.212  21.595  23.902  1.00  0.00    -0.068 SA
BRANCH   8   9
ATOM      9  C   UNL A   1      32.673  22.992  24.800  1.00  0.00     0.191 A 
ATOM     10  N   UNL A   1      31.582  23.054  25.662  1.00  0.00    -0.202 N 
ATOM     11  C   UNL A   1      31.232  24.233  26.330  1.00  0.00     0.280 A 
ATOM     12  N   UNL A   1      33.434  24.021  24.579  1.00  0.00    -0.222 NA
ATOM     13  C   UNL A   1      32.068  25.407  26.057  1.00  0.00     0.069 A 
ATOM     14  O   UNL A   1      30.276  24.324  27.101  1.00  0.00    -0.267 OA
ATOM     15  C   UNL A   1      33.142  25.242  25.189  1.00  0.00     0.079 A 
ATOM     16  C   UNL A   1      31.779  26.648  26.634  1.00  0.00     0.031 A 
ATOM     17  C   UNL A   1      33.949  26.344  24.900  1.00  0.00     0.030 A 
ATOM     18  C   UNL A   1      32.587  27.738  26.328  1.00  0.00     0.018 A 
ATOM     19  C   UNL A   1      33.674  27.592  25.466  1.00  0.00     0.018 A 
ATOM     20  Br  UNL A   1      32.206  29.427  27.081  1.00  0.00    -0.051 Br
BRANCH  10  21
ATOM     21  N   UNL A   1      30.732  21.970  25.899  1.00  0.00    -0.334 N 
ATOM     22  H   UNL A   1      29.977  21.794  25.291  1.00  0.00     0.178 HD
ATOM     23  H   UNL A   1      30.887  21.383  26.673  1.00  0.00     0.178 HD
ENDBRANCH  10  21
ENDBRANCH   8   9
ENDBRANCH   7   8
BRANCH   7  24
ATOM     24  C   UNL A   1      34.011  19.044  24.813  1.00  0.00    -0.025 A 
ATOM     25  C   UNL A   1      34.875  18.048  24.329  1.00  0.00     0.005 A 
ATOM     26  C   UNL A   1      32.744  18.618  25.273  1.00  0.00     0.005 A 
ATOM     27  C   UNL A   1      34.542  16.691  24.414  1.00  0.00     0.000 A 
ATOM     28  C   UNL A   1      32.408  17.263  25.353  1.00  0.00     0.000 A 
ATOM     29  C   UNL A   1      33.317  16.298  24.941  1.00  0.00     0.000 A 
ENDBRANCH   7  24
ENDBRANCH   4   7
ENDBRANCH   2   3
ENDBRANCH   1   2
BRANCH   1  30
ATOM     30  C   UNL A   1      38.250  20.352  24.988  1.00  0.00     0.023 C 
BRANCH  30  31
ATOM     31  C   UNL A   1      38.943  19.529  26.065  1.00  0.00     0.116 C 
BRANCH  31  32
ATOM     32  N   UNL A   1      40.255  19.044  25.672  1.00  0.00    -0.352 N 
ATOM     33  C   UNL A   1      41.488  19.649  25.780  1.00  0.00     0.251 C 
ATOM     34  H   UNL A   1      40.265  18.146  25.267  1.00  0.00     0.163 HD
ATOM     35  O   UNL A   1      42.476  19.107  25.302  1.00  0.00    -0.269 OA
BRANCH  33  36
ATOM     36  C   UNL A   1      41.613  20.974  26.429  1.00  0.00     0.039 A 
ATOM     37  C   UNL A   1      41.814  22.133  25.679  1.00  0.00     0.014 A 
ATOM     38  C   UNL A   1      41.537  21.055  27.824  1.00  0.00     0.014 A 
ATOM     39  C   UNL A   1      42.120  23.327  26.321  1.00  0.00     0.010 A 
ATOM     40  C   UNL A   1      41.747  22.280  28.467  1.00  0.00     0.010 A 
ATOM     41  C   UNL A   1      42.093  23.416  27.724  1.00  0.00    -0.014 A 
BRANCH  41  42
ATOM     42  C   UNL A   1      42.418  24.717  28.367  1.00  0.00     0.031 A 
ATOM     43  C   UNL A   1      43.835  25.087  28.712  1.00  0.00     0.074 A 
ATOM     44  C   UNL A   1      41.428  25.611  28.561  1.00  0.00     0.049 A 
ATOM     45  N   UNL A   1      44.302  26.231  29.150  1.00  0.00    -0.248 NA
ATOM     46  C   UNL A   1      44.863  24.047  28.550  1.00  0.00     0.031 C 
ATOM     47  C   UNL A   1      40.013  25.371  28.269  1.00  0.00     0.029 A 
ATOM     48  N   UNL A   1      41.462  26.912  28.997  1.00  0.00    -0.354 N 
ATOM     49  C   UNL A   1      45.668  26.047  29.318  1.00  0.00     0.074 A 
ATOM     50  C   UNL A   1      45.952  24.670  28.979  1.00  0.00     0.031 C 
ATOM     51  C   UNL A   1      39.331  26.511  28.448  1.00  0.00     0.029 A 
ATOM     52  C   UNL A   1      40.243  27.543  28.929  1.00  0.00     0.049 A 
ATOM     53  H   UNL A   1      42.279  27.350  29.327  1.00  0.00     0.167 HD
ATOM     54  C   UNL A   1      46.605  26.947  29.704  1.00  0.00     0.031 A 
ATOM     55  C   UNL A   1      39.891  28.811  29.210  1.00  0.00     0.031 A 
ATOM     56  C   UNL A   1      46.322  28.317  30.045  1.00  0.00     0.049 A 
ATOM     57  C   UNL A   1      40.940  29.778  29.676  1.00  0.00     0.074 A 
ATOM     58  C   UNL A   1      47.211  29.308  30.427  1.00  0.00     0.029 A 
ATOM     59  N   UNL A   1      45.060  28.891  30.048  1.00  0.00    -0.354 N 
ATOM     60  N   UNL A   1      42.231  29.594  29.804  1.00  0.00    -0.248 NA
ATOM     61  C   UNL A   1      40.484  31.127  30.035  1.00  0.00     0.031 C 
ATOM     62  C   UNL A   1      46.480  30.460  30.724  1.00  0.00     0.029 A 
ATOM     63  C   UNL A   1      45.143  30.212  30.456  1.00  0.00     0.049 A 
ATOM     64  H   UNL A   1      44.227  28.428  29.797  1.00  0.00     0.167 HD
ATOM     65  C   UNL A   1      42.744  30.802  30.256  1.00  0.00     0.074 A 
ATOM     66  C   UNL A   1      41.629  31.721  30.349  1.00  0.00     0.031 C 
ATOM     67  C   UNL A   1      44.025  31.114  30.571  1.00  0.00     0.031 A 
BRANCH  54  68
ATOM     68  C   UNL A   1      48.035  26.483  29.788  1.00  0.00    -0.014 A 
ATOM     69  C   UNL A   1      48.862  26.553  28.654  1.00  0.00     0.009 A 
ATOM     70  C   UNL A   1      48.543  25.903  30.962  1.00  0.00     0.009 A 
ATOM     71  C   UNL A   1      50.162  26.045  28.692  1.00  0.00     0.001 A 
ATOM     72  C   UNL A   1      49.855  25.424  31.004  1.00  0.00     0.001 A 
ATOM     73  C   UNL A   1      50.659  25.487  29.868  1.00  0.00     0.000 A 
ENDBRANCH  54  68
BRANCH  55  74
ATOM     74  C   UNL A   1      38.478  29.230  29.022  1.00  0.00    -0.014 A 
ATOM     75  C   UNL A   1      38.035  29.718  27.781  1.00  0.00     0.009 A 
ATOM     76  C   UNL A   1      37.583  29.214  30.101  1.00  0.00     0.009 A 
ATOM     77  C   UNL A   1      36.738  30.212  27.634  1.00  0.00     0.001 A 
ATOM     78  C   UNL A   1      36.275  29.680  29.943  1.00  0.00     0.001 A 
ATOM     79  C   UNL A   1      35.859  30.190  28.714  1.00  0.00     0.000 A 
ENDBRANCH  55  74
BRANCH  67  80
ATOM     80  C   UNL A   1      44.299  32.509  31.064  1.00  0.00    -0.014 A 
ATOM     81  C   UNL A   1      44.644  33.521  30.154  1.00  0.00     0.009 A 
ATOM     82  C   UNL A   1      44.295  32.804  32.437  1.00  0.00     0.009 A 
ATOM     83  C   UNL A   1      44.988  34.795  30.606  1.00  0.00     0.001 A 
ATOM     84  C   UNL A   1      44.608  34.089  32.885  1.00  0.00     0.001 A 
ATOM     85  C   UNL A   1      44.964  35.080  31.971  1.00  0.00     0.000 A 
ENDBRANCH  67  80
ENDBRANCH  41  42
ENDBRANCH  33  36
ENDBRANCH  31  32
ENDBRANCH  30  31
ENDBRANCH   1  30
TORSDOF 15
ENDMDL
MODEL 2
REMARK VINA RESULT:     -11.8      0.602      5.797
REMARK SMILES Nn1c(S[C@@H](C(=O)NCCCCNC(=O)c2ccc(-c3c4nc(c(-c5ccccc5)c5ccc([nH]5)c(-c5ccccc5)c5nc(c(-c6ccccc6)c6ccc3[nH]6)C=C5)C=C4)cc2)c2ccccc2)nc2ccc(Br)cc2c1=O
REMARK SMILES IDX 10 1 9 2 8 3 6 4 7 5 5 7 4 8 3 9 2 10 78 11 70 12 77 13
REMARK SMILES IDX 79 14 71 15 76 16 72 17 74 18 73 19 75 20 1 21 64 24 65 25
REMARK SMILES IDX 69 26 66 27 68 28 67 29 11 30 12 31 13 32 14 33 15 35 16 36
REMARK SMILES IDX 17 37 63 38 18 39 62 40 19 41 20 42 21 43 56 44 22 45 61 46
REMARK SMILES IDX 55 47 57 48 23 49 60 50 54 51 53 52 24 54 46 55 31 56 45 57
REMARK SMILES IDX 32 58 35 59 44 60 58 61 33 62 34 63 43 65 59 66 36 67 25 68
REMARK SMILES IDX 26 69 30 70 27 71 29 72 28 73 47 74 48 75 52 76 49 77 51 78
REMARK SMILES IDX 50 79 37 80 38 81 42 82 39 83 41 84 40 85
REMARK H PARENT 8 6 1 22 1 23 13 34 57 53 35 64
REMARK Flexibility Score: inf
ROOT
ATOM      1  C   UNL A   1      37.309  21.054  24.418  1.00  0.00     0.023 C 
ENDROOT
BRANCH   1   2
ATOM      2  C   UNL A   1      36.956  22.214  25.355  1.00  0.00     0.116 C 
BRANCH   2   3
ATOM      3  N   UNL A   1      35.906  21.868  26.295  1.00  0.00    -0.355 N 
ATOM      4  C   UNL A   1      34.739  21.162  26.138  1.00  0.00     0.238 C 
ATOM      5  O   UNL A   1      34.076  21.065  27.176  1.00  0.00    -0.273 OA
ATOM      6  H   UNL A   1      36.057  22.199  27.209  1.00  0.00     0.163 HD
BRANCH   4   7
ATOM      7  C   UNL A   1      34.367  20.516  24.773  1.00  0.00     0.174 C 
BRANCH   7   8
ATOM      8  S   UNL A   1      33.306  21.633  23.809  1.00  0.00    -0.068 SA
BRANCH   8   9
ATOM      9  C   UNL A   1      32.744  23.018  24.711  1.00  0.00     0.191 A 
ATOM     10  N   UNL A   1      31.739  23.029  25.675  1.00  0.00    -0.202 N 
ATOM     11  C   UNL A   1      31.361  24.203  26.336  1.00  0.00     0.280 A 
ATOM     12  N   UNL A   1      33.394  24.094  24.383  1.00  0.00    -0.222 NA
ATOM     13  C   UNL A   1      32.067  25.426  25.943  1.00  0.00     0.069 A 
ATOM     14  O   UNL A   1      30.479  24.250  27.195  1.00  0.00    -0.267 OA
ATOM     15  C   UNL A   1      33.063  25.311  24.978  1.00  0.00     0.079 A 
ATOM     16  C   UNL A   1      31.735  26.663  26.506  1.00  0.00     0.031 A 
ATOM     17  C   UNL A   1      33.745  26.461  24.575  1.00  0.00     0.030 A 
ATOM     18  C   UNL A   1      32.419  27.800  26.087  1.00  0.00     0.018 A 
ATOM     19  C   UNL A   1      33.425  27.705  25.126  1.00  0.00     0.018 A 
ATOM     20  Br  UNL A   1      31.974  29.483  26.818  1.00  0.00    -0.051 Br
BRANCH  10  21
ATOM     21  N   UNL A   1      31.008  21.893  26.030  1.00  0.00    -0.334 N 
ATOM     22  H   UNL A   1      30.291  21.564  25.439  1.00  0.00     0.178 HD
ATOM     23  H   UNL A   1      31.207  21.421  26.870  1.00  0.00     0.178 HD
ENDBRANCH  10  21
ENDBRANCH   8   9
ENDBRANCH   7   8
BRANCH   7  24
ATOM     24  C   UNL A   1      33.962  19.033  24.695  1.00  0.00    -0.025 A 
ATOM     25  C   UNL A   1      34.847  18.015  24.303  1.00  0.00     0.005 A 
ATOM     26  C   UNL A   1      32.635  18.642  24.989  1.00  0.00     0.005 A 
ATOM     27  C   UNL A   1      34.464  16.668  24.323  1.00  0.00     0.000 A 
ATOM     28  C   UNL A   1      32.250  17.299  25.003  1.00  0.00     0.000 A 
ATOM     29  C   UNL A   1      33.171  16.309  24.688  1.00  0.00     0.000 A 
ENDBRANCH   7  24
ENDBRANCH   4   7
ENDBRANCH   2   3
ENDBRANCH   1   2
BRANCH   1  30
ATOM     30  C   UNL A   1      38.105  19.913  25.051  1.00  0.00     0.023 C 
BRANCH  30  31
ATOM     31  C   UNL A   1      39.238  20.332  25.977  1.00  0.00     0.116 C 
BRANCH  31  32
ATOM     32  N   UNL A   1      40.325  19.369  26.038  1.00  0.00    -0.352 N 
ATOM     33  C   UNL A   1      41.654  19.557  26.347  1.00  0.00     0.251 C 
ATOM     34  H   UNL A   1      40.073  18.441  25.827  1.00  0.00     0.163 HD
ATOM     35  O   UNL A   1      42.439  18.623  26.255  1.00  0.00    -0.269 OA
BRANCH  33  36
ATOM     36  C   UNL A   1      42.144  20.897  26.745  1.00  0.00     0.039 A 
ATOM     37  C   UNL A   1      42.198  21.280  28.085  1.00  0.00     0.014 A 
ATOM     38  C   UNL A   1      42.551  21.793  25.750  1.00  0.00     0.014 A 
ATOM     39  C   UNL A   1      42.477  22.602  28.415  1.00  0.00     0.010 A 
ATOM     40  C   UNL A   1      42.927  23.096  26.093  1.00  0.00     0.010 A 
ATOM     41  C   UNL A   1      42.843  23.528  27.423  1.00  0.00    -0.014 A 
BRANCH  41  42
ATOM     42  C   UNL A   1      43.142  24.929  27.824  1.00  0.00     0.031 A 
ATOM     43  C   UNL A   1      42.041  25.924  28.069  1.00  0.00     0.074 A 
ATOM     44  C   UNL A   1      44.423  25.279  28.055  1.00  0.00     0.049 A 
ATOM     45  N   UNL A   1      42.125  27.140  28.552  1.00  0.00    -0.248 NA
ATOM     46  C   UNL A   1      40.670  25.512  27.729  1.00  0.00     0.031 C 
ATOM     47  C   UNL A   1      45.580  24.405  27.854  1.00  0.00     0.029 A 
ATOM     48  N   UNL A   1      44.963  26.437  28.556  1.00  0.00    -0.354 N 
ATOM     49  C   UNL A   1      40.828  27.635  28.569  1.00  0.00     0.074 A 
ATOM     50  C   UNL A   1      39.978  26.608  28.008  1.00  0.00     0.031 C 
ATOM     51  C   UNL A   1      46.679  25.022  28.309  1.00  0.00     0.029 A 
ATOM     52  C   UNL A   1      46.318  26.357  28.773  1.00  0.00     0.049 A 
ATOM     53  H   UNL A   1      44.433  27.245  28.741  1.00  0.00     0.167 HD
ATOM     54  C   UNL A   1      40.381  28.830  29.027  1.00  0.00     0.031 A 
ATOM     55  C   UNL A   1      47.179  27.249  29.297  1.00  0.00     0.031 A 
ATOM     56  C   UNL A   1      41.227  29.854  29.582  1.00  0.00     0.049 A 
ATOM     57  C   UNL A   1      46.666  28.582  29.759  1.00  0.00     0.074 A 
ATOM     58  C   UNL A   1      40.860  31.089  30.091  1.00  0.00     0.029 A 
ATOM     59  N   UNL A   1      42.606  29.767  29.703  1.00  0.00    -0.354 N 
ATOM     60  N   UNL A   1      45.433  29.022  29.792  1.00  0.00    -0.248 NA
ATOM     61  C   UNL A   1      47.663  29.539  30.254  1.00  0.00     0.031 C 
ATOM     62  C   UNL A   1      42.021  31.773  30.457  1.00  0.00     0.029 A 
ATOM     63  C   UNL A   1      43.107  30.938  30.247  1.00  0.00     0.049 A 
ATOM     64  H   UNL A   1      43.148  28.988  29.440  1.00  0.00     0.167 HD
ATOM     65  C   UNL A   1      45.503  30.307  30.313  1.00  0.00     0.074 A 
ATOM     66  C   UNL A   1      46.897  30.562  30.612  1.00  0.00     0.031 C 
ATOM     67  C   UNL A   1      44.499  31.195  30.518  1.00  0.00     0.031 A 
BRANCH  54  68
ATOM     68  C   UNL A   1      38.903  29.109  28.943  1.00  0.00    -0.014 A 
ATOM     69  C   UNL A   1      38.352  29.612  27.753  1.00  0.00     0.009 A 
ATOM     70  C   UNL A   1      38.069  28.951  30.061  1.00  0.00     0.009 A 
ATOM     71  C   UNL A   1      37.001  29.960  27.687  1.00  0.00     0.001 A 
ATOM     72  C   UNL A   1      36.712  29.272  29.983  1.00  0.00     0.001 A 
ATOM     73  C   UNL A   1      36.182  29.784  28.800  1.00  0.00     0.000 A 
ENDBRANCH  54  68
BRANCH  55  74
ATOM     74  C   UNL A   1      48.612  26.880  29.434  1.00  0.00    -0.014 A 
ATOM     75  C   UNL A   1      49.518  27.130  28.389  1.00  0.00     0.009 A 
ATOM     76  C   UNL A   1      49.067  26.211  30.579  1.00  0.00     0.009 A 
ATOM     77  C   UNL A   1      50.838  26.686  28.474  1.00  0.00     0.001 A 
ATOM     78  C   UNL A   1      50.398  25.795  30.674  1.00  0.00     0.001 A 
ATOM     79  C   UNL A   1      51.279  26.022  29.616  1.00  0.00     0.000 A 
ENDBRANCH  55  74
BRANCH  67  80
ATOM     80  C   UNL A   1      44.865  32.541  31.081  1.00  0.00    -0.014 A 
ATOM     81  C   UNL A   1      44.856  32.748  32.469  1.00  0.00     0.009 A 
ATOM     82  C   UNL A   1      45.142  33.627  30.236  1.00  0.00     0.009 A 
ATOM     83  C   UNL A   1      45.107  34.014  33.001  1.00  0.00     0.001 A 
ATOM     84  C   UNL A   1      45.423  34.886  30.770  1.00  0.00     0.001 A 
ATOM     85  C   UNL A   1      45.396  35.080  32.151  1.00  0.00     0.000 A 
ENDBRANCH  67  80
ENDBRANCH  41  42
ENDBRANCH  33  36
ENDBRANCH  31  32
ENDBRANCH  30  31
ENDBRANCH   1  30
TORSDOF 15
ENDMDL
MODEL 3
REMARK VINA RESULT:     -11.7      4.212      9.513
REMARK SMILES Nn1c(S[C@@H](C(=O)NCCCCNC(=O)c2ccc(-c3c4nc(c(-c5ccccc5)c5ccc([nH]5)c(-c5ccccc5)c5nc(c(-c6ccccc6)c6ccc3[nH]6)C=C5)C=C4)cc2)c2ccccc2)nc2ccc(Br)cc2c1=O
REMARK SMILES IDX 10 1 9 2 8 3 6 4 7 5 5 7 4 8 3 9 2 10 78 11 70 12 77 13
REMARK SMILES IDX 79 14 71 15 76 16 72 17 74 18 73 19 75 20 1 21 64 24 65 25
REMARK SMILES IDX 69 26 66 27 68 28 67 29 11 30 12 31 13 32 14 33 15 35 16 36
REMARK SMILES IDX 17 37 63 38 18 39 62 40 19 41 20 42 21 43 56 44 22 45 61 46
REMARK SMILES IDX 55 47 57 48 23 49 60 50 54 51 53 52 24 54 46 55 31 56 45 57
REMARK SMILES IDX 32 58 35 59 44 60 58 61 33 62 34 63 43 65 59 66 36 67 25 68
REMARK SMILES IDX 26 69 30 70 27 71 29 72 28 73 47 74 48 75 52 76 49 77 51 78
REMARK SMILES IDX 50 79 37 80 38 81 42 82 39 83 41 84 40 85
REMARK H PARENT 8 6 1 22 1 23 13 34 57 53 35 64
REMARK Flexibility Score: inf
ROOT
ATOM      1  C   UNL A   1      32.160  29.601  27.315  1.00  0.00     0.023 C 
ENDROOT
BRANCH   1   2
ATOM      2  C   UNL A   1      31.784  28.462  26.362  1.00  0.00     0.116 C 
BRANCH   2   3
ATOM      3  N   UNL A   1      32.297  28.669  25.020  1.00  0.00    -0.355 N 
ATOM      4  C   UNL A   1      31.659  28.853  23.819  1.00  0.00     0.238 C 
ATOM      5  O   UNL A   1      32.432  29.000  22.865  1.00  0.00    -0.273 OA
ATOM      6  H   UNL A   1      33.279  28.681  24.962  1.00  0.00     0.163 HD
BRANCH   4   7
ATOM      7  C   UNL A   1      30.108  28.920  23.733  1.00  0.00     0.174 C 
BRANCH   7   8
ATOM      8  S   UNL A   1      29.422  27.286  23.329  1.00  0.00    -0.068 SA
BRANCH   8   9
ATOM      9  C   UNL A   1      30.613  26.010  23.313  1.00  0.00     0.191 A 
ATOM     10  N   UNL A   1      31.616  25.822  22.367  1.00  0.00    -0.202 N 
ATOM     11  C   UNL A   1      32.519  24.756  22.446  1.00  0.00     0.280 A 
ATOM     12  N   UNL A   1      30.469  25.214  24.330  1.00  0.00    -0.222 NA
ATOM     13  C   UNL A   1      32.338  23.834  23.572  1.00  0.00     0.069 A 
ATOM     14  O   UNL A   1      33.419  24.560  21.629  1.00  0.00    -0.267 OA
ATOM     15  C   UNL A   1      31.314  24.112  24.471  1.00  0.00     0.079 A 
ATOM     16  C   UNL A   1      33.155  22.708  23.721  1.00  0.00     0.031 A 
ATOM     17  C   UNL A   1      31.109  23.246  25.547  1.00  0.00     0.030 A 
ATOM     18  C   UNL A   1      32.932  21.851  24.793  1.00  0.00     0.018 A 
ATOM     19  C   UNL A   1      31.915  22.115  25.710  1.00  0.00     0.018 A 
ATOM     20  Br  UNL A   1      34.009  20.314  25.004  1.00  0.00    -0.051 Br
BRANCH  10  21
ATOM     21  N   UNL A   1      31.779  26.647  21.251  1.00  0.00    -0.334 N 
ATOM     22  H   UNL A   1      31.485  26.339  20.363  1.00  0.00     0.178 HD
ATOM     23  H   UNL A   1      32.188  27.537  21.352  1.00  0.00     0.178 HD
ENDBRANCH  10  21
ENDBRANCH   8   9
ENDBRANCH   7   8
BRANCH   7  24
ATOM     24  C   UNL A   1      29.415  30.093  23.017  1.00  0.00    -0.025 A 
ATOM     25  C   UNL A   1      29.094  30.074  21.649  1.00  0.00     0.005 A 
ATOM     26  C   UNL A   1      29.103  31.275  23.727  1.00  0.00     0.005 A 
ATOM     27  C   UNL A   1      28.391  31.128  21.052  1.00  0.00     0.000 A 
ATOM     28  C   UNL A   1      28.407  32.330  23.130  1.00  0.00     0.000 A 
ATOM     29  C   UNL A   1      28.033  32.247  21.795  1.00  0.00     0.000 A 
ENDBRANCH   7  24
ENDBRANCH   4   7
ENDBRANCH   2   3
ENDBRANCH   1   2
BRANCH   1  30
ATOM     30  C   UNL A   1      31.777  31.005  26.848  1.00  0.00     0.023 C 
BRANCH  30  31
ATOM     31  C   UNL A   1      32.894  32.039  26.876  1.00  0.00     0.116 C 
BRANCH  31  32
ATOM     32  N   UNL A   1      32.482  33.325  27.415  1.00  0.00    -0.352 N 
ATOM     33  C   UNL A   1      33.088  34.119  28.362  1.00  0.00     0.251 C 
ATOM     34  H   UNL A   1      31.642  33.683  27.045  1.00  0.00     0.163 HD
ATOM     35  O   UNL A   1      32.531  35.137  28.752  1.00  0.00    -0.269 OA
BRANCH  33  36
ATOM     36  C   UNL A   1      34.390  33.720  28.947  1.00  0.00     0.039 A 
ATOM     37  C   UNL A   1      35.594  34.174  28.409  1.00  0.00     0.014 A 
ATOM     38  C   UNL A   1      34.402  32.864  30.054  1.00  0.00     0.014 A 
ATOM     39  C   UNL A   1      36.795  33.634  28.854  1.00  0.00     0.010 A 
ATOM     40  C   UNL A   1      35.618  32.398  30.564  1.00  0.00     0.010 A 
ATOM     41  C   UNL A   1      36.824  32.737  29.936  1.00  0.00    -0.014 A 
BRANCH  41  42
ATOM     42  C   UNL A   1      38.133  32.192  30.383  1.00  0.00     0.031 A 
ATOM     43  C   UNL A   1      38.869  32.786  31.553  1.00  0.00     0.074 A 
ATOM     44  C   UNL A   1      38.618  31.090  29.778  1.00  0.00     0.049 A 
ATOM     45  N   UNL A   1      39.950  32.347  32.152  1.00  0.00    -0.248 NA
ATOM     46  C   UNL A   1      38.334  34.031  32.126  1.00  0.00     0.031 C 
ATOM     47  C   UNL A   1      37.998  30.420  28.633  1.00  0.00     0.029 A 
ATOM     48  N   UNL A   1      39.709  30.310  30.069  1.00  0.00    -0.354 N 
ATOM     49  C   UNL A   1      40.223  33.259  33.163  1.00  0.00     0.074 A 
ATOM     50  C   UNL A   1      39.223  34.301  33.072  1.00  0.00     0.031 C 
ATOM     51  C   UNL A   1      38.664  29.286  28.376  1.00  0.00     0.029 A 
ATOM     52  C   UNL A   1      39.795  29.179  29.292  1.00  0.00     0.049 A 
ATOM     53  H   UNL A   1      40.367  30.537  30.766  1.00  0.00     0.167 HD
ATOM     54  C   UNL A   1      41.206  33.225  34.095  1.00  0.00     0.031 A 
ATOM     55  C   UNL A   1      40.674  28.160  29.314  1.00  0.00     0.031 A 
ATOM     56  C   UNL A   1      42.203  32.190  34.184  1.00  0.00     0.049 A 
ATOM     57  C   UNL A   1      41.780  28.166  30.329  1.00  0.00     0.074 A 
ATOM     58  C   UNL A   1      43.227  32.060  35.109  1.00  0.00     0.029 A 
ATOM     59  N   UNL A   1      42.307  31.109  33.322  1.00  0.00    -0.354 N 
ATOM     60  N   UNL A   1      42.006  29.022  31.294  1.00  0.00    -0.248 NA
ATOM     61  C   UNL A   1      42.749  27.065  30.258  1.00  0.00     0.031 C 
ATOM     62  C   UNL A   1      43.986  30.940  34.766  1.00  0.00     0.029 A 
ATOM     63  C   UNL A   1      43.395  30.327  33.673  1.00  0.00     0.049 A 
ATOM     64  H   UNL A   1      41.696  30.925  32.571  1.00  0.00     0.167 HD
ATOM     65  C   UNL A   1      43.143  28.565  31.948  1.00  0.00     0.074 A 
ATOM     66  C   UNL A   1      43.539  27.337  31.289  1.00  0.00     0.031 C 
ATOM     67  C   UNL A   1      43.799  29.120  32.996  1.00  0.00     0.031 A 
BRANCH  54  68
ATOM     68  C   UNL A   1      41.265  34.345  35.100  1.00  0.00    -0.014 A 
ATOM     69  C   UNL A   1      42.042  35.484  34.833  1.00  0.00     0.009 A 
ATOM     70  C   UNL A   1      40.619  34.242  36.342  1.00  0.00     0.009 A 
ATOM     71  C   UNL A   1      42.178  36.491  35.792  1.00  0.00     0.001 A 
ATOM     72  C   UNL A   1      40.733  35.265  37.287  1.00  0.00     0.001 A 
ATOM     73  C   UNL A   1      41.519  36.383  37.014  1.00  0.00     0.000 A 
ENDBRANCH  54  68
BRANCH  55  74
ATOM     74  C   UNL A   1      40.510  27.039  28.352  1.00  0.00    -0.014 A 
ATOM     75  C   UNL A   1      41.116  27.090  27.086  1.00  0.00     0.009 A 
ATOM     76  C   UNL A   1      39.688  25.948  28.667  1.00  0.00     0.009 A 
ATOM     77  C   UNL A   1      40.874  26.089  26.143  1.00  0.00     0.001 A 
ATOM     78  C   UNL A   1      39.473  24.932  27.732  1.00  0.00     0.001 A 
ATOM     79  C   UNL A   1      40.056  25.010  26.468  1.00  0.00     0.000 A 
ENDBRANCH  55  74
BRANCH  67  80
ATOM     80  C   UNL A   1      45.031  28.417  33.497  1.00  0.00    -0.014 A 
ATOM     81  C   UNL A   1      44.922  27.430  34.490  1.00  0.00     0.009 A 
ATOM     82  C   UNL A   1      46.308  28.785  33.044  1.00  0.00     0.009 A 
ATOM     83  C   UNL A   1      46.064  26.834  35.027  1.00  0.00     0.001 A 
ATOM     84  C   UNL A   1      47.447  28.164  33.560  1.00  0.00     0.001 A 
ATOM     85  C   UNL A   1      47.325  27.197  34.557  1.00  0.00     0.000 A 
ENDBRANCH  67  80
ENDBRANCH  41  42
ENDBRANCH  33  36
ENDBRANCH  31  32
ENDBRANCH  30  31
ENDBRANCH   1  30
TORSDOF 15
ENDMDL
