MODEL 1
REMARK VINA RESULT:     -10.5      0.000      0.000
REMARK SMILES C[C@@H]1SC[C@H](C(=O)NCCCCNC(=O)c2ccc(-c3c4nc(c(-c5ccccc5)c5ccc([nH]5)c(-c5ccccc5)c5nc(c(-c6ccccc6)c6ccc3[nH]6)C=C5)C=C4)cc2)N1C(=O)C[NH2+]CC(F)(F)F
REMARK SMILES IDX 9 1 8 2 6 3 7 4 5 6 1 7 2 8 3 9 64 10 4 11 65 12 66 13 67 14
REMARK SMILES IDX 68 15 69 18 70 19 71 20 72 21 73 22 10 23 11 24 12 25 13 26
REMARK SMILES IDX 14 27 15 29 16 30 17 31 63 32 18 33 62 34 19 35 20 36 21 37
REMARK SMILES IDX 56 38 22 39 61 40 55 41 57 42 23 43 60 44 54 45 53 46 24 48
REMARK SMILES IDX 46 49 31 50 45 51 32 52 35 53 44 54 58 55 33 56 34 57 43 59
REMARK SMILES IDX 59 60 36 61 25 62 26 63 30 64 27 65 29 66 28 67 47 68 48 69
REMARK SMILES IDX 52 70 49 71 51 72 50 73 37 74 38 75 42 76 39 77 41 78 40 79
REMARK H PARENT 8 5 68 16 68 17 13 28 57 47 35 58
REMARK Flexibility Score: inf
ROOT
ATOM      1  C   UNL A   1      33.262  29.143  26.036  1.00  0.00     0.116 C 
ENDROOT
BRANCH   1   2
ATOM      2  N   UNL A   1      33.607  29.384  24.650  1.00  0.00    -0.354 N 
ATOM      3  C   UNL A   1      33.593  28.534  23.583  1.00  0.00     0.243 C 
ATOM      4  O   UNL A   1      34.218  28.889  22.578  1.00  0.00    -0.273 OA
ATOM      5  H   UNL A   1      33.895  30.302  24.447  1.00  0.00     0.163 HD
BRANCH   3   6
ATOM      6  C   UNL A   1      33.017  27.106  23.685  1.00  0.00     0.185 C 
ATOM      7  C   UNL A   1      30.141  25.908  25.716  1.00  0.00     0.043 C 
ATOM      8  C   UNL A   1      31.173  25.758  24.602  1.00  0.00     0.141 C 
ATOM      9  S   UNL A   1      32.694  25.054  25.332  1.00  0.00    -0.135 SA
ATOM     10  N   UNL A   1      31.564  26.987  23.907  1.00  0.00    -0.313 N 
ATOM     11  C   UNL A   1      33.763  26.405  24.812  1.00  0.00     0.107 C 
BRANCH  10  12
ATOM     12  C   UNL A   1      30.747  27.654  22.999  1.00  0.00     0.279 C 
ATOM     13  O   UNL A   1      30.710  27.336  21.807  1.00  0.00    -0.268 OA
BRANCH  12  14
ATOM     14  C   UNL A   1      29.914  28.849  23.466  1.00  0.00     0.362 C 
BRANCH  14  15
ATOM     15  N   UNL A   1      30.285  30.043  22.691  1.00  0.00    -0.331 N 
ATOM     16  H   UNL A   1      30.792  29.753  21.855  1.00  0.00     0.346 HD
ATOM     17  H   UNL A   1      30.868  30.639  23.279  1.00  0.00     0.346 HD
BRANCH  15  18
ATOM     18  C   UNL A   1      29.085  30.821  22.284  1.00  0.00     0.378 C 
BRANCH  18  19
ATOM     19  C   UNL A   1      28.506  31.878  23.246  1.00  0.00     0.438 C 
ATOM     20  F   UNL A   1      27.265  31.533  23.653  1.00  0.00    -0.165 F 
ATOM     21  F   UNL A   1      29.283  32.003  24.344  1.00  0.00    -0.165 F 
ATOM     22  F   UNL A   1      28.431  33.091  22.657  1.00  0.00    -0.165 F 
ENDBRANCH  18  19
ENDBRANCH  15  18
ENDBRANCH  14  15
ENDBRANCH  12  14
ENDBRANCH  10  12
ENDBRANCH   3   6
ENDBRANCH   1   2
BRANCH   1  23
ATOM     23  C   UNL A   1      31.835  29.599  26.332  1.00  0.00     0.023 C 
BRANCH  23  24
ATOM     24  C   UNL A   1      31.668  31.112  26.479  1.00  0.00     0.023 C 
BRANCH  24  25
ATOM     25  C   UNL A   1      32.794  31.813  27.228  1.00  0.00     0.116 C 
BRANCH  25  26
ATOM     26  N   UNL A   1      32.476  33.195  27.558  1.00  0.00    -0.352 N 
ATOM     27  C   UNL A   1      33.162  34.072  28.360  1.00  0.00     0.251 C 
ATOM     28  H   UNL A   1      31.655  33.550  27.147  1.00  0.00     0.163 HD
ATOM     29  O   UNL A   1      32.674  35.160  28.648  1.00  0.00    -0.269 OA
BRANCH  27  30
ATOM     30  C   UNL A   1      34.481  33.683  28.903  1.00  0.00     0.039 A 
ATOM     31  C   UNL A   1      34.534  32.994  30.117  1.00  0.00     0.014 A 
ATOM     32  C   UNL A   1      35.655  33.973  28.203  1.00  0.00     0.014 A 
ATOM     33  C   UNL A   1      35.763  32.533  30.593  1.00  0.00     0.010 A 
ATOM     34  C   UNL A   1      36.866  33.445  28.638  1.00  0.00     0.010 A 
ATOM     35  C   UNL A   1      36.933  32.720  29.838  1.00  0.00    -0.014 A 
BRANCH  35  36
ATOM     36  C   UNL A   1      38.234  32.166  30.288  1.00  0.00     0.031 A 
ATOM     37  C   UNL A   1      38.715  30.843  29.757  1.00  0.00     0.074 A 
ATOM     38  C   UNL A   1      38.959  32.826  31.213  1.00  0.00     0.049 A 
ATOM     39  N   UNL A   1      39.793  30.170  30.072  1.00  0.00    -0.248 NA
ATOM     40  C   UNL A   1      37.864  30.178  28.756  1.00  0.00     0.031 C 
ATOM     41  C   UNL A   1      38.588  34.100  31.833  1.00  0.00     0.029 A 
ATOM     42  N   UNL A   1      40.161  32.512  31.796  1.00  0.00    -0.354 N 
ATOM     43  C   UNL A   1      39.746  29.007  29.313  1.00  0.00     0.074 A 
ATOM     44  C   UNL A   1      38.504  29.035  28.571  1.00  0.00     0.031 C 
ATOM     45  C   UNL A   1      39.556  34.471  32.687  1.00  0.00     0.029 A 
ATOM     46  C   UNL A   1      40.591  33.444  32.710  1.00  0.00     0.049 A 
ATOM     47  H   UNL A   1      40.667  31.695  31.581  1.00  0.00     0.167 HD
ATOM     48  C   UNL A   1      40.665  28.017  29.218  1.00  0.00     0.031 A 
ATOM     49  C   UNL A   1      41.692  33.464  33.486  1.00  0.00     0.031 A 
ATOM     50  C   UNL A   1      41.898  27.984  29.957  1.00  0.00     0.049 A 
ATOM     51  C   UNL A   1      42.674  32.327  33.393  1.00  0.00     0.074 A 
ATOM     52  C   UNL A   1      42.905  27.036  29.912  1.00  0.00     0.029 A 
ATOM     53  N   UNL A   1      42.295  28.947  30.872  1.00  0.00    -0.354 N 
ATOM     54  N   UNL A   1      42.641  31.265  32.627  1.00  0.00    -0.248 NA
ATOM     55  C   UNL A   1      43.855  32.404  34.266  1.00  0.00     0.031 C 
ATOM     56  C   UNL A   1      43.890  27.400  30.836  1.00  0.00     0.029 A 
ATOM     57  C   UNL A   1      43.523  28.606  31.411  1.00  0.00     0.049 A 
ATOM     58  H   UNL A   1      41.779  29.752  31.104  1.00  0.00     0.167 HD
ATOM     59  C   UNL A   1      43.809  30.564  32.901  1.00  0.00     0.074 A 
ATOM     60  C   UNL A   1      44.538  31.333  33.887  1.00  0.00     0.031 C 
ATOM     61  C   UNL A   1      44.241  29.389  32.383  1.00  0.00     0.031 A 
BRANCH  48  62
ATOM     62  C   UNL A   1      40.369  26.888  28.271  1.00  0.00    -0.014 A 
ATOM     63  C   UNL A   1      40.881  26.892  26.962  1.00  0.00     0.009 A 
ATOM     64  C   UNL A   1      39.610  25.788  28.699  1.00  0.00     0.009 A 
ATOM     65  C   UNL A   1      40.610  25.834  26.092  1.00  0.00     0.001 A 
ATOM     66  C   UNL A   1      39.366  24.717  27.835  1.00  0.00     0.001 A 
ATOM     67  C   UNL A   1      39.859  24.746  26.532  1.00  0.00     0.000 A 
ENDBRANCH  48  62
BRANCH  49  68
ATOM     68  C   UNL A   1      41.935  34.594  34.422  1.00  0.00    -0.014 A 
ATOM     69  C   UNL A   1      42.632  35.736  33.997  1.00  0.00     0.009 A 
ATOM     70  C   UNL A   1      41.512  34.518  35.758  1.00  0.00     0.009 A 
ATOM     71  C   UNL A   1      42.936  36.759  34.899  1.00  0.00     0.001 A 
ATOM     72  C   UNL A   1      41.786  35.557  36.650  1.00  0.00     0.001 A 
ATOM     73  C   UNL A   1      42.511  36.669  36.224  1.00  0.00     0.000 A 
ENDBRANCH  49  68
BRANCH  61  74
ATOM     74  C   UNL A   1      45.584  28.890  32.836  1.00  0.00    -0.014 A 
ATOM     75  C   UNL A   1      45.712  28.030  33.939  1.00  0.00     0.009 A 
ATOM     76  C   UNL A   1      46.736  29.259  32.124  1.00  0.00     0.009 A 
ATOM     77  C   UNL A   1      46.974  27.584  34.341  1.00  0.00     0.001 A 
ATOM     78  C   UNL A   1      47.991  28.786  32.509  1.00  0.00     0.001 A 
ATOM     79  C   UNL A   1      48.109  27.957  33.624  1.00  0.00     0.000 A 
ENDBRANCH  61  74
ENDBRANCH  35  36
ENDBRANCH  27  30
ENDBRANCH  25  26
ENDBRANCH  24  25
ENDBRANCH  23  24
ENDBRANCH   1  23
TORSDOF 16
ENDMDL
MODEL 2
REMARK VINA RESULT:     -10.4      0.618      6.003
REMARK SMILES C[C@@H]1SC[C@H](C(=O)NCCCCNC(=O)c2ccc(-c3c4nc(c(-c5ccccc5)c5ccc([nH]5)c(-c5ccccc5)c5nc(c(-c6ccccc6)c6ccc3[nH]6)C=C5)C=C4)cc2)N1C(=O)C[NH2+]CC(F)(F)F
REMARK SMILES IDX 9 1 8 2 6 3 7 4 5 6 1 7 2 8 3 9 64 10 4 11 65 12 66 13 67 14
REMARK SMILES IDX 68 15 69 18 70 19 71 20 72 21 73 22 10 23 11 24 12 25 13 26
REMARK SMILES IDX 14 27 15 29 16 30 17 31 63 32 18 33 62 34 19 35 20 36 21 37
REMARK SMILES IDX 56 38 22 39 61 40 55 41 57 42 23 43 60 44 54 45 53 46 24 48
REMARK SMILES IDX 46 49 31 50 45 51 32 52 35 53 44 54 58 55 33 56 34 57 43 59
REMARK SMILES IDX 59 60 36 61 25 62 26 63 30 64 27 65 29 66 28 67 47 68 48 69
REMARK SMILES IDX 52 70 49 71 51 72 50 73 37 74 38 75 42 76 39 77 41 78 40 79
REMARK H PARENT 8 5 68 16 68 17 13 28 57 47 35 58
REMARK Flexibility Score: inf
ROOT
ATOM      1  C   UNL A   1      32.499  29.623  25.719  1.00  0.00     0.116 C 
ENDROOT
BRANCH   1   2
ATOM      2  N   UNL A   1      33.192  29.681  24.449  1.00  0.00    -0.354 N 
ATOM      3  C   UNL A   1      33.512  28.679  23.579  1.00  0.00     0.243 C 
ATOM      4  O   UNL A   1      34.366  28.935  22.722  1.00  0.00    -0.273 OA
ATOM      5  H   UNL A   1      33.476  30.580  24.170  1.00  0.00     0.163 HD
BRANCH   3   6
ATOM      6  C   UNL A   1      33.006  27.236  23.775  1.00  0.00     0.185 C 
ATOM      7  C   UNL A   1      30.086  26.054  25.753  1.00  0.00     0.043 C 
ATOM      8  C   UNL A   1      31.185  25.868  24.711  1.00  0.00     0.141 C 
ATOM      9  S   UNL A   1      32.697  25.315  25.577  1.00  0.00    -0.135 SA
ATOM     10  N   UNL A   1      31.550  27.054  23.932  1.00  0.00    -0.313 N 
ATOM     11  C   UNL A   1      33.723  26.675  24.996  1.00  0.00     0.107 C 
BRANCH  10  12
ATOM     12  C   UNL A   1      30.752  27.594  22.928  1.00  0.00     0.279 C 
ATOM     13  O   UNL A   1      30.832  27.207  21.759  1.00  0.00    -0.268 OA
BRANCH  12  14
ATOM     14  C   UNL A   1      29.792  28.738  23.259  1.00  0.00     0.362 C 
BRANCH  14  15
ATOM     15  N   UNL A   1      30.172  29.939  22.500  1.00  0.00    -0.331 N 
ATOM     16  H   UNL A   1      30.686  29.656  21.665  1.00  0.00     0.346 HD
ATOM     17  H   UNL A   1      30.752  30.527  23.099  1.00  0.00     0.346 HD
BRANCH  15  18
ATOM     18  C   UNL A   1      28.978  30.724  22.089  1.00  0.00     0.378 C 
BRANCH  18  19
ATOM     19  C   UNL A   1      28.438  31.824  23.026  1.00  0.00     0.438 C 
ATOM     20  F   UNL A   1      27.230  31.482  23.526  1.00  0.00    -0.165 F 
ATOM     21  F   UNL A   1      29.276  32.021  24.067  1.00  0.00    -0.165 F 
ATOM     22  F   UNL A   1      28.304  33.001  22.378  1.00  0.00    -0.165 F 
ENDBRANCH  18  19
ENDBRANCH  15  18
ENDBRANCH  14  15
ENDBRANCH  12  14
ENDBRANCH  10  12
ENDBRANCH   3   6
ENDBRANCH   1   2
BRANCH   1  23
ATOM     23  C   UNL A   1      31.428  30.708  25.807  1.00  0.00     0.023 C 
BRANCH  23  24
ATOM     24  C   UNL A   1      31.532  31.606  27.040  1.00  0.00     0.023 C 
BRANCH  24  25
ATOM     25  C   UNL A   1      32.776  32.484  27.093  1.00  0.00     0.116 C 
BRANCH  25  26
ATOM     26  N   UNL A   1      32.491  33.837  27.549  1.00  0.00    -0.352 N 
ATOM     27  C   UNL A   1      33.146  34.587  28.494  1.00  0.00     0.251 C 
ATOM     28  H   UNL A   1      31.721  34.276  27.118  1.00  0.00     0.163 HD
ATOM     29  O   UNL A   1      32.682  35.661  28.863  1.00  0.00    -0.269 OA
BRANCH  27  30
ATOM     30  C   UNL A   1      34.398  34.075  29.089  1.00  0.00     0.039 A 
ATOM     31  C   UNL A   1      34.327  33.312  30.256  1.00  0.00     0.014 A 
ATOM     32  C   UNL A   1      35.631  34.325  28.482  1.00  0.00     0.014 A 
ATOM     33  C   UNL A   1      35.489  32.739  30.776  1.00  0.00     0.010 A 
ATOM     34  C   UNL A   1      36.774  33.688  28.954  1.00  0.00     0.010 A 
ATOM     35  C   UNL A   1      36.715  32.889  30.106  1.00  0.00    -0.014 A 
BRANCH  35  36
ATOM     36  C   UNL A   1      37.946  32.220  30.598  1.00  0.00     0.031 A 
ATOM     37  C   UNL A   1      38.738  32.830  31.722  1.00  0.00     0.074 A 
ATOM     38  C   UNL A   1      38.381  31.093  29.999  1.00  0.00     0.049 A 
ATOM     39  N   UNL A   1      39.867  32.426  32.249  1.00  0.00    -0.248 NA
ATOM     40  C   UNL A   1      38.205  34.066  32.319  1.00  0.00     0.031 C 
ATOM     41  C   UNL A   1      37.724  30.419  28.876  1.00  0.00     0.029 A 
ATOM     42  N   UNL A   1      39.483  30.316  30.251  1.00  0.00    -0.354 N 
ATOM     43  C   UNL A   1      40.177  33.357  33.233  1.00  0.00     0.074 A 
ATOM     44  C   UNL A   1      39.154  34.379  33.187  1.00  0.00     0.031 C 
ATOM     45  C   UNL A   1      38.421  29.317  28.557  1.00  0.00     0.029 A 
ATOM     46  C   UNL A   1      39.594  29.229  29.418  1.00  0.00     0.049 A 
ATOM     47  H   UNL A   1      40.134  30.520  30.961  1.00  0.00     0.167 HD
ATOM     48  C   UNL A   1      41.203  33.351  34.116  1.00  0.00     0.031 A 
ATOM     49  C   UNL A   1      40.541  28.273  29.350  1.00  0.00     0.031 A 
ATOM     50  C   UNL A   1      42.224  32.339  34.162  1.00  0.00     0.049 A 
ATOM     51  C   UNL A   1      41.695  28.316  30.315  1.00  0.00     0.074 A 
ATOM     52  C   UNL A   1      43.293  32.231  35.035  1.00  0.00     0.029 A 
ATOM     53  N   UNL A   1      42.300  31.256  33.301  1.00  0.00    -0.354 N 
ATOM     54  N   UNL A   1      41.940  29.172  31.275  1.00  0.00    -0.248 NA
ATOM     55  C   UNL A   1      42.698  27.247  30.190  1.00  0.00     0.031 C 
ATOM     56  C   UNL A   1      44.043  31.109  34.671  1.00  0.00     0.029 A 
ATOM     57  C   UNL A   1      43.407  30.485  33.610  1.00  0.00     0.049 A 
ATOM     58  H   UNL A   1      41.662  31.064  32.576  1.00  0.00     0.167 HD
ATOM     59  C   UNL A   1      43.104  28.728  31.890  1.00  0.00     0.074 A 
ATOM     60  C   UNL A   1      43.504  27.516  31.207  1.00  0.00     0.031 C 
ATOM     61  C   UNL A   1      43.783  29.274  32.928  1.00  0.00     0.031 A 
BRANCH  48  62
ATOM     62  C   UNL A   1      41.266  34.475  35.112  1.00  0.00    -0.014 A 
ATOM     63  C   UNL A   1      41.990  35.647  34.832  1.00  0.00     0.009 A 
ATOM     64  C   UNL A   1      40.563  34.385  36.323  1.00  0.00     0.009 A 
ATOM     65  C   UNL A   1      42.034  36.690  35.758  1.00  0.00     0.001 A 
ATOM     66  C   UNL A   1      40.585  35.444  37.234  1.00  0.00     0.001 A 
ATOM     67  C   UNL A   1      41.326  36.590  36.954  1.00  0.00     0.000 A 
ENDBRANCH  48  62
BRANCH  49  68
ATOM     68  C   UNL A   1      40.447  27.189  28.336  1.00  0.00    -0.014 A 
ATOM     69  C   UNL A   1      41.018  27.350  27.064  1.00  0.00     0.009 A 
ATOM     70  C   UNL A   1      39.749  26.005  28.619  1.00  0.00     0.009 A 
ATOM     71  C   UNL A   1      40.855  26.368  26.083  1.00  0.00     0.001 A 
ATOM     72  C   UNL A   1      39.617  25.009  27.648  1.00  0.00     0.001 A 
ATOM     73  C   UNL A   1      40.157  25.198  26.377  1.00  0.00     0.000 A 
ENDBRANCH  49  68
BRANCH  61  74
ATOM     74  C   UNL A   1      44.998  28.538  33.418  1.00  0.00    -0.014 A 
ATOM     75  C   UNL A   1      46.281  28.836  32.933  1.00  0.00     0.009 A 
ATOM     76  C   UNL A   1      44.858  27.554  34.410  1.00  0.00     0.009 A 
ATOM     77  C   UNL A   1      47.394  28.134  33.403  1.00  0.00     0.001 A 
ATOM     78  C   UNL A   1      45.975  26.877  34.901  1.00  0.00     0.001 A 
ATOM     79  C   UNL A   1      47.240  27.161  34.389  1.00  0.00     0.000 A 
ENDBRANCH  61  74
ENDBRANCH  35  36
ENDBRANCH  27  30
ENDBRANCH  25  26
ENDBRANCH  24  25
ENDBRANCH  23  24
ENDBRANCH   1  23
TORSDOF 16
ENDMDL
MODEL 3
REMARK VINA RESULT:     -10.4      5.697      9.782
REMARK SMILES C[C@@H]1SC[C@H](C(=O)NCCCCNC(=O)c2ccc(-c3c4nc(c(-c5ccccc5)c5ccc([nH]5)c(-c5ccccc5)c5nc(c(-c6ccccc6)c6ccc3[nH]6)C=C5)C=C4)cc2)N1C(=O)C[NH2+]CC(F)(F)F
REMARK SMILES IDX 9 1 8 2 6 3 7 4 5 6 1 7 2 8 3 9 64 10 4 11 65 12 66 13 67 14
REMARK SMILES IDX 68 15 69 18 70 19 71 20 72 21 73 22 10 23 11 24 12 25 13 26
REMARK SMILES IDX 14 27 15 29 16 30 17 31 63 32 18 33 62 34 19 35 20 36 21 37
REMARK SMILES IDX 56 38 22 39 61 40 55 41 57 42 23 43 60 44 54 45 53 46 24 48
REMARK SMILES IDX 46 49 31 50 45 51 32 52 35 53 44 54 58 55 33 56 34 57 43 59
REMARK SMILES IDX 59 60 36 61 25 62 26 63 30 64 27 65 29 66 28 67 47 68 48 69
REMARK SMILES IDX 52 70 49 71 51 72 50 73 37 74 38 75 42 76 39 77 41 78 40 79
REMARK H PARENT 8 5 68 16 68 17 13 28 57 47 35 58
REMARK Flexibility Score: inf
ROOT
ATOM      1  C   UNL A   1      36.697  22.031  24.805  1.00  0.00     0.116 C 
ENDROOT
BRANCH   1   2
ATOM      2  N   UNL A   1      35.738  22.344  23.767  1.00  0.00    -0.354 N 
ATOM      3  C   UNL A   1      34.513  22.940  23.856  1.00  0.00     0.243 C 
ATOM      4  O   UNL A   1      33.761  22.818  22.883  1.00  0.00    -0.273 OA
ATOM      5  H   UNL A   1      36.011  22.088  22.857  1.00  0.00     0.163 HD
BRANCH   3   6
ATOM      6  C   UNL A   1      33.998  23.550  25.175  1.00  0.00     0.185 C 
ATOM      7  C   UNL A   1      30.610  23.277  26.686  1.00  0.00     0.043 C 
ATOM      8  C   UNL A   1      32.099  23.609  26.740  1.00  0.00     0.141 C 
ATOM      9  S   UNL A   1      32.313  25.336  26.179  1.00  0.00    -0.135 SA
ATOM     10  N   UNL A   1      32.981  22.780  25.915  1.00  0.00    -0.313 N 
ATOM     11  C   UNL A   1      33.447  24.930  24.841  1.00  0.00     0.107 C 
BRANCH  10  12
ATOM     12  C   UNL A   1      33.309  21.462  26.219  1.00  0.00     0.279 C 
ATOM     13  O   UNL A   1      34.094  21.185  27.130  1.00  0.00    -0.268 OA
BRANCH  12  14
ATOM     14  C   UNL A   1      32.736  20.325  25.371  1.00  0.00     0.362 C 
BRANCH  14  15
ATOM     15  N   UNL A   1      32.975  19.038  26.044  1.00  0.00    -0.331 N 
ATOM     16  H   UNL A   1      32.372  18.976  26.865  1.00  0.00     0.346 HD
ATOM     17  H   UNL A   1      33.958  18.994  26.312  1.00  0.00     0.346 HD
BRANCH  15  18
ATOM     18  C   UNL A   1      32.684  17.892  25.143  1.00  0.00     0.378 C 
BRANCH  18  19
ATOM     19  C   UNL A   1      33.852  17.155  24.456  1.00  0.00     0.438 C 
ATOM     20  F   UNL A   1      33.575  16.918  23.155  1.00  0.00    -0.165 F 
ATOM     21  F   UNL A   1      34.982  17.892  24.511  1.00  0.00    -0.165 F 
ATOM     22  F   UNL A   1      34.104  15.970  25.053  1.00  0.00    -0.165 F 
ENDBRANCH  18  19
ENDBRANCH  15  18
ENDBRANCH  14  15
ENDBRANCH  12  14
ENDBRANCH  10  12
ENDBRANCH   3   6
ENDBRANCH   1   2
BRANCH   1  23
ATOM     23  C   UNL A   1      36.753  20.527  25.063  1.00  0.00     0.023 C 
BRANCH  23  24
ATOM     24  C   UNL A   1      38.119  19.888  24.814  1.00  0.00     0.023 C 
BRANCH  24  25
ATOM     25  C   UNL A   1      39.169  20.179  25.880  1.00  0.00     0.116 C 
BRANCH  25  26
ATOM     26  N   UNL A   1      40.225  19.178  25.919  1.00  0.00    -0.352 N 
ATOM     27  C   UNL A   1      41.566  19.345  26.158  1.00  0.00     0.251 C 
ATOM     28  H   UNL A   1      39.936  18.251  25.751  1.00  0.00     0.163 HD
ATOM     29  O   UNL A   1      42.344  18.407  26.009  1.00  0.00    -0.269 OA
BRANCH  27  30
ATOM     30  C   UNL A   1      42.073  20.672  26.565  1.00  0.00     0.039 A 
ATOM     31  C   UNL A   1      42.505  21.561  25.579  1.00  0.00     0.014 A 
ATOM     32  C   UNL A   1      42.095  21.045  27.911  1.00  0.00     0.014 A 
ATOM     33  C   UNL A   1      42.893  22.853  25.938  1.00  0.00     0.010 A 
ATOM     34  C   UNL A   1      42.405  22.356  28.259  1.00  0.00     0.010 A 
ATOM     35  C   UNL A   1      42.808  23.273  27.277  1.00  0.00    -0.014 A 
BRANCH  35  36
ATOM     36  C   UNL A   1      43.138  24.667  27.667  1.00  0.00     0.031 A 
ATOM     37  C   UNL A   1      44.575  25.099  27.777  1.00  0.00     0.074 A 
ATOM     38  C   UNL A   1      42.148  25.530  27.972  1.00  0.00     0.049 A 
ATOM     39  N   UNL A   1      45.063  26.253  28.158  1.00  0.00    -0.248 NA
ATOM     40  C   UNL A   1      45.600  24.098  27.435  1.00  0.00     0.031 C 
ATOM     41  C   UNL A   1      40.716  25.226  27.939  1.00  0.00     0.029 A 
ATOM     42  N   UNL A   1      42.199  26.840  28.375  1.00  0.00    -0.354 N 
ATOM     43  C   UNL A   1      46.444  26.114  28.104  1.00  0.00     0.074 A 
ATOM     44  C   UNL A   1      46.718  24.747  27.716  1.00  0.00     0.031 C 
ATOM     45  C   UNL A   1      40.025  26.326  28.279  1.00  0.00     0.029 A 
ATOM     46  C   UNL A   1      40.963  27.398  28.597  1.00  0.00     0.049 A 
ATOM     47  H   UNL A   1      43.042  27.334  28.496  1.00  0.00     0.167 HD
ATOM     48  C   UNL A   1      47.401  27.046  28.328  1.00  0.00     0.031 A 
ATOM     49  C   UNL A   1      40.623  28.631  29.018  1.00  0.00     0.031 A 
ATOM     50  C   UNL A   1      47.133  28.404  28.716  1.00  0.00     0.049 A 
ATOM     51  C   UNL A   1      41.709  29.632  29.304  1.00  0.00     0.074 A 
ATOM     52  C   UNL A   1      48.033  29.430  28.945  1.00  0.00     0.029 A 
ATOM     53  N   UNL A   1      45.867  28.927  28.930  1.00  0.00    -0.354 N 
ATOM     54  N   UNL A   1      43.008  29.500  29.192  1.00  0.00    -0.248 NA
ATOM     55  C   UNL A   1      41.276  30.961  29.763  1.00  0.00     0.031 C 
ATOM     56  C   UNL A   1      47.316  30.561  29.343  1.00  0.00     0.029 A 
ATOM     57  C   UNL A   1      45.964  30.256  29.304  1.00  0.00     0.049 A 
ATOM     58  H   UNL A   1      45.025  28.427  28.832  1.00  0.00     0.167 HD
ATOM     59  C   UNL A   1      43.544  30.735  29.533  1.00  0.00     0.074 A 
ATOM     60  C   UNL A   1      42.430  31.608  29.835  1.00  0.00     0.031 C 
ATOM     61  C   UNL A   1      44.844  31.114  29.591  1.00  0.00     0.031 A 
BRANCH  48  62
ATOM     62  C   UNL A   1      48.833  26.623  28.149  1.00  0.00    -0.014 A 
ATOM     63  C   UNL A   1      49.449  26.682  26.887  1.00  0.00     0.009 A 
ATOM     64  C   UNL A   1      49.588  26.203  29.254  1.00  0.00     0.009 A 
ATOM     65  C   UNL A   1      50.783  26.299  26.732  1.00  0.00     0.001 A 
ATOM     66  C   UNL A   1      50.930  25.848  29.100  1.00  0.00     0.001 A 
ATOM     67  C   UNL A   1      51.523  25.889  27.839  1.00  0.00     0.000 A 
ENDBRANCH  48  62
BRANCH  49  68
ATOM     68  C   UNL A   1      39.193  29.000  29.199  1.00  0.00    -0.014 A 
ATOM     69  C   UNL A   1      38.543  28.762  30.420  1.00  0.00     0.009 A 
ATOM     70  C   UNL A   1      38.458  29.550  28.138  1.00  0.00     0.009 A 
ATOM     71  C   UNL A   1      37.178  29.028  30.561  1.00  0.00     0.001 A 
ATOM     72  C   UNL A   1      37.102  29.847  28.292  1.00  0.00     0.001 A 
ATOM     73  C   UNL A   1      36.460  29.572  29.498  1.00  0.00     0.000 A 
ENDBRANCH  49  68
BRANCH  61  74
ATOM     74  C   UNL A   1      45.128  32.546  29.948  1.00  0.00    -0.014 A 
ATOM     75  C   UNL A   1      45.146  33.555  28.972  1.00  0.00     0.009 A 
ATOM     76  C   UNL A   1      45.344  32.894  31.290  1.00  0.00     0.009 A 
ATOM     77  C   UNL A   1      45.416  34.878  29.331  1.00  0.00     0.001 A 
ATOM     78  C   UNL A   1      45.581  34.222  31.650  1.00  0.00     0.001 A 
ATOM     79  C   UNL A   1      45.628  35.210  30.668  1.00  0.00     0.000 A 
ENDBRANCH  61  74
ENDBRANCH  35  36
ENDBRANCH  27  30
ENDBRANCH  25  26
ENDBRANCH  24  25
ENDBRANCH  23  24
ENDBRANCH   1  23
TORSDOF 16
ENDMDL
