MODEL 1
REMARK VINA RESULT:     -11.3      0.000      0.000
REMARK SMILES CC1(C)O[C@](C)([C@H](O)C2CCCCC2)CC[C@H]1C(=O)NCCCCNC(=O)c1ccc(-c2c3nc(c(-c4ccccc4)c4ccc([nH]4)c(-c4ccccc4)c4nc(c(-c5ccccc5)c5ccc2[nH]5)C=C4)C=C3)cc1
REMARK SMILES IDX 22 1 21 2 20 3 18 4 19 5 17 7 1 8 2 9 3 10 4 11 5 12 16 13
REMARK SMILES IDX 6 14 15 15 7 16 9 17 10 18 14 19 11 20 13 21 12 22 8 23
REMARK SMILES IDX 23 25 24 26 25 27 26 28 27 30 28 31 29 32 75 33 30 34 74 35
REMARK SMILES IDX 31 36 32 37 33 38 68 39 34 40 73 41 67 42 69 43 35 44 72 45
REMARK SMILES IDX 66 46 65 47 36 49 58 50 43 51 57 52 44 53 47 54 56 55 70 56
REMARK SMILES IDX 45 57 46 58 55 60 71 61 48 62 37 63 38 64 42 65 39 66 41 67
REMARK SMILES IDX 40 68 59 69 60 70 64 71 61 72 63 73 62 74 49 75 50 76 54 77
REMARK SMILES IDX 51 78 53 79 52 80
REMARK H PARENT 20 6 8 24 25 29 69 48 47 59
REMARK Flexibility Score: inf
ROOT
ATOM      1  C   UNL A   1      36.809  21.362  24.859  1.00  0.00     0.023 C 
ENDROOT
BRANCH   1   2
ATOM      2  C   UNL A   1      35.555  21.110  25.699  1.00  0.00     0.116 C 
BRANCH   2   3
ATOM      3  N   UNL A   1      34.409  20.771  24.882  1.00  0.00    -0.356 N 
ATOM      4  C   UNL A   1      33.302  21.477  24.530  1.00  0.00     0.226 C 
ATOM      5  O   UNL A   1      32.462  20.869  23.857  1.00  0.00    -0.275 OA
ATOM      6  H   UNL A   1      34.438  19.859  24.510  1.00  0.00     0.163 HD
BRANCH   4   7
ATOM      7  C   UNL A   1      33.054  22.944  24.906  1.00  0.00     0.110 C 
ATOM      8  C   UNL A   1      33.206  23.658  22.359  1.00  0.00     0.043 C 
ATOM      9  C   UNL A   1      33.445  23.998  23.826  1.00  0.00     0.075 C 
ATOM     10  C   UNL A   1      34.975  24.222  23.924  1.00  0.00     0.043 C 
ATOM     11  O   UNL A   1      32.874  25.296  24.041  1.00  0.00    -0.366 OA
ATOM     12  C   UNL A   1      31.535  25.437  24.530  1.00  0.00     0.092 C 
ATOM     13  C   UNL A   1      31.746  23.169  25.671  1.00  0.00     0.019 C 
ATOM     14  C   UNL A   1      30.441  24.938  23.570  1.00  0.00     0.045 C 
ATOM     15  C   UNL A   1      31.441  24.656  25.857  1.00  0.00     0.039 C 
BRANCH  12  16
ATOM     16  C   UNL A   1      31.356  26.979  24.798  1.00  0.00     0.149 C 
BRANCH  16  17
ATOM     17  C   UNL A   1      32.669  27.824  24.978  1.00  0.00     0.021 C 
ATOM     18  C   UNL A   1      32.617  29.337  24.701  1.00  0.00     0.006 C 
ATOM     19  C   UNL A   1      33.266  27.649  26.394  1.00  0.00     0.006 C 
ATOM     20  C   UNL A   1      31.790  30.114  25.716  1.00  0.00     0.000 C 
ATOM     21  C   UNL A   1      32.548  28.448  27.486  1.00  0.00     0.000 C 
ATOM     22  C   UNL A   1      32.340  29.917  27.123  1.00  0.00     0.000 C 
ENDBRANCH  16  17
BRANCH  16  23
ATOM     23  O   UNL A   1      30.492  27.556  23.822  1.00  0.00    -0.390 OA
ATOM     24  H   UNL A   1      30.493  27.005  23.023  1.00  0.00     0.211 HD
ENDBRANCH  16  23
ENDBRANCH  12  16
ENDBRANCH   4   7
ENDBRANCH   2   3
ENDBRANCH   1   2
BRANCH   1  25
ATOM     25  C   UNL A   1      37.836  20.246  24.881  1.00  0.00     0.023 C 
BRANCH  25  26
ATOM     26  C   UNL A   1      39.035  20.525  25.766  1.00  0.00     0.116 C 
BRANCH  26  27
ATOM     27  N   UNL A   1      40.019  19.450  25.770  1.00  0.00    -0.352 N 
ATOM     28  C   UNL A   1      41.354  19.519  26.107  1.00  0.00     0.251 C 
ATOM     29  H   UNL A   1      39.689  18.564  25.497  1.00  0.00     0.163 HD
ATOM     30  O   UNL A   1      42.094  18.560  25.972  1.00  0.00    -0.269 OA
BRANCH  28  31
ATOM     31  C   UNL A   1      41.871  20.809  26.601  1.00  0.00     0.039 A 
ATOM     32  C   UNL A   1      42.267  21.780  25.680  1.00  0.00     0.014 A 
ATOM     33  C   UNL A   1      41.833  21.087  27.968  1.00  0.00     0.014 A 
ATOM     34  C   UNL A   1      42.549  23.068  26.131  1.00  0.00     0.010 A 
ATOM     35  C   UNL A   1      42.008  22.392  28.399  1.00  0.00     0.010 A 
ATOM     36  C   UNL A   1      42.377  23.394  27.487  1.00  0.00    -0.014 A 
BRANCH  36  37
ATOM     37  C   UNL A   1      42.615  24.765  27.998  1.00  0.00     0.031 A 
ATOM     38  C   UNL A   1      44.003  25.152  28.430  1.00  0.00     0.074 A 
ATOM     39  C   UNL A   1      41.587  25.621  28.152  1.00  0.00     0.049 A 
ATOM     40  N   UNL A   1      44.409  26.246  29.021  1.00  0.00    -0.248 NA
ATOM     41  C   UNL A   1      45.068  24.159  28.206  1.00  0.00     0.031 C 
ATOM     42  C   UNL A   1      40.188  25.348  27.815  1.00  0.00     0.029 A 
ATOM     43  N   UNL A   1      41.565  26.901  28.644  1.00  0.00    -0.354 N 
ATOM     44  C   UNL A   1      45.761  26.054  29.270  1.00  0.00     0.074 A 
ATOM     45  C   UNL A   1      46.096  24.723  28.819  1.00  0.00     0.031 C 
ATOM     46  C   UNL A   1      39.450  26.441  28.077  1.00  0.00     0.029 A 
ATOM     47  C   UNL A   1      40.315  27.474  28.637  1.00  0.00     0.049 A 
ATOM     48  H   UNL A   1      42.368  27.367  28.971  1.00  0.00     0.167 HD
ATOM     49  C   UNL A   1      46.657  26.921  29.798  1.00  0.00     0.031 A 
ATOM     50  C   UNL A   1      39.917  28.695  29.038  1.00  0.00     0.031 A 
ATOM     51  C   UNL A   1      46.335  28.260  30.201  1.00  0.00     0.049 A 
ATOM     52  C   UNL A   1      40.936  29.649  29.596  1.00  0.00     0.074 A 
ATOM     53  C   UNL A   1      47.178  29.239  30.695  1.00  0.00     0.029 A 
ATOM     54  N   UNL A   1      45.065  28.813  30.139  1.00  0.00    -0.354 N 
ATOM     55  N   UNL A   1      42.222  29.470  29.780  1.00  0.00    -0.248 NA
ATOM     56  C   UNL A   1      40.450  30.978  29.993  1.00  0.00     0.031 C 
ATOM     57  C   UNL A   1      46.412  30.379  30.958  1.00  0.00     0.029 A 
ATOM     58  C   UNL A   1      45.101  30.120  30.589  1.00  0.00     0.049 A 
ATOM     59  H   UNL A   1      44.259  28.345  29.823  1.00  0.00     0.167 HD
ATOM     60  C   UNL A   1      42.702  30.673  30.281  1.00  0.00     0.074 A 
ATOM     61  C   UNL A   1      41.574  31.576  30.363  1.00  0.00     0.031 C 
ATOM     62  C   UNL A   1      43.966  31.002  30.644  1.00  0.00     0.031 A 
BRANCH  49  63
ATOM     63  C   UNL A   1      48.071  26.439  29.950  1.00  0.00    -0.014 A 
ATOM     64  C   UNL A   1      49.004  26.595  28.912  1.00  0.00     0.009 A 
ATOM     65  C   UNL A   1      48.480  25.834  31.147  1.00  0.00     0.009 A 
ATOM     66  C   UNL A   1      50.309  26.120  29.056  1.00  0.00     0.001 A 
ATOM     67  C   UNL A   1      49.794  25.386  31.299  1.00  0.00     0.001 A 
ATOM     68  C   UNL A   1      50.703  25.520  30.251  1.00  0.00     0.000 A 
ENDBRANCH  49  63
BRANCH  50  69
ATOM     69  C   UNL A   1      38.495  29.105  28.900  1.00  0.00    -0.014 A 
ATOM     70  C   UNL A   1      38.014  29.586  27.671  1.00  0.00     0.009 A 
ATOM     71  C   UNL A   1      37.619  29.044  29.994  1.00  0.00     0.009 A 
ATOM     72  C   UNL A   1      36.694  30.025  27.550  1.00  0.00     0.001 A 
ATOM     73  C   UNL A   1      36.292  29.460  29.862  1.00  0.00     0.001 A 
ATOM     74  C   UNL A   1      35.834  29.960  28.644  1.00  0.00     0.000 A 
ENDBRANCH  50  69
BRANCH  62  75
ATOM     75  C   UNL A   1      44.201  32.408  31.112  1.00  0.00    -0.014 A 
ATOM     76  C   UNL A   1      44.136  32.741  32.472  1.00  0.00     0.009 A 
ATOM     77  C   UNL A   1      44.543  33.399  30.178  1.00  0.00     0.009 A 
ATOM     78  C   UNL A   1      44.381  34.052  32.885  1.00  0.00     0.001 A 
ATOM     79  C   UNL A   1      44.812  34.701  30.597  1.00  0.00     0.001 A 
ATOM     80  C   UNL A   1      44.724  35.028  31.950  1.00  0.00     0.000 A 
ENDBRANCH  62  75
ENDBRANCH  36  37
ENDBRANCH  28  31
ENDBRANCH  26  27
ENDBRANCH  25  26
ENDBRANCH   1  25
TORSDOF 14
ENDMDL
MODEL 2
REMARK VINA RESULT:     -11.3      0.818      6.046
REMARK SMILES CC1(C)O[C@](C)([C@H](O)C2CCCCC2)CC[C@H]1C(=O)NCCCCNC(=O)c1ccc(-c2c3nc(c(-c4ccccc4)c4ccc([nH]4)c(-c4ccccc4)c4nc(c(-c5ccccc5)c5ccc2[nH]5)C=C4)C=C3)cc1
REMARK SMILES IDX 22 1 21 2 20 3 18 4 19 5 17 7 1 8 2 9 3 10 4 11 5 12 16 13
REMARK SMILES IDX 6 14 15 15 7 16 9 17 10 18 14 19 11 20 13 21 12 22 8 23
REMARK SMILES IDX 23 25 24 26 25 27 26 28 27 30 28 31 29 32 75 33 30 34 74 35
REMARK SMILES IDX 31 36 32 37 33 38 68 39 34 40 73 41 67 42 69 43 35 44 72 45
REMARK SMILES IDX 66 46 65 47 36 49 58 50 43 51 57 52 44 53 47 54 56 55 70 56
REMARK SMILES IDX 45 57 46 58 55 60 71 61 48 62 37 63 38 64 42 65 39 66 41 67
REMARK SMILES IDX 40 68 59 69 60 70 64 71 61 72 63 73 62 74 49 75 50 76 54 77
REMARK SMILES IDX 51 78 53 79 52 80
REMARK H PARENT 20 6 8 24 25 29 69 48 47 59
REMARK Flexibility Score: inf
ROOT
ATOM      1  C   UNL A   1      36.443  20.314  25.000  1.00  0.00     0.023 C 
ENDROOT
BRANCH   1   2
ATOM      2  C   UNL A   1      35.230  21.084  25.524  1.00  0.00     0.116 C 
BRANCH   2   3
ATOM      3  N   UNL A   1      33.996  20.352  25.337  1.00  0.00    -0.356 N 
ATOM      4  C   UNL A   1      32.734  20.757  25.036  1.00  0.00     0.226 C 
ATOM      5  O   UNL A   1      31.872  19.872  25.005  1.00  0.00    -0.275 OA
ATOM      6  H   UNL A   1      34.088  19.377  25.448  1.00  0.00     0.163 HD
BRANCH   4   7
ATOM      7  C   UNL A   1      32.339  22.208  24.730  1.00  0.00     0.110 C 
ATOM      8  C   UNL A   1      32.761  22.892  27.254  1.00  0.00     0.043 C 
ATOM      9  C   UNL A   1      31.974  23.089  25.963  1.00  0.00     0.075 C 
ATOM     10  C   UNL A   1      30.509  22.764  26.352  1.00  0.00     0.043 C 
ATOM     11  O   UNL A   1      31.974  24.498  25.697  1.00  0.00    -0.366 OA
ATOM     12  C   UNL A   1      32.961  25.083  24.840  1.00  0.00     0.092 C 
ATOM     13  C   UNL A   1      33.184  22.854  23.627  1.00  0.00     0.019 C 
ATOM     14  C   UNL A   1      34.401  25.022  25.377  1.00  0.00     0.045 C 
ATOM     15  C   UNL A   1      32.893  24.349  23.484  1.00  0.00     0.039 C 
BRANCH  12  16
ATOM     16  C   UNL A   1      32.514  26.583  24.663  1.00  0.00     0.149 C 
BRANCH  16  17
ATOM     17  C   UNL A   1      33.428  27.677  25.323  1.00  0.00     0.021 C 
ATOM     18  C   UNL A   1      33.325  29.128  24.820  1.00  0.00     0.006 C 
ATOM     19  C   UNL A   1      33.239  27.722  26.857  1.00  0.00     0.006 C 
ATOM     20  C   UNL A   1      32.003  29.800  25.163  1.00  0.00     0.000 C 
ATOM     21  C   UNL A   1      31.967  28.443  27.317  1.00  0.00     0.000 C 
ATOM     22  C   UNL A   1      31.781  29.814  26.670  1.00  0.00     0.000 C 
ENDBRANCH  16  17
BRANCH  16  23
ATOM     23  O   UNL A   1      32.266  26.869  23.287  1.00  0.00    -0.390 OA
ATOM     24  H   UNL A   1      32.975  27.435  22.943  1.00  0.00     0.211 HD
ENDBRANCH  16  23
ENDBRANCH  12  16
ENDBRANCH   4   7
ENDBRANCH   2   3
ENDBRANCH   1   2
BRANCH   1  25
ATOM     25  C   UNL A   1      37.663  21.163  24.692  1.00  0.00     0.023 C 
BRANCH  25  26
ATOM     26  C   UNL A   1      38.725  21.138  25.772  1.00  0.00     0.116 C 
BRANCH  26  27
ATOM     27  N   UNL A   1      39.577  19.956  25.726  1.00  0.00    -0.352 N 
ATOM     28  C   UNL A   1      40.913  19.855  26.049  1.00  0.00     0.251 C 
ATOM     29  H   UNL A   1      39.143  19.124  25.426  1.00  0.00     0.163 HD
ATOM     30  O   UNL A   1      41.534  18.823  25.870  1.00  0.00    -0.269 OA
BRANCH  28  31
ATOM     31  C   UNL A   1      41.581  21.058  26.581  1.00  0.00     0.039 A 
ATOM     32  C   UNL A   1      42.079  22.009  25.690  1.00  0.00     0.014 A 
ATOM     33  C   UNL A   1      41.590  21.287  27.958  1.00  0.00     0.014 A 
ATOM     34  C   UNL A   1      42.514  23.239  26.182  1.00  0.00     0.010 A 
ATOM     35  C   UNL A   1      41.920  22.546  28.432  1.00  0.00     0.010 A 
ATOM     36  C   UNL A   1      42.394  23.532  27.551  1.00  0.00    -0.014 A 
BRANCH  36  37
ATOM     37  C   UNL A   1      42.796  24.846  28.108  1.00  0.00     0.031 A 
ATOM     38  C   UNL A   1      41.742  25.894  28.338  1.00  0.00     0.074 A 
ATOM     39  C   UNL A   1      44.096  25.124  28.322  1.00  0.00     0.049 A 
ATOM     40  N   UNL A   1      41.885  27.144  28.694  1.00  0.00    -0.248 NA
ATOM     41  C   UNL A   1      40.345  25.494  28.096  1.00  0.00     0.031 C 
ATOM     42  C   UNL A   1      45.217  24.209  28.092  1.00  0.00     0.029 A 
ATOM     43  N   UNL A   1      44.695  26.271  28.777  1.00  0.00    -0.354 N 
ATOM     44  C   UNL A   1      40.606  27.683  28.681  1.00  0.00     0.074 A 
ATOM     45  C   UNL A   1      39.708  26.646  28.229  1.00  0.00     0.031 C 
ATOM     46  C   UNL A   1      46.362  24.819  28.441  1.00  0.00     0.029 A 
ATOM     47  C   UNL A   1      46.062  26.177  28.880  1.00  0.00     0.049 A 
ATOM     48  H   UNL A   1      44.192  27.085  29.009  1.00  0.00     0.167 HD
ATOM     49  C   UNL A   1      40.206  28.924  29.042  1.00  0.00     0.031 A 
ATOM     50  C   UNL A   1      46.967  27.088  29.283  1.00  0.00     0.031 A 
ATOM     51  C   UNL A   1      41.091  29.940  29.536  1.00  0.00     0.049 A 
ATOM     52  C   UNL A   1      46.494  28.451  29.706  1.00  0.00     0.074 A 
ATOM     53  C   UNL A   1      40.781  31.212  29.984  1.00  0.00     0.029 A 
ATOM     54  N   UNL A   1      42.463  29.790  29.662  1.00  0.00    -0.354 N 
ATOM     55  N   UNL A   1      45.274  28.930  29.734  1.00  0.00    -0.248 NA
ATOM     56  C   UNL A   1      47.523  29.396  30.163  1.00  0.00     0.031 C 
ATOM     57  C   UNL A   1      41.972  31.842  30.357  1.00  0.00     0.029 A 
ATOM     58  C   UNL A   1      43.016  30.947  30.179  1.00  0.00     0.049 A 
ATOM     59  H   UNL A   1      42.968  28.981  29.420  1.00  0.00     0.167 HD
ATOM     60  C   UNL A   1      45.386  30.218  30.242  1.00  0.00     0.074 A 
ATOM     61  C   UNL A   1      46.789  30.441  30.518  1.00  0.00     0.031 C 
ATOM     62  C   UNL A   1      44.413  31.136  30.460  1.00  0.00     0.031 A 
BRANCH  49  63
ATOM     63  C   UNL A   1      38.740  29.234  28.927  1.00  0.00    -0.014 A 
ATOM     64  C   UNL A   1      38.190  29.692  27.719  1.00  0.00     0.009 A 
ATOM     65  C   UNL A   1      37.898  29.056  30.034  1.00  0.00     0.009 A 
ATOM     66  C   UNL A   1      36.832  30.001  27.632  1.00  0.00     0.001 A 
ATOM     67  C   UNL A   1      36.534  29.338  29.937  1.00  0.00     0.001 A 
ATOM     68  C   UNL A   1      36.005  29.820  28.740  1.00  0.00     0.000 A 
ENDBRANCH  49  63
BRANCH  50  69
ATOM     69  C   UNL A   1      48.410  26.739  29.341  1.00  0.00    -0.014 A 
ATOM     70  C   UNL A   1      49.249  27.015  28.248  1.00  0.00     0.009 A 
ATOM     71  C   UNL A   1      48.954  26.109  30.470  1.00  0.00     0.009 A 
ATOM     72  C   UNL A   1      50.594  26.639  28.274  1.00  0.00     0.001 A 
ATOM     73  C   UNL A   1      50.306  25.757  30.503  1.00  0.00     0.001 A 
ATOM     74  C   UNL A   1      51.122  26.013  29.402  1.00  0.00     0.000 A 
ENDBRANCH  50  69
BRANCH  62  75
ATOM     75  C   UNL A   1      44.829  32.443  31.070  1.00  0.00    -0.014 A 
ATOM     76  C   UNL A   1      45.201  33.532  30.270  1.00  0.00     0.009 A 
ATOM     77  C   UNL A   1      44.796  32.595  32.465  1.00  0.00     0.009 A 
ATOM     78  C   UNL A   1      45.561  34.745  30.860  1.00  0.00     0.001 A 
ATOM     79  C   UNL A   1      45.132  33.816  33.049  1.00  0.00     0.001 A 
ATOM     80  C   UNL A   1      45.522  34.888  32.247  1.00  0.00     0.000 A 
ENDBRANCH  62  75
ENDBRANCH  36  37
ENDBRANCH  28  31
ENDBRANCH  26  27
ENDBRANCH  25  26
ENDBRANCH   1  25
TORSDOF 14
ENDMDL
MODEL 3
REMARK VINA RESULT:     -11.2      1.500      2.180
REMARK SMILES CC1(C)O[C@](C)([C@H](O)C2CCCCC2)CC[C@H]1C(=O)NCCCCNC(=O)c1ccc(-c2c3nc(c(-c4ccccc4)c4ccc([nH]4)c(-c4ccccc4)c4nc(c(-c5ccccc5)c5ccc2[nH]5)C=C4)C=C3)cc1
REMARK SMILES IDX 22 1 21 2 20 3 18 4 19 5 17 7 1 8 2 9 3 10 4 11 5 12 16 13
REMARK SMILES IDX 6 14 15 15 7 16 9 17 10 18 14 19 11 20 13 21 12 22 8 23
REMARK SMILES IDX 23 25 24 26 25 27 26 28 27 30 28 31 29 32 75 33 30 34 74 35
REMARK SMILES IDX 31 36 32 37 33 38 68 39 34 40 73 41 67 42 69 43 35 44 72 45
REMARK SMILES IDX 66 46 65 47 36 49 58 50 43 51 57 52 44 53 47 54 56 55 70 56
REMARK SMILES IDX 45 57 46 58 55 60 71 61 48 62 37 63 38 64 42 65 39 66 41 67
REMARK SMILES IDX 40 68 59 69 60 70 64 71 61 72 63 73 62 74 49 75 50 76 54 77
REMARK SMILES IDX 51 78 53 79 52 80
REMARK H PARENT 20 6 8 24 25 29 69 48 47 59
REMARK Flexibility Score: inf
ROOT
ATOM      1  C   UNL A   1      37.120  21.066  24.709  1.00  0.00     0.023 C 
ENDROOT
BRANCH   1   2
ATOM      2  C   UNL A   1      35.973  21.230  25.708  1.00  0.00     0.116 C 
BRANCH   2   3
ATOM      3  N   UNL A   1      34.864  20.348  25.416  1.00  0.00    -0.356 N 
ATOM      4  C   UNL A   1      33.620  20.582  24.921  1.00  0.00     0.226 C 
ATOM      5  O   UNL A   1      32.872  19.602  24.844  1.00  0.00    -0.275 OA
ATOM      6  H   UNL A   1      35.044  19.399  25.612  1.00  0.00     0.163 HD
BRANCH   4   7
ATOM      7  C   UNL A   1      33.118  21.956  24.456  1.00  0.00     0.110 C 
ATOM      8  C   UNL A   1      33.068  22.824  26.958  1.00  0.00     0.043 C 
ATOM      9  C   UNL A   1      32.471  22.853  25.556  1.00  0.00     0.075 C 
ATOM     10  C   UNL A   1      31.010  22.374  25.749  1.00  0.00     0.043 C 
ATOM     11  O   UNL A   1      32.354  24.235  25.191  1.00  0.00    -0.366 OA
ATOM     12  C   UNL A   1      33.390  24.887  24.446  1.00  0.00     0.092 C 
ATOM     13  C   UNL A   1      34.044  22.638  23.444  1.00  0.00     0.019 C 
ATOM     14  C   UNL A   1      34.728  25.031  25.192  1.00  0.00     0.045 C 
ATOM     15  C   UNL A   1      33.613  24.077  23.153  1.00  0.00     0.039 C 
BRANCH  12  16
ATOM     16  C   UNL A   1      32.811  26.309  24.097  1.00  0.00     0.149 C 
BRANCH  16  17
ATOM     17  C   UNL A   1      31.469  26.721  24.805  1.00  0.00     0.021 C 
ATOM     18  C   UNL A   1      31.389  28.094  25.495  1.00  0.00     0.006 C 
ATOM     19  C   UNL A   1      30.268  26.638  23.833  1.00  0.00     0.006 C 
ATOM     20  C   UNL A   1      31.420  29.267  24.524  1.00  0.00     0.000 C 
ATOM     21  C   UNL A   1      30.165  27.812  22.854  1.00  0.00     0.000 C 
ATOM     22  C   UNL A   1      30.268  29.177  23.533  1.00  0.00     0.000 C 
ENDBRANCH  16  17
BRANCH  16  23
ATOM     23  O   UNL A   1      33.815  27.309  24.260  1.00  0.00    -0.390 OA
ATOM     24  H   UNL A   1      34.262  27.458  23.411  1.00  0.00     0.211 HD
ENDBRANCH  16  23
ENDBRANCH  12  16
ENDBRANCH   4   7
ENDBRANCH   2   3
ENDBRANCH   1   2
BRANCH   1  25
ATOM     25  C   UNL A   1      38.024  19.872  24.954  1.00  0.00     0.023 C 
BRANCH  25  26
ATOM     26  C   UNL A   1      39.269  20.191  25.757  1.00  0.00     0.116 C 
BRANCH  26  27
ATOM     27  N   UNL A   1      40.206  19.078  25.846  1.00  0.00    -0.352 N 
ATOM     28  C   UNL A   1      41.558  19.122  26.112  1.00  0.00     0.251 C 
ATOM     29  H   UNL A   1      39.826  18.182  25.698  1.00  0.00     0.163 HD
ATOM     30  O   UNL A   1      42.249  18.121  26.060  1.00  0.00    -0.269 OA
BRANCH  28  31
ATOM     31  C   UNL A   1      42.152  20.436  26.422  1.00  0.00     0.039 A 
ATOM     32  C   UNL A   1      42.528  21.277  25.373  1.00  0.00     0.014 A 
ATOM     33  C   UNL A   1      42.210  20.869  27.748  1.00  0.00     0.014 A 
ATOM     34  C   UNL A   1      42.886  22.594  25.655  1.00  0.00     0.010 A 
ATOM     35  C   UNL A   1      42.461  22.206  28.013  1.00  0.00     0.010 A 
ATOM     36  C   UNL A   1      42.810  23.080  26.971  1.00  0.00    -0.014 A 
BRANCH  36  37
ATOM     37  C   UNL A   1      43.132  24.488  27.304  1.00  0.00     0.031 A 
ATOM     38  C   UNL A   1      44.565  24.941  27.255  1.00  0.00     0.074 A 
ATOM     39  C   UNL A   1      42.164  25.324  27.728  1.00  0.00     0.049 A 
ATOM     40  N   UNL A   1      45.084  26.083  27.627  1.00  0.00    -0.248 NA
ATOM     41  C   UNL A   1      45.553  23.965  26.761  1.00  0.00     0.031 C 
ATOM     42  C   UNL A   1      40.745  24.990  27.865  1.00  0.00     0.029 A 
ATOM     43  N   UNL A   1      42.237  26.633  28.131  1.00  0.00    -0.354 N 
ATOM     44  C   UNL A   1      46.453  25.946  27.446  1.00  0.00     0.074 A 
ATOM     45  C   UNL A   1      46.693  24.597  26.987  1.00  0.00     0.031 C 
ATOM     46  C   UNL A   1      40.076  26.077  28.286  1.00  0.00     0.029 A 
ATOM     47  C   UNL A   1      41.022  27.169  28.487  1.00  0.00     0.049 A 
ATOM     48  H   UNL A   1      43.080  27.141  28.162  1.00  0.00     0.167 HD
ATOM     49  C   UNL A   1      47.427  26.870  27.617  1.00  0.00     0.031 A 
ATOM     50  C   UNL A   1      40.713  28.403  28.926  1.00  0.00     0.031 A 
ATOM     51  C   UNL A   1      47.185  28.224  28.027  1.00  0.00     0.049 A 
ATOM     52  C   UNL A   1      41.809  29.420  29.081  1.00  0.00     0.074 A 
ATOM     53  C   UNL A   1      48.094  29.256  28.175  1.00  0.00     0.029 A 
ATOM     54  N   UNL A   1      45.935  28.736  28.339  1.00  0.00    -0.354 N 
ATOM     55  N   UNL A   1      43.095  29.290  28.859  1.00  0.00    -0.248 NA
ATOM     56  C   UNL A   1      41.409  30.759  29.537  1.00  0.00     0.031 C 
ATOM     57  C   UNL A   1      47.395  30.389  28.603  1.00  0.00     0.029 A 
ATOM     58  C   UNL A   1      46.048  30.070  28.681  1.00  0.00     0.049 A 
ATOM     59  H   UNL A   1      45.094  28.226  28.319  1.00  0.00     0.167 HD
ATOM     60  C   UNL A   1      43.651  30.535  29.116  1.00  0.00     0.074 A 
ATOM     61  C   UNL A   1      42.563  31.410  29.500  1.00  0.00     0.031 C 
ATOM     62  C   UNL A   1      44.948  30.922  29.043  1.00  0.00     0.031 A 
BRANCH  49  63
ATOM     63  C   UNL A   1      48.839  26.438  27.341  1.00  0.00    -0.014 A 
ATOM     64  C   UNL A   1      49.374  26.498  26.044  1.00  0.00     0.009 A 
ATOM     65  C   UNL A   1      49.649  25.979  28.390  1.00  0.00     0.009 A 
ATOM     66  C   UNL A   1      50.679  26.070  25.796  1.00  0.00     0.001 A 
ATOM     67  C   UNL A   1      50.964  25.579  28.144  1.00  0.00     0.001 A 
ATOM     68  C   UNL A   1      51.474  25.615  26.848  1.00  0.00     0.000 A 
ENDBRANCH  49  63
BRANCH  50  69
ATOM     69  C   UNL A   1      39.302  28.764  29.221  1.00  0.00    -0.014 A 
ATOM     70  C   UNL A   1      38.486  29.310  28.217  1.00  0.00     0.009 A 
ATOM     71  C   UNL A   1      38.768  28.589  30.506  1.00  0.00     0.009 A 
ATOM     72  C   UNL A   1      37.177  29.703  28.502  1.00  0.00     0.001 A 
ATOM     73  C   UNL A   1      37.449  28.959  30.782  1.00  0.00     0.001 A 
ATOM     74  C   UNL A   1      36.659  29.525  29.783  1.00  0.00     0.000 A 
ENDBRANCH  50  69
BRANCH  62  75
ATOM     75  C   UNL A   1      45.250  32.363  29.335  1.00  0.00    -0.014 A 
ATOM     76  C   UNL A   1      45.590  32.786  30.628  1.00  0.00     0.009 A 
ATOM     77  C   UNL A   1      45.244  33.296  28.286  1.00  0.00     0.009 A 
ATOM     78  C   UNL A   1      45.891  34.128  30.870  1.00  0.00     0.001 A 
ATOM     79  C   UNL A   1      45.570  34.630  28.528  1.00  0.00     0.001 A 
ATOM     80  C   UNL A   1      45.885  35.047  29.821  1.00  0.00     0.000 A 
ENDBRANCH  62  75
ENDBRANCH  36  37
ENDBRANCH  28  31
ENDBRANCH  26  27
ENDBRANCH  25  26
ENDBRANCH   1  25
TORSDOF 14
ENDMDL
