MODEL 1
REMARK VINA RESULT:      -8.4      0.000      0.000
REMARK SMILES C[C@H](Oc1ccc(/C=C2/SC(=S)N(c3ccc(F)c(Cl)c3)C2=O)cc1)C(=O)NCCCCNC(=O)c1ccc(-c2c3nc(c(-c4ccccc4)c4ccc([nH]4)c(-c4ccccc4)c4nc(c(-c5ccccc5)c5ccc2[nH]5)C=C4)C=C3)cc1
REMARK SMILES IDX 29 1 28 2 26 3 27 4 2 6 1 7 3 8 4 9 5 10 25 11 6 12 24 13
REMARK SMILES IDX 7 14 8 15 9 16 10 17 22 18 11 19 13 20 23 21 12 22 14 23
REMARK SMILES IDX 15 24 21 25 16 26 19 27 17 28 20 29 18 30 30 31 31 32 32 33
REMARK SMILES IDX 33 34 34 35 35 37 36 38 37 39 83 40 38 41 82 42 39 43 40 44
REMARK SMILES IDX 41 45 76 46 42 47 81 48 75 49 77 50 43 51 80 52 74 53 73 54
REMARK SMILES IDX 44 56 66 57 51 58 65 59 52 60 55 61 64 62 78 63 53 64 54 65
REMARK SMILES IDX 63 67 79 68 56 69 45 70 46 71 50 72 47 73 49 74 48 75 67 76
REMARK SMILES IDX 68 77 72 78 69 79 71 80 70 81 57 82 58 83 62 84 59 85 61 86
REMARK SMILES IDX 60 87
REMARK H PARENT 28 5 33 36 77 55 55 66
REMARK Flexibility Score: inf
ROOT
ATOM      1  C   UNL A   1      35.418  33.829  32.044  1.00  0.00     0.116 C 
ENDROOT
BRANCH   1   2
ATOM      2  N   UNL A   1      35.861  32.469  32.305  1.00  0.00    -0.353 N 
ATOM      3  C   UNL A   1      36.976  32.033  32.975  1.00  0.00     0.260 C 
ATOM      4  O   UNL A   1      37.119  30.816  33.125  1.00  0.00    -0.271 OA
ATOM      5  H   UNL A   1      35.278  31.760  31.950  1.00  0.00     0.163 HD
BRANCH   3   6
ATOM      6  C   UNL A   1      37.984  33.037  33.565  1.00  0.00     0.258 C 
ATOM      7  C   UNL A   1      37.504  33.427  34.964  1.00  0.00     0.064 C 
BRANCH   6   8
ATOM      8  O   UNL A   1      38.110  34.034  32.550  1.00  0.00    -0.481 OA
BRANCH   8   9
ATOM      9  C   UNL A   1      39.238  34.263  31.837  1.00  0.00     0.120 A 
ATOM     10  C   UNL A   1      40.524  34.445  32.323  1.00  0.00     0.047 A 
ATOM     11  C   UNL A   1      39.017  34.322  30.459  1.00  0.00     0.047 A 
ATOM     12  C   UNL A   1      41.554  34.830  31.452  1.00  0.00     0.012 A 
ATOM     13  C   UNL A   1      40.046  34.666  29.585  1.00  0.00     0.012 A 
ATOM     14  C   UNL A   1      41.308  34.994  30.085  1.00  0.00    -0.024 A 
BRANCH  14  15
ATOM     15  C   UNL A   1      42.373  35.476  29.196  1.00  0.00     0.029 C 
ATOM     16  C   UNL A   1      43.333  34.722  28.632  1.00  0.00     0.081 C 
ATOM     17  S   UNL A   1      44.609  35.406  27.702  1.00  0.00    -0.054 SA
ATOM     18  C   UNL A   1      43.525  33.244  28.736  1.00  0.00     0.270 C 
ATOM     19  C   UNL A   1      45.493  33.883  27.606  1.00  0.00     0.152 C 
ATOM     20  N   UNL A   1      44.792  32.887  28.273  1.00  0.00    -0.261 N 
ATOM     21  O   UNL A   1      42.674  32.488  29.186  1.00  0.00    -0.268 OA
ATOM     22  S   UNL A   1      46.904  33.783  26.711  1.00  0.00    -0.051 S 
BRANCH  20  23
ATOM     23  C   UNL A   1      45.290  31.564  28.524  1.00  0.00     0.052 A 
ATOM     24  C   UNL A   1      46.149  31.304  29.606  1.00  0.00     0.030 A 
ATOM     25  C   UNL A   1      45.013  30.514  27.632  1.00  0.00     0.050 A 
ATOM     26  C   UNL A   1      46.705  30.035  29.801  1.00  0.00     0.043 A 
ATOM     27  C   UNL A   1      45.576  29.247  27.823  1.00  0.00     0.078 A 
ATOM     28  C   UNL A   1      46.418  29.013  28.905  1.00  0.00     0.141 A 
ATOM     29  Cl  UNL A   1      45.246  27.998  26.684  1.00  0.00    -0.081 Cl
ATOM     30  F   UNL A   1      46.978  27.810  29.093  1.00  0.00    -0.205 F 
ENDBRANCH  20  23
ENDBRANCH  14  15
ENDBRANCH   8   9
ENDBRANCH   6   8
ENDBRANCH   3   6
ENDBRANCH   1   2
BRANCH   1  31
ATOM     31  C   UNL A   1      35.089  34.076  30.574  1.00  0.00     0.023 C 
BRANCH  31  32
ATOM     32  C   UNL A   1      34.441  32.899  29.844  1.00  0.00     0.023 C 
BRANCH  32  33
ATOM     33  C   UNL A   1      34.697  32.830  28.341  1.00  0.00     0.116 C 
BRANCH  33  34
ATOM     34  N   UNL A   1      34.089  31.671  27.704  1.00  0.00    -0.352 N 
ATOM     35  C   UNL A   1      34.607  30.413  27.507  1.00  0.00     0.251 C 
ATOM     36  H   UNL A   1      33.176  31.808  27.363  1.00  0.00     0.163 HD
ATOM     37  O   UNL A   1      33.982  29.586  26.849  1.00  0.00    -0.269 OA
BRANCH  35  38
ATOM     38  C   UNL A   1      35.936  30.063  28.058  1.00  0.00     0.039 A 
ATOM     39  C   UNL A   1      36.017  29.585  29.369  1.00  0.00     0.014 A 
ATOM     40  C   UNL A   1      37.095  30.192  27.288  1.00  0.00     0.014 A 
ATOM     41  C   UNL A   1      37.246  29.163  29.882  1.00  0.00     0.010 A 
ATOM     42  C   UNL A   1      38.310  29.715  27.778  1.00  0.00     0.010 A 
ATOM     43  C   UNL A   1      38.396  29.188  29.076  1.00  0.00    -0.014 A 
BRANCH  43  44
ATOM     44  C   UNL A   1      39.691  28.650  29.563  1.00  0.00     0.031 A 
ATOM     45  C   UNL A   1      40.525  29.436  30.536  1.00  0.00     0.074 A 
ATOM     46  C   UNL A   1      40.157  27.485  29.070  1.00  0.00     0.049 A 
ATOM     47  N   UNL A   1      41.714  29.164  31.011  1.00  0.00    -0.248 NA
ATOM     48  C   UNL A   1      39.958  30.704  31.020  1.00  0.00     0.031 C 
ATOM     49  C   UNL A   1      39.469  26.640  28.092  1.00  0.00     0.029 A 
ATOM     50  N   UNL A   1      41.329  26.815  29.321  1.00  0.00    -0.354 N 
ATOM     51  C   UNL A   1      42.049  30.237  31.828  1.00  0.00     0.074 A 
ATOM     52  C   UNL A   1      40.951  31.178  31.759  1.00  0.00     0.031 C 
ATOM     53  C   UNL A   1      40.220  25.555  27.843  1.00  0.00     0.029 A 
ATOM     54  C   UNL A   1      41.456  25.645  28.614  1.00  0.00     0.049 A 
ATOM     55  H   UNL A   1      42.014  27.144  29.947  1.00  0.00     0.167 HD
ATOM     56  C   UNL A   1      43.161  30.417  32.578  1.00  0.00     0.031 A 
ATOM     57  C   UNL A   1      42.457  24.745  28.584  1.00  0.00     0.031 A 
ATOM     58  C   UNL A   1      44.244  29.476  32.670  1.00  0.00     0.049 A 
ATOM     59  C   UNL A   1      43.678  24.966  29.430  1.00  0.00     0.074 A 
ATOM     60  C   UNL A   1      45.381  29.543  33.458  1.00  0.00     0.029 A 
ATOM     61  N   UNL A   1      44.326  28.295  31.950  1.00  0.00    -0.354 N 
ATOM     62  N   UNL A   1      43.950  25.957  30.244  1.00  0.00    -0.248 NA
ATOM     63  C   UNL A   1      44.728  23.940  29.356  1.00  0.00     0.031 C 
ATOM     64  C   UNL A   1      46.168  28.418  33.188  1.00  0.00     0.029 A 
ATOM     65  C   UNL A   1      45.502  27.633  32.262  1.00  0.00     0.049 A 
ATOM     66  H   UNL A   1      43.648  27.974  31.313  1.00  0.00     0.167 HD
ATOM     67  C   UNL A   1      45.187  25.661  30.798  1.00  0.00     0.074 A 
ATOM     68  C   UNL A   1      45.610  24.394  30.236  1.00  0.00     0.031 C 
ATOM     69  C   UNL A   1      45.908  26.375  31.696  1.00  0.00     0.031 A 
BRANCH  56  70
ATOM     70  C   UNL A   1      43.264  31.695  33.361  1.00  0.00    -0.014 A 
ATOM     71  C   UNL A   1      42.589  31.853  34.581  1.00  0.00     0.009 A 
ATOM     72  C   UNL A   1      44.073  32.739  32.888  1.00  0.00     0.009 A 
ATOM     73  C   UNL A   1      42.695  33.048  35.296  1.00  0.00     0.001 A 
ATOM     74  C   UNL A   1      44.196  33.923  33.617  1.00  0.00     0.001 A 
ATOM     75  C   UNL A   1      43.502  34.081  34.815  1.00  0.00     0.000 A 
ENDBRANCH  56  70
BRANCH  57  76
ATOM     76  C   UNL A   1      42.340  23.532  27.734  1.00  0.00    -0.014 A 
ATOM     77  C   UNL A   1      42.746  23.569  26.393  1.00  0.00     0.009 A 
ATOM     78  C   UNL A   1      41.817  22.341  28.256  1.00  0.00     0.009 A 
ATOM     79  C   UNL A   1      42.610  22.440  25.582  1.00  0.00     0.001 A 
ATOM     80  C   UNL A   1      41.703  21.207  27.449  1.00  0.00     0.001 A 
ATOM     81  C   UNL A   1      42.091  21.260  26.111  1.00  0.00     0.000 A 
ENDBRANCH  57  76
BRANCH  69  82
ATOM     82  C   UNL A   1      47.212  25.786  32.149  1.00  0.00    -0.014 A 
ATOM     83  C   UNL A   1      47.297  25.039  33.334  1.00  0.00     0.009 A 
ATOM     84  C   UNL A   1      48.361  25.951  31.361  1.00  0.00     0.009 A 
ATOM     85  C   UNL A   1      48.518  24.492  33.734  1.00  0.00     0.001 A 
ATOM     86  C   UNL A   1      49.574  25.384  31.753  1.00  0.00     0.001 A 
ATOM     87  C   UNL A   1      49.654  24.662  32.942  1.00  0.00     0.000 A 
ENDBRANCH  69  82
ENDBRANCH  43  44
ENDBRANCH  35  38
ENDBRANCH  33  34
ENDBRANCH  32  33
ENDBRANCH  31  32
ENDBRANCH   1  31
TORSDOF 15
ENDMDL
MODEL 2
REMARK VINA RESULT:      -8.4      5.396      9.831
REMARK SMILES C[C@H](Oc1ccc(/C=C2/SC(=S)N(c3ccc(F)c(Cl)c3)C2=O)cc1)C(=O)NCCCCNC(=O)c1ccc(-c2c3nc(c(-c4ccccc4)c4ccc([nH]4)c(-c4ccccc4)c4nc(c(-c5ccccc5)c5ccc2[nH]5)C=C4)C=C3)cc1
REMARK SMILES IDX 29 1 28 2 26 3 27 4 2 6 1 7 3 8 4 9 5 10 25 11 6 12 24 13
REMARK SMILES IDX 7 14 8 15 9 16 10 17 22 18 11 19 13 20 23 21 12 22 14 23
REMARK SMILES IDX 15 24 21 25 16 26 19 27 17 28 20 29 18 30 30 31 31 32 32 33
REMARK SMILES IDX 33 34 34 35 35 37 36 38 37 39 83 40 38 41 82 42 39 43 40 44
REMARK SMILES IDX 41 45 76 46 42 47 81 48 75 49 77 50 43 51 80 52 74 53 73 54
REMARK SMILES IDX 44 56 66 57 51 58 65 59 52 60 55 61 64 62 78 63 53 64 54 65
REMARK SMILES IDX 63 67 79 68 56 69 45 70 46 71 50 72 47 73 49 74 48 75 67 76
REMARK SMILES IDX 68 77 72 78 69 79 71 80 70 81 57 82 58 83 62 84 59 85 61 86
REMARK SMILES IDX 60 87
REMARK H PARENT 28 5 33 36 77 55 55 66
REMARK Flexibility Score: inf
ROOT
ATOM      1  C   UNL A   1      40.773  27.310  28.023  1.00  0.00     0.116 C 
ENDROOT
BRANCH   1   2
ATOM      2  N   UNL A   1      41.559  27.655  29.196  1.00  0.00    -0.353 N 
ATOM      3  C   UNL A   1      41.551  28.810  29.938  1.00  0.00     0.260 C 
ATOM      4  O   UNL A   1      42.270  28.857  30.939  1.00  0.00    -0.271 OA
ATOM      5  H   UNL A   1      42.186  26.961  29.504  1.00  0.00     0.163 HD
BRANCH   3   6
ATOM      6  C   UNL A   1      40.630  29.984  29.557  1.00  0.00     0.258 C 
ATOM      7  C   UNL A   1      41.245  31.270  30.113  1.00  0.00     0.064 C 
BRANCH   6   8
ATOM      8  O   UNL A   1      39.337  29.564  29.994  1.00  0.00    -0.481 OA
BRANCH   8   9
ATOM      9  C   UNL A   1      38.190  29.774  29.306  1.00  0.00     0.120 A 
ATOM     10  C   UNL A   1      38.055  30.074  27.959  1.00  0.00     0.047 A 
ATOM     11  C   UNL A   1      37.044  29.673  30.099  1.00  0.00     0.047 A 
ATOM     12  C   UNL A   1      36.797  30.417  27.440  1.00  0.00     0.012 A 
ATOM     13  C   UNL A   1      35.788  29.974  29.579  1.00  0.00     0.012 A 
ATOM     14  C   UNL A   1      35.664  30.420  28.261  1.00  0.00    -0.024 A 
BRANCH  14  15
ATOM     15  C   UNL A   1      34.368  30.858  27.728  1.00  0.00     0.029 C 
ATOM     16  C   UNL A   1      33.569  30.150  26.911  1.00  0.00     0.081 C 
ATOM     17  S   UNL A   1      32.125  30.807  26.245  1.00  0.00    -0.054 SA
ATOM     18  C   UNL A   1      33.778  28.765  26.389  1.00  0.00     0.270 C 
ATOM     19  C   UNL A   1      31.880  29.436  25.161  1.00  0.00     0.152 C 
ATOM     20  N   UNL A   1      32.896  28.506  25.340  1.00  0.00    -0.261 N 
ATOM     21  O   UNL A   1      34.627  28.003  26.834  1.00  0.00    -0.268 OA
ATOM     22  S   UNL A   1      30.515  29.359  24.197  1.00  0.00    -0.051 S 
BRANCH  20  23
ATOM     23  C   UNL A   1      33.095  27.345  24.520  1.00  0.00     0.052 A 
ATOM     24  C   UNL A   1      33.613  27.455  23.217  1.00  0.00     0.030 A 
ATOM     25  C   UNL A   1      32.680  26.077  24.961  1.00  0.00     0.050 A 
ATOM     26  C   UNL A   1      33.725  26.337  22.385  1.00  0.00     0.043 A 
ATOM     27  C   UNL A   1      32.786  24.960  24.125  1.00  0.00     0.078 A 
ATOM     28  C   UNL A   1      33.307  25.094  22.842  1.00  0.00     0.141 A 
ATOM     29  Cl  UNL A   1      32.226  23.431  24.687  1.00  0.00    -0.081 Cl
ATOM     30  F   UNL A   1      33.399  24.037  22.024  1.00  0.00    -0.205 F 
ENDBRANCH  20  23
ENDBRANCH  14  15
ENDBRANCH   8   9
ENDBRANCH   6   8
ENDBRANCH   3   6
ENDBRANCH   1   2
BRANCH   1  31
ATOM     31  C   UNL A   1      39.485  26.567  28.366  1.00  0.00     0.023 C 
BRANCH  31  32
ATOM     32  C   UNL A   1      39.460  25.088  27.976  1.00  0.00     0.023 C 
BRANCH  32  33
ATOM     33  C   UNL A   1      39.763  24.784  26.512  1.00  0.00     0.116 C 
BRANCH  33  34
ATOM     34  N   UNL A   1      40.531  23.562  26.322  1.00  0.00    -0.352 N 
ATOM     35  C   UNL A   1      41.887  23.400  26.168  1.00  0.00     0.251 C 
ATOM     36  H   UNL A   1      40.002  22.732  26.300  1.00  0.00     0.163 HD
ATOM     37  O   UNL A   1      42.349  22.292  25.910  1.00  0.00    -0.269 OA
BRANCH  35  38
ATOM     38  C   UNL A   1      42.791  24.567  26.276  1.00  0.00     0.039 A 
ATOM     39  C   UNL A   1      43.446  24.801  27.489  1.00  0.00     0.014 A 
ATOM     40  C   UNL A   1      43.004  25.422  25.190  1.00  0.00     0.014 A 
ATOM     41  C   UNL A   1      44.373  25.842  27.590  1.00  0.00     0.010 A 
ATOM     42  C   UNL A   1      43.972  26.421  25.274  1.00  0.00     0.010 A 
ATOM     43  C   UNL A   1      44.672  26.636  26.470  1.00  0.00    -0.014 A 
BRANCH  43  44
ATOM     44  C   UNL A   1      45.726  27.680  26.525  1.00  0.00     0.031 A 
ATOM     45  C   UNL A   1      45.359  29.125  26.717  1.00  0.00     0.074 A 
ATOM     46  C   UNL A   1      47.014  27.338  26.324  1.00  0.00     0.049 A 
ATOM     47  N   UNL A   1      46.132  30.181  26.712  1.00  0.00    -0.248 NA
ATOM     48  C   UNL A   1      43.932  29.424  26.918  1.00  0.00     0.031 C 
ATOM     49  C   UNL A   1      47.506  25.979  26.087  1.00  0.00     0.029 A 
ATOM     50  N   UNL A   1      48.146  28.114  26.277  1.00  0.00    -0.354 N 
ATOM     51  C   UNL A   1      45.286  31.270  26.883  1.00  0.00     0.074 A 
ATOM     52  C   UNL A   1      43.938  30.749  26.956  1.00  0.00     0.031 C 
ATOM     53  C   UNL A   1      48.841  26.014  25.943  1.00  0.00     0.029 A 
ATOM     54  C   UNL A   1      49.294  27.398  26.040  1.00  0.00     0.049 A 
ATOM     55  H   UNL A   1      48.136  29.090  26.401  1.00  0.00     0.167 HD
ATOM     56  C   UNL A   1      45.602  32.582  26.983  1.00  0.00     0.031 A 
ATOM     57  C   UNL A   1      50.570  27.808  25.910  1.00  0.00     0.031 A 
ATOM     58  C   UNL A   1      46.941  33.104  26.936  1.00  0.00     0.049 A 
ATOM     59  C   UNL A   1      50.894  29.269  26.031  1.00  0.00     0.074 A 
ATOM     60  C   UNL A   1      47.363  34.413  27.097  1.00  0.00     0.029 A 
ATOM     61  N   UNL A   1      48.077  32.343  26.711  1.00  0.00    -0.354 N 
ATOM     62  N   UNL A   1      50.088  30.278  26.254  1.00  0.00    -0.248 NA
ATOM     63  C   UNL A   1      52.308  29.646  25.888  1.00  0.00     0.031 C 
ATOM     64  C   UNL A   1      48.752  34.449  26.934  1.00  0.00     0.029 A 
ATOM     65  C   UNL A   1      49.198  33.157  26.711  1.00  0.00     0.049 A 
ATOM     66  H   UNL A   1      48.086  31.369  26.572  1.00  0.00     0.167 HD
ATOM     67  C   UNL A   1      50.898  31.404  26.304  1.00  0.00     0.074 A 
ATOM     68  C   UNL A   1      52.260  30.955  26.098  1.00  0.00     0.031 C 
ATOM     69  C   UNL A   1      50.545  32.696  26.505  1.00  0.00     0.031 A 
BRANCH  56  70
ATOM     70  C   UNL A   1      44.469  33.552  27.150  1.00  0.00    -0.014 A 
ATOM     71  C   UNL A   1      43.903  34.204  26.043  1.00  0.00     0.009 A 
ATOM     72  C   UNL A   1      43.938  33.792  28.427  1.00  0.00     0.009 A 
ATOM     73  C   UNL A   1      42.849  35.104  26.217  1.00  0.00     0.001 A 
ATOM     74  C   UNL A   1      42.869  34.675  28.594  1.00  0.00     0.001 A 
ATOM     75  C   UNL A   1      42.331  35.336  27.492  1.00  0.00     0.000 A 
ENDBRANCH  56  70
BRANCH  57  76
ATOM     76  C   UNL A   1      51.649  26.815  25.670  1.00  0.00    -0.014 A 
ATOM     77  C   UNL A   1      52.081  26.545  24.364  1.00  0.00     0.009 A 
ATOM     78  C   UNL A   1      52.241  26.130  26.740  1.00  0.00     0.009 A 
ATOM     79  C   UNL A   1      53.074  25.590  24.131  1.00  0.00     0.001 A 
ATOM     80  C   UNL A   1      53.249  25.192  26.506  1.00  0.00     0.001 A 
ATOM     81  C   UNL A   1      53.658  24.917  25.202  1.00  0.00     0.000 A 
ENDBRANCH  57  76
BRANCH  69  82
ATOM     82  C   UNL A   1      51.650  33.710  26.546  1.00  0.00    -0.014 A 
ATOM     83  C   UNL A   1      52.078  34.363  25.380  1.00  0.00     0.009 A 
ATOM     84  C   UNL A   1      52.245  34.042  27.773  1.00  0.00     0.009 A 
ATOM     85  C   UNL A   1      53.102  35.310  25.441  1.00  0.00     0.001 A 
ATOM     86  C   UNL A   1      53.252  35.005  27.833  1.00  0.00     0.001 A 
ATOM     87  C   UNL A   1      53.685  35.633  26.666  1.00  0.00     0.000 A 
ENDBRANCH  69  82
ENDBRANCH  43  44
ENDBRANCH  35  38
ENDBRANCH  33  34
ENDBRANCH  32  33
ENDBRANCH  31  32
ENDBRANCH   1  31
TORSDOF 15
ENDMDL
MODEL 3
REMARK VINA RESULT:      -8.2      0.399      5.607
REMARK SMILES C[C@H](Oc1ccc(/C=C2/SC(=S)N(c3ccc(F)c(Cl)c3)C2=O)cc1)C(=O)NCCCCNC(=O)c1ccc(-c2c3nc(c(-c4ccccc4)c4ccc([nH]4)c(-c4ccccc4)c4nc(c(-c5ccccc5)c5ccc2[nH]5)C=C4)C=C3)cc1
REMARK SMILES IDX 29 1 28 2 26 3 27 4 2 6 1 7 3 8 4 9 5 10 25 11 6 12 24 13
REMARK SMILES IDX 7 14 8 15 9 16 10 17 22 18 11 19 13 20 23 21 12 22 14 23
REMARK SMILES IDX 15 24 21 25 16 26 19 27 17 28 20 29 18 30 30 31 31 32 32 33
REMARK SMILES IDX 33 34 34 35 35 37 36 38 37 39 83 40 38 41 82 42 39 43 40 44
REMARK SMILES IDX 41 45 76 46 42 47 81 48 75 49 77 50 43 51 80 52 74 53 73 54
REMARK SMILES IDX 44 56 66 57 51 58 65 59 52 60 55 61 64 62 78 63 53 64 54 65
REMARK SMILES IDX 63 67 79 68 56 69 45 70 46 71 50 72 47 73 49 74 48 75 67 76
REMARK SMILES IDX 68 77 72 78 69 79 71 80 70 81 57 82 58 83 62 84 59 85 61 86
REMARK SMILES IDX 60 87
REMARK H PARENT 28 5 33 36 77 55 55 66
REMARK Flexibility Score: inf
ROOT
ATOM      1  C   UNL A   1      35.168  33.930  31.713  1.00  0.00     0.116 C 
ENDROOT
BRANCH   1   2
ATOM      2  N   UNL A   1      35.550  32.545  31.936  1.00  0.00    -0.353 N 
ATOM      3  C   UNL A   1      36.605  32.041  32.655  1.00  0.00     0.260 C 
ATOM      4  O   UNL A   1      36.700  30.815  32.756  1.00  0.00    -0.271 OA
ATOM      5  H   UNL A   1      34.969  31.873  31.512  1.00  0.00     0.163 HD
BRANCH   3   6
ATOM      6  C   UNL A   1      37.604  32.982  33.355  1.00  0.00     0.258 C 
ATOM      7  C   UNL A   1      37.038  33.337  34.731  1.00  0.00     0.064 C 
BRANCH   6   8
ATOM      8  O   UNL A   1      37.838  34.011  32.393  1.00  0.00    -0.481 OA
BRANCH   8   9
ATOM      9  C   UNL A   1      39.021  34.221  31.768  1.00  0.00     0.120 A 
ATOM     10  C   UNL A   1      40.274  34.347  32.350  1.00  0.00     0.047 A 
ATOM     11  C   UNL A   1      38.902  34.323  30.380  1.00  0.00     0.047 A 
ATOM     12  C   UNL A   1      41.376  34.721  31.566  1.00  0.00     0.012 A 
ATOM     13  C   UNL A   1      40.002  34.655  29.592  1.00  0.00     0.012 A 
ATOM     14  C   UNL A   1      41.234  34.928  30.190  1.00  0.00    -0.024 A 
BRANCH  14  15
ATOM     15  C   UNL A   1      42.375  35.397  29.393  1.00  0.00     0.029 C 
ATOM     16  C   UNL A   1      43.338  34.625  28.861  1.00  0.00     0.081 C 
ATOM     17  S   UNL A   1      44.701  35.288  28.046  1.00  0.00    -0.054 SA
ATOM     18  C   UNL A   1      43.461  33.136  28.914  1.00  0.00     0.270 C 
ATOM     19  C   UNL A   1      45.525  33.732  27.942  1.00  0.00     0.152 C 
ATOM     20  N   UNL A   1      44.741  32.743  28.520  1.00  0.00    -0.261 N 
ATOM     21  O   UNL A   1      42.551  32.402  29.276  1.00  0.00    -0.268 OA
ATOM     22  S   UNL A   1      46.987  33.606  27.137  1.00  0.00    -0.051 S 
BRANCH  20  23
ATOM     23  C   UNL A   1      45.165  31.390  28.745  1.00  0.00     0.052 A 
ATOM     24  C   UNL A   1      45.925  31.046  29.877  1.00  0.00     0.030 A 
ATOM     25  C   UNL A   1      44.919  30.393  27.786  1.00  0.00     0.050 A 
ATOM     26  C   UNL A   1      46.414  29.748  30.055  1.00  0.00     0.043 A 
ATOM     27  C   UNL A   1      45.415  29.096  27.961  1.00  0.00     0.078 A 
ATOM     28  C   UNL A   1      46.159  28.780  29.092  1.00  0.00     0.141 A 
ATOM     29  Cl  UNL A   1      45.128  27.914  26.742  1.00  0.00    -0.081 Cl
ATOM     30  F   UNL A   1      46.656  27.547  29.266  1.00  0.00    -0.205 F 
ENDBRANCH  20  23
ENDBRANCH  14  15
ENDBRANCH   8   9
ENDBRANCH   6   8
ENDBRANCH   3   6
ENDBRANCH   1   2
BRANCH   1  31
ATOM     31  C   UNL A   1      34.902  34.244  30.243  1.00  0.00     0.023 C 
BRANCH  31  32
ATOM     32  C   UNL A   1      34.076  33.199  29.492  1.00  0.00     0.023 C 
BRANCH  32  33
ATOM     33  C   UNL A   1      34.599  32.807  28.112  1.00  0.00     0.116 C 
BRANCH  33  34
ATOM     34  N   UNL A   1      33.980  31.602  27.580  1.00  0.00    -0.352 N 
ATOM     35  C   UNL A   1      34.497  30.334  27.467  1.00  0.00     0.251 C 
ATOM     36  H   UNL A   1      33.059  31.713  27.252  1.00  0.00     0.163 HD
ATOM     37  O   UNL A   1      33.859  29.459  26.888  1.00  0.00    -0.269 OA
BRANCH  35  38
ATOM     38  C   UNL A   1      35.840  30.028  28.010  1.00  0.00     0.039 A 
ATOM     39  C   UNL A   1      35.945  29.569  29.327  1.00  0.00     0.014 A 
ATOM     40  C   UNL A   1      36.989  30.181  27.229  1.00  0.00     0.014 A 
ATOM     41  C   UNL A   1      37.190  29.188  29.834  1.00  0.00     0.010 A 
ATOM     42  C   UNL A   1      38.221  29.745  27.715  1.00  0.00     0.010 A 
ATOM     43  C   UNL A   1      38.332  29.236  29.018  1.00  0.00    -0.014 A 
BRANCH  43  44
ATOM     44  C   UNL A   1      39.646  28.741  29.501  1.00  0.00     0.031 A 
ATOM     45  C   UNL A   1      40.202  27.439  28.995  1.00  0.00     0.074 A 
ATOM     46  C   UNL A   1      40.306  29.424  30.456  1.00  0.00     0.049 A 
ATOM     47  N   UNL A   1      41.291  26.810  29.358  1.00  0.00    -0.248 NA
ATOM     48  C   UNL A   1      39.420  26.742  27.962  1.00  0.00     0.031 C 
ATOM     49  C   UNL A   1      39.861  30.680  31.064  1.00  0.00     0.029 A 
ATOM     50  N   UNL A   1      41.492  29.149  31.092  1.00  0.00    -0.354 N 
ATOM     51  C   UNL A   1      41.312  25.634  28.619  1.00  0.00     0.074 A 
ATOM     52  C   UNL A   1      40.111  25.622  27.810  1.00  0.00     0.031 C 
ATOM     53  C   UNL A   1      40.773  31.078  31.967  1.00  0.00     0.029 A 
ATOM     54  C   UNL A   1      41.845  30.090  32.028  1.00  0.00     0.049 A 
ATOM     55  H   UNL A   1      42.036  28.353  30.895  1.00  0.00     0.167 HD
ATOM     56  C   UNL A   1      42.251  24.658  28.603  1.00  0.00     0.031 A 
ATOM     57  C   UNL A   1      42.910  30.150  32.849  1.00  0.00     0.031 A 
ATOM     58  C   UNL A   1      43.457  24.676  29.385  1.00  0.00     0.049 A 
ATOM     59  C   UNL A   1      43.940  29.058  32.808  1.00  0.00     0.074 A 
ATOM     60  C   UNL A   1      44.499  23.764  29.383  1.00  0.00     0.029 A 
ATOM     61  N   UNL A   1      43.785  25.655  30.309  1.00  0.00    -0.354 N 
ATOM     62  N   UNL A   1      43.974  27.983  32.058  1.00  0.00    -0.248 NA
ATOM     63  C   UNL A   1      45.082  29.191  33.724  1.00  0.00     0.031 C 
ATOM     64  C   UNL A   1      45.441  24.174  30.333  1.00  0.00     0.029 A 
ATOM     65  C   UNL A   1      45.004  25.360  30.896  1.00  0.00     0.049 A 
ATOM     66  H   UNL A   1      43.233  26.443  30.516  1.00  0.00     0.167 HD
ATOM     67  C   UNL A   1      45.151  27.328  32.393  1.00  0.00     0.074 A 
ATOM     68  C   UNL A   1      45.808  28.128  33.405  1.00  0.00     0.031 C 
ATOM     69  C   UNL A   1      45.645  26.165  31.901  1.00  0.00     0.031 A 
BRANCH  56  70
ATOM     70  C   UNL A   1      42.003  23.479  27.707  1.00  0.00    -0.014 A 
ATOM     71  C   UNL A   1      42.588  23.400  26.434  1.00  0.00     0.009 A 
ATOM     72  C   UNL A   1      41.202  22.418  28.157  1.00  0.00     0.009 A 
ATOM     73  C   UNL A   1      42.346  22.296  25.614  1.00  0.00     0.001 A 
ATOM     74  C   UNL A   1      40.983  21.305  27.343  1.00  0.00     0.001 A 
ATOM     75  C   UNL A   1      41.547  21.248  26.070  1.00  0.00     0.000 A 
ENDBRANCH  56  70
BRANCH  57  76
ATOM     76  C   UNL A   1      43.073  31.302  33.772  1.00  0.00    -0.014 A 
ATOM     77  C   UNL A   1      43.765  32.448  33.356  1.00  0.00     0.009 A 
ATOM     78  C   UNL A   1      42.546  31.258  35.071  1.00  0.00     0.009 A 
ATOM     79  C   UNL A   1      43.948  33.521  34.230  1.00  0.00     0.001 A 
ATOM     80  C   UNL A   1      42.710  32.342  35.936  1.00  0.00     0.001 A 
ATOM     81  C   UNL A   1      43.417  33.468  35.519  1.00  0.00     0.000 A 
ENDBRANCH  57  76
BRANCH  69  82
ATOM     82  C   UNL A   1      46.973  25.709  32.429  1.00  0.00    -0.014 A 
ATOM     83  C   UNL A   1      47.063  24.931  33.593  1.00  0.00     0.009 A 
ATOM     84  C   UNL A   1      48.147  26.031  31.730  1.00  0.00     0.009 A 
ATOM     85  C   UNL A   1      48.308  24.508  34.062  1.00  0.00     0.001 A 
ATOM     86  C   UNL A   1      49.387  25.588  32.189  1.00  0.00     0.001 A 
ATOM     87  C   UNL A   1      49.468  24.833  33.358  1.00  0.00     0.000 A 
ENDBRANCH  69  82
ENDBRANCH  43  44
ENDBRANCH  35  38
ENDBRANCH  33  34
ENDBRANCH  32  33
ENDBRANCH  31  32
ENDBRANCH   1  31
TORSDOF 15
ENDMDL
