MODEL 1
REMARK VINA RESULT:     -12.7      0.000      0.000
REMARK SMILES Cc1nc(-c2ccc3c(c2)CCN3S(=O)(=O)c2ccc(F)c(C(=O)NCCCCNC(=O)c3ccc(-c4c5nc(c(-c6ccccc6)c6ccc([nH]6)c(-c6ccccc6)c6nc(c(-c7ccccc7)c7ccc4[nH]7)C=C6)C=C5)cc3)c2)cs1
REMARK SMILES IDX 27 1 26 2 25 3 23 4 24 5 22 7 17 8 18 9 81 10 19 11 20 12
REMARK SMILES IDX 21 13 14 14 15 15 16 16 13 17 5 18 6 19 10 20 7 21 9 22 8 23
REMARK SMILES IDX 11 24 12 25 4 26 1 27 2 28 3 29 83 30 82 31 28 32 29 33
REMARK SMILES IDX 30 34 31 35 32 37 33 38 34 39 80 40 35 41 79 42 36 43 37 44
REMARK SMILES IDX 38 45 73 46 39 47 78 48 72 49 74 50 40 51 77 52 71 53 70 54
REMARK SMILES IDX 41 56 63 57 48 58 62 59 49 60 52 61 61 62 75 63 50 64 51 65
REMARK SMILES IDX 60 67 76 68 53 69 42 70 43 71 47 72 44 73 46 74 45 75 64 76
REMARK SMILES IDX 65 77 69 78 66 79 68 80 67 81 54 82 55 83 59 84 56 85 58 86
REMARK SMILES IDX 57 87
REMARK H PARENT 25 6 30 36 74 55 52 66
REMARK Flexibility Score: inf
ROOT
ATOM      1  C   UNL A   1      37.241  21.454  24.469  1.00  0.00     0.023 C 
ENDROOT
BRANCH   1   2
ATOM      2  C   UNL A   1      36.972  22.535  25.503  1.00  0.00     0.116 C 
BRANCH   2   3
ATOM      3  N   UNL A   1      36.060  22.166  26.570  1.00  0.00    -0.352 N 
ATOM      4  C   UNL A   1      34.684  22.210  26.648  1.00  0.00     0.254 C 
ATOM      5  O   UNL A   1      34.158  21.762  27.668  1.00  0.00    -0.269 OA
ATOM      6  H   UNL A   1      36.502  21.825  27.382  1.00  0.00     0.163 HD
BRANCH   4   7
ATOM      7  C   UNL A   1      33.811  22.835  25.615  1.00  0.00     0.076 A 
ATOM      8  C   UNL A   1      32.248  24.592  25.020  1.00  0.00     0.089 A 
ATOM      9  C   UNL A   1      32.323  24.230  23.670  1.00  0.00     0.025 A 
ATOM     10  C   UNL A   1      33.059  23.971  25.980  1.00  0.00     0.039 A 
ATOM     11  C   UNL A   1      32.990  23.064  23.331  1.00  0.00     0.041 A 
ATOM     12  C   UNL A   1      33.630  22.328  24.326  1.00  0.00     0.136 A 
ATOM     13  F   UNL A   1      33.945  21.062  24.018  1.00  0.00    -0.206 F 
BRANCH   8  14
ATOM     14  S   UNL A   1      30.998  25.768  25.473  1.00  0.00     0.264 S 
ATOM     15  O   UNL A   1      30.976  25.794  26.922  1.00  0.00    -0.201 OA
ATOM     16  O   UNL A   1      29.790  25.436  24.742  1.00  0.00    -0.201 OA
BRANCH  14  17
ATOM     17  N   UNL A   1      31.525  27.305  24.912  1.00  0.00    -0.266 N 
ATOM     18  C   UNL A   1      33.275  30.575  26.951  1.00  0.00     0.001 A 
ATOM     19  C   UNL A   1      33.786  29.294  27.202  1.00  0.00     0.012 A 
ATOM     20  C   UNL A   1      32.228  30.721  26.031  1.00  0.00     0.016 A 
ATOM     21  C   UNL A   1      33.252  28.169  26.564  1.00  0.00     0.028 A 
ATOM     22  C   UNL A   1      31.694  29.577  25.431  1.00  0.00    -0.021 A 
ATOM     23  C   UNL A   1      32.144  28.297  25.750  1.00  0.00     0.055 A 
ATOM     24  C   UNL A   1      30.760  29.533  24.264  1.00  0.00     0.060 C 
ATOM     25  C   UNL A   1      30.430  28.034  24.164  1.00  0.00     0.140 C 
BRANCH  18  26
ATOM     26  C   UNL A   1      33.940  31.715  27.565  1.00  0.00     0.081 A 
ATOM     27  C   UNL A   1      37.097  33.106  28.762  1.00  0.00     0.079 C 
ATOM     28  C   UNL A   1      35.690  32.801  28.382  1.00  0.00     0.090 A 
ATOM     29  N   UNL A   1      35.301  31.674  27.828  1.00  0.00    -0.242 NA
ATOM     30  S   UNL A   1      34.444  33.950  28.664  1.00  0.00    -0.127 S 
ATOM     31  C   UNL A   1      33.304  32.871  27.966  1.00  0.00     0.095 A 
ENDBRANCH  18  26
ENDBRANCH  14  17
ENDBRANCH   8  14
ENDBRANCH   4   7
ENDBRANCH   2   3
ENDBRANCH   1   2
BRANCH   1  32
ATOM     32  C   UNL A   1      37.948  20.201  24.956  1.00  0.00     0.023 C 
BRANCH  32  33
ATOM     33  C   UNL A   1      39.208  20.425  25.780  1.00  0.00     0.116 C 
BRANCH  33  34
ATOM     34  N   UNL A   1      40.115  19.284  25.805  1.00  0.00    -0.352 N 
ATOM     35  C   UNL A   1      41.464  19.244  26.072  1.00  0.00     0.251 C 
ATOM     36  H   UNL A   1      39.700  18.414  25.603  1.00  0.00     0.163 HD
ATOM     37  O   UNL A   1      42.090  18.194  25.965  1.00  0.00    -0.269 OA
BRANCH  35  38
ATOM     38  C   UNL A   1      42.168  20.487  26.448  1.00  0.00     0.039 A 
ATOM     39  C   UNL A   1      42.687  21.304  25.442  1.00  0.00     0.014 A 
ATOM     40  C   UNL A   1      42.258  20.873  27.787  1.00  0.00     0.014 A 
ATOM     41  C   UNL A   1      43.212  22.554  25.773  1.00  0.00     0.010 A 
ATOM     42  C   UNL A   1      42.689  22.156  28.103  1.00  0.00     0.010 A 
ATOM     43  C   UNL A   1      43.169  23.011  27.100  1.00  0.00    -0.014 A 
BRANCH  43  44
ATOM     44  C   UNL A   1      43.619  24.379  27.464  1.00  0.00     0.031 A 
ATOM     45  C   UNL A   1      42.615  25.414  27.892  1.00  0.00     0.074 A 
ATOM     46  C   UNL A   1      44.920  24.713  27.344  1.00  0.00     0.049 A 
ATOM     47  N   UNL A   1      42.804  26.673  28.196  1.00  0.00    -0.248 NA
ATOM     48  C   UNL A   1      41.209  24.983  27.963  1.00  0.00     0.031 C 
ATOM     49  C   UNL A   1      45.990  23.816  26.901  1.00  0.00     0.029 A 
ATOM     50  N   UNL A   1      45.563  25.901  27.584  1.00  0.00    -0.354 N 
ATOM     51  C   UNL A   1      41.543  27.183  28.478  1.00  0.00     0.074 A 
ATOM     52  C   UNL A   1      40.592  26.120  28.246  1.00  0.00     0.031 C 
ATOM     53  C   UNL A   1      47.160  24.474  26.942  1.00  0.00     0.029 A 
ATOM     54  C   UNL A   1      46.918  25.850  27.364  1.00  0.00     0.049 A 
ATOM     55  H   UNL A   1      45.096  26.715  27.885  1.00  0.00     0.167 HD
ATOM     56  C   UNL A   1      41.206  28.420  28.917  1.00  0.00     0.031 A 
ATOM     57  C   UNL A   1      47.861  26.804  27.485  1.00  0.00     0.031 A 
ATOM     58  C   UNL A   1      42.150  29.480  29.146  1.00  0.00     0.049 A 
ATOM     59  C   UNL A   1      47.456  28.181  27.934  1.00  0.00     0.074 A 
ATOM     60  C   UNL A   1      41.915  30.754  29.632  1.00  0.00     0.029 A 
ATOM     61  N   UNL A   1      43.511  29.390  28.898  1.00  0.00    -0.354 N 
ATOM     62  N   UNL A   1      46.269  28.630  28.263  1.00  0.00    -0.248 NA
ATOM     63  C   UNL A   1      48.528  29.182  28.036  1.00  0.00     0.031 C 
ATOM     64  C   UNL A   1      43.125  31.455  29.620  1.00  0.00     0.029 A 
ATOM     65  C   UNL A   1      44.124  30.596  29.193  1.00  0.00     0.049 A 
ATOM     66  H   UNL A   1      43.973  28.588  28.561  1.00  0.00     0.167 HD
ATOM     67  C   UNL A   1      46.456  29.952  28.643  1.00  0.00     0.074 A 
ATOM     68  C   UNL A   1      47.872  30.228  28.518  1.00  0.00     0.031 C 
ATOM     69  C   UNL A   1      45.536  30.857  29.062  1.00  0.00     0.031 A 
BRANCH  56  70
ATOM     70  C   UNL A   1      39.745  28.686  29.166  1.00  0.00    -0.014 A 
ATOM     71  C   UNL A   1      38.906  29.163  28.144  1.00  0.00     0.009 A 
ATOM     72  C   UNL A   1      39.196  28.446  30.434  1.00  0.00     0.009 A 
ATOM     73  C   UNL A   1      37.562  29.439  28.401  1.00  0.00     0.001 A 
ATOM     74  C   UNL A   1      37.843  28.690  30.680  1.00  0.00     0.001 A 
ATOM     75  C   UNL A   1      37.031  29.198  29.668  1.00  0.00     0.000 A 
ENDBRANCH  56  70
BRANCH  57  76
ATOM     76  C   UNL A   1      49.286  26.487  27.201  1.00  0.00    -0.014 A 
ATOM     77  C   UNL A   1      49.764  26.491  25.880  1.00  0.00     0.009 A 
ATOM     78  C   UNL A   1      50.175  26.174  28.240  1.00  0.00     0.009 A 
ATOM     79  C   UNL A   1      51.092  26.159  25.606  1.00  0.00     0.001 A 
ATOM     80  C   UNL A   1      51.511  25.875  27.966  1.00  0.00     0.001 A 
ATOM     81  C   UNL A   1      51.966  25.857  26.648  1.00  0.00     0.000 A 
ENDBRANCH  57  76
BRANCH  69  82
ATOM     82  C   UNL A   1      46.039  32.219  29.456  1.00  0.00    -0.014 A 
ATOM     83  C   UNL A   1      46.476  32.490  30.761  1.00  0.00     0.009 A 
ATOM     84  C   UNL A   1      46.114  33.234  28.488  1.00  0.00     0.009 A 
ATOM     85  C   UNL A   1      46.944  33.763  31.098  1.00  0.00     0.001 A 
ATOM     86  C   UNL A   1      46.614  34.494  28.819  1.00  0.00     0.001 A 
ATOM     87  C   UNL A   1      47.019  34.760  30.126  1.00  0.00     0.000 A 
ENDBRANCH  69  82
ENDBRANCH  43  44
ENDBRANCH  35  38
ENDBRANCH  33  34
ENDBRANCH  32  33
ENDBRANCH   1  32
TORSDOF 14
ENDMDL
MODEL 2
REMARK VINA RESULT:     -12.7      0.502      5.683
REMARK SMILES Cc1nc(-c2ccc3c(c2)CCN3S(=O)(=O)c2ccc(F)c(C(=O)NCCCCNC(=O)c3ccc(-c4c5nc(c(-c6ccccc6)c6ccc([nH]6)c(-c6ccccc6)c6nc(c(-c7ccccc7)c7ccc4[nH]7)C=C6)C=C5)cc3)c2)cs1
REMARK SMILES IDX 27 1 26 2 25 3 23 4 24 5 22 7 17 8 18 9 81 10 19 11 20 12
REMARK SMILES IDX 21 13 14 14 15 15 16 16 13 17 5 18 6 19 10 20 7 21 9 22 8 23
REMARK SMILES IDX 11 24 12 25 4 26 1 27 2 28 3 29 83 30 82 31 28 32 29 33
REMARK SMILES IDX 30 34 31 35 32 37 33 38 34 39 80 40 35 41 79 42 36 43 37 44
REMARK SMILES IDX 38 45 73 46 39 47 78 48 72 49 74 50 40 51 77 52 71 53 70 54
REMARK SMILES IDX 41 56 63 57 48 58 62 59 49 60 52 61 61 62 75 63 50 64 51 65
REMARK SMILES IDX 60 67 76 68 53 69 42 70 43 71 47 72 44 73 46 74 45 75 64 76
REMARK SMILES IDX 65 77 69 78 66 79 68 80 67 81 54 82 55 83 59 84 56 85 58 86
REMARK SMILES IDX 57 87
REMARK H PARENT 25 6 30 36 74 55 52 66
REMARK Flexibility Score: inf
ROOT
ATOM      1  C   UNL A   1      37.189  21.242  24.394  1.00  0.00     0.023 C 
ENDROOT
BRANCH   1   2
ATOM      2  C   UNL A   1      36.862  22.344  25.389  1.00  0.00     0.116 C 
BRANCH   2   3
ATOM      3  N   UNL A   1      35.972  21.965  26.472  1.00  0.00    -0.352 N 
ATOM      4  C   UNL A   1      34.598  22.002  26.576  1.00  0.00     0.254 C 
ATOM      5  O   UNL A   1      34.094  21.545  27.603  1.00  0.00    -0.269 OA
ATOM      6  H   UNL A   1      36.431  21.621  27.272  1.00  0.00     0.163 HD
BRANCH   4   7
ATOM      7  C   UNL A   1      33.702  22.629  25.564  1.00  0.00     0.076 A 
ATOM      8  C   UNL A   1      32.155  24.408  24.995  1.00  0.00     0.089 A 
ATOM      9  C   UNL A   1      32.176  24.023  23.649  1.00  0.00     0.025 A 
ATOM     10  C   UNL A   1      32.986  23.785  25.936  1.00  0.00     0.039 A 
ATOM     11  C   UNL A   1      32.807  22.838  23.306  1.00  0.00     0.041 A 
ATOM     12  C   UNL A   1      33.467  22.105  24.290  1.00  0.00     0.136 A 
ATOM     13  F   UNL A   1      33.746  20.828  23.992  1.00  0.00    -0.206 F 
BRANCH   8  14
ATOM     14  S   UNL A   1      30.944  25.615  25.470  1.00  0.00     0.264 S 
ATOM     15  O   UNL A   1      30.967  25.657  26.919  1.00  0.00    -0.201 OA
ATOM     16  O   UNL A   1      29.708  25.302  24.779  1.00  0.00    -0.201 OA
BRANCH  14  17
ATOM     17  N   UNL A   1      31.487  27.134  24.877  1.00  0.00    -0.266 N 
ATOM     18  C   UNL A   1      32.796  30.618  26.895  1.00  0.00     0.001 A 
ATOM     19  C   UNL A   1      33.313  29.383  27.310  1.00  0.00     0.012 A 
ATOM     20  C   UNL A   1      31.888  30.649  25.827  1.00  0.00     0.016 A 
ATOM     21  C   UNL A   1      32.922  28.192  26.689  1.00  0.00     0.028 A 
ATOM     22  C   UNL A   1      31.492  29.442  25.244  1.00  0.00    -0.021 A 
ATOM     23  C   UNL A   1      31.940  28.210  25.718  1.00  0.00     0.055 A 
ATOM     24  C   UNL A   1      30.740  29.272  23.963  1.00  0.00     0.060 C 
ATOM     25  C   UNL A   1      30.486  27.756  23.929  1.00  0.00     0.140 C 
BRANCH  18  26
ATOM     26  C   UNL A   1      33.320  31.828  27.510  1.00  0.00     0.081 A 
ATOM     27  C   UNL A   1      36.114  33.364  29.290  1.00  0.00     0.079 C 
ATOM     28  C   UNL A   1      34.840  33.012  28.604  1.00  0.00     0.090 A 
ATOM     29  N   UNL A   1      34.568  31.822  28.115  1.00  0.00    -0.242 NA
ATOM     30  S   UNL A   1      33.602  34.187  28.411  1.00  0.00    -0.127 S 
ATOM     31  C   UNL A   1      32.641  33.026  27.586  1.00  0.00     0.095 A 
ENDBRANCH  18  26
ENDBRANCH  14  17
ENDBRANCH   8  14
ENDBRANCH   4   7
ENDBRANCH   2   3
ENDBRANCH   1   2
BRANCH   1  32
ATOM     32  C   UNL A   1      37.898  20.015  24.940  1.00  0.00     0.023 C 
BRANCH  32  33
ATOM     33  C   UNL A   1      39.102  20.284  25.832  1.00  0.00     0.116 C 
BRANCH  33  34
ATOM     34  N   UNL A   1      40.091  19.213  25.839  1.00  0.00    -0.352 N 
ATOM     35  C   UNL A   1      41.441  19.271  26.092  1.00  0.00     0.251 C 
ATOM     36  H   UNL A   1      39.740  18.316  25.632  1.00  0.00     0.163 HD
ATOM     37  O   UNL A   1      42.142  18.271  25.968  1.00  0.00    -0.269 OA
BRANCH  35  38
ATOM     38  C   UNL A   1      42.055  20.559  26.473  1.00  0.00     0.039 A 
ATOM     39  C   UNL A   1      42.523  21.411  25.469  1.00  0.00     0.014 A 
ATOM     40  C   UNL A   1      42.110  20.950  27.812  1.00  0.00     0.014 A 
ATOM     41  C   UNL A   1      42.959  22.694  25.804  1.00  0.00     0.010 A 
ATOM     42  C   UNL A   1      42.449  22.259  28.130  1.00  0.00     0.010 A 
ATOM     43  C   UNL A   1      42.876  23.146  27.131  1.00  0.00    -0.014 A 
BRANCH  43  44
ATOM     44  C   UNL A   1      43.228  24.542  27.498  1.00  0.00     0.031 A 
ATOM     45  C   UNL A   1      44.666  24.983  27.494  1.00  0.00     0.074 A 
ATOM     46  C   UNL A   1      42.264  25.394  27.899  1.00  0.00     0.049 A 
ATOM     47  N   UNL A   1      45.177  26.140  27.834  1.00  0.00    -0.248 NA
ATOM     48  C   UNL A   1      45.664  23.984  27.078  1.00  0.00     0.031 C 
ATOM     49  C   UNL A   1      40.835  25.082  27.987  1.00  0.00     0.029 A 
ATOM     50  N   UNL A   1      42.341  26.701  28.312  1.00  0.00    -0.354 N 
ATOM     51  C   UNL A   1      46.551  25.999  27.687  1.00  0.00     0.074 A 
ATOM     52  C   UNL A   1      46.799  24.631  27.292  1.00  0.00     0.031 C 
ATOM     53  C   UNL A   1      40.169  26.177  28.385  1.00  0.00     0.029 A 
ATOM     54  C   UNL A   1      41.124  27.253  28.629  1.00  0.00     0.049 A 
ATOM     55  H   UNL A   1      43.190  27.196  28.375  1.00  0.00     0.167 HD
ATOM     56  C   UNL A   1      47.521  26.932  27.841  1.00  0.00     0.031 A 
ATOM     57  C   UNL A   1      40.811  28.487  29.069  1.00  0.00     0.031 A 
ATOM     58  C   UNL A   1      47.277  28.293  28.235  1.00  0.00     0.049 A 
ATOM     59  C   UNL A   1      41.910  29.493  29.272  1.00  0.00     0.074 A 
ATOM     60  C   UNL A   1      48.186  29.327  28.377  1.00  0.00     0.029 A 
ATOM     61  N   UNL A   1      46.031  28.808  28.560  1.00  0.00    -0.354 N 
ATOM     62  N   UNL A   1      43.198  29.366  29.063  1.00  0.00    -0.248 NA
ATOM     63  C   UNL A   1      41.507  30.818  29.765  1.00  0.00     0.031 C 
ATOM     64  C   UNL A   1      47.497  30.451  28.845  1.00  0.00     0.029 A 
ATOM     65  C   UNL A   1      46.151  30.137  28.929  1.00  0.00     0.049 A 
ATOM     66  H   UNL A   1      45.185  28.303  28.532  1.00  0.00     0.167 HD
ATOM     67  C   UNL A   1      43.754  30.603  29.365  1.00  0.00     0.074 A 
ATOM     68  C   UNL A   1      42.662  31.469  29.757  1.00  0.00     0.031 C 
ATOM     69  C   UNL A   1      45.054  30.987  29.319  1.00  0.00     0.031 A 
BRANCH  56  70
ATOM     70  C   UNL A   1      48.939  26.497  27.587  1.00  0.00    -0.014 A 
ATOM     71  C   UNL A   1      49.770  26.069  28.637  1.00  0.00     0.009 A 
ATOM     72  C   UNL A   1      49.450  26.502  26.281  1.00  0.00     0.009 A 
ATOM     73  C   UNL A   1      51.094  25.703  28.390  1.00  0.00     0.001 A 
ATOM     74  C   UNL A   1      50.765  26.102  26.031  1.00  0.00     0.001 A 
ATOM     75  C   UNL A   1      51.590  25.715  27.087  1.00  0.00     0.000 A 
ENDBRANCH  56  70
BRANCH  57  76
ATOM     76  C   UNL A   1      39.392  28.851  29.327  1.00  0.00    -0.014 A 
ATOM     77  C   UNL A   1      38.832  28.667  30.601  1.00  0.00     0.009 A 
ATOM     78  C   UNL A   1      38.587  29.378  28.305  1.00  0.00     0.009 A 
ATOM     79  C   UNL A   1      37.491  28.974  30.837  1.00  0.00     0.001 A 
ATOM     80  C   UNL A   1      37.255  29.715  28.552  1.00  0.00     0.001 A 
ATOM     81  C   UNL A   1      36.705  29.503  29.815  1.00  0.00     0.000 A 
ENDBRANCH  57  76
BRANCH  69  82
ATOM     82  C   UNL A   1      45.362  32.418  29.662  1.00  0.00    -0.014 A 
ATOM     83  C   UNL A   1      45.309  33.433  28.694  1.00  0.00     0.009 A 
ATOM     84  C   UNL A   1      45.669  32.761  30.989  1.00  0.00     0.009 A 
ATOM     85  C   UNL A   1      45.594  34.756  29.041  1.00  0.00     0.001 A 
ATOM     86  C   UNL A   1      45.919  34.088  31.340  1.00  0.00     0.001 A 
ATOM     87  C   UNL A   1      45.892  35.082  30.364  1.00  0.00     0.000 A 
ENDBRANCH  69  82
ENDBRANCH  43  44
ENDBRANCH  35  38
ENDBRANCH  33  34
ENDBRANCH  32  33
ENDBRANCH   1  32
TORSDOF 14
ENDMDL
MODEL 3
REMARK VINA RESULT:     -11.6      5.039     10.417
REMARK SMILES Cc1nc(-c2ccc3c(c2)CCN3S(=O)(=O)c2ccc(F)c(C(=O)NCCCCNC(=O)c3ccc(-c4c5nc(c(-c6ccccc6)c6ccc([nH]6)c(-c6ccccc6)c6nc(c(-c7ccccc7)c7ccc4[nH]7)C=C6)C=C5)cc3)c2)cs1
REMARK SMILES IDX 27 1 26 2 25 3 23 4 24 5 22 7 17 8 18 9 81 10 19 11 20 12
REMARK SMILES IDX 21 13 14 14 15 15 16 16 13 17 5 18 6 19 10 20 7 21 9 22 8 23
REMARK SMILES IDX 11 24 12 25 4 26 1 27 2 28 3 29 83 30 82 31 28 32 29 33
REMARK SMILES IDX 30 34 31 35 32 37 33 38 34 39 80 40 35 41 79 42 36 43 37 44
REMARK SMILES IDX 38 45 73 46 39 47 78 48 72 49 74 50 40 51 77 52 71 53 70 54
REMARK SMILES IDX 41 56 63 57 48 58 62 59 49 60 52 61 61 62 75 63 50 64 51 65
REMARK SMILES IDX 60 67 76 68 53 69 42 70 43 71 47 72 44 73 46 74 45 75 64 76
REMARK SMILES IDX 65 77 69 78 66 79 68 80 67 81 54 82 55 83 59 84 56 85 58 86
REMARK SMILES IDX 57 87
REMARK H PARENT 25 6 30 36 74 55 52 66
REMARK Flexibility Score: inf
ROOT
ATOM      1  C   UNL A   1      46.365  26.109  31.811  1.00  0.00     0.023 C 
ENDROOT
BRANCH   1   2
ATOM      2  C   UNL A   1      46.467  25.779  30.331  1.00  0.00     0.116 C 
BRANCH   2   3
ATOM      3  N   UNL A   1      46.245  26.893  29.426  1.00  0.00    -0.352 N 
ATOM      4  C   UNL A   1      45.596  26.963  28.211  1.00  0.00     0.254 C 
ATOM      5  O   UNL A   1      45.497  28.073  27.684  1.00  0.00    -0.269 OA
ATOM      6  H   UNL A   1      46.625  27.748  29.734  1.00  0.00     0.163 HD
BRANCH   4   7
ATOM      7  C   UNL A   1      45.086  25.777  27.469  1.00  0.00     0.076 A 
ATOM      8  C   UNL A   1      43.399  24.048  27.247  1.00  0.00     0.089 A 
ATOM      9  C   UNL A   1      43.909  23.684  25.995  1.00  0.00     0.025 A 
ATOM     10  C   UNL A   1      43.913  25.151  27.941  1.00  0.00     0.039 A 
ATOM     11  C   UNL A   1      45.108  24.238  25.578  1.00  0.00     0.041 A 
ATOM     12  C   UNL A   1      45.732  25.196  26.375  1.00  0.00     0.136 A 
ATOM     13  F   UNL A   1      47.025  25.433  26.115  1.00  0.00    -0.206 F 
BRANCH   8  14
ATOM     14  S   UNL A   1      42.176  22.980  27.963  1.00  0.00     0.264 S 
ATOM     15  O   UNL A   1      41.205  23.850  28.597  1.00  0.00    -0.201 OA
ATOM     16  O   UNL A   1      42.867  21.978  28.752  1.00  0.00    -0.201 OA
BRANCH  14  17
ATOM     17  N   UNL A   1      41.401  22.160  26.666  1.00  0.00    -0.266 N 
ATOM     18  C   UNL A   1      37.326  21.914  25.549  1.00  0.00     0.001 A 
ATOM     19  C   UNL A   1      37.849  23.178  25.857  1.00  0.00     0.012 A 
ATOM     20  C   UNL A   1      38.171  20.797  25.606  1.00  0.00     0.016 A 
ATOM     21  C   UNL A   1      39.186  23.330  26.236  1.00  0.00     0.028 A 
ATOM     22  C   UNL A   1      39.495  20.974  26.016  1.00  0.00    -0.021 A 
ATOM     23  C   UNL A   1      39.988  22.218  26.408  1.00  0.00     0.055 A 
ATOM     24  C   UNL A   1      40.605  19.977  25.912  1.00  0.00     0.060 C 
ATOM     25  C   UNL A   1      41.756  20.689  26.641  1.00  0.00     0.140 C 
BRANCH  18  26
ATOM     26  C   UNL A   1      35.957  21.834  25.062  1.00  0.00     0.081 A 
ATOM     27  C   UNL A   1      32.956  19.775  24.762  1.00  0.00     0.079 C 
ATOM     28  C   UNL A   1      34.018  20.818  24.720  1.00  0.00     0.090 A 
ATOM     29  N   UNL A   1      35.218  20.673  25.235  1.00  0.00    -0.242 NA
ATOM     30  S   UNL A   1      33.721  22.330  23.960  1.00  0.00    -0.127 S 
ATOM     31  C   UNL A   1      35.309  22.839  24.375  1.00  0.00     0.095 A 
ENDBRANCH  18  26
ENDBRANCH  14  17
ENDBRANCH   8  14
ENDBRANCH   4   7
ENDBRANCH   2   3
ENDBRANCH   1   2
BRANCH   1  32
ATOM     32  C   UNL A   1      47.466  25.571  32.709  1.00  0.00     0.023 C 
BRANCH  32  33
ATOM     33  C   UNL A   1      47.018  24.641  33.827  1.00  0.00     0.116 C 
BRANCH  33  34
ATOM     34  N   UNL A   1      47.420  25.072  35.160  1.00  0.00    -0.352 N 
ATOM     35  C   UNL A   1      46.906  26.077  35.947  1.00  0.00     0.251 C 
ATOM     36  H   UNL A   1      48.170  24.571  35.555  1.00  0.00     0.163 HD
ATOM     37  O   UNL A   1      47.431  26.359  37.019  1.00  0.00    -0.269 OA
BRANCH  35  38
ATOM     38  C   UNL A   1      45.739  26.848  35.471  1.00  0.00     0.039 A 
ATOM     39  C   UNL A   1      45.938  28.133  34.961  1.00  0.00     0.014 A 
ATOM     40  C   UNL A   1      44.465  26.278  35.471  1.00  0.00     0.014 A 
ATOM     41  C   UNL A   1      44.871  28.808  34.364  1.00  0.00     0.010 A 
ATOM     42  C   UNL A   1      43.432  26.908  34.789  1.00  0.00     0.010 A 
ATOM     43  C   UNL A   1      43.623  28.179  34.227  1.00  0.00    -0.014 A 
BRANCH  43  44
ATOM     44  C   UNL A   1      42.503  28.830  33.499  1.00  0.00     0.031 A 
ATOM     45  C   UNL A   1      41.554  29.737  34.232  1.00  0.00     0.074 A 
ATOM     46  C   UNL A   1      42.299  28.553  32.196  1.00  0.00     0.049 A 
ATOM     47  N   UNL A   1      40.487  30.353  33.785  1.00  0.00    -0.248 NA
ATOM     48  C   UNL A   1      41.822  29.961  35.662  1.00  0.00     0.031 C 
ATOM     49  C   UNL A   1      43.122  27.659  31.377  1.00  0.00     0.029 A 
ATOM     50  N   UNL A   1      41.330  28.996  31.330  1.00  0.00    -0.354 N 
ATOM     51  C   UNL A   1      39.955  31.021  34.880  1.00  0.00     0.074 A 
ATOM     52  C   UNL A   1      40.773  30.684  36.024  1.00  0.00     0.031 C 
ATOM     53  C   UNL A   1      42.648  27.653  30.121  1.00  0.00     0.029 A 
ATOM     54  C   UNL A   1      41.462  28.500  30.055  1.00  0.00     0.049 A 
ATOM     55  H   UNL A   1      40.609  29.610  31.597  1.00  0.00     0.167 HD
ATOM     56  C   UNL A   1      38.894  31.862  34.929  1.00  0.00     0.031 A 
ATOM     57  C   UNL A   1      40.711  28.703  28.956  1.00  0.00     0.031 A 
ATOM     58  C   UNL A   1      38.077  32.196  33.793  1.00  0.00     0.049 A 
ATOM     59  C   UNL A   1      39.513  29.608  29.044  1.00  0.00     0.074 A 
ATOM     60  C   UNL A   1      37.008  33.072  33.728  1.00  0.00     0.029 A 
ATOM     61  N   UNL A   1      38.236  31.662  32.523  1.00  0.00    -0.354 N 
ATOM     62  N   UNL A   1      39.062  30.287  30.070  1.00  0.00    -0.248 NA
ATOM     63  C   UNL A   1      38.726  29.780  27.814  1.00  0.00     0.031 C 
ATOM     64  C   UNL A   1      36.482  33.021  32.433  1.00  0.00     0.029 A 
ATOM     65  C   UNL A   1      37.267  32.167  31.675  1.00  0.00     0.049 A 
ATOM     66  H   UNL A   1      38.936  31.018  32.264  1.00  0.00     0.167 HD
ATOM     67  C   UNL A   1      37.960  30.993  29.603  1.00  0.00     0.074 A 
ATOM     68  C   UNL A   1      37.822  30.671  28.198  1.00  0.00     0.031 C 
ATOM     69  C   UNL A   1      37.139  31.836  30.278  1.00  0.00     0.031 A 
BRANCH  56  70
ATOM     70  C   UNL A   1      38.558  32.468  36.264  1.00  0.00    -0.014 A 
ATOM     71  C   UNL A   1      38.983  33.764  36.606  1.00  0.00     0.009 A 
ATOM     72  C   UNL A   1      37.796  31.741  37.191  1.00  0.00     0.009 A 
ATOM     73  C   UNL A   1      38.694  34.296  37.863  1.00  0.00     0.001 A 
ATOM     74  C   UNL A   1      37.478  32.290  38.436  1.00  0.00     0.001 A 
ATOM     75  C   UNL A   1      37.938  33.561  38.776  1.00  0.00     0.000 A 
ENDBRANCH  56  70
BRANCH  57  76
ATOM     76  C   UNL A   1      41.079  28.055  27.668  1.00  0.00    -0.014 A 
ATOM     77  C   UNL A   1      42.030  28.648  26.822  1.00  0.00     0.009 A 
ATOM     78  C   UNL A   1      40.481  26.849  27.272  1.00  0.00     0.009 A 
ATOM     79  C   UNL A   1      42.351  28.063  25.596  1.00  0.00     0.001 A 
ATOM     80  C   UNL A   1      40.828  26.248  26.061  1.00  0.00     0.001 A 
ATOM     81  C   UNL A   1      41.755  26.861  25.219  1.00  0.00     0.000 A 
ENDBRANCH  57  76
BRANCH  69  82
ATOM     82  C   UNL A   1      36.042  32.502  29.494  1.00  0.00    -0.014 A 
ATOM     83  C   UNL A   1      34.848  31.831  29.187  1.00  0.00     0.009 A 
ATOM     84  C   UNL A   1      36.192  33.840  29.094  1.00  0.00     0.009 A 
ATOM     85  C   UNL A   1      33.842  32.476  28.462  1.00  0.00     0.001 A 
ATOM     86  C   UNL A   1      35.172  34.492  28.401  1.00  0.00     0.001 A 
ATOM     87  C   UNL A   1      34.003  33.807  28.076  1.00  0.00     0.000 A 
ENDBRANCH  69  82
ENDBRANCH  43  44
ENDBRANCH  35  38
ENDBRANCH  33  34
ENDBRANCH  32  33
ENDBRANCH   1  32
TORSDOF 14
ENDMDL
