MODEL 1
REMARK VINA RESULT:     -12.3      0.000      0.000
REMARK SMILES NS(=O)(=O)c1ccc(NS(=O)(=O)c2cccc(C(=O)NCCCCNC(=O)c3ccc(-c4c5nc(c(-c6ccccc6)c6ccc([nH]6)c(-c6ccccc6)c6nc(c(-c7ccccc7)c7ccc4[nH]7)C=C6)C=C5)cc3)c2)cc1
REMARK SMILES IDX 21 1 20 2 18 3 19 4 17 6 13 7 14 8 76 9 15 10 16 11 10 12
REMARK SMILES IDX 11 13 12 14 9 15 8 17 5 18 6 19 78 20 7 21 77 22 2 23 3 24
REMARK SMILES IDX 4 25 1 26 22 29 23 30 24 31 25 32 26 33 27 35 28 36 29 37
REMARK SMILES IDX 75 38 30 39 74 40 31 41 32 42 33 43 68 44 34 45 73 46 67 47
REMARK SMILES IDX 69 48 35 49 72 50 66 51 65 52 36 54 58 55 43 56 57 57 44 58
REMARK SMILES IDX 47 59 56 60 70 61 45 62 46 63 55 65 71 66 48 67 37 68 38 69
REMARK SMILES IDX 42 70 39 71 41 72 40 73 59 74 60 75 64 76 61 77 63 78 62 79
REMARK SMILES IDX 49 80 50 81 54 82 51 83 53 84 52 85
REMARK H PARENT 20 5 9 16 1 27 1 28 25 34 69 53 47 64
REMARK Flexibility Score: inf
ROOT
ATOM      1  C   UNL A   1      35.878  20.978  25.410  1.00  0.00     0.116 C 
ENDROOT
BRANCH   1   2
ATOM      2  N   UNL A   1      35.036  19.862  24.994  1.00  0.00    -0.352 N 
ATOM      3  C   UNL A   1      33.740  19.815  24.524  1.00  0.00     0.251 C 
ATOM      4  O   UNL A   1      33.229  18.724  24.278  1.00  0.00    -0.269 OA
ATOM      5  H   UNL A   1      35.473  18.983  25.060  1.00  0.00     0.163 HD
BRANCH   3   6
ATOM      6  C   UNL A   1      32.929  21.047  24.370  1.00  0.00     0.041 A 
ATOM      7  C   UNL A   1      31.331  22.610  25.269  1.00  0.00     0.088 A 
ATOM      8  C   UNL A   1      31.068  23.112  23.995  1.00  0.00     0.022 A 
ATOM      9  C   UNL A   1      32.338  21.666  25.464  1.00  0.00     0.036 A 
ATOM     10  C   UNL A   1      31.811  22.630  22.911  1.00  0.00     0.002 A 
ATOM     11  C   UNL A   1      32.718  21.579  23.094  1.00  0.00     0.014 A 
BRANCH   7  12
ATOM     12  S   UNL A   1      30.393  23.088  26.701  1.00  0.00     0.261 S 
ATOM     13  O   UNL A   1      31.329  23.324  27.778  1.00  0.00    -0.201 OA
ATOM     14  O   UNL A   1      29.331  22.112  26.831  1.00  0.00    -0.201 OA
BRANCH  12  15
ATOM     15  N   UNL A   1      29.659  24.528  26.325  1.00  0.00    -0.280 N 
ATOM     16  H   UNL A   1      28.693  24.600  26.505  1.00  0.00     0.180 HD
BRANCH  15  17
ATOM     17  C   UNL A   1      30.296  25.663  25.766  1.00  0.00     0.049 A 
ATOM     18  C   UNL A   1      31.650  27.541  24.223  1.00  0.00     0.082 A 
ATOM     19  C   UNL A   1      32.225  27.075  25.405  1.00  0.00     0.024 A 
ATOM     20  C   UNL A   1      30.353  27.168  23.870  1.00  0.00     0.024 A 
ATOM     21  C   UNL A   1      31.526  26.165  26.198  1.00  0.00     0.028 A 
ATOM     22  C   UNL A   1      29.681  26.224  24.644  1.00  0.00     0.028 A 
BRANCH  18  23
ATOM     23  S   UNL A   1      32.656  28.485  23.121  1.00  0.00     0.238 S 
ATOM     24  O   UNL A   1      33.251  27.572  22.168  1.00  0.00    -0.207 OA
ATOM     25  O   UNL A   1      33.419  29.431  23.890  1.00  0.00    -0.207 OA
BRANCH  23  26
ATOM     26  N   UNL A   1      31.550  29.383  22.227  1.00  0.00    -0.225 NA
ATOM     27  H   UNL A   1      30.903  29.853  22.859  1.00  0.00     0.137 HD
ATOM     28  H   UNL A   1      31.029  28.762  21.607  1.00  0.00     0.137 HD
ENDBRANCH  23  26
ENDBRANCH  18  23
ENDBRANCH  15  17
ENDBRANCH  12  15
ENDBRANCH   7  12
ENDBRANCH   3   6
ENDBRANCH   1   2
BRANCH   1  29
ATOM     29  C   UNL A   1      37.239  21.026  24.732  1.00  0.00     0.023 C 
BRANCH  29  30
ATOM     30  C   UNL A   1      38.141  19.825  24.978  1.00  0.00     0.023 C 
BRANCH  30  31
ATOM     31  C   UNL A   1      39.397  20.095  25.798  1.00  0.00     0.116 C 
BRANCH  31  32
ATOM     32  N   UNL A   1      40.350  18.993  25.824  1.00  0.00    -0.352 N 
ATOM     33  C   UNL A   1      41.698  19.031  26.098  1.00  0.00     0.251 C 
ATOM     34  H   UNL A   1      39.980  18.104  25.619  1.00  0.00     0.163 HD
ATOM     35  O   UNL A   1      42.381  18.015  26.041  1.00  0.00    -0.269 OA
BRANCH  33  36
ATOM     36  C   UNL A   1      42.328  20.330  26.409  1.00  0.00     0.039 A 
ATOM     37  C   UNL A   1      42.891  21.070  25.366  1.00  0.00     0.014 A 
ATOM     38  C   UNL A   1      42.281  20.847  27.705  1.00  0.00     0.014 A 
ATOM     39  C   UNL A   1      43.317  22.379  25.605  1.00  0.00     0.010 A 
ATOM     40  C   UNL A   1      42.634  22.173  27.922  1.00  0.00     0.010 A 
ATOM     41  C   UNL A   1      43.142  22.956  26.872  1.00  0.00    -0.014 A 
BRANCH  41  42
ATOM     42  C   UNL A   1      43.463  24.381  27.132  1.00  0.00     0.031 A 
ATOM     43  C   UNL A   1      44.884  24.857  27.023  1.00  0.00     0.074 A 
ATOM     44  C   UNL A   1      42.502  25.218  27.566  1.00  0.00     0.049 A 
ATOM     45  N   UNL A   1      45.395  26.015  27.353  1.00  0.00    -0.248 NA
ATOM     46  C   UNL A   1      45.865  23.888  26.506  1.00  0.00     0.031 C 
ATOM     47  C   UNL A   1      41.090  24.874  27.751  1.00  0.00     0.029 A 
ATOM     48  N   UNL A   1      42.574  26.534  27.953  1.00  0.00    -0.354 N 
ATOM     49  C   UNL A   1      46.759  25.903  27.116  1.00  0.00     0.074 A 
ATOM     50  C   UNL A   1      47.000  24.554  26.650  1.00  0.00     0.031 C 
ATOM     51  C   UNL A   1      40.428  25.954  28.196  1.00  0.00     0.029 A 
ATOM     52  C   UNL A   1      41.372  27.052  28.370  1.00  0.00     0.049 A 
ATOM     53  H   UNL A   1      43.408  27.057  27.930  1.00  0.00     0.167 HD
ATOM     54  C   UNL A   1      47.723  26.841  27.260  1.00  0.00     0.031 A 
ATOM     55  C   UNL A   1      41.068  28.271  28.855  1.00  0.00     0.031 A 
ATOM     56  C   UNL A   1      47.481  28.190  27.698  1.00  0.00     0.049 A 
ATOM     57  C   UNL A   1      42.154  29.300  28.996  1.00  0.00     0.074 A 
ATOM     58  C   UNL A   1      48.384  29.230  27.821  1.00  0.00     0.029 A 
ATOM     59  N   UNL A   1      46.243  28.683  28.075  1.00  0.00    -0.354 N 
ATOM     60  N   UNL A   1      43.432  29.194  28.724  1.00  0.00    -0.248 NA
ATOM     61  C   UNL A   1      41.753  30.621  29.505  1.00  0.00     0.031 C 
ATOM     62  C   UNL A   1      47.697  30.348  28.307  1.00  0.00     0.029 A 
ATOM     63  C   UNL A   1      46.359  30.013  28.442  1.00  0.00     0.049 A 
ATOM     64  H   UNL A   1      45.405  28.166  28.082  1.00  0.00     0.167 HD
ATOM     65  C   UNL A   1      43.982  30.439  28.996  1.00  0.00     0.074 A 
ATOM     66  C   UNL A   1      42.899  31.287  29.450  1.00  0.00     0.031 C 
ATOM     67  C   UNL A   1      45.269  30.845  28.878  1.00  0.00     0.031 A 
BRANCH  54  68
ATOM     68  C   UNL A   1      49.133  26.434  26.944  1.00  0.00    -0.014 A 
ATOM     69  C   UNL A   1      49.664  26.596  25.654  1.00  0.00     0.009 A 
ATOM     70  C   UNL A   1      49.948  25.899  27.953  1.00  0.00     0.009 A 
ATOM     71  C   UNL A   1      50.972  26.194  25.373  1.00  0.00     0.001 A 
ATOM     72  C   UNL A   1      51.263  25.524  27.676  1.00  0.00     0.001 A 
ATOM     73  C   UNL A   1      51.770  25.662  26.385  1.00  0.00     0.000 A 
ENDBRANCH  54  68
BRANCH  55  74
ATOM     74  C   UNL A   1      39.668  28.596  29.228  1.00  0.00    -0.014 A 
ATOM     75  C   UNL A   1      38.796  29.161  28.283  1.00  0.00     0.009 A 
ATOM     76  C   UNL A   1      39.194  28.349  30.526  1.00  0.00     0.009 A 
ATOM     77  C   UNL A   1      37.487  29.495  28.637  1.00  0.00     0.001 A 
ATOM     78  C   UNL A   1      37.878  28.662  30.870  1.00  0.00     0.001 A 
ATOM     79  C   UNL A   1      37.028  29.242  29.929  1.00  0.00     0.000 A 
ENDBRANCH  55  74
BRANCH  67  80
ATOM     80  C   UNL A   1      45.571  32.280  29.194  1.00  0.00    -0.014 A 
ATOM     81  C   UNL A   1      45.470  33.279  28.214  1.00  0.00     0.009 A 
ATOM     82  C   UNL A   1      45.908  32.642  30.507  1.00  0.00     0.009 A 
ATOM     83  C   UNL A   1      45.725  34.613  28.541  1.00  0.00     0.001 A 
ATOM     84  C   UNL A   1      46.140  33.978  30.836  1.00  0.00     0.001 A 
ATOM     85  C   UNL A   1      46.054  34.961  29.851  1.00  0.00     0.000 A 
ENDBRANCH  67  80
ENDBRANCH  41  42
ENDBRANCH  33  36
ENDBRANCH  31  32
ENDBRANCH  30  31
ENDBRANCH  29  30
ENDBRANCH   1  29
TORSDOF 16
ENDMDL
MODEL 2
REMARK VINA RESULT:     -12.2      2.409      3.132
REMARK SMILES NS(=O)(=O)c1ccc(NS(=O)(=O)c2cccc(C(=O)NCCCCNC(=O)c3ccc(-c4c5nc(c(-c6ccccc6)c6ccc([nH]6)c(-c6ccccc6)c6nc(c(-c7ccccc7)c7ccc4[nH]7)C=C6)C=C5)cc3)c2)cc1
REMARK SMILES IDX 21 1 20 2 18 3 19 4 17 6 13 7 14 8 76 9 15 10 16 11 10 12
REMARK SMILES IDX 11 13 12 14 9 15 8 17 5 18 6 19 78 20 7 21 77 22 2 23 3 24
REMARK SMILES IDX 4 25 1 26 22 29 23 30 24 31 25 32 26 33 27 35 28 36 29 37
REMARK SMILES IDX 75 38 30 39 74 40 31 41 32 42 33 43 68 44 34 45 73 46 67 47
REMARK SMILES IDX 69 48 35 49 72 50 66 51 65 52 36 54 58 55 43 56 57 57 44 58
REMARK SMILES IDX 47 59 56 60 70 61 45 62 46 63 55 65 71 66 48 67 37 68 38 69
REMARK SMILES IDX 42 70 39 71 41 72 40 73 59 74 60 75 64 76 61 77 63 78 62 79
REMARK SMILES IDX 49 80 50 81 54 82 51 83 53 84 52 85
REMARK H PARENT 20 5 9 16 1 27 1 28 25 34 69 53 47 64
REMARK Flexibility Score: inf
ROOT
ATOM      1  C   UNL A   1      34.905  20.367  24.888  1.00  0.00     0.116 C 
ENDROOT
BRANCH   1   2
ATOM      2  N   UNL A   1      34.300  20.626  26.189  1.00  0.00    -0.352 N 
ATOM      3  C   UNL A   1      33.812  21.782  26.761  1.00  0.00     0.251 C 
ATOM      4  O   UNL A   1      33.382  21.749  27.912  1.00  0.00    -0.269 OA
ATOM      5  H   UNL A   1      34.226  19.830  26.763  1.00  0.00     0.163 HD
BRANCH   3   6
ATOM      6  C   UNL A   1      33.853  23.077  26.039  1.00  0.00     0.041 A 
ATOM      7  C   UNL A   1      32.852  24.627  24.490  1.00  0.00     0.088 A 
ATOM      8  C   UNL A   1      34.065  25.295  24.335  1.00  0.00     0.022 A 
ATOM      9  C   UNL A   1      32.723  23.599  25.423  1.00  0.00     0.036 A 
ATOM     10  C   UNL A   1      35.161  24.897  25.109  1.00  0.00     0.002 A 
ATOM     11  C   UNL A   1      35.064  23.771  25.937  1.00  0.00     0.014 A 
BRANCH   7  12
ATOM     12  S   UNL A   1      31.421  24.992  23.500  1.00  0.00     0.261 S 
ATOM     13  O   UNL A   1      30.489  23.898  23.658  1.00  0.00    -0.201 OA
ATOM     14  O   UNL A   1      31.920  25.369  22.194  1.00  0.00    -0.201 OA
BRANCH  12  15
ATOM     15  N   UNL A   1      30.735  26.357  24.148  1.00  0.00    -0.280 N 
ATOM     16  H   UNL A   1      30.834  26.490  25.119  1.00  0.00     0.180 HD
BRANCH  15  17
ATOM     17  C   UNL A   1      30.021  27.348  23.431  1.00  0.00     0.049 A 
ATOM     18  C   UNL A   1      28.829  29.652  22.426  1.00  0.00     0.082 A 
ATOM     19  C   UNL A   1      28.034  28.648  22.979  1.00  0.00     0.024 A 
ATOM     20  C   UNL A   1      30.201  29.461  22.262  1.00  0.00     0.024 A 
ATOM     21  C   UNL A   1      28.630  27.477  23.445  1.00  0.00     0.028 A 
ATOM     22  C   UNL A   1      30.793  28.307  22.771  1.00  0.00     0.028 A 
BRANCH  18  23
ATOM     23  S   UNL A   1      28.082  31.216  22.084  1.00  0.00     0.238 S 
ATOM     24  O   UNL A   1      27.229  31.556  23.203  1.00  0.00    -0.207 OA
ATOM     25  O   UNL A   1      27.631  31.221  20.718  1.00  0.00    -0.207 OA
BRANCH  23  26
ATOM     26  N   UNL A   1      29.360  32.306  22.167  1.00  0.00    -0.225 NA
ATOM     27  H   UNL A   1      29.197  32.963  22.929  1.00  0.00     0.137 HD
ATOM     28  H   UNL A   1      29.430  32.816  21.286  1.00  0.00     0.137 HD
ENDBRANCH  23  26
ENDBRANCH  18  23
ENDBRANCH  15  17
ENDBRANCH  12  15
ENDBRANCH   7  12
ENDBRANCH   3   6
ENDBRANCH   1   2
BRANCH   1  29
ATOM     29  C   UNL A   1      36.359  19.921  24.948  1.00  0.00     0.023 C 
BRANCH  29  30
ATOM     30  C   UNL A   1      37.394  21.016  24.733  1.00  0.00     0.023 C 
BRANCH  30  31
ATOM     31  C   UNL A   1      38.532  21.061  25.746  1.00  0.00     0.116 C 
BRANCH  31  32
ATOM     32  N   UNL A   1      39.467  19.948  25.654  1.00  0.00    -0.352 N 
ATOM     33  C   UNL A   1      40.794  19.909  26.019  1.00  0.00     0.251 C 
ATOM     34  H   UNL A   1      39.102  19.114  25.281  1.00  0.00     0.163 HD
ATOM     35  O   UNL A   1      41.467  18.901  25.841  1.00  0.00    -0.269 OA
BRANCH  33  36
ATOM     36  C   UNL A   1      41.417  21.126  26.580  1.00  0.00     0.039 A 
ATOM     37  C   UNL A   1      42.026  22.032  25.710  1.00  0.00     0.014 A 
ATOM     38  C   UNL A   1      41.317  21.406  27.945  1.00  0.00     0.014 A 
ATOM     39  C   UNL A   1      42.448  23.272  26.193  1.00  0.00     0.010 A 
ATOM     40  C   UNL A   1      41.666  22.668  28.408  1.00  0.00     0.010 A 
ATOM     41  C   UNL A   1      42.222  23.618  27.534  1.00  0.00    -0.014 A 
BRANCH  41  42
ATOM     42  C   UNL A   1      42.539  24.971  28.056  1.00  0.00     0.031 A 
ATOM     43  C   UNL A   1      43.935  25.286  28.512  1.00  0.00     0.074 A 
ATOM     44  C   UNL A   1      41.555  25.876  28.218  1.00  0.00     0.049 A 
ATOM     45  N   UNL A   1      44.382  26.347  29.133  1.00  0.00    -0.248 NA
ATOM     46  C   UNL A   1      44.957  24.256  28.264  1.00  0.00     0.031 C 
ATOM     47  C   UNL A   1      40.150  25.683  27.852  1.00  0.00     0.029 A 
ATOM     48  N   UNL A   1      41.586  27.139  28.756  1.00  0.00    -0.354 N 
ATOM     49  C   UNL A   1      45.726  26.097  29.381  1.00  0.00     0.074 A 
ATOM     50  C   UNL A   1      46.012  24.772  28.875  1.00  0.00     0.031 C 
ATOM     51  C   UNL A   1      39.459  26.794  28.157  1.00  0.00     0.029 A 
ATOM     52  C   UNL A   1      40.359  27.758  28.781  1.00  0.00     0.049 A 
ATOM     53  H   UNL A   1      42.410  27.562  29.091  1.00  0.00     0.167 HD
ATOM     54  C   UNL A   1      46.643  26.903  29.964  1.00  0.00     0.031 A 
ATOM     55  C   UNL A   1      39.997  28.960  29.266  1.00  0.00     0.031 A 
ATOM     56  C   UNL A   1      46.366  28.230  30.443  1.00  0.00     0.049 A 
ATOM     57  C   UNL A   1      41.037  29.842  29.900  1.00  0.00     0.074 A 
ATOM     58  C   UNL A   1      47.242  29.146  30.998  1.00  0.00     0.029 A 
ATOM     59  N   UNL A   1      45.118  28.832  30.415  1.00  0.00    -0.354 N 
ATOM     60  N   UNL A   1      42.313  29.611  30.085  1.00  0.00    -0.248 NA
ATOM     61  C   UNL A   1      40.584  31.155  30.386  1.00  0.00     0.031 C 
ATOM     62  C   UNL A   1      46.516  30.293  31.338  1.00  0.00     0.029 A 
ATOM     63  C   UNL A   1      45.198  30.105  30.952  1.00  0.00     0.049 A 
ATOM     64  H   UNL A   1      44.297  28.416  30.065  1.00  0.00     0.167 HD
ATOM     65  C   UNL A   1      42.823  30.757  30.678  1.00  0.00     0.074 A 
ATOM     66  C   UNL A   1      41.721  31.686  30.817  1.00  0.00     0.031 C 
ATOM     67  C   UNL A   1      44.094  31.020  31.069  1.00  0.00     0.031 A 
BRANCH  54  68
ATOM     68  C   UNL A   1      48.034  26.361  30.120  1.00  0.00    -0.014 A 
ATOM     69  C   UNL A   1      48.441  25.736  31.310  1.00  0.00     0.009 A 
ATOM     70  C   UNL A   1      48.945  26.461  29.058  1.00  0.00     0.009 A 
ATOM     71  C   UNL A   1      49.745  25.254  31.445  1.00  0.00     0.001 A 
ATOM     72  C   UNL A   1      50.239  25.954  29.186  1.00  0.00     0.001 A 
ATOM     73  C   UNL A   1      50.641  25.361  30.381  1.00  0.00     0.000 A 
ENDBRANCH  54  68
BRANCH  55  74
ATOM     74  C   UNL A   1      38.588  29.414  29.157  1.00  0.00    -0.014 A 
ATOM     75  C   UNL A   1      37.710  29.265  30.243  1.00  0.00     0.009 A 
ATOM     76  C   UNL A   1      38.109  29.993  27.972  1.00  0.00     0.009 A 
ATOM     77  C   UNL A   1      36.376  29.664  30.136  1.00  0.00     0.001 A 
ATOM     78  C   UNL A   1      36.781  30.413  27.876  1.00  0.00     0.001 A 
ATOM     79  C   UNL A   1      35.913  30.241  28.954  1.00  0.00     0.000 A 
ENDBRANCH  55  74
BRANCH  67  80
ATOM     80  C   UNL A   1      44.373  32.381  31.637  1.00  0.00    -0.014 A 
ATOM     81  C   UNL A   1      44.297  32.625  33.016  1.00  0.00     0.009 A 
ATOM     82  C   UNL A   1      44.771  33.418  30.779  1.00  0.00     0.009 A 
ATOM     83  C   UNL A   1      44.592  33.892  33.523  1.00  0.00     0.001 A 
ATOM     84  C   UNL A   1      45.088  34.677  31.291  1.00  0.00     0.001 A 
ATOM     85  C   UNL A   1      44.993  34.914  32.661  1.00  0.00     0.000 A 
ENDBRANCH  67  80
ENDBRANCH  41  42
ENDBRANCH  33  36
ENDBRANCH  31  32
ENDBRANCH  30  31
ENDBRANCH  29  30
ENDBRANCH   1  29
TORSDOF 16
ENDMDL
MODEL 3
REMARK VINA RESULT:     -12.2      2.204      6.308
REMARK SMILES NS(=O)(=O)c1ccc(NS(=O)(=O)c2cccc(C(=O)NCCCCNC(=O)c3ccc(-c4c5nc(c(-c6ccccc6)c6ccc([nH]6)c(-c6ccccc6)c6nc(c(-c7ccccc7)c7ccc4[nH]7)C=C6)C=C5)cc3)c2)cc1
REMARK SMILES IDX 21 1 20 2 18 3 19 4 17 6 13 7 14 8 76 9 15 10 16 11 10 12
REMARK SMILES IDX 11 13 12 14 9 15 8 17 5 18 6 19 78 20 7 21 77 22 2 23 3 24
REMARK SMILES IDX 4 25 1 26 22 29 23 30 24 31 25 32 26 33 27 35 28 36 29 37
REMARK SMILES IDX 75 38 30 39 74 40 31 41 32 42 33 43 68 44 34 45 73 46 67 47
REMARK SMILES IDX 69 48 35 49 72 50 66 51 65 52 36 54 58 55 43 56 57 57 44 58
REMARK SMILES IDX 47 59 56 60 70 61 45 62 46 63 55 65 71 66 48 67 37 68 38 69
REMARK SMILES IDX 42 70 39 71 41 72 40 73 59 74 60 75 64 76 61 77 63 78 62 79
REMARK SMILES IDX 49 80 50 81 54 82 51 83 53 84 52 85
REMARK H PARENT 20 5 9 16 1 27 1 28 25 34 69 53 47 64
REMARK Flexibility Score: inf
ROOT
ATOM      1  C   UNL A   1      34.809  20.471  24.968  1.00  0.00     0.116 C 
ENDROOT
BRANCH   1   2
ATOM      2  N   UNL A   1      34.266  20.774  26.288  1.00  0.00    -0.352 N 
ATOM      3  C   UNL A   1      33.754  21.936  26.825  1.00  0.00     0.251 C 
ATOM      4  O   UNL A   1      33.392  21.947  27.999  1.00  0.00    -0.269 OA
ATOM      5  H   UNL A   1      34.265  20.009  26.907  1.00  0.00     0.163 HD
BRANCH   3   6
ATOM      6  C   UNL A   1      33.688  23.189  26.033  1.00  0.00     0.041 A 
ATOM      7  C   UNL A   1      32.575  24.555  24.390  1.00  0.00     0.088 A 
ATOM      8  C   UNL A   1      33.725  25.323  24.213  1.00  0.00     0.022 A 
ATOM      9  C   UNL A   1      32.526  23.570  25.376  1.00  0.00     0.036 A 
ATOM     10  C   UNL A   1      34.839  25.070  25.021  1.00  0.00     0.002 A 
ATOM     11  C   UNL A   1      34.831  23.986  25.909  1.00  0.00     0.014 A 
BRANCH   7  12
ATOM     12  S   UNL A   1      31.135  24.732  23.363  1.00  0.00     0.261 S 
ATOM     13  O   UNL A   1      30.471  23.448  23.316  1.00  0.00    -0.201 OA
ATOM     14  O   UNL A   1      31.581  25.391  22.153  1.00  0.00    -0.201 OA
BRANCH  12  15
ATOM     15  N   UNL A   1      30.135  25.806  24.138  1.00  0.00    -0.280 N 
ATOM     16  H   UNL A   1      29.867  25.585  25.060  1.00  0.00     0.180 HD
BRANCH  15  17
ATOM     17  C   UNL A   1      29.630  27.012  23.592  1.00  0.00     0.049 A 
ATOM     18  C   UNL A   1      28.825  29.613  23.019  1.00  0.00     0.082 A 
ATOM     19  C   UNL A   1      27.865  28.622  23.224  1.00  0.00     0.024 A 
ATOM     20  C   UNL A   1      30.181  29.289  22.979  1.00  0.00     0.024 A 
ATOM     21  C   UNL A   1      28.271  27.311  23.470  1.00  0.00     0.028 A 
ATOM     22  C   UNL A   1      30.579  27.986  23.271  1.00  0.00     0.028 A 
BRANCH  18  23
ATOM     23  S   UNL A   1      28.290  31.295  22.965  1.00  0.00     0.238 S 
ATOM     24  O   UNL A   1      27.055  31.393  23.715  1.00  0.00    -0.207 OA
ATOM     25  O   UNL A   1      28.437  31.782  21.620  1.00  0.00    -0.207 OA
BRANCH  23  26
ATOM     26  N   UNL A   1      29.427  32.115  23.895  1.00  0.00    -0.225 NA
ATOM     27  H   UNL A   1      29.082  32.208  24.850  1.00  0.00     0.137 HD
ATOM     28  H   UNL A   1      29.586  33.041  23.499  1.00  0.00     0.137 HD
ENDBRANCH  23  26
ENDBRANCH  18  23
ENDBRANCH  15  17
ENDBRANCH  12  15
ENDBRANCH   7  12
ENDBRANCH   3   6
ENDBRANCH   1   2
BRANCH   1  29
ATOM     29  C   UNL A   1      36.295  20.144  24.959  1.00  0.00     0.023 C 
BRANCH  29  30
ATOM     30  C   UNL A   1      37.231  21.334  24.803  1.00  0.00     0.023 C 
BRANCH  30  31
ATOM     31  C   UNL A   1      38.455  21.339  25.710  1.00  0.00     0.116 C 
BRANCH  31  32
ATOM     32  N   UNL A   1      39.305  20.162  25.584  1.00  0.00    -0.352 N 
ATOM     33  C   UNL A   1      40.619  20.007  25.963  1.00  0.00     0.251 C 
ATOM     34  H   UNL A   1      38.882  19.373  25.174  1.00  0.00     0.163 HD
ATOM     35  O   UNL A   1      41.216  18.958  25.753  1.00  0.00    -0.269 OA
BRANCH  33  36
ATOM     36  C   UNL A   1      41.324  21.149  26.580  1.00  0.00     0.039 A 
ATOM     37  C   UNL A   1      41.921  22.099  25.749  1.00  0.00     0.014 A 
ATOM     38  C   UNL A   1      41.314  21.322  27.966  1.00  0.00     0.014 A 
ATOM     39  C   UNL A   1      42.422  23.279  26.303  1.00  0.00     0.010 A 
ATOM     40  C   UNL A   1      41.743  22.528  28.505  1.00  0.00     0.010 A 
ATOM     41  C   UNL A   1      42.288  23.524  27.678  1.00  0.00    -0.014 A 
BRANCH  41  42
ATOM     42  C   UNL A   1      42.691  24.816  28.285  1.00  0.00     0.031 A 
ATOM     43  C   UNL A   1      41.662  25.886  28.513  1.00  0.00     0.074 A 
ATOM     44  C   UNL A   1      43.992  25.066  28.533  1.00  0.00     0.049 A 
ATOM     45  N   UNL A   1      41.830  27.128  28.887  1.00  0.00    -0.248 NA
ATOM     46  C   UNL A   1      40.261  25.517  28.251  1.00  0.00     0.031 C 
ATOM     47  C   UNL A   1      45.096  24.127  28.322  1.00  0.00     0.029 A 
ATOM     48  N   UNL A   1      44.607  26.201  29.000  1.00  0.00    -0.354 N 
ATOM     49  C   UNL A   1      40.563  27.697  28.873  1.00  0.00     0.074 A 
ATOM     50  C   UNL A   1      39.643  26.677  28.419  1.00  0.00     0.031 C 
ATOM     51  C   UNL A   1      46.249  24.718  28.676  1.00  0.00     0.029 A 
ATOM     52  C   UNL A   1      45.973  26.088  29.095  1.00  0.00     0.049 A 
ATOM     53  H   UNL A   1      44.116  27.019  29.245  1.00  0.00     0.167 HD
ATOM     54  C   UNL A   1      40.195  28.953  29.219  1.00  0.00     0.031 A 
ATOM     55  C   UNL A   1      46.901  26.991  29.463  1.00  0.00     0.031 A 
ATOM     56  C   UNL A   1      41.104  29.960  29.696  1.00  0.00     0.049 A 
ATOM     57  C   UNL A   1      46.467  28.376  29.854  1.00  0.00     0.074 A 
ATOM     58  C   UNL A   1      40.819  31.244  30.126  1.00  0.00     0.029 A 
ATOM     59  N   UNL A   1      42.474  29.791  29.812  1.00  0.00    -0.354 N 
ATOM     60  N   UNL A   1      45.260  28.885  29.880  1.00  0.00    -0.248 NA
ATOM     61  C   UNL A   1      47.525  29.308  30.273  1.00  0.00     0.031 C 
ATOM     62  C   UNL A   1      42.024  31.865  30.471  1.00  0.00     0.029 A 
ATOM     63  C   UNL A   1      43.051  30.951  30.298  1.00  0.00     0.049 A 
ATOM     64  H   UNL A   1      42.964  28.968  29.583  1.00  0.00     0.167 HD
ATOM     65  C   UNL A   1      45.407  30.184  30.347  1.00  0.00     0.074 A 
ATOM     66  C   UNL A   1      46.820  30.383  30.598  1.00  0.00     0.031 C 
ATOM     67  C   UNL A   1      44.456  31.127  30.555  1.00  0.00     0.031 A 
BRANCH  54  68
ATOM     68  C   UNL A   1      38.741  29.305  29.088  1.00  0.00    -0.014 A 
ATOM     69  C   UNL A   1      38.225  29.822  27.889  1.00  0.00     0.009 A 
ATOM     70  C   UNL A   1      37.873  29.100  30.171  1.00  0.00     0.009 A 
ATOM     71  C   UNL A   1      36.874  30.161  27.789  1.00  0.00     0.001 A 
ATOM     72  C   UNL A   1      36.518  29.414  30.059  1.00  0.00     0.001 A 
ATOM     73  C   UNL A   1      36.022  29.954  28.874  1.00  0.00     0.000 A 
ENDBRANCH  54  68
BRANCH  55  74
ATOM     74  C   UNL A   1      48.337  26.612  29.499  1.00  0.00    -0.014 A 
ATOM     75  C   UNL A   1      49.152  26.823  28.376  1.00  0.00     0.009 A 
ATOM     76  C   UNL A   1      48.899  26.036  30.648  1.00  0.00     0.009 A 
ATOM     77  C   UNL A   1      50.496  26.443  28.394  1.00  0.00     0.001 A 
ATOM     78  C   UNL A   1      50.249  25.679  30.672  1.00  0.00     0.001 A 
ATOM     79  C   UNL A   1      51.044  25.874  29.543  1.00  0.00     0.000 A 
ENDBRANCH  55  74
BRANCH  67  80
ATOM     80  C   UNL A   1      44.902  32.441  31.126  1.00  0.00    -0.014 A 
ATOM     81  C   UNL A   1      45.031  32.628  32.510  1.00  0.00     0.009 A 
ATOM     82  C   UNL A   1      45.247  33.489  30.258  1.00  0.00     0.009 A 
ATOM     83  C   UNL A   1      45.478  33.851  33.015  1.00  0.00     0.001 A 
ATOM     84  C   UNL A   1      45.716  34.701  30.765  1.00  0.00     0.001 A 
ATOM     85  C   UNL A   1      45.825  34.883  32.143  1.00  0.00     0.000 A 
ENDBRANCH  67  80
ENDBRANCH  41  42
ENDBRANCH  33  36
ENDBRANCH  31  32
ENDBRANCH  30  31
ENDBRANCH  29  30
ENDBRANCH   1  29
TORSDOF 16
ENDMDL
