MODEL 1
REMARK VINA RESULT:     -12.8      0.000      0.000
REMARK SMILES O=C(NCCCCNC(=O)[C@@H]1[C@H](C(=O)Nc2ccc(Cn3cncn3)cc2)[C@@H]2C=C[C@H]1CC2)c1ccc(-c2c3nc(c(-c4ccccc4)c4ccc([nH]4)c(-c4ccccc4)c4nc(c(-c5ccccc5)c5ccc2[nH]5)C=C4)C=C3)cc1
REMARK SMILES IDX 6 1 5 2 4 3 3 4 1 5 2 6 34 8 35 9 81 10 36 11 80 12 37 13
REMARK SMILES IDX 38 14 39 15 74 16 40 17 79 18 73 19 75 20 41 21 78 22 72 23
REMARK SMILES IDX 71 24 42 26 64 27 49 28 63 29 50 30 53 31 62 32 76 33 51 34
REMARK SMILES IDX 52 35 61 37 77 38 54 39 43 40 44 41 48 42 45 43 47 44 46 45
REMARK SMILES IDX 65 46 66 47 70 48 67 49 69 50 68 51 55 52 56 53 60 54 57 55
REMARK SMILES IDX 59 56 58 57 7 58 8 59 9 60 10 62 11 63 12 64 31 65 28 66
REMARK SMILES IDX 30 67 32 68 29 69 33 70 13 71 14 72 15 73 16 75 17 76 27 77
REMARK SMILES IDX 18 78 26 79 19 80 20 81 21 82 22 83 25 84 23 85 24 86
REMARK H PARENT 3 7 75 25 53 36 8 61 15 74
REMARK Flexibility Score: inf
ROOT
ATOM      1  C   UNL A   1      32.905  28.326  26.497  1.00  0.00     0.023 C 
ENDROOT
BRANCH   1   2
ATOM      2  C   UNL A   1      33.532  29.186  27.593  1.00  0.00     0.023 C 
BRANCH   2   3
ATOM      3  C   UNL A   1      34.289  30.423  27.115  1.00  0.00     0.116 C 
BRANCH   3   4
ATOM      4  N   UNL A   1      34.566  31.416  28.134  1.00  0.00    -0.352 N 
ATOM      5  O   UNL A   1      35.525  32.680  29.675  1.00  0.00    -0.269 OA
ATOM      6  C   UNL A   1      35.581  31.630  29.022  1.00  0.00     0.251 C 
ATOM      7  H   UNL A   1      33.856  32.095  28.202  1.00  0.00     0.163 HD
BRANCH   6   8
ATOM      8  C   UNL A   1      36.701  30.690  29.290  1.00  0.00     0.039 A 
ATOM      9  C   UNL A   1      36.593  29.470  29.959  1.00  0.00     0.014 A 
ATOM     10  C   UNL A   1      37.964  31.072  28.795  1.00  0.00     0.014 A 
ATOM     11  C   UNL A   1      37.722  28.685  30.186  1.00  0.00     0.010 A 
ATOM     12  C   UNL A   1      39.091  30.279  28.996  1.00  0.00     0.010 A 
ATOM     13  C   UNL A   1      38.972  29.087  29.710  1.00  0.00    -0.014 A 
BRANCH  13  14
ATOM     14  C   UNL A   1      40.085  28.144  29.821  1.00  0.00     0.031 A 
ATOM     15  C   UNL A   1      40.822  28.165  31.118  1.00  0.00     0.074 A 
ATOM     16  C   UNL A   1      40.353  27.167  28.933  1.00  0.00     0.049 A 
ATOM     17  N   UNL A   1      42.089  28.331  31.324  1.00  0.00    -0.248 NA
ATOM     18  C   UNL A   1      40.026  28.014  32.348  1.00  0.00     0.031 C 
ATOM     19  C   UNL A   1      39.546  26.768  27.779  1.00  0.00     0.029 A 
ATOM     20  N   UNL A   1      41.356  26.235  28.956  1.00  0.00    -0.354 N 
ATOM     21  C   UNL A   1      42.282  28.138  32.691  1.00  0.00     0.074 A 
ATOM     22  C   UNL A   1      40.971  28.058  33.285  1.00  0.00     0.031 C 
ATOM     23  C   UNL A   1      39.962  25.555  27.351  1.00  0.00     0.029 A 
ATOM     24  C   UNL A   1      41.129  25.152  28.120  1.00  0.00     0.049 A 
ATOM     25  H   UNL A   1      42.161  26.326  29.515  1.00  0.00     0.167 HD
ATOM     26  C   UNL A   1      43.501  27.836  33.219  1.00  0.00     0.031 A 
ATOM     27  C   UNL A   1      41.803  23.978  28.098  1.00  0.00     0.031 A 
ATOM     28  C   UNL A   1      44.587  28.181  32.344  1.00  0.00     0.049 A 
ATOM     29  C   UNL A   1      43.094  24.159  28.794  1.00  0.00     0.074 A 
ATOM     30  C   UNL A   1      45.024  29.333  31.721  1.00  0.00     0.029 A 
ATOM     31  N   UNL A   1      45.275  27.155  31.744  1.00  0.00    -0.354 N 
ATOM     32  N   UNL A   1      44.099  24.826  28.310  1.00  0.00    -0.248 NA
ATOM     33  C   UNL A   1      43.179  23.845  30.211  1.00  0.00     0.031 C 
ATOM     34  C   UNL A   1      45.580  28.900  30.481  1.00  0.00     0.029 A 
ATOM     35  C   UNL A   1      45.467  27.509  30.437  1.00  0.00     0.049 A 
ATOM     36  H   UNL A   1      45.573  26.321  32.175  1.00  0.00     0.167 HD
ATOM     37  C   UNL A   1      44.719  25.382  29.417  1.00  0.00     0.074 A 
ATOM     38  C   UNL A   1      44.203  24.629  30.555  1.00  0.00     0.031 C 
ATOM     39  C   UNL A   1      45.363  26.584  29.333  1.00  0.00     0.031 A 
BRANCH  26  40
ATOM     40  C   UNL A   1      43.677  26.854  34.357  1.00  0.00    -0.014 A 
ATOM     41  C   UNL A   1      43.483  25.482  34.111  1.00  0.00     0.009 A 
ATOM     42  C   UNL A   1      43.721  27.252  35.708  1.00  0.00     0.009 A 
ATOM     43  C   UNL A   1      43.256  24.578  35.156  1.00  0.00     0.001 A 
ATOM     44  C   UNL A   1      43.545  26.343  36.756  1.00  0.00     0.001 A 
ATOM     45  C   UNL A   1      43.278  25.011  36.478  1.00  0.00     0.000 A 
ENDBRANCH  26  40
BRANCH  27  46
ATOM     46  C   UNL A   1      41.335  22.642  27.674  1.00  0.00    -0.014 A 
ATOM     47  C   UNL A   1      40.101  22.487  27.023  1.00  0.00     0.009 A 
ATOM     48  C   UNL A   1      42.209  21.540  27.689  1.00  0.00     0.009 A 
ATOM     49  C   UNL A   1      39.768  21.285  26.385  1.00  0.00     0.001 A 
ATOM     50  C   UNL A   1      41.873  20.337  27.062  1.00  0.00     0.001 A 
ATOM     51  C   UNL A   1      40.658  20.215  26.397  1.00  0.00     0.000 A 
ENDBRANCH  27  46
BRANCH  39  52
ATOM     52  C   UNL A   1      45.694  27.121  27.964  1.00  0.00    -0.014 A 
ATOM     53  C   UNL A   1      44.790  27.880  27.201  1.00  0.00     0.009 A 
ATOM     54  C   UNL A   1      47.001  26.961  27.481  1.00  0.00     0.009 A 
ATOM     55  C   UNL A   1      45.168  28.417  25.968  1.00  0.00     0.001 A 
ATOM     56  C   UNL A   1      47.388  27.522  26.262  1.00  0.00     0.001 A 
ATOM     57  C   UNL A   1      46.469  28.240  25.501  1.00  0.00     0.000 A 
ENDBRANCH  39  52
ENDBRANCH  13  14
ENDBRANCH   6   8
ENDBRANCH   3   4
ENDBRANCH   2   3
ENDBRANCH   1   2
BRANCH   1  58
ATOM     58  C   UNL A   1      33.600  27.008  26.173  1.00  0.00     0.116 C 
BRANCH  58  59
ATOM     59  N   UNL A   1      32.750  25.827  26.229  1.00  0.00    -0.356 N 
ATOM     60  C   UNL A   1      33.155  24.520  26.172  1.00  0.00     0.224 C 
ATOM     61  H   UNL A   1      31.782  25.984  26.316  1.00  0.00     0.163 HD
ATOM     62  O   UNL A   1      32.543  23.695  26.857  1.00  0.00    -0.275 OA
BRANCH  60  63
ATOM     63  C   UNL A   1      34.369  24.159  25.346  1.00  0.00     0.098 C 
ATOM     64  C   UNL A   1      34.126  23.467  23.981  1.00  0.00     0.098 C 
ATOM     65  C   UNL A   1      35.529  23.429  26.100  1.00  0.00     0.025 C 
ATOM     66  C   UNL A   1      35.326  22.522  23.665  1.00  0.00     0.025 C 
ATOM     67  C   UNL A   1      35.451  21.920  25.977  1.00  0.00    -0.027 C 
ATOM     68  C   UNL A   1      36.824  23.774  25.315  1.00  0.00     0.009 C 
ATOM     69  C   UNL A   1      35.393  21.452  24.721  1.00  0.00    -0.027 C 
ATOM     70  C   UNL A   1      36.646  23.338  23.831  1.00  0.00     0.009 C 
BRANCH  64  71
ATOM     71  C   UNL A   1      32.750  22.914  23.537  1.00  0.00     0.228 C 
ATOM     72  O   UNL A   1      32.596  21.682  23.587  1.00  0.00    -0.274 OA
ATOM     73  N   UNL A   1      31.613  23.602  23.244  1.00  0.00    -0.326 N 
ATOM     74  H   UNL A   1      30.830  23.026  23.087  1.00  0.00     0.169 HD
BRANCH  73  75
ATOM     75  C   UNL A   1      31.341  24.962  23.123  1.00  0.00     0.041 A 
ATOM     76  C   UNL A   1      30.138  25.453  23.628  1.00  0.00     0.026 A 
ATOM     77  C   UNL A   1      32.195  25.828  22.456  1.00  0.00     0.026 A 
ATOM     78  C   UNL A   1      29.924  26.834  23.692  1.00  0.00     0.008 A 
ATOM     79  C   UNL A   1      31.985  27.207  22.502  1.00  0.00     0.008 A 
ATOM     80  C   UNL A   1      30.888  27.725  23.199  1.00  0.00    -0.026 A 
BRANCH  80  81
ATOM     81  C   UNL A   1      30.787  29.205  23.455  1.00  0.00     0.181 C 
BRANCH  81  82
ATOM     82  N   UNL A   1      29.613  29.791  22.849  1.00  0.00    -0.249 N 
ATOM     83  C   UNL A   1      28.733  30.657  23.421  1.00  0.00     0.220 A 
ATOM     84  N   UNL A   1      29.339  29.615  21.541  1.00  0.00    -0.160 NA
ATOM     85  N   UNL A   1      27.857  31.047  22.524  1.00  0.00    -0.224 NA
ATOM     86  C   UNL A   1      28.257  30.385  21.397  1.00  0.00     0.246 A 
ENDBRANCH  81  82
ENDBRANCH  80  81
ENDBRANCH  73  75
ENDBRANCH  64  71
ENDBRANCH  60  63
ENDBRANCH  58  59
ENDBRANCH   1  58
TORSDOF 15
ENDMDL
MODEL 2
REMARK VINA RESULT:     -12.6      3.567      8.707
REMARK SMILES O=C(NCCCCNC(=O)[C@@H]1[C@H](C(=O)Nc2ccc(Cn3cncn3)cc2)[C@@H]2C=C[C@H]1CC2)c1ccc(-c2c3nc(c(-c4ccccc4)c4ccc([nH]4)c(-c4ccccc4)c4nc(c(-c5ccccc5)c5ccc2[nH]5)C=C4)C=C3)cc1
REMARK SMILES IDX 6 1 5 2 4 3 3 4 1 5 2 6 34 8 35 9 81 10 36 11 80 12 37 13
REMARK SMILES IDX 38 14 39 15 74 16 40 17 79 18 73 19 75 20 41 21 78 22 72 23
REMARK SMILES IDX 71 24 42 26 64 27 49 28 63 29 50 30 53 31 62 32 76 33 51 34
REMARK SMILES IDX 52 35 61 37 77 38 54 39 43 40 44 41 48 42 45 43 47 44 46 45
REMARK SMILES IDX 65 46 66 47 70 48 67 49 69 50 68 51 55 52 56 53 60 54 57 55
REMARK SMILES IDX 59 56 58 57 7 58 8 59 9 60 10 62 11 63 12 64 31 65 28 66
REMARK SMILES IDX 30 67 32 68 29 69 33 70 13 71 14 72 15 73 16 75 17 76 27 77
REMARK SMILES IDX 18 78 26 79 19 80 20 81 21 82 22 83 25 84 23 85 24 86
REMARK H PARENT 3 7 75 25 53 36 8 61 15 74
REMARK Flexibility Score: inf
ROOT
ATOM      1  C   UNL A   1      36.319  23.385  24.986  1.00  0.00     0.023 C 
ENDROOT
BRANCH   1   2
ATOM      2  C   UNL A   1      37.765  23.707  25.362  1.00  0.00     0.023 C 
BRANCH   2   3
ATOM      3  C   UNL A   1      38.427  22.743  26.343  1.00  0.00     0.116 C 
BRANCH   3   4
ATOM      4  N   UNL A   1      39.865  22.612  26.214  1.00  0.00    -0.352 N 
ATOM      5  O   UNL A   1      42.053  22.898  26.360  1.00  0.00    -0.269 OA
ATOM      6  C   UNL A   1      40.936  23.408  26.505  1.00  0.00     0.251 C 
ATOM      7  H   UNL A   1      40.132  21.748  25.826  1.00  0.00     0.163 HD
BRANCH   6   8
ATOM      8  C   UNL A   1      40.858  24.831  26.930  1.00  0.00     0.039 A 
ATOM      9  C   UNL A   1      40.776  25.929  26.072  1.00  0.00     0.014 A 
ATOM     10  C   UNL A   1      40.843  25.065  28.319  1.00  0.00     0.014 A 
ATOM     11  C   UNL A   1      40.745  27.225  26.583  1.00  0.00     0.010 A 
ATOM     12  C   UNL A   1      40.786  26.356  28.836  1.00  0.00     0.010 A 
ATOM     13  C   UNL A   1      40.754  27.443  27.963  1.00  0.00    -0.014 A 
BRANCH  13  14
ATOM     14  C   UNL A   1      40.542  28.808  28.445  1.00  0.00     0.031 A 
ATOM     15  C   UNL A   1      41.733  29.705  28.387  1.00  0.00     0.074 A 
ATOM     16  C   UNL A   1      39.340  29.338  28.744  1.00  0.00     0.049 A 
ATOM     17  N   UNL A   1      42.276  30.387  29.344  1.00  0.00    -0.248 NA
ATOM     18  C   UNL A   1      42.426  29.825  27.093  1.00  0.00     0.031 C 
ATOM     19  C   UNL A   1      38.024  28.730  28.537  1.00  0.00     0.029 A 
ATOM     20  N   UNL A   1      39.041  30.598  29.186  1.00  0.00    -0.354 N 
ATOM     21  C   UNL A   1      43.275  31.155  28.747  1.00  0.00     0.074 A 
ATOM     22  C   UNL A   1      43.397  30.687  27.389  1.00  0.00     0.031 C 
ATOM     23  C   UNL A   1      37.077  29.689  28.640  1.00  0.00     0.029 A 
ATOM     24  C   UNL A   1      37.706  30.941  29.031  1.00  0.00     0.049 A 
ATOM     25  H   UNL A   1      39.712  31.204  29.575  1.00  0.00     0.167 HD
ATOM     26  C   UNL A   1      43.786  32.271  29.335  1.00  0.00     0.031 A 
ATOM     27  C   UNL A   1      37.157  32.173  29.149  1.00  0.00     0.031 A 
ATOM     28  C   UNL A   1      43.548  32.312  30.752  1.00  0.00     0.049 A 
ATOM     29  C   UNL A   1      38.096  33.043  29.886  1.00  0.00     0.074 A 
ATOM     30  C   UNL A   1      43.831  31.488  31.823  1.00  0.00     0.029 A 
ATOM     31  N   UNL A   1      42.638  33.225  31.221  1.00  0.00    -0.354 N 
ATOM     32  N   UNL A   1      38.333  32.950  31.161  1.00  0.00    -0.248 NA
ATOM     33  C   UNL A   1      39.039  33.855  29.134  1.00  0.00     0.031 C 
ATOM     34  C   UNL A   1      42.737  31.653  32.722  1.00  0.00     0.029 A 
ATOM     35  C   UNL A   1      41.867  32.584  32.151  1.00  0.00     0.049 A 
ATOM     36  H   UNL A   1      42.555  34.165  30.940  1.00  0.00     0.167 HD
ATOM     37  C   UNL A   1      39.662  33.318  31.299  1.00  0.00     0.074 A 
ATOM     38  C   UNL A   1      39.995  34.001  30.054  1.00  0.00     0.031 C 
ATOM     39  C   UNL A   1      40.442  32.780  32.284  1.00  0.00     0.031 A 
BRANCH  26  40
ATOM     40  C   UNL A   1      44.142  33.517  28.553  1.00  0.00    -0.014 A 
ATOM     41  C   UNL A   1      43.112  34.261  27.948  1.00  0.00     0.009 A 
ATOM     42  C   UNL A   1      45.457  33.806  28.136  1.00  0.00     0.009 A 
ATOM     43  C   UNL A   1      43.378  35.176  26.921  1.00  0.00     0.001 A 
ATOM     44  C   UNL A   1      45.730  34.756  27.146  1.00  0.00     0.001 A 
ATOM     45  C   UNL A   1      44.687  35.415  26.515  1.00  0.00     0.000 A 
ENDBRANCH  26  40
BRANCH  27  46
ATOM     46  C   UNL A   1      35.942  32.717  28.507  1.00  0.00    -0.014 A 
ATOM     47  C   UNL A   1      34.940  31.860  28.024  1.00  0.00     0.009 A 
ATOM     48  C   UNL A   1      35.646  34.090  28.585  1.00  0.00     0.009 A 
ATOM     49  C   UNL A   1      33.681  32.355  27.662  1.00  0.00     0.001 A 
ATOM     50  C   UNL A   1      34.394  34.587  28.213  1.00  0.00     0.001 A 
ATOM     51  C   UNL A   1      33.406  33.716  27.765  1.00  0.00     0.000 A 
ENDBRANCH  27  46
BRANCH  39  52
ATOM     52  C   UNL A   1      39.760  32.062  33.420  1.00  0.00    -0.014 A 
ATOM     53  C   UNL A   1      39.266  30.751  33.309  1.00  0.00     0.009 A 
ATOM     54  C   UNL A   1      39.726  32.681  34.678  1.00  0.00     0.009 A 
ATOM     55  C   UNL A   1      38.706  30.100  34.412  1.00  0.00     0.001 A 
ATOM     56  C   UNL A   1      39.193  32.021  35.787  1.00  0.00     0.001 A 
ATOM     57  C   UNL A   1      38.674  30.736  35.651  1.00  0.00     0.000 A 
ENDBRANCH  39  52
ENDBRANCH  13  14
ENDBRANCH   6   8
ENDBRANCH   3   4
ENDBRANCH   2   3
ENDBRANCH   1   2
BRANCH   1  58
ATOM     58  C   UNL A   1      35.275  24.454  25.283  1.00  0.00     0.116 C 
BRANCH  58  59
ATOM     59  N   UNL A   1      34.423  24.821  24.160  1.00  0.00    -0.356 N 
ATOM     60  C   UNL A   1      33.751  26.002  23.989  1.00  0.00     0.224 C 
ATOM     61  H   UNL A   1      34.318  24.148  23.449  1.00  0.00     0.163 HD
ATOM     62  O   UNL A   1      33.655  26.451  22.843  1.00  0.00    -0.275 OA
BRANCH  60  63
ATOM     63  C   UNL A   1      33.231  26.738  25.203  1.00  0.00     0.098 C 
ATOM     64  C   UNL A   1      31.712  26.648  25.499  1.00  0.00     0.098 C 
ATOM     65  C   UNL A   1      33.708  28.217  25.375  1.00  0.00     0.025 C 
ATOM     66  C   UNL A   1      31.249  27.961  26.200  1.00  0.00     0.025 C 
ATOM     67  C   UNL A   1      32.727  29.221  24.801  1.00  0.00    -0.027 C 
ATOM     68  C   UNL A   1      33.646  28.506  26.900  1.00  0.00     0.009 C 
ATOM     69  C   UNL A   1      31.470  29.117  25.262  1.00  0.00    -0.027 C 
ATOM     70  C   UNL A   1      32.199  28.231  27.407  1.00  0.00     0.009 C 
BRANCH  64  71
ATOM     71  C   UNL A   1      30.682  26.063  24.503  1.00  0.00     0.228 C 
ATOM     72  O   UNL A   1      29.917  26.869  23.946  1.00  0.00    -0.274 OA
ATOM     73  N   UNL A   1      30.592  24.793  24.020  1.00  0.00    -0.326 N 
ATOM     74  H   UNL A   1      29.916  24.684  23.314  1.00  0.00     0.169 HD
BRANCH  73  75
ATOM     75  C   UNL A   1      31.272  23.619  24.333  1.00  0.00     0.041 A 
ATOM     76  C   UNL A   1      31.755  22.827  23.292  1.00  0.00     0.026 A 
ATOM     77  C   UNL A   1      31.421  23.178  25.639  1.00  0.00     0.026 A 
ATOM     78  C   UNL A   1      32.602  21.750  23.574  1.00  0.00     0.008 A 
ATOM     79  C   UNL A   1      32.253  22.096  25.932  1.00  0.00     0.008 A 
ATOM     80  C   UNL A   1      32.920  21.427  24.901  1.00  0.00    -0.026 A 
BRANCH  80  81
ATOM     81  C   UNL A   1      33.995  20.424  25.224  1.00  0.00     0.181 C 
BRANCH  81  82
ATOM     82  N   UNL A   1      33.576  19.064  24.970  1.00  0.00    -0.249 N 
ATOM     83  C   UNL A   1      34.233  18.119  24.245  1.00  0.00     0.220 A 
ATOM     84  N   UNL A   1      32.487  18.544  25.570  1.00  0.00    -0.160 NA
ATOM     85  N   UNL A   1      33.590  16.977  24.329  1.00  0.00    -0.224 NA
ATOM     86  C   UNL A   1      32.531  17.282  25.137  1.00  0.00     0.246 A 
ENDBRANCH  81  82
ENDBRANCH  80  81
ENDBRANCH  73  75
ENDBRANCH  64  71
ENDBRANCH  60  63
ENDBRANCH  58  59
ENDBRANCH   1  58
TORSDOF 15
ENDMDL
MODEL 3
REMARK VINA RESULT:     -12.6      1.928      2.460
REMARK SMILES O=C(NCCCCNC(=O)[C@@H]1[C@H](C(=O)Nc2ccc(Cn3cncn3)cc2)[C@@H]2C=C[C@H]1CC2)c1ccc(-c2c3nc(c(-c4ccccc4)c4ccc([nH]4)c(-c4ccccc4)c4nc(c(-c5ccccc5)c5ccc2[nH]5)C=C4)C=C3)cc1
REMARK SMILES IDX 6 1 5 2 4 3 3 4 1 5 2 6 34 8 35 9 81 10 36 11 80 12 37 13
REMARK SMILES IDX 38 14 39 15 74 16 40 17 79 18 73 19 75 20 41 21 78 22 72 23
REMARK SMILES IDX 71 24 42 26 64 27 49 28 63 29 50 30 53 31 62 32 76 33 51 34
REMARK SMILES IDX 52 35 61 37 77 38 54 39 43 40 44 41 48 42 45 43 47 44 46 45
REMARK SMILES IDX 65 46 66 47 70 48 67 49 69 50 68 51 55 52 56 53 60 54 57 55
REMARK SMILES IDX 59 56 58 57 7 58 8 59 9 60 10 62 11 63 12 64 31 65 28 66
REMARK SMILES IDX 30 67 32 68 29 69 33 70 13 71 14 72 15 73 16 75 17 76 27 77
REMARK SMILES IDX 18 78 26 79 19 80 20 81 21 82 22 83 25 84 23 85 24 86
REMARK H PARENT 3 7 75 25 53 36 8 61 15 74
REMARK Flexibility Score: inf
ROOT
ATOM      1  C   UNL A   1      31.164  27.476  26.914  1.00  0.00     0.023 C 
ENDROOT
BRANCH   1   2
ATOM      2  C   UNL A   1      31.757  28.691  27.626  1.00  0.00     0.023 C 
BRANCH   2   3
ATOM      3  C   UNL A   1      32.978  29.320  26.961  1.00  0.00     0.116 C 
BRANCH   3   4
ATOM      4  N   UNL A   1      33.221  30.711  27.291  1.00  0.00    -0.352 N 
ATOM      5  O   UNL A   1      34.158  32.656  27.775  1.00  0.00    -0.269 OA
ATOM      6  C   UNL A   1      34.307  31.430  27.702  1.00  0.00     0.251 C 
ATOM      7  H   UNL A   1      32.414  31.268  27.198  1.00  0.00     0.163 HD
BRANCH   6   8
ATOM      8  C   UNL A   1      35.617  30.853  28.106  1.00  0.00     0.039 A 
ATOM      9  C   UNL A   1      35.984  29.512  27.982  1.00  0.00     0.014 A 
ATOM     10  C   UNL A   1      36.559  31.759  28.632  1.00  0.00     0.014 A 
ATOM     11  C   UNL A   1      37.230  29.075  28.430  1.00  0.00     0.010 A 
ATOM     12  C   UNL A   1      37.815  31.333  29.056  1.00  0.00     0.010 A 
ATOM     13  C   UNL A   1      38.145  29.981  28.970  1.00  0.00    -0.014 A 
BRANCH  13  14
ATOM     14  C   UNL A   1      39.498  29.502  29.259  1.00  0.00     0.031 A 
ATOM     15  C   UNL A   1      39.869  29.448  30.703  1.00  0.00     0.074 A 
ATOM     16  C   UNL A   1      40.325  28.948  28.351  1.00  0.00     0.049 A 
ATOM     17  N   UNL A   1      40.881  29.995  31.297  1.00  0.00    -0.248 NA
ATOM     18  C   UNL A   1      38.967  28.713  31.605  1.00  0.00     0.031 C 
ATOM     19  C   UNL A   1      40.016  28.600  26.963  1.00  0.00     0.029 A 
ATOM     20  N   UNL A   1      41.592  28.462  28.526  1.00  0.00    -0.354 N 
ATOM     21  C   UNL A   1      40.844  29.539  32.613  1.00  0.00     0.074 A 
ATOM     22  C   UNL A   1      39.590  28.848  32.774  1.00  0.00     0.031 C 
ATOM     23  C   UNL A   1      40.974  27.769  26.496  1.00  0.00     0.029 A 
ATOM     24  C   UNL A   1      42.013  27.624  27.504  1.00  0.00     0.049 A 
ATOM     25  H   UNL A   1      42.151  28.686  29.304  1.00  0.00     0.167 HD
ATOM     26  C   UNL A   1      41.938  29.566  33.425  1.00  0.00     0.031 A 
ATOM     27  C   UNL A   1      43.099  26.814  27.502  1.00  0.00     0.031 A 
ATOM     28  C   UNL A   1      42.943  30.487  32.972  1.00  0.00     0.049 A 
ATOM     29  C   UNL A   1      44.022  27.257  28.566  1.00  0.00     0.074 A 
ATOM     30  C   UNL A   1      42.987  31.838  32.690  1.00  0.00     0.029 A 
ATOM     31  N   UNL A   1      44.101  29.965  32.452  1.00  0.00    -0.354 N 
ATOM     32  N   UNL A   1      44.741  28.339  28.509  1.00  0.00    -0.248 NA
ATOM     33  C   UNL A   1      43.928  26.641  29.880  1.00  0.00     0.031 C 
ATOM     34  C   UNL A   1      43.920  31.967  31.619  1.00  0.00     0.029 A 
ATOM     35  C   UNL A   1      44.401  30.688  31.331  1.00  0.00     0.049 A 
ATOM     36  H   UNL A   1      44.618  29.211  32.819  1.00  0.00     0.167 HD
ATOM     37  C   UNL A   1      44.828  28.774  29.822  1.00  0.00     0.074 A 
ATOM     38  C   UNL A   1      44.442  27.621  30.627  1.00  0.00     0.031 C 
ATOM     39  C   UNL A   1      44.922  30.105  30.117  1.00  0.00     0.031 A 
BRANCH  26  40
ATOM     40  C   UNL A   1      42.259  28.453  34.399  1.00  0.00    -0.014 A 
ATOM     41  C   UNL A   1      42.682  27.208  33.898  1.00  0.00     0.009 A 
ATOM     42  C   UNL A   1      41.869  28.488  35.752  1.00  0.00     0.009 A 
ATOM     43  C   UNL A   1      42.630  26.049  34.683  1.00  0.00     0.001 A 
ATOM     44  C   UNL A   1      41.863  27.342  36.553  1.00  0.00     0.001 A 
ATOM     45  C   UNL A   1      42.212  26.116  36.008  1.00  0.00     0.000 A 
ENDBRANCH  26  40
BRANCH  27  46
ATOM     46  C   UNL A   1      43.322  25.557  26.759  1.00  0.00    -0.014 A 
ATOM     47  C   UNL A   1      42.527  24.426  27.005  1.00  0.00     0.009 A 
ATOM     48  C   UNL A   1      44.160  25.533  25.629  1.00  0.00     0.009 A 
ATOM     49  C   UNL A   1      42.547  23.327  26.136  1.00  0.00     0.001 A 
ATOM     50  C   UNL A   1      44.190  24.433  24.769  1.00  0.00     0.001 A 
ATOM     51  C   UNL A   1      43.371  23.336  25.014  1.00  0.00     0.000 A 
ENDBRANCH  27  46
BRANCH  39  52
ATOM     52  C   UNL A   1      45.283  31.057  29.006  1.00  0.00    -0.014 A 
ATOM     53  C   UNL A   1      44.335  31.583  28.111  1.00  0.00     0.009 A 
ATOM     54  C   UNL A   1      46.599  31.536  28.936  1.00  0.00     0.009 A 
ATOM     55  C   UNL A   1      44.706  32.519  27.143  1.00  0.00     0.001 A 
ATOM     56  C   UNL A   1      46.965  32.492  27.987  1.00  0.00     0.001 A 
ATOM     57  C   UNL A   1      46.021  32.976  27.084  1.00  0.00     0.000 A 
ENDBRANCH  39  52
ENDBRANCH  13  14
ENDBRANCH   6   8
ENDBRANCH   3   4
ENDBRANCH   2   3
ENDBRANCH   1   2
BRANCH   1  58
ATOM     58  C   UNL A   1      32.136  26.374  26.509  1.00  0.00     0.116 C 
BRANCH  58  59
ATOM     59  N   UNL A   1      31.661  25.014  26.729  1.00  0.00    -0.356 N 
ATOM     60  C   UNL A   1      32.422  23.878  26.786  1.00  0.00     0.224 C 
ATOM     61  H   UNL A   1      30.691  24.901  26.849  1.00  0.00     0.163 HD
ATOM     62  O   UNL A   1      32.085  22.996  27.582  1.00  0.00    -0.275 OA
BRANCH  60  63
ATOM     63  C   UNL A   1      33.672  23.782  25.940  1.00  0.00     0.098 C 
ATOM     64  C   UNL A   1      33.497  23.421  24.443  1.00  0.00     0.098 C 
ATOM     65  C   UNL A   1      34.854  22.954  26.541  1.00  0.00     0.025 C 
ATOM     66  C   UNL A   1      34.755  22.639  23.956  1.00  0.00     0.025 C 
ATOM     67  C   UNL A   1      34.865  21.515  26.065  1.00  0.00    -0.027 C 
ATOM     68  C   UNL A   1      36.145  23.539  25.904  1.00  0.00     0.009 C 
ATOM     69  C   UNL A   1      34.860  21.355  24.732  1.00  0.00    -0.027 C 
ATOM     70  C   UNL A   1      36.023  23.458  24.353  1.00  0.00     0.009 C 
BRANCH  64  71
ATOM     71  C   UNL A   1      32.164  22.921  23.835  1.00  0.00     0.228 C 
ATOM     72  O   UNL A   1      31.953  21.697  23.874  1.00  0.00    -0.274 OA
ATOM     73  N   UNL A   1      31.103  23.652  23.399  1.00  0.00    -0.326 N 
ATOM     74  H   UNL A   1      30.322  23.108  23.149  1.00  0.00     0.169 HD
BRANCH  73  75
ATOM     75  C   UNL A   1      30.907  25.021  23.235  1.00  0.00     0.041 A 
ATOM     76  C   UNL A   1      29.734  25.594  23.726  1.00  0.00     0.026 A 
ATOM     77  C   UNL A   1      31.806  25.816  22.541  1.00  0.00     0.026 A 
ATOM     78  C   UNL A   1      29.597  26.986  23.747  1.00  0.00     0.008 A 
ATOM     79  C   UNL A   1      31.673  27.206  22.544  1.00  0.00     0.008 A 
ATOM     80  C   UNL A   1      30.608  27.806  23.225  1.00  0.00    -0.026 A 
BRANCH  80  81
ATOM     81  C   UNL A   1      30.590  29.297  23.436  1.00  0.00     0.181 C 
BRANCH  81  82
ATOM     82  N   UNL A   1      29.459  29.930  22.798  1.00  0.00    -0.249 N 
ATOM     83  C   UNL A   1      28.636  30.877  23.325  1.00  0.00     0.220 A 
ATOM     84  N   UNL A   1      29.177  29.714  21.497  1.00  0.00    -0.160 NA
ATOM     85  N   UNL A   1      27.790  31.283  22.407  1.00  0.00    -0.224 NA
ATOM     86  C   UNL A   1      28.148  30.545  21.314  1.00  0.00     0.246 A 
ENDBRANCH  81  82
ENDBRANCH  80  81
ENDBRANCH  73  75
ENDBRANCH  64  71
ENDBRANCH  60  63
ENDBRANCH  58  59
ENDBRANCH   1  58
TORSDOF 15
ENDMDL
