MODEL 1
REMARK VINA RESULT:     -11.0      0.000      0.000
REMARK SMILES COc1ccc(-c2noc(C[N@H+]3CCCC[C@@H]3C(=O)NCCCCNC(=O)c3ccc(-c4c5nc(c(-c6ccccc6)c6ccc([nH]6)c(-c6ccccc6)c6nc(c(-c7ccccc7)c7ccc4[nH]7)C=C6)C=C5)cc3)n2)cc1OC
REMARK SMILES IDX 21 1 20 2 18 3 19 4 17 6 12 7 13 8 14 10 16 11 15 12 11 13
REMARK SMILES IDX 10 14 7 15 8 16 76 17 9 18 6 19 3 20 4 21 78 22 5 23 77 24
REMARK SMILES IDX 2 25 1 26 79 27 80 28 22 29 23 30 24 31 25 32 26 33 27 35
REMARK SMILES IDX 28 36 29 37 75 38 30 39 74 40 31 41 32 42 33 43 68 44 34 45
REMARK SMILES IDX 73 46 67 47 69 48 35 49 72 50 66 51 65 52 36 54 58 55 43 56
REMARK SMILES IDX 57 57 44 58 47 59 56 60 70 61 45 62 46 63 55 65 71 66 48 67
REMARK SMILES IDX 37 68 38 69 42 70 39 71 41 72 40 73 59 74 60 75 64 76 61 77
REMARK SMILES IDX 63 78 62 79 49 80 50 81 54 82 51 83 53 84 52 85
REMARK H PARENT 20 5 12 9 25 34 69 53 47 64
REMARK Flexibility Score: inf
ROOT
ATOM      1  C   UNL A   1      33.107  26.141  26.149  1.00  0.00     0.116 C 
ENDROOT
BRANCH   1   2
ATOM      2  N   UNL A   1      32.790  24.747  26.395  1.00  0.00    -0.351 N 
ATOM      3  C   UNL A   1      33.450  23.618  26.001  1.00  0.00     0.278 C 
ATOM      4  O   UNL A   1      32.967  22.531  26.329  1.00  0.00    -0.268 OA
ATOM      5  H   UNL A   1      31.976  24.590  26.928  1.00  0.00     0.163 HD
BRANCH   3   6
ATOM      6  C   UNL A   1      34.787  23.692  25.225  1.00  0.00     0.274 C 
ATOM      7  N   UNL A   1      34.786  22.705  24.112  1.00  0.00    -0.317 N 
ATOM      8  C   UNL A   1      36.083  22.612  23.430  1.00  0.00     0.263 C 
ATOM      9  H   UNL A   1      34.618  21.805  24.560  1.00  0.00     0.349 HD
ATOM     10  C   UNL A   1      37.217  22.332  24.413  1.00  0.00     0.062 C 
ATOM     11  C   UNL A   1      35.975  23.561  26.193  1.00  0.00     0.076 C 
ATOM     12  C   UNL A   1      37.302  23.434  25.459  1.00  0.00     0.012 C 
BRANCH   7  13
ATOM     13  C   UNL A   1      33.678  22.918  23.141  1.00  0.00     0.364 C 
BRANCH  13  14
ATOM     14  C   UNL A   1      33.315  24.334  22.822  1.00  0.00     0.282 A 
ATOM     15  C   UNL A   1      32.466  26.229  22.550  1.00  0.00     0.202 A 
ATOM     16  N   UNL A   1      33.593  26.288  21.826  1.00  0.00    -0.057 NA
ATOM     17  N   UNL A   1      32.257  25.025  23.181  1.00  0.00    -0.186 NA
ATOM     18  O   UNL A   1      34.180  25.044  22.042  1.00  0.00    -0.333 OA
BRANCH  15  19
ATOM     19  C   UNL A   1      31.569  27.351  22.720  1.00  0.00     0.027 A 
ATOM     20  C   UNL A   1      29.783  29.471  23.100  1.00  0.00     0.160 A 
ATOM     21  C   UNL A   1      31.154  29.721  22.940  1.00  0.00     0.051 A 
ATOM     22  C   UNL A   1      29.294  28.160  23.044  1.00  0.00     0.161 A 
ATOM     23  C   UNL A   1      32.049  28.662  22.769  1.00  0.00     0.016 A 
ATOM     24  C   UNL A   1      30.196  27.111  22.841  1.00  0.00     0.062 A 
BRANCH  20  25
ATOM     25  O   UNL A   1      28.931  30.538  23.206  1.00  0.00    -0.493 OA
ATOM     26  C   UNL A   1      28.562  31.052  21.926  1.00  0.00     0.278 C 
ENDBRANCH  20  25
BRANCH  22  27
ATOM     27  O   UNL A   1      27.996  27.735  23.145  1.00  0.00    -0.493 OA
ATOM     28  C   UNL A   1      27.712  26.710  24.085  1.00  0.00     0.278 C 
ENDBRANCH  22  27
ENDBRANCH  15  19
ENDBRANCH  13  14
ENDBRANCH   7  13
ENDBRANCH   3   6
ENDBRANCH   1   2
BRANCH   1  29
ATOM     29  C   UNL A   1      31.913  27.041  26.469  1.00  0.00     0.023 C 
BRANCH  29  30
ATOM     30  C   UNL A   1      32.241  28.533  26.505  1.00  0.00     0.023 C 
BRANCH  30  31
ATOM     31  C   UNL A   1      33.555  28.886  27.186  1.00  0.00     0.116 C 
BRANCH  31  32
ATOM     32  N   UNL A   1      33.570  30.239  27.725  1.00  0.00    -0.352 N 
ATOM     33  C   UNL A   1      34.572  30.880  28.410  1.00  0.00     0.251 C 
ATOM     34  H   UNL A   1      32.750  30.764  27.579  1.00  0.00     0.163 HD
ATOM     35  O   UNL A   1      34.375  31.981  28.916  1.00  0.00    -0.269 OA
BRANCH  33  36
ATOM     36  C   UNL A   1      35.883  30.219  28.562  1.00  0.00     0.039 A 
ATOM     37  C   UNL A   1      36.769  30.223  27.483  1.00  0.00     0.014 A 
ATOM     38  C   UNL A   1      36.247  29.632  29.776  1.00  0.00     0.014 A 
ATOM     39  C   UNL A   1      38.053  29.699  27.645  1.00  0.00     0.010 A 
ATOM     40  C   UNL A   1      37.550  29.180  29.959  1.00  0.00     0.010 A 
ATOM     41  C   UNL A   1      38.465  29.211  28.896  1.00  0.00    -0.014 A 
BRANCH  41  42
ATOM     42  C   UNL A   1      39.853  28.737  29.118  1.00  0.00     0.031 A 
ATOM     43  C   UNL A   1      40.885  29.665  29.695  1.00  0.00     0.074 A 
ATOM     44  C   UNL A   1      40.204  27.496  28.729  1.00  0.00     0.049 A 
ATOM     45  N   UNL A   1      42.161  29.457  29.898  1.00  0.00    -0.248 NA
ATOM     46  C   UNL A   1      40.428  31.014  30.067  1.00  0.00     0.031 C 
ATOM     47  C   UNL A   1      39.308  26.513  28.114  1.00  0.00     0.029 A 
ATOM     48  N   UNL A   1      41.414  26.852  28.786  1.00  0.00    -0.354 N 
ATOM     49  C   UNL A   1      42.662  30.650  30.400  1.00  0.00     0.074 A 
ATOM     50  C   UNL A   1      41.564  31.593  30.426  1.00  0.00     0.031 C 
ATOM     51  C   UNL A   1      39.994  25.385  27.873  1.00  0.00     0.029 A 
ATOM     52  C   UNL A   1      41.383  25.577  28.276  1.00  0.00     0.049 A 
ATOM     53  H   UNL A   1      42.228  27.265  29.155  1.00  0.00     0.167 HD
ATOM     54  C   UNL A   1      43.918  30.934  30.819  1.00  0.00     0.031 A 
ATOM     55  C   UNL A   1      42.365  24.665  28.141  1.00  0.00     0.031 A 
ATOM     56  C   UNL A   1      45.006  29.993  30.804  1.00  0.00     0.049 A 
ATOM     57  C   UNL A   1      43.753  25.004  28.607  1.00  0.00     0.074 A 
ATOM     58  C   UNL A   1      46.298  30.163  31.270  1.00  0.00     0.029 A 
ATOM     59  N   UNL A   1      44.930  28.707  30.293  1.00  0.00    -0.354 N 
ATOM     60  N   UNL A   1      44.193  26.113  29.151  1.00  0.00    -0.248 NA
ATOM     61  C   UNL A   1      44.776  23.961  28.450  1.00  0.00     0.031 C 
ATOM     62  C   UNL A   1      47.019  28.997  30.992  1.00  0.00     0.029 A 
ATOM     63  C   UNL A   1      46.160  28.082  30.406  1.00  0.00     0.049 A 
ATOM     64  H   UNL A   1      44.122  28.299  29.907  1.00  0.00     0.167 HD
ATOM     65  C   UNL A   1      45.537  25.893  29.423  1.00  0.00     0.074 A 
ATOM     66  C   UNL A   1      45.835  24.540  29.000  1.00  0.00     0.031 C 
ATOM     67  C   UNL A   1      46.443  26.736  29.977  1.00  0.00     0.031 A 
BRANCH  54  68
ATOM     68  C   UNL A   1      44.182  32.327  31.320  1.00  0.00    -0.014 A 
ATOM     69  C   UNL A   1      44.032  32.654  32.677  1.00  0.00     0.009 A 
ATOM     70  C   UNL A   1      44.612  33.319  30.426  1.00  0.00     0.009 A 
ATOM     71  C   UNL A   1      44.269  33.957  33.121  1.00  0.00     0.001 A 
ATOM     72  C   UNL A   1      44.877  34.613  30.878  1.00  0.00     0.001 A 
ATOM     73  C   UNL A   1      44.694  34.933  32.222  1.00  0.00     0.000 A 
ENDBRANCH  54  68
BRANCH  55  74
ATOM     74  C   UNL A   1      42.066  23.335  27.550  1.00  0.00    -0.014 A 
ATOM     75  C   UNL A   1      41.500  22.319  28.336  1.00  0.00     0.009 A 
ATOM     76  C   UNL A   1      42.341  23.074  26.199  1.00  0.00     0.009 A 
ATOM     77  C   UNL A   1      41.239  21.061  27.785  1.00  0.00     0.001 A 
ATOM     78  C   UNL A   1      42.053  21.826  25.645  1.00  0.00     0.001 A 
ATOM     79  C   UNL A   1      41.511  20.817  26.440  1.00  0.00     0.000 A 
ENDBRANCH  55  74
BRANCH  67  80
ATOM     80  C   UNL A   1      47.835  26.211  30.184  1.00  0.00    -0.014 A 
ATOM     81  C   UNL A   1      48.773  26.202  29.141  1.00  0.00     0.009 A 
ATOM     82  C   UNL A   1      48.224  25.758  31.454  1.00  0.00     0.009 A 
ATOM     83  C   UNL A   1      50.066  25.723  29.360  1.00  0.00     0.001 A 
ATOM     84  C   UNL A   1      49.525  25.307  31.677  1.00  0.00     0.001 A 
ATOM     85  C   UNL A   1      50.442  25.281  30.629  1.00  0.00     0.000 A 
ENDBRANCH  67  80
ENDBRANCH  41  42
ENDBRANCH  33  36
ENDBRANCH  31  32
ENDBRANCH  30  31
ENDBRANCH  29  30
ENDBRANCH   1  29
TORSDOF 16
ENDMDL
MODEL 2
REMARK VINA RESULT:     -11.0      4.283      9.212
REMARK SMILES COc1ccc(-c2noc(C[N@H+]3CCCC[C@@H]3C(=O)NCCCCNC(=O)c3ccc(-c4c5nc(c(-c6ccccc6)c6ccc([nH]6)c(-c6ccccc6)c6nc(c(-c7ccccc7)c7ccc4[nH]7)C=C6)C=C5)cc3)n2)cc1OC
REMARK SMILES IDX 21 1 20 2 18 3 19 4 17 6 12 7 13 8 14 10 16 11 15 12 11 13
REMARK SMILES IDX 10 14 7 15 8 16 76 17 9 18 6 19 3 20 4 21 78 22 5 23 77 24
REMARK SMILES IDX 2 25 1 26 79 27 80 28 22 29 23 30 24 31 25 32 26 33 27 35
REMARK SMILES IDX 28 36 29 37 75 38 30 39 74 40 31 41 32 42 33 43 68 44 34 45
REMARK SMILES IDX 73 46 67 47 69 48 35 49 72 50 66 51 65 52 36 54 58 55 43 56
REMARK SMILES IDX 57 57 44 58 47 59 56 60 70 61 45 62 46 63 55 65 71 66 48 67
REMARK SMILES IDX 37 68 38 69 42 70 39 71 41 72 40 73 59 74 60 75 64 76 61 77
REMARK SMILES IDX 63 78 62 79 49 80 50 81 54 82 51 83 53 84 52 85
REMARK H PARENT 20 5 12 9 25 34 69 53 47 64
REMARK Flexibility Score: inf
ROOT
ATOM      1  C   UNL A   1      34.836  32.242  31.477  1.00  0.00     0.116 C 
ENDROOT
BRANCH   1   2
ATOM      2  N   UNL A   1      34.793  32.733  32.841  1.00  0.00    -0.351 N 
ATOM      3  C   UNL A   1      35.814  33.116  33.664  1.00  0.00     0.278 C 
ATOM      4  O   UNL A   1      35.519  33.489  34.802  1.00  0.00    -0.268 OA
ATOM      5  H   UNL A   1      33.892  32.801  33.233  1.00  0.00     0.163 HD
BRANCH   3   6
ATOM      6  C   UNL A   1      37.281  33.143  33.174  1.00  0.00     0.274 C 
ATOM      7  N   UNL A   1      38.199  32.806  34.295  1.00  0.00    -0.317 N 
ATOM      8  C   UNL A   1      39.615  32.964  33.941  1.00  0.00     0.263 C 
ATOM      9  H   UNL A   1      37.993  33.494  35.019  1.00  0.00     0.349 HD
ATOM     10  C   UNL A   1      39.906  34.360  33.392  1.00  0.00     0.062 C 
ATOM     11  C   UNL A   1      37.589  34.479  32.478  1.00  0.00     0.076 C 
ATOM     12  C   UNL A   1      39.066  34.630  32.151  1.00  0.00     0.012 C 
BRANCH   7  13
ATOM     13  C   UNL A   1      37.936  31.465  34.887  1.00  0.00     0.364 C 
BRANCH  13  14
ATOM     14  C   UNL A   1      38.966  30.406  34.655  1.00  0.00     0.282 A 
ATOM     15  C   UNL A   1      40.630  29.137  34.574  1.00  0.00     0.202 A 
ATOM     16  N   UNL A   1      39.824  28.650  33.621  1.00  0.00    -0.057 NA
ATOM     17  N   UNL A   1      40.132  30.234  35.237  1.00  0.00    -0.186 NA
ATOM     18  O   UNL A   1      38.699  29.466  33.703  1.00  0.00    -0.333 OA
BRANCH  15  19
ATOM     19  C   UNL A   1      41.893  28.530  34.936  1.00  0.00     0.027 A 
ATOM     20  C   UNL A   1      44.343  27.327  35.552  1.00  0.00     0.160 A 
ATOM     21  C   UNL A   1      43.955  28.511  36.196  1.00  0.00     0.051 A 
ATOM     22  C   UNL A   1      43.495  26.723  34.616  1.00  0.00     0.161 A 
ATOM     23  C   UNL A   1      42.740  29.123  35.875  1.00  0.00     0.016 A 
ATOM     24  C   UNL A   1      42.268  27.328  34.327  1.00  0.00     0.062 A 
BRANCH  20  25
ATOM     25  O   UNL A   1      45.513  26.726  35.935  1.00  0.00    -0.493 OA
ATOM     26  C   UNL A   1      45.413  26.156  37.241  1.00  0.00     0.278 C 
ENDBRANCH  20  25
BRANCH  22  27
ATOM     27  O   UNL A   1      43.693  25.559  33.921  1.00  0.00    -0.493 OA
ATOM     28  C   UNL A   1      43.310  24.346  34.550  1.00  0.00     0.278 C 
ENDBRANCH  22  27
ENDBRANCH  15  19
ENDBRANCH  13  14
ENDBRANCH   7  13
ENDBRANCH   3   6
ENDBRANCH   1   2
BRANCH   1  29
ATOM     29  C   UNL A   1      34.770  33.396  30.475  1.00  0.00     0.023 C 
BRANCH  29  30
ATOM     30  C   UNL A   1      35.950  33.458  29.506  1.00  0.00     0.023 C 
BRANCH  30  31
ATOM     31  C   UNL A   1      35.585  33.285  28.038  1.00  0.00     0.116 C 
BRANCH  31  32
ATOM     32  N   UNL A   1      34.493  32.345  27.832  1.00  0.00    -0.352 N 
ATOM     33  C   UNL A   1      34.529  30.972  27.830  1.00  0.00     0.251 C 
ATOM     34  H   UNL A   1      33.609  32.748  27.673  1.00  0.00     0.163 HD
ATOM     35  O   UNL A   1      33.538  30.323  27.507  1.00  0.00    -0.269 OA
BRANCH  33  36
ATOM     36  C   UNL A   1      35.783  30.281  28.188  1.00  0.00     0.039 A 
ATOM     37  C   UNL A   1      36.829  30.258  27.263  1.00  0.00     0.014 A 
ATOM     38  C   UNL A   1      35.936  29.693  29.446  1.00  0.00     0.014 A 
ATOM     39  C   UNL A   1      38.058  29.706  27.628  1.00  0.00     0.010 A 
ATOM     40  C   UNL A   1      37.182  29.212  29.834  1.00  0.00     0.010 A 
ATOM     41  C   UNL A   1      38.255  29.215  28.929  1.00  0.00    -0.014 A 
BRANCH  41  42
ATOM     42  C   UNL A   1      39.578  28.710  29.369  1.00  0.00     0.031 A 
ATOM     43  C   UNL A   1      40.459  29.560  30.240  1.00  0.00     0.074 A 
ATOM     44  C   UNL A   1      40.020  27.519  28.921  1.00  0.00     0.049 A 
ATOM     45  N   UNL A   1      41.673  29.323  30.669  1.00  0.00    -0.248 NA
ATOM     46  C   UNL A   1      39.916  30.862  30.662  1.00  0.00     0.031 C 
ATOM     47  C   UNL A   1      39.281  26.618  28.034  1.00  0.00     0.029 A 
ATOM     48  N   UNL A   1      41.205  26.865  29.145  1.00  0.00    -0.354 N 
ATOM     49  C   UNL A   1      42.045  30.449  31.391  1.00  0.00     0.074 A 
ATOM     50  C   UNL A   1      40.949  31.390  31.303  1.00  0.00     0.031 C 
ATOM     51  C   UNL A   1      40.019  25.520  27.809  1.00  0.00     0.029 A 
ATOM     52  C   UNL A   1      41.297  25.656  28.500  1.00  0.00     0.049 A 
ATOM     53  H   UNL A   1      41.922  27.228  29.713  1.00  0.00     0.167 HD
ATOM     54  C   UNL A   1      43.187  30.675  32.081  1.00  0.00     0.031 A 
ATOM     55  C   UNL A   1      42.300  24.759  28.462  1.00  0.00     0.031 A 
ATOM     56  C   UNL A   1      44.272  29.735  32.178  1.00  0.00     0.049 A 
ATOM     57  C   UNL A   1      43.562  25.034  29.230  1.00  0.00     0.074 A 
ATOM     58  C   UNL A   1      45.443  29.843  32.908  1.00  0.00     0.029 A 
ATOM     59  N   UNL A   1      44.320  28.516  31.521  1.00  0.00    -0.354 N 
ATOM     60  N   UNL A   1      43.867  26.072  29.972  1.00  0.00    -0.248 NA
ATOM     61  C   UNL A   1      44.613  24.010  29.165  1.00  0.00     0.031 C 
ATOM     62  C   UNL A   1      46.223  28.712  32.651  1.00  0.00     0.029 A 
ATOM     63  C   UNL A   1      45.513  27.873  31.806  1.00  0.00     0.049 A 
ATOM     64  H   UNL A   1      43.611  28.159  30.939  1.00  0.00     0.167 HD
ATOM     65  C   UNL A   1      45.134  25.814  30.480  1.00  0.00     0.074 A 
ATOM     66  C   UNL A   1      45.532  24.515  29.976  1.00  0.00     0.031 C 
ATOM     67  C   UNL A   1      45.897  26.583  31.294  1.00  0.00     0.031 A 
BRANCH  54  68
ATOM     68  C   UNL A   1      43.324  32.001  32.777  1.00  0.00    -0.014 A 
ATOM     69  C   UNL A   1      43.075  32.130  34.153  1.00  0.00     0.009 A 
ATOM     70  C   UNL A   1      43.733  33.130  32.052  1.00  0.00     0.009 A 
ATOM     71  C   UNL A   1      43.194  33.373  34.779  1.00  0.00     0.001 A 
ATOM     72  C   UNL A   1      43.880  34.365  32.687  1.00  0.00     0.001 A 
ATOM     73  C   UNL A   1      43.599  34.487  34.047  1.00  0.00     0.000 A 
ENDBRANCH  54  68
BRANCH  55  74
ATOM     74  C   UNL A   1      42.146  23.506  27.678  1.00  0.00    -0.014 A 
ATOM     75  C   UNL A   1      41.598  22.359  28.272  1.00  0.00     0.009 A 
ATOM     76  C   UNL A   1      42.545  23.450  26.333  1.00  0.00     0.009 A 
ATOM     77  C   UNL A   1      41.473  21.175  27.540  1.00  0.00     0.001 A 
ATOM     78  C   UNL A   1      42.392  22.274  25.598  1.00  0.00     0.001 A 
ATOM     79  C   UNL A   1      41.866  21.134  26.204  1.00  0.00     0.000 A 
ENDBRANCH  55  74
BRANCH  67  80
ATOM     80  C   UNL A   1      47.229  26.029  31.714  1.00  0.00    -0.014 A 
ATOM     81  C   UNL A   1      47.402  25.417  32.965  1.00  0.00     0.009 A 
ATOM     82  C   UNL A   1      48.314  26.082  30.826  1.00  0.00     0.009 A 
ATOM     83  C   UNL A   1      48.645  24.895  33.329  1.00  0.00     0.001 A 
ATOM     84  C   UNL A   1      49.548  25.535  31.181  1.00  0.00     0.001 A 
ATOM     85  C   UNL A   1      49.714  24.950  32.435  1.00  0.00     0.000 A 
ENDBRANCH  67  80
ENDBRANCH  41  42
ENDBRANCH  33  36
ENDBRANCH  31  32
ENDBRANCH  30  31
ENDBRANCH  29  30
ENDBRANCH   1  29
TORSDOF 16
ENDMDL
MODEL 3
REMARK VINA RESULT:     -10.9      0.351      5.741
REMARK SMILES COc1ccc(-c2noc(C[N@H+]3CCCC[C@@H]3C(=O)NCCCCNC(=O)c3ccc(-c4c5nc(c(-c6ccccc6)c6ccc([nH]6)c(-c6ccccc6)c6nc(c(-c7ccccc7)c7ccc4[nH]7)C=C6)C=C5)cc3)n2)cc1OC
REMARK SMILES IDX 21 1 20 2 18 3 19 4 17 6 12 7 13 8 14 10 16 11 15 12 11 13
REMARK SMILES IDX 10 14 7 15 8 16 76 17 9 18 6 19 3 20 4 21 78 22 5 23 77 24
REMARK SMILES IDX 2 25 1 26 79 27 80 28 22 29 23 30 24 31 25 32 26 33 27 35
REMARK SMILES IDX 28 36 29 37 75 38 30 39 74 40 31 41 32 42 33 43 68 44 34 45
REMARK SMILES IDX 73 46 67 47 69 48 35 49 72 50 66 51 65 52 36 54 58 55 43 56
REMARK SMILES IDX 57 57 44 58 47 59 56 60 70 61 45 62 46 63 55 65 71 66 48 67
REMARK SMILES IDX 37 68 38 69 42 70 39 71 41 72 40 73 59 74 60 75 64 76 61 77
REMARK SMILES IDX 63 78 62 79 49 80 50 81 54 82 51 83 53 84 52 85
REMARK H PARENT 20 5 12 9 25 34 69 53 47 64
REMARK Flexibility Score: inf
ROOT
ATOM      1  C   UNL A   1      33.179  26.083  26.150  1.00  0.00     0.116 C 
ENDROOT
BRANCH   1   2
ATOM      2  N   UNL A   1      32.907  24.708  26.525  1.00  0.00    -0.351 N 
ATOM      3  C   UNL A   1      33.581  23.566  26.200  1.00  0.00     0.278 C 
ATOM      4  O   UNL A   1      33.139  22.500  26.637  1.00  0.00    -0.268 OA
ATOM      5  H   UNL A   1      32.118  24.579  27.100  1.00  0.00     0.163 HD
BRANCH   3   6
ATOM      6  C   UNL A   1      34.885  23.604  25.368  1.00  0.00     0.274 C 
ATOM      7  N   UNL A   1      34.841  22.567  24.303  1.00  0.00    -0.317 N 
ATOM      8  C   UNL A   1      36.110  22.443  23.573  1.00  0.00     0.263 C 
ATOM      9  H   UNL A   1      34.694  21.688  24.798  1.00  0.00     0.349 HD
ATOM     10  C   UNL A   1      37.283  22.208  24.522  1.00  0.00     0.062 C 
ATOM     11  C   UNL A   1      36.112  23.517  26.292  1.00  0.00     0.076 C 
ATOM     12  C   UNL A   1      37.408  23.357  25.512  1.00  0.00     0.012 C 
BRANCH   7  13
ATOM     13  C   UNL A   1      33.694  22.734  23.368  1.00  0.00     0.364 C 
BRANCH  13  14
ATOM     14  C   UNL A   1      33.353  24.131  22.955  1.00  0.00     0.282 A 
ATOM     15  C   UNL A   1      32.531  26.014  22.551  1.00  0.00     0.202 A 
ATOM     16  N   UNL A   1      33.664  26.013  21.836  1.00  0.00    -0.057 NA
ATOM     17  N   UNL A   1      32.300  24.857  23.258  1.00  0.00    -0.186 NA
ATOM     18  O   UNL A   1      34.233  24.777  22.138  1.00  0.00    -0.333 OA
BRANCH  15  19
ATOM     19  C   UNL A   1      31.647  27.156  22.639  1.00  0.00     0.027 A 
ATOM     20  C   UNL A   1      29.896  29.326  22.876  1.00  0.00     0.160 A 
ATOM     21  C   UNL A   1      31.218  29.527  22.453  1.00  0.00     0.051 A 
ATOM     22  C   UNL A   1      29.434  28.034  23.158  1.00  0.00     0.161 A 
ATOM     23  C   UNL A   1      32.099  28.447  22.352  1.00  0.00     0.016 A 
ATOM     24  C   UNL A   1      30.316  26.958  23.023  1.00  0.00     0.062 A 
BRANCH  20  25
ATOM     25  O   UNL A   1      29.047  30.400  22.906  1.00  0.00    -0.493 OA
ATOM     26  C   UNL A   1      28.718  30.853  21.592  1.00  0.00     0.278 C 
ENDBRANCH  20  25
BRANCH  22  27
ATOM     27  O   UNL A   1      28.179  27.650  23.548  1.00  0.00    -0.493 OA
ATOM     28  C   UNL A   1      28.016  26.321  24.019  1.00  0.00     0.278 C 
ENDBRANCH  22  27
ENDBRANCH  15  19
ENDBRANCH  13  14
ENDBRANCH   7  13
ENDBRANCH   3   6
ENDBRANCH   1   2
BRANCH   1  29
ATOM     29  C   UNL A   1      31.976  26.981  26.443  1.00  0.00     0.023 C 
BRANCH  29  30
ATOM     30  C   UNL A   1      32.300  28.473  26.493  1.00  0.00     0.023 C 
BRANCH  30  31
ATOM     31  C   UNL A   1      33.557  28.832  27.273  1.00  0.00     0.116 C 
BRANCH  31  32
ATOM     32  N   UNL A   1      33.551  30.205  27.758  1.00  0.00    -0.352 N 
ATOM     33  C   UNL A   1      34.557  30.899  28.386  1.00  0.00     0.251 C 
ATOM     34  H   UNL A   1      32.714  30.703  27.617  1.00  0.00     0.163 HD
ATOM     35  O   UNL A   1      34.345  32.014  28.854  1.00  0.00    -0.269 OA
BRANCH  33  36
ATOM     36  C   UNL A   1      35.888  30.277  28.523  1.00  0.00     0.039 A 
ATOM     37  C   UNL A   1      36.782  30.355  27.453  1.00  0.00     0.014 A 
ATOM     38  C   UNL A   1      36.264  29.655  29.716  1.00  0.00     0.014 A 
ATOM     39  C   UNL A   1      38.082  29.871  27.606  1.00  0.00     0.010 A 
ATOM     40  C   UNL A   1      37.580  29.241  29.892  1.00  0.00     0.010 A 
ATOM     41  C   UNL A   1      38.502  29.347  28.839  1.00  0.00    -0.014 A 
BRANCH  41  42
ATOM     42  C   UNL A   1      39.903  28.913  29.055  1.00  0.00     0.031 A 
ATOM     43  C   UNL A   1      40.340  27.536  28.639  1.00  0.00     0.074 A 
ATOM     44  C   UNL A   1      40.764  29.729  29.694  1.00  0.00     0.049 A 
ATOM     45  N   UNL A   1      41.500  26.952  28.805  1.00  0.00    -0.248 NA
ATOM     46  C   UNL A   1      39.333  26.694  27.973  1.00  0.00     0.031 C 
ATOM     47  C   UNL A   1      40.451  31.072  30.189  1.00  0.00     0.029 A 
ATOM     48  N   UNL A   1      42.077  29.543  30.045  1.00  0.00    -0.354 N 
ATOM     49  C   UNL A   1      41.356  25.673  28.286  1.00  0.00     0.074 A 
ATOM     50  C   UNL A   1      39.984  25.548  27.842  1.00  0.00     0.031 C 
ATOM     51  C   UNL A   1      41.548  31.596  30.758  1.00  0.00     0.029 A 
ATOM     52  C   UNL A   1      42.627  30.615  30.706  1.00  0.00     0.049 A 
ATOM     53  H   UNL A   1      42.577  28.719  29.845  1.00  0.00     0.167 HD
ATOM     54  C   UNL A   1      42.284  24.694  28.171  1.00  0.00     0.031 A 
ATOM     55  C   UNL A   1      43.859  30.786  31.219  1.00  0.00     0.031 A 
ATOM     56  C   UNL A   1      43.651  24.823  28.601  1.00  0.00     0.049 A 
ATOM     57  C   UNL A   1      44.872  29.684  31.086  1.00  0.00     0.074 A 
ATOM     58  C   UNL A   1      44.685  23.913  28.467  1.00  0.00     0.029 A 
ATOM     59  N   UNL A   1      44.172  25.930  29.253  1.00  0.00    -0.354 N 
ATOM     60  N   UNL A   1      44.741  28.507  30.522  1.00  0.00    -0.248 NA
ATOM     61  C   UNL A   1      46.205  29.938  31.650  1.00  0.00     0.031 C 
ATOM     62  C   UNL A   1      45.820  24.449  29.085  1.00  0.00     0.029 A 
ATOM     63  C   UNL A   1      45.506  25.715  29.553  1.00  0.00     0.049 A 
ATOM     64  H   UNL A   1      43.668  26.747  29.470  1.00  0.00     0.167 HD
ATOM     65  C   UNL A   1      45.980  27.890  30.642  1.00  0.00     0.074 A 
ATOM     66  C   UNL A   1      46.853  28.830  31.317  1.00  0.00     0.031 C 
ATOM     67  C   UNL A   1      46.361  26.658  30.228  1.00  0.00     0.031 A 
BRANCH  54  68
ATOM     68  C   UNL A   1      41.844  23.392  27.563  1.00  0.00    -0.014 A 
ATOM     69  C   UNL A   1      42.002  23.138  26.190  1.00  0.00     0.009 A 
ATOM     70  C   UNL A   1      41.289  22.394  28.378  1.00  0.00     0.009 A 
ATOM     71  C   UNL A   1      41.574  21.928  25.641  1.00  0.00     0.001 A 
ATOM     72  C   UNL A   1      40.891  21.173  27.831  1.00  0.00     0.001 A 
ATOM     73  C   UNL A   1      41.023  20.945  26.462  1.00  0.00     0.000 A 
ENDBRANCH  54  68
BRANCH  55  74
ATOM     74  C   UNL A   1      44.210  32.062  31.896  1.00  0.00    -0.014 A 
ATOM     75  C   UNL A   1      44.750  33.130  31.163  1.00  0.00     0.009 A 
ATOM     76  C   UNL A   1      44.006  32.220  33.275  1.00  0.00     0.009 A 
ATOM     77  C   UNL A   1      45.100  34.322  31.803  1.00  0.00     0.001 A 
ATOM     78  C   UNL A   1      44.330  33.422  33.906  1.00  0.00     0.001 A 
ATOM     79  C   UNL A   1      44.885  34.469  33.172  1.00  0.00     0.000 A 
ENDBRANCH  55  74
BRANCH  67  80
ATOM     80  C   UNL A   1      47.791  26.264  30.466  1.00  0.00    -0.014 A 
ATOM     81  C   UNL A   1      48.775  26.462  29.485  1.00  0.00     0.009 A 
ATOM     82  C   UNL A   1      48.165  25.726  31.707  1.00  0.00     0.009 A 
ATOM     83  C   UNL A   1      50.101  26.102  29.734  1.00  0.00     0.001 A 
ATOM     84  C   UNL A   1      49.496  25.394  31.963  1.00  0.00     0.001 A 
ATOM     85  C   UNL A   1      50.460  25.574  30.973  1.00  0.00     0.000 A 
ENDBRANCH  67  80
ENDBRANCH  41  42
ENDBRANCH  33  36
ENDBRANCH  31  32
ENDBRANCH  30  31
ENDBRANCH  29  30
ENDBRANCH   1  29
TORSDOF 16
ENDMDL
