MODEL 1
REMARK VINA RESULT:     -12.4      0.000      0.000
REMARK SMILES Cc1ccc(Cn2c(C)c(C[NH2+]Cc3ccco3)c(C(=O)NCCCCNC(=O)c3ccc(-c4c5nc(c(-c6ccccc6)c6ccc([nH]6)c(-c6ccccc6)c6nc(c(-c7ccccc7)c7ccc4[nH]7)C=C6)C=C5)cc3)c2C)cc1
REMARK SMILES IDX 23 1 22 2 20 3 21 4 19 6 7 7 8 8 78 9 9 10 10 11 79 12 6 13
REMARK SMILES IDX 5 14 1 15 2 16 3 17 81 18 4 19 80 20 11 21 12 22 13 25 14 26
REMARK SMILES IDX 15 27 18 28 16 29 17 30 24 31 25 32 26 33 27 34 28 35 29 37
REMARK SMILES IDX 30 38 31 39 77 40 32 41 76 42 33 43 34 44 35 45 70 46 36 47
REMARK SMILES IDX 75 48 69 49 71 50 37 51 74 52 68 53 67 54 38 56 60 57 45 58
REMARK SMILES IDX 59 59 46 60 49 61 58 62 72 63 47 64 48 65 57 67 73 68 50 69
REMARK SMILES IDX 39 70 40 71 44 72 41 73 43 74 42 75 61 76 62 77 66 78 63 79
REMARK SMILES IDX 65 80 64 81 51 82 52 83 56 84 53 85 55 86 54 87
REMARK H PARENT 22 5 12 23 12 24 27 36 71 55 49 66
REMARK Flexibility Score: inf
ROOT
ATOM      1  C   UNL A   1      32.198  27.996  27.031  1.00  0.00     0.116 C 
ENDROOT
BRANCH   1   2
ATOM      2  N   UNL A   1      31.023  27.156  26.980  1.00  0.00    -0.352 N 
ATOM      3  C   UNL A   1      30.632  26.125  26.166  1.00  0.00     0.253 C 
ATOM      4  O   UNL A   1      29.556  25.613  26.487  1.00  0.00    -0.269 OA
ATOM      5  H   UNL A   1      30.363  27.370  27.679  1.00  0.00     0.163 HD
BRANCH   3   6
ATOM      6  C   UNL A   1      31.428  25.593  25.043  1.00  0.00     0.069 A 
ATOM      7  N   UNL A   1      32.861  24.473  23.704  1.00  0.00    -0.343 N 
ATOM      8  C   UNL A   1      32.194  25.363  22.883  1.00  0.00     0.025 A 
ATOM      9  C   UNL A   1      32.635  24.886  25.015  1.00  0.00     0.028 A 
ATOM     10  C   UNL A   1      32.525  25.648  21.455  1.00  0.00     0.065 C 
ATOM     11  C   UNL A   1      31.231  26.001  23.661  1.00  0.00     0.040 A 
ATOM     12  C   UNL A   1      33.662  24.698  26.073  1.00  0.00     0.065 C 
BRANCH   7  13
ATOM     13  C   UNL A   1      33.879  23.503  23.271  1.00  0.00     0.157 C 
BRANCH  13  14
ATOM     14  C   UNL A   1      33.689  22.084  23.772  1.00  0.00    -0.028 A 
ATOM     15  C   UNL A   1      33.294  17.894  24.840  1.00  0.00     0.044 C 
ATOM     16  C   UNL A   1      33.415  19.341  24.464  1.00  0.00    -0.051 A 
ATOM     17  C   UNL A   1      34.524  20.079  24.875  1.00  0.00     0.004 A 
ATOM     18  C   UNL A   1      32.431  19.986  23.714  1.00  0.00     0.004 A 
ATOM     19  C   UNL A   1      34.660  21.425  24.529  1.00  0.00     0.006 A 
ATOM     20  C   UNL A   1      32.567  21.339  23.370  1.00  0.00     0.006 A 
ENDBRANCH  13  14
ENDBRANCH   7  13
BRANCH  11  21
ATOM     21  C   UNL A   1      30.270  27.061  23.169  1.00  0.00     0.300 C 
BRANCH  21  22
ATOM     22  N   UNL A   1      30.958  28.347  23.295  1.00  0.00    -0.336 N 
ATOM     23  H   UNL A   1      31.960  28.174  23.364  1.00  0.00     0.346 HD
ATOM     24  H   UNL A   1      30.592  28.807  24.128  1.00  0.00     0.346 HD
BRANCH  22  25
ATOM     25  C   UNL A   1      30.715  29.238  22.161  1.00  0.00     0.337 C 
BRANCH  25  26
ATOM     26  C   UNL A   1      29.533  30.122  22.359  1.00  0.00     0.157 A 
ATOM     27  C   UNL A   1      29.057  30.854  23.426  1.00  0.00     0.052 A 
ATOM     28  O   UNL A   1      28.701  30.273  21.285  1.00  0.00    -0.463 OA
ATOM     29  C   UNL A   1      27.886  31.508  22.974  1.00  0.00     0.042 A 
ATOM     30  C   UNL A   1      27.717  31.129  21.663  1.00  0.00     0.195 A 
ENDBRANCH  25  26
ENDBRANCH  22  25
ENDBRANCH  21  22
ENDBRANCH  11  21
ENDBRANCH   3   6
ENDBRANCH   1   2
BRANCH   1  31
ATOM     31  C   UNL A   1      31.964  29.330  26.298  1.00  0.00     0.023 C 
BRANCH  31  32
ATOM     32  C   UNL A   1      32.949  30.458  26.596  1.00  0.00     0.023 C 
BRANCH  32  33
ATOM     33  C   UNL A   1      33.636  30.315  27.941  1.00  0.00     0.116 C 
BRANCH  33  34
ATOM     34  N   UNL A   1      34.495  31.419  28.343  1.00  0.00    -0.352 N 
ATOM     35  C   UNL A   1      35.824  31.392  28.753  1.00  0.00     0.251 C 
ATOM     36  H   UNL A   1      34.076  32.310  28.322  1.00  0.00     0.163 HD
ATOM     37  O   UNL A   1      36.357  32.416  29.142  1.00  0.00    -0.269 OA
BRANCH  35  38
ATOM     38  C   UNL A   1      36.636  30.152  28.574  1.00  0.00     0.039 A 
ATOM     39  C   UNL A   1      36.804  29.314  29.684  1.00  0.00     0.014 A 
ATOM     40  C   UNL A   1      37.407  29.939  27.438  1.00  0.00     0.014 A 
ATOM     41  C   UNL A   1      37.927  28.492  29.759  1.00  0.00     0.010 A 
ATOM     42  C   UNL A   1      38.588  29.240  27.558  1.00  0.00     0.010 A 
ATOM     43  C   UNL A   1      38.881  28.576  28.749  1.00  0.00    -0.014 A 
BRANCH  43  44
ATOM     44  C   UNL A   1      40.262  28.142  28.892  1.00  0.00     0.031 A 
ATOM     45  C   UNL A   1      40.715  26.862  28.325  1.00  0.00     0.074 A 
ATOM     46  C   UNL A   1      41.161  28.988  29.442  1.00  0.00     0.049 A 
ATOM     47  N   UNL A   1      41.722  26.189  28.772  1.00  0.00    -0.248 NA
ATOM     48  C   UNL A   1      40.036  26.223  27.203  1.00  0.00     0.031 C 
ATOM     49  C   UNL A   1      42.618  28.903  29.396  1.00  0.00     0.029 A 
ATOM     50  N   UNL A   1      40.929  30.043  30.304  1.00  0.00    -0.354 N 
ATOM     51  C   UNL A   1      42.008  25.227  27.832  1.00  0.00     0.074 A 
ATOM     52  C   UNL A   1      40.886  25.231  26.921  1.00  0.00     0.031 C 
ATOM     53  C   UNL A   1      43.131  29.694  30.355  1.00  0.00     0.029 A 
ATOM     54  C   UNL A   1      42.021  30.180  31.161  1.00  0.00     0.049 A 
ATOM     55  H   UNL A   1      40.121  30.606  30.314  1.00  0.00     0.167 HD
ATOM     56  C   UNL A   1      43.234  24.637  27.808  1.00  0.00     0.031 A 
ATOM     57  C   UNL A   1      41.889  29.956  32.504  1.00  0.00     0.031 A 
ATOM     58  C   UNL A   1      44.113  25.148  28.856  1.00  0.00     0.049 A 
ATOM     59  C   UNL A   1      42.685  28.772  33.005  1.00  0.00     0.074 A 
ATOM     60  C   UNL A   1      45.122  26.099  28.845  1.00  0.00     0.029 A 
ATOM     61  N   UNL A   1      43.795  24.927  30.192  1.00  0.00    -0.354 N 
ATOM     62  N   UNL A   1      43.171  27.837  32.237  1.00  0.00    -0.248 NA
ATOM     63  C   UNL A   1      42.961  28.528  34.419  1.00  0.00     0.031 C 
ATOM     64  C   UNL A   1      45.356  26.506  30.184  1.00  0.00     0.029 A 
ATOM     65  C   UNL A   1      44.514  25.780  31.009  1.00  0.00     0.049 A 
ATOM     66  H   UNL A   1      43.150  24.256  30.511  1.00  0.00     0.167 HD
ATOM     67  C   UNL A   1      43.782  26.882  33.003  1.00  0.00     0.074 A 
ATOM     68  C   UNL A   1      43.645  27.372  34.363  1.00  0.00     0.031 C 
ATOM     69  C   UNL A   1      44.329  25.757  32.455  1.00  0.00     0.031 A 
BRANCH  56  70
ATOM     70  C   UNL A   1      43.705  23.855  26.608  1.00  0.00    -0.014 A 
ATOM     71  C   UNL A   1      43.428  22.480  26.512  1.00  0.00     0.009 A 
ATOM     72  C   UNL A   1      44.472  24.412  25.569  1.00  0.00     0.009 A 
ATOM     73  C   UNL A   1      43.980  21.685  25.500  1.00  0.00     0.001 A 
ATOM     74  C   UNL A   1      45.064  23.615  24.580  1.00  0.00     0.001 A 
ATOM     75  C   UNL A   1      44.826  22.247  24.553  1.00  0.00     0.000 A 
ENDBRANCH  56  70
BRANCH  57  76
ATOM     76  C   UNL A   1      40.558  30.356  33.045  1.00  0.00    -0.014 A 
ATOM     77  C   UNL A   1      40.201  31.713  32.958  1.00  0.00     0.009 A 
ATOM     78  C   UNL A   1      39.541  29.411  33.230  1.00  0.00     0.009 A 
ATOM     79  C   UNL A   1      38.862  32.103  32.875  1.00  0.00     0.001 A 
ATOM     80  C   UNL A   1      38.198  29.808  33.180  1.00  0.00     0.001 A 
ATOM     81  C   UNL A   1      37.860  31.142  32.947  1.00  0.00     0.000 A 
ENDBRANCH  57  76
BRANCH  69  82
ATOM     82  C   UNL A   1      44.811  24.552  33.223  1.00  0.00    -0.014 A 
ATOM     83  C   UNL A   1      46.109  24.409  33.731  1.00  0.00     0.009 A 
ATOM     84  C   UNL A   1      43.882  23.546  33.569  1.00  0.00     0.009 A 
ATOM     85  C   UNL A   1      46.475  23.291  34.494  1.00  0.00     0.001 A 
ATOM     86  C   UNL A   1      44.229  22.456  34.371  1.00  0.00     0.001 A 
ATOM     87  C   UNL A   1      45.534  22.320  34.821  1.00  0.00     0.000 A 
ENDBRANCH  69  82
ENDBRANCH  43  44
ENDBRANCH  35  38
ENDBRANCH  33  34
ENDBRANCH  32  33
ENDBRANCH  31  32
ENDBRANCH   1  31
TORSDOF 17
ENDMDL
MODEL 2
REMARK VINA RESULT:     -12.3      3.360      9.005
REMARK SMILES Cc1ccc(Cn2c(C)c(C[NH2+]Cc3ccco3)c(C(=O)NCCCCNC(=O)c3ccc(-c4c5nc(c(-c6ccccc6)c6ccc([nH]6)c(-c6ccccc6)c6nc(c(-c7ccccc7)c7ccc4[nH]7)C=C6)C=C5)cc3)c2C)cc1
REMARK SMILES IDX 23 1 22 2 20 3 21 4 19 6 7 7 8 8 78 9 9 10 10 11 79 12 6 13
REMARK SMILES IDX 5 14 1 15 2 16 3 17 81 18 4 19 80 20 11 21 12 22 13 25 14 26
REMARK SMILES IDX 15 27 18 28 16 29 17 30 24 31 25 32 26 33 27 34 28 35 29 37
REMARK SMILES IDX 30 38 31 39 77 40 32 41 76 42 33 43 34 44 35 45 70 46 36 47
REMARK SMILES IDX 75 48 69 49 71 50 37 51 74 52 68 53 67 54 38 56 60 57 45 58
REMARK SMILES IDX 59 59 46 60 49 61 58 62 72 63 47 64 48 65 57 67 73 68 50 69
REMARK SMILES IDX 39 70 40 71 44 72 41 73 43 74 42 75 61 76 62 77 66 78 63 79
REMARK SMILES IDX 65 80 64 81 51 82 52 83 56 84 53 85 55 86 54 87
REMARK H PARENT 22 5 12 23 12 24 27 36 71 55 49 66
REMARK Flexibility Score: inf
ROOT
ATOM      1  C   UNL A   1      37.479  24.061  25.764  1.00  0.00     0.116 C 
ENDROOT
BRANCH   1   2
ATOM      2  N   UNL A   1      37.137  23.524  24.467  1.00  0.00    -0.352 N 
ATOM      3  C   UNL A   1      35.949  23.279  23.827  1.00  0.00     0.253 C 
ATOM      4  O   UNL A   1      36.077  22.857  22.675  1.00  0.00    -0.269 OA
ATOM      5  H   UNL A   1      37.925  23.283  23.927  1.00  0.00     0.163 HD
BRANCH   3   6
ATOM      6  C   UNL A   1      34.616  23.550  24.398  1.00  0.00     0.069 A 
ATOM      7  N   UNL A   1      32.559  24.341  24.894  1.00  0.00    -0.343 N 
ATOM      8  C   UNL A   1      32.808  23.335  25.808  1.00  0.00     0.025 A 
ATOM      9  C   UNL A   1      33.782  24.671  24.314  1.00  0.00     0.028 A 
ATOM     10  C   UNL A   1      31.962  23.008  26.995  1.00  0.00     0.065 C 
ATOM     11  C   UNL A   1      34.029  22.759  25.468  1.00  0.00     0.040 A 
ATOM     12  C   UNL A   1      34.082  26.060  23.879  1.00  0.00     0.065 C 
BRANCH   7  13
ATOM     13  C   UNL A   1      31.323  25.134  24.804  1.00  0.00     0.157 C 
BRANCH  13  14
ATOM     14  C   UNL A   1      31.403  26.540  25.367  1.00  0.00    -0.028 A 
ATOM     15  C   UNL A   1      32.041  30.548  26.909  1.00  0.00     0.044 C 
ATOM     16  C   UNL A   1      31.823  29.158  26.392  1.00  0.00    -0.051 A 
ATOM     17  C   UNL A   1      31.404  28.959  25.078  1.00  0.00     0.004 A 
ATOM     18  C   UNL A   1      32.019  28.038  27.201  1.00  0.00     0.004 A 
ATOM     19  C   UNL A   1      31.203  27.673  24.573  1.00  0.00     0.006 A 
ATOM     20  C   UNL A   1      31.814  26.746  26.695  1.00  0.00     0.006 A 
ENDBRANCH  13  14
ENDBRANCH   7  13
BRANCH  11  21
ATOM     21  C   UNL A   1      34.694  21.617  26.205  1.00  0.00     0.300 C 
BRANCH  21  22
ATOM     22  N   UNL A   1      34.783  20.499  25.264  1.00  0.00    -0.336 N 
ATOM     23  H   UNL A   1      35.298  19.740  25.708  1.00  0.00     0.346 HD
ATOM     24  H   UNL A   1      35.256  20.842  24.428  1.00  0.00     0.346 HD
BRANCH  22  25
ATOM     25  C   UNL A   1      33.474  19.996  24.849  1.00  0.00     0.337 C 
BRANCH  25  26
ATOM     26  C   UNL A   1      33.401  18.509  24.831  1.00  0.00     0.157 A 
ATOM     27  C   UNL A   1      34.116  17.528  24.178  1.00  0.00     0.052 A 
ATOM     28  O   UNL A   1      32.430  17.939  25.606  1.00  0.00    -0.463 OA
ATOM     29  C   UNL A   1      33.570  16.290  24.596  1.00  0.00     0.042 A 
ATOM     30  C   UNL A   1      32.555  16.594  25.470  1.00  0.00     0.195 A 
ENDBRANCH  25  26
ENDBRANCH  22  25
ENDBRANCH  21  22
ENDBRANCH  11  21
ENDBRANCH   3   6
ENDBRANCH   1   2
BRANCH   1  31
ATOM     31  C   UNL A   1      38.263  23.036  26.604  1.00  0.00     0.023 C 
BRANCH  31  32
ATOM     32  C   UNL A   1      39.041  21.971  25.834  1.00  0.00     0.023 C 
BRANCH  32  33
ATOM     33  C   UNL A   1      39.994  21.177  26.707  1.00  0.00     0.116 C 
BRANCH  33  34
ATOM     34  N   UNL A   1      41.009  20.403  26.008  1.00  0.00    -0.352 N 
ATOM     35  C   UNL A   1      42.381  20.620  25.933  1.00  0.00     0.251 C 
ATOM     36  H   UNL A   1      40.679  19.615  25.519  1.00  0.00     0.163 HD
ATOM     37  O   UNL A   1      43.068  19.911  25.219  1.00  0.00    -0.269 OA
BRANCH  35  38
ATOM     38  C   UNL A   1      43.030  21.615  26.838  1.00  0.00     0.039 A 
ATOM     39  C   UNL A   1      42.661  21.608  28.190  1.00  0.00     0.014 A 
ATOM     40  C   UNL A   1      43.783  22.673  26.344  1.00  0.00     0.014 A 
ATOM     41  C   UNL A   1      42.781  22.777  28.939  1.00  0.00     0.010 A 
ATOM     42  C   UNL A   1      43.777  23.869  27.027  1.00  0.00     0.010 A 
ATOM     43  C   UNL A   1      43.208  23.937  28.298  1.00  0.00    -0.014 A 
BRANCH  43  44
ATOM     44  C   UNL A   1      42.967  25.282  28.799  1.00  0.00     0.031 A 
ATOM     45  C   UNL A   1      41.782  26.045  28.376  1.00  0.00     0.074 A 
ATOM     46  C   UNL A   1      43.779  25.778  29.759  1.00  0.00     0.049 A 
ATOM     47  N   UNL A   1      41.717  27.334  28.371  1.00  0.00    -0.248 NA
ATOM     48  C   UNL A   1      40.567  25.396  27.897  1.00  0.00     0.031 C 
ATOM     49  C   UNL A   1      43.548  26.937  30.617  1.00  0.00     0.029 A 
ATOM     50  N   UNL A   1      45.078  25.412  30.056  1.00  0.00    -0.354 N 
ATOM     51  C   UNL A   1      40.394  27.665  28.199  1.00  0.00     0.074 A 
ATOM     52  C   UNL A   1      39.732  26.436  27.824  1.00  0.00     0.031 C 
ATOM     53  C   UNL A   1      44.719  27.319  31.157  1.00  0.00     0.029 A 
ATOM     54  C   UNL A   1      45.768  26.528  30.530  1.00  0.00     0.049 A 
ATOM     55  H   UNL A   1      45.456  24.510  29.949  1.00  0.00     0.167 HD
ATOM     56  C   UNL A   1      39.946  28.902  28.552  1.00  0.00     0.031 A 
ATOM     57  C   UNL A   1      46.812  27.058  29.822  1.00  0.00     0.031 A 
ATOM     58  C   UNL A   1      41.012  29.741  29.090  1.00  0.00     0.049 A 
ATOM     59  C   UNL A   1      46.552  28.456  29.308  1.00  0.00     0.074 A 
ATOM     60  C   UNL A   1      41.388  30.054  30.387  1.00  0.00     0.029 A 
ATOM     61  N   UNL A   1      42.071  30.122  28.272  1.00  0.00    -0.354 N 
ATOM     62  N   UNL A   1      45.368  28.996  29.219  1.00  0.00    -0.248 NA
ATOM     63  C   UNL A   1      47.604  29.340  28.814  1.00  0.00     0.031 C 
ATOM     64  C   UNL A   1      42.714  30.555  30.352  1.00  0.00     0.029 A 
ATOM     65  C   UNL A   1      43.131  30.579  29.032  1.00  0.00     0.049 A 
ATOM     66  H   UNL A   1      42.065  30.074  27.289  1.00  0.00     0.167 HD
ATOM     67  C   UNL A   1      45.471  30.241  28.658  1.00  0.00     0.074 A 
ATOM     68  C   UNL A   1      46.895  30.421  28.444  1.00  0.00     0.031 C 
ATOM     69  C   UNL A   1      44.372  31.008  28.397  1.00  0.00     0.031 A 
BRANCH  56  70
ATOM     70  C   UNL A   1      38.474  29.187  28.712  1.00  0.00    -0.014 A 
ATOM     71  C   UNL A   1      37.723  29.641  27.614  1.00  0.00     0.009 A 
ATOM     72  C   UNL A   1      37.790  29.077  29.934  1.00  0.00     0.009 A 
ATOM     73  C   UNL A   1      36.397  30.070  27.753  1.00  0.00     0.001 A 
ATOM     74  C   UNL A   1      36.478  29.546  30.091  1.00  0.00     0.001 A 
ATOM     75  C   UNL A   1      35.785  30.054  29.000  1.00  0.00     0.000 A 
ENDBRANCH  56  70
BRANCH  57  76
ATOM     76  C   UNL A   1      47.613  26.034  29.090  1.00  0.00    -0.014 A 
ATOM     77  C   UNL A   1      47.290  25.796  27.742  1.00  0.00     0.009 A 
ATOM     78  C   UNL A   1      48.875  25.641  29.552  1.00  0.00     0.009 A 
ATOM     79  C   UNL A   1      48.256  25.349  26.838  1.00  0.00     0.001 A 
ATOM     80  C   UNL A   1      49.833  25.161  28.649  1.00  0.00     0.001 A 
ATOM     81  C   UNL A   1      49.541  25.068  27.287  1.00  0.00     0.000 A 
ENDBRANCH  57  76
BRANCH  69  82
ATOM     82  C   UNL A   1      44.361  32.275  27.581  1.00  0.00    -0.014 A 
ATOM     83  C   UNL A   1      44.290  32.312  26.182  1.00  0.00     0.009 A 
ATOM     84  C   UNL A   1      44.294  33.518  28.249  1.00  0.00     0.009 A 
ATOM     85  C   UNL A   1      44.217  33.527  25.486  1.00  0.00     0.001 A 
ATOM     86  C   UNL A   1      44.170  34.728  27.563  1.00  0.00     0.001 A 
ATOM     87  C   UNL A   1      44.149  34.733  26.175  1.00  0.00     0.000 A 
ENDBRANCH  69  82
ENDBRANCH  43  44
ENDBRANCH  35  38
ENDBRANCH  33  34
ENDBRANCH  32  33
ENDBRANCH  31  32
ENDBRANCH   1  31
TORSDOF 17
ENDMDL
MODEL 3
REMARK VINA RESULT:     -12.1      3.503      9.251
REMARK SMILES Cc1ccc(Cn2c(C)c(C[NH2+]Cc3ccco3)c(C(=O)NCCCCNC(=O)c3ccc(-c4c5nc(c(-c6ccccc6)c6ccc([nH]6)c(-c6ccccc6)c6nc(c(-c7ccccc7)c7ccc4[nH]7)C=C6)C=C5)cc3)c2C)cc1
REMARK SMILES IDX 23 1 22 2 20 3 21 4 19 6 7 7 8 8 78 9 9 10 10 11 79 12 6 13
REMARK SMILES IDX 5 14 1 15 2 16 3 17 81 18 4 19 80 20 11 21 12 22 13 25 14 26
REMARK SMILES IDX 15 27 18 28 16 29 17 30 24 31 25 32 26 33 27 34 28 35 29 37
REMARK SMILES IDX 30 38 31 39 77 40 32 41 76 42 33 43 34 44 35 45 70 46 36 47
REMARK SMILES IDX 75 48 69 49 71 50 37 51 74 52 68 53 67 54 38 56 60 57 45 58
REMARK SMILES IDX 59 59 46 60 49 61 58 62 72 63 47 64 48 65 57 67 73 68 50 69
REMARK SMILES IDX 39 70 40 71 44 72 41 73 43 74 42 75 61 76 62 77 66 78 63 79
REMARK SMILES IDX 65 80 64 81 51 82 52 83 56 84 53 85 55 86 54 87
REMARK H PARENT 22 5 12 23 12 24 27 36 71 55 49 66
REMARK Flexibility Score: inf
ROOT
ATOM      1  C   UNL A   1      35.857  20.659  25.150  1.00  0.00     0.116 C 
ENDROOT
BRANCH   1   2
ATOM      2  N   UNL A   1      35.344  21.325  26.325  1.00  0.00    -0.352 N 
ATOM      3  C   UNL A   1      34.461  22.357  26.518  1.00  0.00     0.253 C 
ATOM      4  O   UNL A   1      34.232  22.605  27.705  1.00  0.00    -0.269 OA
ATOM      5  H   UNL A   1      35.703  20.960  27.166  1.00  0.00     0.163 HD
BRANCH   3   6
ATOM      6  C   UNL A   1      33.768  23.084  25.437  1.00  0.00     0.069 A 
ATOM      7  N   UNL A   1      33.172  24.457  23.747  1.00  0.00    -0.343 N 
ATOM      8  C   UNL A   1      32.059  23.683  24.015  1.00  0.00     0.025 A 
ATOM      9  C   UNL A   1      34.032  24.318  24.834  1.00  0.00     0.028 A 
ATOM     10  C   UNL A   1      30.698  23.883  23.435  1.00  0.00     0.065 C 
ATOM     11  C   UNL A   1      32.425  22.756  24.987  1.00  0.00     0.040 A 
ATOM     12  C   UNL A   1      34.907  25.435  25.276  1.00  0.00     0.065 C 
BRANCH   7  13
ATOM     13  C   UNL A   1      33.271  25.484  22.697  1.00  0.00     0.157 C 
BRANCH  13  14
ATOM     14  C   UNL A   1      32.413  26.718  22.902  1.00  0.00    -0.028 A 
ATOM     15  C   UNL A   1      29.692  30.007  23.696  1.00  0.00     0.044 C 
ATOM     16  C   UNL A   1      30.623  28.868  23.408  1.00  0.00    -0.051 A 
ATOM     17  C   UNL A   1      31.742  28.659  24.212  1.00  0.00     0.004 A 
ATOM     18  C   UNL A   1      30.409  28.001  22.335  1.00  0.00     0.004 A 
ATOM     19  C   UNL A   1      32.618  27.600  23.966  1.00  0.00     0.006 A 
ATOM     20  C   UNL A   1      31.290  26.939  22.087  1.00  0.00     0.006 A 
ENDBRANCH  13  14
ENDBRANCH   7  13
BRANCH  11  21
ATOM     21  C   UNL A   1      31.512  21.707  25.584  1.00  0.00     0.300 C 
BRANCH  21  22
ATOM     22  N   UNL A   1      32.252  20.443  25.567  1.00  0.00    -0.336 N 
ATOM     23  H   UNL A   1      31.793  19.790  26.202  1.00  0.00     0.346 HD
ATOM     24  H   UNL A   1      33.208  20.647  25.857  1.00  0.00     0.346 HD
BRANCH  22  25
ATOM     25  C   UNL A   1      32.316  19.837  24.239  1.00  0.00     0.337 C 
BRANCH  25  26
ATOM     26  C   UNL A   1      32.683  18.394  24.274  1.00  0.00     0.157 A 
ATOM     27  C   UNL A   1      33.430  17.579  23.450  1.00  0.00     0.052 A 
ATOM     28  O   UNL A   1      32.197  17.669  25.326  1.00  0.00    -0.463 OA
ATOM     29  C   UNL A   1      33.422  16.294  24.043  1.00  0.00     0.042 A 
ATOM     30  C   UNL A   1      32.666  16.403  25.186  1.00  0.00     0.195 A 
ENDBRANCH  25  26
ENDBRANCH  22  25
ENDBRANCH  21  22
ENDBRANCH  11  21
ENDBRANCH   3   6
ENDBRANCH   1   2
BRANCH   1  31
ATOM     31  C   UNL A   1      37.082  21.399  24.579  1.00  0.00     0.023 C 
BRANCH  31  32
ATOM     32  C   UNL A   1      38.399  21.227  25.332  1.00  0.00     0.023 C 
BRANCH  32  33
ATOM     33  C   UNL A   1      38.817  22.466  26.101  1.00  0.00     0.116 C 
BRANCH  33  34
ATOM     34  N   UNL A   1      40.239  22.600  26.377  1.00  0.00    -0.352 N 
ATOM     35  C   UNL A   1      40.967  23.742  26.695  1.00  0.00     0.251 C 
ATOM     36  H   UNL A   1      40.759  21.766  26.332  1.00  0.00     0.163 HD
ATOM     37  O   UNL A   1      42.179  23.675  26.805  1.00  0.00    -0.269 OA
BRANCH  35  38
ATOM     38  C   UNL A   1      40.257  25.007  27.050  1.00  0.00     0.039 A 
ATOM     39  C   UNL A   1      40.554  26.155  26.304  1.00  0.00     0.014 A 
ATOM     40  C   UNL A   1      39.515  25.127  28.219  1.00  0.00     0.014 A 
ATOM     41  C   UNL A   1      40.378  27.411  26.881  1.00  0.00     0.010 A 
ATOM     42  C   UNL A   1      39.468  26.350  28.851  1.00  0.00     0.010 A 
ATOM     43  C   UNL A   1      39.969  27.482  28.209  1.00  0.00    -0.014 A 
BRANCH  43  44
ATOM     44  C   UNL A   1      40.163  28.644  29.063  1.00  0.00     0.031 A 
ATOM     45  C   UNL A   1      39.089  29.633  29.248  1.00  0.00     0.074 A 
ATOM     46  C   UNL A   1      41.298  28.741  29.789  1.00  0.00     0.049 A 
ATOM     47  N   UNL A   1      39.291  30.867  29.570  1.00  0.00    -0.248 NA
ATOM     48  C   UNL A   1      37.681  29.301  29.059  1.00  0.00     0.031 C 
ATOM     49  C   UNL A   1      41.565  29.622  30.923  1.00  0.00     0.029 A 
ATOM     50  N   UNL A   1      42.524  28.152  29.545  1.00  0.00    -0.354 N 
ATOM     51  C   UNL A   1      38.071  31.390  29.927  1.00  0.00     0.074 A 
ATOM     52  C   UNL A   1      37.092  30.411  29.513  1.00  0.00     0.031 C 
ATOM     53  C   UNL A   1      42.894  29.687  31.120  1.00  0.00     0.029 A 
ATOM     54  C   UNL A   1      43.534  28.991  30.014  1.00  0.00     0.049 A 
ATOM     55  H   UNL A   1      42.662  27.280  29.109  1.00  0.00     0.167 HD
ATOM     56  C   UNL A   1      38.006  32.517  30.690  1.00  0.00     0.031 A 
ATOM     57  C   UNL A   1      44.418  29.574  29.147  1.00  0.00     0.031 A 
ATOM     58  C   UNL A   1      39.330  33.031  31.027  1.00  0.00     0.049 A 
ATOM     59  C   UNL A   1      44.315  31.081  29.092  1.00  0.00     0.074 A 
ATOM     60  C   UNL A   1      40.117  32.908  32.162  1.00  0.00     0.029 A 
ATOM     61  N   UNL A   1      40.166  33.501  30.020  1.00  0.00    -0.354 N 
ATOM     62  N   UNL A   1      43.292  31.762  29.530  1.00  0.00    -0.248 NA
ATOM     63  C   UNL A   1      45.341  31.937  28.502  1.00  0.00     0.031 C 
ATOM     64  C   UNL A   1      41.451  33.235  31.810  1.00  0.00     0.029 A 
ATOM     65  C   UNL A   1      41.470  33.588  30.472  1.00  0.00     0.049 A 
ATOM     66  H   UNL A   1      39.870  33.740  29.112  1.00  0.00     0.167 HD
ATOM     67  C   UNL A   1      43.484  33.094  29.277  1.00  0.00     0.074 A 
ATOM     68  C   UNL A   1      44.793  33.156  28.653  1.00  0.00     0.031 C 
ATOM     69  C   UNL A   1      42.538  34.030  29.582  1.00  0.00     0.031 A 
BRANCH  56  70
ATOM     70  C   UNL A   1      36.733  32.918  31.389  1.00  0.00    -0.014 A 
ATOM     71  C   UNL A   1      35.826  33.786  30.756  1.00  0.00     0.009 A 
ATOM     72  C   UNL A   1      36.403  32.515  32.695  1.00  0.00     0.009 A 
ATOM     73  C   UNL A   1      34.714  34.310  31.427  1.00  0.00     0.001 A 
ATOM     74  C   UNL A   1      35.319  33.071  33.388  1.00  0.00     0.001 A 
ATOM     75  C   UNL A   1      34.480  33.979  32.755  1.00  0.00     0.000 A 
ENDBRANCH  56  70
BRANCH  57  76
ATOM     76  C   UNL A   1      44.749  28.716  27.972  1.00  0.00    -0.014 A 
ATOM     77  C   UNL A   1      45.452  27.522  28.214  1.00  0.00     0.009 A 
ATOM     78  C   UNL A   1      44.048  28.842  26.766  1.00  0.00     0.009 A 
ATOM     79  C   UNL A   1      45.313  26.419  27.368  1.00  0.00     0.001 A 
ATOM     80  C   UNL A   1      43.937  27.745  25.902  1.00  0.00     0.001 A 
ATOM     81  C   UNL A   1      44.522  26.521  26.230  1.00  0.00     0.000 A 
ENDBRANCH  57  76
BRANCH  69  82
ATOM     82  C   UNL A   1      42.554  35.471  29.139  1.00  0.00    -0.014 A 
ATOM     83  C   UNL A   1      43.290  36.482  29.770  1.00  0.00     0.009 A 
ATOM     84  C   UNL A   1      41.892  35.825  27.943  1.00  0.00     0.009 A 
ATOM     85  C   UNL A   1      43.315  37.791  29.268  1.00  0.00     0.001 A 
ATOM     86  C   UNL A   1      41.954  37.115  27.411  1.00  0.00     0.001 A 
ATOM     87  C   UNL A   1      42.654  38.105  28.085  1.00  0.00     0.000 A 
ENDBRANCH  69  82
ENDBRANCH  43  44
ENDBRANCH  35  38
ENDBRANCH  33  34
ENDBRANCH  32  33
ENDBRANCH  31  32
ENDBRANCH   1  31
TORSDOF 17
ENDMDL
