MODEL 1
REMARK VINA RESULT:     -11.8      0.000      0.000
REMARK SMILES CC1=C(C)C[C@@H](C(=O)NCCCCNC(=O)c2ccc(-c3c4nc(c(-c5ccccc5)c5ccc([nH]5)c(-c5ccccc5)c5nc(c(-c6ccccc6)c6ccc3[nH]6)C=C5)C=C4)cc2)[C@@H](C(=O)NCC[NH+]2CCOCC2)C1
REMARK SMILES IDX 10 1 9 2 7 3 8 4 6 6 1 7 2 8 3 9 77 10 4 11 5 12 65 13 66 14
REMARK SMILES IDX 67 15 68 16 69 18 70 19 71 20 72 21 76 22 73 24 75 25 74 26
REMARK SMILES IDX 11 27 12 28 13 29 14 30 15 31 16 33 17 34 18 35 64 36 19 37
REMARK SMILES IDX 63 38 20 39 21 40 22 41 57 42 23 43 62 44 56 45 58 46 24 47
REMARK SMILES IDX 61 48 55 49 54 50 25 52 47 53 32 54 46 55 33 56 36 57 45 58
REMARK SMILES IDX 59 59 34 60 35 61 44 63 60 64 37 65 26 66 27 67 31 68 28 69
REMARK SMILES IDX 30 70 29 71 48 72 49 73 53 74 50 75 52 76 51 77 38 78 39 79
REMARK SMILES IDX 43 80 40 81 42 82 41 83
REMARK H PARENT 9 5 68 17 71 23 14 32 58 51 36 62
REMARK Flexibility Score: inf
ROOT
ATOM      1  C   UNL A   1      32.609  25.806  25.936  1.00  0.00     0.116 C 
ENDROOT
BRANCH   1   2
ATOM      2  N   UNL A   1      31.334  26.288  25.453  1.00  0.00    -0.356 N 
ATOM      3  C   UNL A   1      30.470  25.789  24.539  1.00  0.00     0.224 C 
ATOM      4  O   UNL A   1      29.270  25.978  24.794  1.00  0.00    -0.275 OA
ATOM      5  H   UNL A   1      31.041  27.133  25.864  1.00  0.00     0.163 HD
BRANCH   3   6
ATOM      6  C   UNL A   1      30.825  25.061  23.259  1.00  0.00     0.095 C 
ATOM      7  C   UNL A   1      34.637  22.957  23.631  1.00  0.00     0.039 C 
ATOM      8  C   UNL A   1      33.253  23.461  23.309  1.00  0.00    -0.074 C 
ATOM      9  C   UNL A   1      32.141  22.996  23.910  1.00  0.00    -0.074 C 
ATOM     10  C   UNL A   1      33.162  24.546  22.252  1.00  0.00     0.045 C 
ATOM     11  C   UNL A   1      32.115  21.973  25.013  1.00  0.00     0.039 C 
ATOM     12  C   UNL A   1      30.807  23.541  23.491  1.00  0.00     0.045 C 
ATOM     13  C   UNL A   1      31.945  25.543  22.329  1.00  0.00     0.095 C 
BRANCH  13  14
ATOM     14  C   UNL A   1      32.468  26.994  22.201  1.00  0.00     0.224 C 
ATOM     15  O   UNL A   1      33.605  27.146  21.712  1.00  0.00    -0.275 OA
ATOM     16  N   UNL A   1      31.880  28.182  22.418  1.00  0.00    -0.350 N 
ATOM     17  H   UNL A   1      32.492  28.904  22.151  1.00  0.00     0.163 HD
BRANCH  16  18
ATOM     18  C   UNL A   1      30.641  28.758  22.917  1.00  0.00     0.177 C 
BRANCH  18  19
ATOM     19  C   UNL A   1      30.043  29.870  22.005  1.00  0.00     0.283 C 
BRANCH  19  20
ATOM     20  N   UNL A   1      28.730  30.485  22.248  1.00  0.00    -0.330 N 
ATOM     21  C   UNL A   1      27.939  30.810  21.059  1.00  0.00     0.291 C 
ATOM     22  C   UNL A   1      28.594  31.546  23.253  1.00  0.00     0.291 C 
ATOM     23  H   UNL A   1      28.326  29.666  22.703  1.00  0.00     0.348 HD
ATOM     24  C   UNL A   1      28.157  32.246  20.556  1.00  0.00     0.221 C 
ATOM     25  C   UNL A   1      28.741  32.979  22.725  1.00  0.00     0.221 C 
ATOM     26  O   UNL A   1      27.908  33.210  21.585  1.00  0.00    -0.370 OA
ENDBRANCH  19  20
ENDBRANCH  18  19
ENDBRANCH  16  18
ENDBRANCH  13  14
ENDBRANCH   3   6
ENDBRANCH   1   2
BRANCH   1  27
ATOM     27  C   UNL A   1      33.855  26.648  25.681  1.00  0.00     0.023 C 
BRANCH  27  28
ATOM     28  C   UNL A   1      33.921  28.113  26.098  1.00  0.00     0.023 C 
BRANCH  28  29
ATOM     29  C   UNL A   1      33.186  28.506  27.373  1.00  0.00     0.116 C 
BRANCH  29  30
ATOM     30  N   UNL A   1      33.270  29.929  27.635  1.00  0.00    -0.352 N 
ATOM     31  C   UNL A   1      34.313  30.726  28.033  1.00  0.00     0.251 C 
ATOM     32  H   UNL A   1      32.422  30.412  27.505  1.00  0.00     0.163 HD
ATOM     33  O   UNL A   1      34.077  31.917  28.226  1.00  0.00    -0.269 OA
BRANCH  31  34
ATOM     34  C   UNL A   1      35.697  30.219  28.266  1.00  0.00     0.039 A 
ATOM     35  C   UNL A   1      35.969  29.688  29.536  1.00  0.00     0.014 A 
ATOM     36  C   UNL A   1      36.744  30.307  27.344  1.00  0.00     0.014 A 
ATOM     37  C   UNL A   1      37.254  29.248  29.871  1.00  0.00     0.010 A 
ATOM     38  C   UNL A   1      38.013  29.795  27.652  1.00  0.00     0.010 A 
ATOM     39  C   UNL A   1      38.290  29.285  28.928  1.00  0.00    -0.014 A 
BRANCH  39  40
ATOM     40  C   UNL A   1      39.657  28.830  29.306  1.00  0.00     0.031 A 
ATOM     41  C   UNL A   1      40.513  29.648  30.237  1.00  0.00     0.074 A 
ATOM     42  C   UNL A   1      40.131  27.658  28.841  1.00  0.00     0.049 A 
ATOM     43  N   UNL A   1      41.685  29.357  30.750  1.00  0.00    -0.248 NA
ATOM     44  C   UNL A   1      39.996  30.965  30.638  1.00  0.00     0.031 C 
ATOM     45  C   UNL A   1      39.429  26.768  27.915  1.00  0.00     0.029 A 
ATOM     46  N   UNL A   1      41.312  27.006  29.101  1.00  0.00    -0.354 N 
ATOM     47  C   UNL A   1      42.042  30.450  31.529  1.00  0.00     0.074 A 
ATOM     48  C   UNL A   1      40.989  31.431  31.383  1.00  0.00     0.031 C 
ATOM     49  C   UNL A   1      40.172  25.666  27.721  1.00  0.00     0.029 A 
ATOM     50  C   UNL A   1      41.413  25.783  28.482  1.00  0.00     0.049 A 
ATOM     51  H   UNL A   1      42.018  27.378  29.677  1.00  0.00     0.167 HD
ATOM     52  C   UNL A   1      43.133  30.620  32.315  1.00  0.00     0.031 A 
ATOM     53  C   UNL A   1      42.386  24.853  28.528  1.00  0.00     0.031 A 
ATOM     54  C   UNL A   1      44.190  29.657  32.476  1.00  0.00     0.049 A 
ATOM     55  C   UNL A   1      43.603  25.078  29.382  1.00  0.00     0.074 A 
ATOM     56  C   UNL A   1      45.306  29.730  33.294  1.00  0.00     0.029 A 
ATOM     57  N   UNL A   1      44.268  28.449  31.803  1.00  0.00    -0.354 N 
ATOM     58  N   UNL A   1      43.885  26.085  30.170  1.00  0.00    -0.248 NA
ATOM     59  C   UNL A   1      44.628  24.023  29.362  1.00  0.00     0.031 C 
ATOM     60  C   UNL A   1      46.084  28.589  33.078  1.00  0.00     0.029 A 
ATOM     61  C   UNL A   1      45.428  27.781  32.165  1.00  0.00     0.049 A 
ATOM     62  H   UNL A   1      43.600  28.115  31.162  1.00  0.00     0.167 HD
ATOM     63  C   UNL A   1      45.104  25.773  30.760  1.00  0.00     0.074 A 
ATOM     64  C   UNL A   1      45.502  24.478  30.248  1.00  0.00     0.031 C 
ATOM     65  C   UNL A   1      45.824  26.496  31.652  1.00  0.00     0.031 A 
BRANCH  52  66
ATOM     66  C   UNL A   1      43.242  31.918  33.065  1.00  0.00    -0.014 A 
ATOM     67  C   UNL A   1      42.707  32.056  34.356  1.00  0.00     0.009 A 
ATOM     68  C   UNL A   1      43.922  33.003  32.491  1.00  0.00     0.009 A 
ATOM     69  C   UNL A   1      42.819  33.268  35.041  1.00  0.00     0.001 A 
ATOM     70  C   UNL A   1      44.055  34.204  33.189  1.00  0.00     0.001 A 
ATOM     71  C   UNL A   1      43.496  34.339  34.459  1.00  0.00     0.000 A 
ENDBRANCH  52  66
BRANCH  53  72
ATOM     72  C   UNL A   1      42.239  23.594  27.755  1.00  0.00    -0.014 A 
ATOM     73  C   UNL A   1      41.601  22.482  28.324  1.00  0.00     0.009 A 
ATOM     74  C   UNL A   1      42.747  23.495  26.451  1.00  0.00     0.009 A 
ATOM     75  C   UNL A   1      41.494  21.287  27.608  1.00  0.00     0.001 A 
ATOM     76  C   UNL A   1      42.615  22.309  25.729  1.00  0.00     0.001 A 
ATOM     77  C   UNL A   1      41.997  21.203  26.311  1.00  0.00     0.000 A 
ENDBRANCH  53  72
BRANCH  65  78
ATOM     78  C   UNL A   1      47.104  25.893  32.160  1.00  0.00    -0.014 A 
ATOM     79  C   UNL A   1      47.136  25.137  33.342  1.00  0.00     0.009 A 
ATOM     80  C   UNL A   1      48.289  26.055  31.425  1.00  0.00     0.009 A 
ATOM     81  C   UNL A   1      48.336  24.582  33.793  1.00  0.00     0.001 A 
ATOM     82  C   UNL A   1      49.481  25.479  31.865  1.00  0.00     0.001 A 
ATOM     83  C   UNL A   1      49.506  24.751  33.053  1.00  0.00     0.000 A 
ENDBRANCH  65  78
ENDBRANCH  39  40
ENDBRANCH  31  34
ENDBRANCH  29  30
ENDBRANCH  28  29
ENDBRANCH  27  28
ENDBRANCH   1  27
TORSDOF 15
ENDMDL
MODEL 2
REMARK VINA RESULT:     -11.7      1.049      5.907
REMARK SMILES CC1=C(C)C[C@@H](C(=O)NCCCCNC(=O)c2ccc(-c3c4nc(c(-c5ccccc5)c5ccc([nH]5)c(-c5ccccc5)c5nc(c(-c6ccccc6)c6ccc3[nH]6)C=C5)C=C4)cc2)[C@@H](C(=O)NCC[NH+]2CCOCC2)C1
REMARK SMILES IDX 10 1 9 2 7 3 8 4 6 6 1 7 2 8 3 9 77 10 4 11 5 12 65 13 66 14
REMARK SMILES IDX 67 15 68 16 69 18 70 19 71 20 72 21 76 22 73 24 75 25 74 26
REMARK SMILES IDX 11 27 12 28 13 29 14 30 15 31 16 33 17 34 18 35 64 36 19 37
REMARK SMILES IDX 63 38 20 39 21 40 22 41 57 42 23 43 62 44 56 45 58 46 24 47
REMARK SMILES IDX 61 48 55 49 54 50 25 52 47 53 32 54 46 55 33 56 36 57 45 58
REMARK SMILES IDX 59 59 34 60 35 61 44 63 60 64 37 65 26 66 27 67 31 68 28 69
REMARK SMILES IDX 30 70 29 71 48 72 49 73 53 74 50 75 52 76 51 77 38 78 39 79
REMARK SMILES IDX 43 80 40 81 42 82 41 83
REMARK H PARENT 9 5 68 17 71 23 14 32 58 51 36 62
REMARK Flexibility Score: inf
ROOT
ATOM      1  C   UNL A   1      33.109  25.850  25.715  1.00  0.00     0.116 C 
ENDROOT
BRANCH   1   2
ATOM      2  N   UNL A   1      31.708  26.105  25.455  1.00  0.00    -0.356 N 
ATOM      3  C   UNL A   1      30.797  25.444  24.705  1.00  0.00     0.224 C 
ATOM      4  O   UNL A   1      29.642  25.445  25.161  1.00  0.00    -0.275 OA
ATOM      5  H   UNL A   1      31.354  26.904  25.906  1.00  0.00     0.163 HD
BRANCH   3   6
ATOM      6  C   UNL A   1      31.046  24.741  23.386  1.00  0.00     0.095 C 
ATOM      7  C   UNL A   1      35.038  22.968  23.259  1.00  0.00     0.039 C 
ATOM      8  C   UNL A   1      33.586  23.352  23.119  1.00  0.00    -0.074 C 
ATOM      9  C   UNL A   1      32.604  22.798  23.854  1.00  0.00    -0.074 C 
ATOM     10  C   UNL A   1      33.271  24.420  22.087  1.00  0.00     0.045 C 
ATOM     11  C   UNL A   1      32.804  21.783  24.946  1.00  0.00     0.039 C 
ATOM     12  C   UNL A   1      31.186  23.227  23.610  1.00  0.00     0.045 C 
ATOM     13  C   UNL A   1      31.994  25.311  22.324  1.00  0.00     0.095 C 
BRANCH  13  14
ATOM     14  C   UNL A   1      32.372  26.800  22.138  1.00  0.00     0.224 C 
ATOM     15  O   UNL A   1      33.524  27.046  21.728  1.00  0.00    -0.275 OA
ATOM     16  N   UNL A   1      31.648  27.928  22.228  1.00  0.00    -0.350 N 
ATOM     17  H   UNL A   1      32.202  28.695  21.960  1.00  0.00     0.163 HD
BRANCH  16  18
ATOM     18  C   UNL A   1      30.318  28.394  22.590  1.00  0.00     0.177 C 
BRANCH  18  19
ATOM     19  C   UNL A   1      29.999  29.842  22.114  1.00  0.00     0.283 C 
BRANCH  19  20
ATOM     20  N   UNL A   1      28.694  30.485  22.325  1.00  0.00    -0.330 N 
ATOM     21  C   UNL A   1      27.930  30.804  21.116  1.00  0.00     0.291 C 
ATOM     22  C   UNL A   1      28.561  31.566  23.309  1.00  0.00     0.291 C 
ATOM     23  H   UNL A   1      28.267  29.682  22.787  1.00  0.00     0.348 HD
ATOM     24  C   UNL A   1      28.182  32.226  20.593  1.00  0.00     0.221 C 
ATOM     25  C   UNL A   1      28.743  32.987  22.759  1.00  0.00     0.221 C 
ATOM     26  O   UNL A   1      27.934  33.213  21.601  1.00  0.00    -0.370 OA
ENDBRANCH  19  20
ENDBRANCH  18  19
ENDBRANCH  16  18
ENDBRANCH  13  14
ENDBRANCH   3   6
ENDBRANCH   1   2
BRANCH   1  27
ATOM     27  C   UNL A   1      34.123  26.944  25.396  1.00  0.00     0.023 C 
BRANCH  27  28
ATOM     28  C   UNL A   1      33.930  28.374  25.890  1.00  0.00     0.023 C 
BRANCH  28  29
ATOM     29  C   UNL A   1      33.419  28.553  27.314  1.00  0.00     0.116 C 
BRANCH  29  30
ATOM     30  N   UNL A   1      33.491  29.933  27.750  1.00  0.00    -0.352 N 
ATOM     31  C   UNL A   1      34.532  30.689  28.227  1.00  0.00     0.251 C 
ATOM     32  H   UNL A   1      32.636  30.417  27.693  1.00  0.00     0.163 HD
ATOM     33  O   UNL A   1      34.286  31.844  28.570  1.00  0.00    -0.269 OA
BRANCH  31  34
ATOM     34  C   UNL A   1      35.925  30.175  28.374  1.00  0.00     0.039 A 
ATOM     35  C   UNL A   1      36.287  29.683  29.637  1.00  0.00     0.014 A 
ATOM     36  C   UNL A   1      36.901  30.222  27.374  1.00  0.00     0.014 A 
ATOM     37  C   UNL A   1      37.590  29.241  29.890  1.00  0.00     0.010 A 
ATOM     38  C   UNL A   1      38.186  29.708  27.604  1.00  0.00     0.010 A 
ATOM     39  C   UNL A   1      38.553  29.236  28.872  1.00  0.00    -0.014 A 
BRANCH  39  40
ATOM     40  C   UNL A   1      39.941  28.781  29.163  1.00  0.00     0.031 A 
ATOM     41  C   UNL A   1      40.404  27.407  28.754  1.00  0.00     0.074 A 
ATOM     42  C   UNL A   1      40.811  29.612  29.768  1.00  0.00     0.049 A 
ATOM     43  N   UNL A   1      41.604  26.882  28.838  1.00  0.00    -0.248 NA
ATOM     44  C   UNL A   1      39.394  26.501  28.189  1.00  0.00     0.031 C 
ATOM     45  C   UNL A   1      40.504  30.963  30.241  1.00  0.00     0.029 A 
ATOM     46  N   UNL A   1      42.141  29.446  30.071  1.00  0.00    -0.354 N 
ATOM     47  C   UNL A   1      41.490  25.591  28.338  1.00  0.00     0.074 A 
ATOM     48  C   UNL A   1      40.097  25.393  28.000  1.00  0.00     0.031 C 
ATOM     49  C   UNL A   1      41.623  31.518  30.733  1.00  0.00     0.029 A 
ATOM     50  C   UNL A   1      42.719  30.556  30.638  1.00  0.00     0.049 A 
ATOM     51  H   UNL A   1      42.634  28.612  29.897  1.00  0.00     0.167 HD
ATOM     52  C   UNL A   1      42.456  24.658  28.153  1.00  0.00     0.031 A 
ATOM     53  C   UNL A   1      43.987  30.784  31.028  1.00  0.00     0.031 A 
ATOM     54  C   UNL A   1      43.845  24.836  28.479  1.00  0.00     0.049 A 
ATOM     55  C   UNL A   1      45.035  29.723  30.842  1.00  0.00     0.074 A 
ATOM     56  C   UNL A   1      44.898  23.957  28.275  1.00  0.00     0.029 A 
ATOM     57  N   UNL A   1      44.378  25.962  29.084  1.00  0.00    -0.354 N 
ATOM     58  N   UNL A   1      44.922  28.537  30.299  1.00  0.00    -0.248 NA
ATOM     59  C   UNL A   1      46.391  30.043  31.313  1.00  0.00     0.031 C 
ATOM     60  C   UNL A   1      46.059  24.533  28.802  1.00  0.00     0.029 A 
ATOM     61  C   UNL A   1      45.739  25.790  29.287  1.00  0.00     0.049 A 
ATOM     62  H   UNL A   1      43.867  26.765  29.333  1.00  0.00     0.167 HD
ATOM     63  C   UNL A   1      46.195  27.981  30.336  1.00  0.00     0.074 A 
ATOM     64  C   UNL A   1      47.067  28.964  30.944  1.00  0.00     0.031 C 
ATOM     65  C   UNL A   1      46.604  26.766  29.896  1.00  0.00     0.031 A 
BRANCH  52  66
ATOM     66  C   UNL A   1      42.032  23.340  27.568  1.00  0.00    -0.014 A 
ATOM     67  C   UNL A   1      42.102  23.103  26.186  1.00  0.00     0.009 A 
ATOM     68  C   UNL A   1      41.593  22.308  28.414  1.00  0.00     0.009 A 
ATOM     69  C   UNL A   1      41.708  21.872  25.659  1.00  0.00     0.001 A 
ATOM     70  C   UNL A   1      41.225  21.070  27.886  1.00  0.00     0.001 A 
ATOM     71  C   UNL A   1      41.273  20.856  26.509  1.00  0.00     0.000 A 
ENDBRANCH  52  66
BRANCH  53  72
ATOM     72  C   UNL A   1      44.352  32.098  31.617  1.00  0.00    -0.014 A 
ATOM     73  C   UNL A   1      44.228  32.317  32.998  1.00  0.00     0.009 A 
ATOM     74  C   UNL A   1      44.815  33.142  30.801  1.00  0.00     0.009 A 
ATOM     75  C   UNL A   1      44.539  33.563  33.545  1.00  0.00     0.001 A 
ATOM     76  C   UNL A   1      45.149  34.377  31.356  1.00  0.00     0.001 A 
ATOM     77  C   UNL A   1      45.002  34.591  32.725  1.00  0.00     0.000 A 
ENDBRANCH  53  72
BRANCH  65  78
ATOM     78  C   UNL A   1      48.064  26.437  30.027  1.00  0.00    -0.014 A 
ATOM     79  C   UNL A   1      48.975  26.737  29.003  1.00  0.00     0.009 A 
ATOM     80  C   UNL A   1      48.541  25.849  31.209  1.00  0.00     0.009 A 
ATOM     81  C   UNL A   1      50.329  26.426  29.148  1.00  0.00     0.001 A 
ATOM     82  C   UNL A   1      49.899  25.563  31.362  1.00  0.00     0.001 A 
ATOM     83  C   UNL A   1      50.790  25.843  30.328  1.00  0.00     0.000 A 
ENDBRANCH  65  78
ENDBRANCH  39  40
ENDBRANCH  31  34
ENDBRANCH  29  30
ENDBRANCH  28  29
ENDBRANCH  27  28
ENDBRANCH   1  27
TORSDOF 15
ENDMDL
MODEL 3
REMARK VINA RESULT:     -11.6      3.548      8.881
REMARK SMILES CC1=C(C)C[C@@H](C(=O)NCCCCNC(=O)c2ccc(-c3c4nc(c(-c5ccccc5)c5ccc([nH]5)c(-c5ccccc5)c5nc(c(-c6ccccc6)c6ccc3[nH]6)C=C5)C=C4)cc2)[C@@H](C(=O)NCC[NH+]2CCOCC2)C1
REMARK SMILES IDX 10 1 9 2 7 3 8 4 6 6 1 7 2 8 3 9 77 10 4 11 5 12 65 13 66 14
REMARK SMILES IDX 67 15 68 16 69 18 70 19 71 20 72 21 76 22 73 24 75 25 74 26
REMARK SMILES IDX 11 27 12 28 13 29 14 30 15 31 16 33 17 34 18 35 64 36 19 37
REMARK SMILES IDX 63 38 20 39 21 40 22 41 57 42 23 43 62 44 56 45 58 46 24 47
REMARK SMILES IDX 61 48 55 49 54 50 25 52 47 53 32 54 46 55 33 56 36 57 45 58
REMARK SMILES IDX 59 59 34 60 35 61 44 63 60 64 37 65 26 66 27 67 31 68 28 69
REMARK SMILES IDX 30 70 29 71 48 72 49 73 53 74 50 75 52 76 51 77 38 78 39 79
REMARK SMILES IDX 43 80 40 81 42 82 41 83
REMARK H PARENT 9 5 68 17 71 23 14 32 58 51 36 62
REMARK Flexibility Score: inf
ROOT
ATOM      1  C   UNL A   1      37.049  23.057  25.338  1.00  0.00     0.116 C 
ENDROOT
BRANCH   1   2
ATOM      2  N   UNL A   1      36.066  23.346  26.360  1.00  0.00    -0.356 N 
ATOM      3  C   UNL A   1      34.715  23.401  26.321  1.00  0.00     0.224 C 
ATOM      4  O   UNL A   1      34.144  23.006  27.350  1.00  0.00    -0.275 OA
ATOM      5  H   UNL A   1      36.450  23.539  27.245  1.00  0.00     0.163 HD
BRANCH   3   6
ATOM      6  C   UNL A   1      33.861  23.905  25.176  1.00  0.00     0.095 C 
ATOM      7  C   UNL A   1      31.010  26.929  26.527  1.00  0.00     0.039 C 
ATOM      8  C   UNL A   1      31.983  26.036  25.799  1.00  0.00    -0.074 C 
ATOM      9  C   UNL A   1      33.292  26.324  25.670  1.00  0.00    -0.074 C 
ATOM     10  C   UNL A   1      31.410  24.763  25.203  1.00  0.00     0.045 C 
ATOM     11  C   UNL A   1      33.982  27.519  26.271  1.00  0.00     0.039 C 
ATOM     12  C   UNL A   1      34.169  25.385  24.894  1.00  0.00     0.045 C 
ATOM     13  C   UNL A   1      32.379  23.532  25.037  1.00  0.00     0.095 C 
BRANCH  13  14
ATOM     14  C   UNL A   1      31.695  22.267  25.608  1.00  0.00     0.224 C 
ATOM     15  O   UNL A   1      30.512  22.382  25.982  1.00  0.00    -0.275 OA
ATOM     16  N   UNL A   1      32.098  20.988  25.687  1.00  0.00    -0.350 N 
ATOM     17  H   UNL A   1      31.364  20.435  26.037  1.00  0.00     0.163 HD
BRANCH  16  18
ATOM     18  C   UNL A   1      33.257  20.147  25.428  1.00  0.00     0.177 C 
BRANCH  18  19
ATOM     19  C   UNL A   1      33.017  18.632  25.697  1.00  0.00     0.283 C 
BRANCH  19  20
ATOM     20  N   UNL A   1      33.301  17.588  24.702  1.00  0.00    -0.330 N 
ATOM     21  C   UNL A   1      32.416  16.420  24.722  1.00  0.00     0.291 C 
ATOM     22  C   UNL A   1      34.686  17.170  24.454  1.00  0.00     0.291 C 
ATOM     23  H   UNL A   1      33.072  18.165  23.892  1.00  0.00     0.348 HD
ATOM     24  C   UNL A   1      32.942  15.273  25.599  1.00  0.00     0.221 C 
ATOM     25  C   UNL A   1      35.175  15.976  25.284  1.00  0.00     0.221 C 
ATOM     26  O   UNL A   1      34.263  14.876  25.216  1.00  0.00    -0.370 OA
ENDBRANCH  19  20
ENDBRANCH  18  19
ENDBRANCH  16  18
ENDBRANCH  13  14
ENDBRANCH   3   6
ENDBRANCH   1   2
BRANCH   1  27
ATOM     27  C   UNL A   1      38.295  22.268  25.724  1.00  0.00     0.023 C 
BRANCH  27  28
ATOM     28  C   UNL A   1      38.597  20.908  25.104  1.00  0.00     0.023 C 
BRANCH  28  29
ATOM     29  C   UNL A   1      38.855  19.751  26.061  1.00  0.00     0.116 C 
BRANCH  29  30
ATOM     30  N   UNL A   1      40.123  19.101  25.802  1.00  0.00    -0.352 N 
ATOM     31  C   UNL A   1      41.418  19.533  25.941  1.00  0.00     0.251 C 
ATOM     32  H   UNL A   1      40.041  18.179  25.464  1.00  0.00     0.163 HD
ATOM     33  O   UNL A   1      42.314  18.765  25.593  1.00  0.00    -0.269 OA
BRANCH  31  34
ATOM     34  C   UNL A   1      41.787  20.882  26.459  1.00  0.00     0.039 A 
ATOM     35  C   UNL A   1      41.682  21.077  27.845  1.00  0.00     0.014 A 
ATOM     36  C   UNL A   1      42.149  21.970  25.660  1.00  0.00     0.014 A 
ATOM     37  C   UNL A   1      41.943  22.326  28.416  1.00  0.00     0.010 A 
ATOM     38  C   UNL A   1      42.486  23.202  26.240  1.00  0.00     0.010 A 
ATOM     39  C   UNL A   1      42.361  23.403  27.622  1.00  0.00    -0.014 A 
BRANCH  39  40
ATOM     40  C   UNL A   1      42.616  24.732  28.243  1.00  0.00     0.031 A 
ATOM     41  C   UNL A   1      44.005  25.133  28.667  1.00  0.00     0.074 A 
ATOM     42  C   UNL A   1      41.605  25.608  28.402  1.00  0.00     0.049 A 
ATOM     43  N   UNL A   1      44.425  26.286  29.131  1.00  0.00    -0.248 NA
ATOM     44  C   UNL A   1      45.056  24.111  28.567  1.00  0.00     0.031 C 
ATOM     45  C   UNL A   1      40.204  25.356  28.060  1.00  0.00     0.029 A 
ATOM     46  N   UNL A   1      41.606  26.898  28.875  1.00  0.00    -0.354 N 
ATOM     47  C   UNL A   1      45.782  26.125  29.377  1.00  0.00     0.074 A 
ATOM     48  C   UNL A   1      46.106  24.751  29.060  1.00  0.00     0.031 C 
ATOM     49  C   UNL A   1      39.490  26.470  28.293  1.00  0.00     0.029 A 
ATOM     50  C   UNL A   1      40.374  27.503  28.827  1.00  0.00     0.049 A 
ATOM     51  H   UNL A   1      42.413  27.346  29.216  1.00  0.00     0.167 HD
ATOM     52  C   UNL A   1      46.687  27.038  29.807  1.00  0.00     0.031 A 
ATOM     53  C   UNL A   1      39.994  28.751  29.160  1.00  0.00     0.031 A 
ATOM     54  C   UNL A   1      46.386  28.408  30.126  1.00  0.00     0.049 A 
ATOM     55  C   UNL A   1      41.010  29.738  29.665  1.00  0.00     0.074 A 
ATOM     56  C   UNL A   1      47.256  29.413  30.519  1.00  0.00     0.029 A 
ATOM     57  N   UNL A   1      45.120  28.967  30.096  1.00  0.00    -0.354 N 
ATOM     58  N   UNL A   1      42.302  29.588  29.820  1.00  0.00    -0.248 NA
ATOM     59  C   UNL A   1      40.512  31.073  30.027  1.00  0.00     0.031 C 
ATOM     60  C   UNL A   1      46.508  30.567  30.774  1.00  0.00     0.029 A 
ATOM     61  C   UNL A   1      45.180  30.295  30.492  1.00  0.00     0.049 A 
ATOM     62  H   UNL A   1      44.298  28.493  29.833  1.00  0.00     0.167 HD
ATOM     63  C   UNL A   1      42.774  30.815  30.268  1.00  0.00     0.074 A 
ATOM     64  C   UNL A   1      41.632  31.702  30.350  1.00  0.00     0.031 C 
ATOM     65  C   UNL A   1      44.044  31.174  30.577  1.00  0.00     0.031 A 
BRANCH  52  66
ATOM     66  C   UNL A   1      48.108  26.573  29.966  1.00  0.00    -0.014 A 
ATOM     67  C   UNL A   1      48.551  25.990  31.164  1.00  0.00     0.009 A 
ATOM     68  C   UNL A   1      49.004  26.684  28.891  1.00  0.00     0.009 A 
ATOM     69  C   UNL A   1      49.873  25.561  31.294  1.00  0.00     0.001 A 
ATOM     70  C   UNL A   1      50.317  26.229  29.016  1.00  0.00     0.001 A 
ATOM     71  C   UNL A   1      50.753  25.677  30.219  1.00  0.00     0.000 A 
ENDBRANCH  52  66
BRANCH  53  72
ATOM     72  C   UNL A   1      38.574  29.157  29.002  1.00  0.00    -0.014 A 
ATOM     73  C   UNL A   1      38.099  29.608  27.760  1.00  0.00     0.009 A 
ATOM     74  C   UNL A   1      37.693  29.108  30.091  1.00  0.00     0.009 A 
ATOM     75  C   UNL A   1      36.773  30.022  27.621  1.00  0.00     0.001 A 
ATOM     76  C   UNL A   1      36.362  29.498  29.942  1.00  0.00     0.001 A 
ATOM     77  C   UNL A   1      35.905  29.964  28.710  1.00  0.00     0.000 A 
ENDBRANCH  53  72
BRANCH  65  78
ATOM     78  C   UNL A   1      44.277  32.596  31.004  1.00  0.00    -0.014 A 
ATOM     79  C   UNL A   1      44.546  33.605  30.067  1.00  0.00     0.009 A 
ATOM     80  C   UNL A   1      44.192  32.937  32.363  1.00  0.00     0.009 A 
ATOM     81  C   UNL A   1      44.756  34.921  30.486  1.00  0.00     0.001 A 
ATOM     82  C   UNL A   1      44.376  34.257  32.776  1.00  0.00     0.001 A 
ATOM     83  C   UNL A   1      44.667  35.246  31.839  1.00  0.00     0.000 A 
ENDBRANCH  65  78
ENDBRANCH  39  40
ENDBRANCH  31  34
ENDBRANCH  29  30
ENDBRANCH  28  29
ENDBRANCH  27  28
ENDBRANCH   1  27
TORSDOF 15
ENDMDL
