MODEL 1
REMARK VINA RESULT:     -11.5      0.000      0.000
REMARK SMILES CC(C)(C)OC(=O)N1CCC[C@H]1C(=O)N[C@@H](Cc1ccccc1)C(=O)NCCCCNC(=O)c1ccc(-c2c3nc(c(-c4ccccc4)c4ccc([nH]4)c(-c4ccccc4)c4nc(c(-c5ccccc5)c5ccc2[nH]5)C=C4)C=C3)cc1
REMARK SMILES IDX 27 1 26 2 24 3 25 4 16 6 15 7 13 8 14 9 12 11 8 12 9 13
REMARK SMILES IDX 10 14 11 15 6 16 7 17 5 18 2 19 1 20 3 21 4 22 17 23 18 24
REMARK SMILES IDX 19 25 23 26 20 27 22 28 21 29 28 30 29 31 30 32 31 33 32 34
REMARK SMILES IDX 33 36 34 37 35 38 81 39 36 40 80 41 37 42 38 43 39 44 74 45
REMARK SMILES IDX 40 46 79 47 73 48 75 49 41 50 78 51 72 52 71 53 42 55 64 56
REMARK SMILES IDX 49 57 63 58 50 59 53 60 62 61 76 62 51 63 52 64 61 66 77 67
REMARK SMILES IDX 54 68 43 69 44 70 48 71 45 72 47 73 46 74 65 75 66 76 70 77
REMARK SMILES IDX 67 78 69 79 68 80 55 81 56 82 60 83 57 84 59 85 58 86
REMARK H PARENT 26 5 15 10 31 35 75 54 53 65
REMARK Flexibility Score: inf
ROOT
ATOM      1  C   UNL A   1      36.348  21.208  25.374  1.00  0.00     0.116 C 
ENDROOT
BRANCH   1   2
ATOM      2  N   UNL A   1      35.443  21.442  26.475  1.00  0.00    -0.354 N 
ATOM      3  C   UNL A   1      34.099  21.638  26.495  1.00  0.00     0.242 C 
ATOM      4  O   UNL A   1      33.573  21.583  27.610  1.00  0.00    -0.273 OA
ATOM      5  H   UNL A   1      35.872  21.462  27.360  1.00  0.00     0.163 HD
BRANCH   3   6
ATOM      6  C   UNL A   1      33.240  21.868  25.236  1.00  0.00     0.175 C 
BRANCH   6   7
ATOM      7  N   UNL A   1      34.048  22.257  24.090  1.00  0.00    -0.342 N 
ATOM      8  C   UNL A   1      34.041  23.411  23.365  1.00  0.00     0.243 C 
ATOM      9  O   UNL A   1      34.962  23.499  22.539  1.00  0.00    -0.273 OA
ATOM     10  H   UNL A   1      34.699  21.582  23.792  1.00  0.00     0.164 HD
BRANCH   8  11
ATOM     11  C   UNL A   1      32.862  24.446  23.370  1.00  0.00     0.178 C 
ATOM     12  N   UNL A   1      33.040  25.715  24.088  1.00  0.00    -0.296 N 
ATOM     13  C   UNL A   1      33.325  26.788  23.161  1.00  0.00     0.124 C 
ATOM     14  C   UNL A   1      32.442  26.419  21.981  1.00  0.00     0.024 C 
ATOM     15  C   UNL A   1      32.552  24.897  21.920  1.00  0.00     0.037 C 
BRANCH  12  16
ATOM     16  C   UNL A   1      32.490  25.954  25.333  1.00  0.00     0.410 C 
ATOM     17  O   UNL A   1      32.615  25.173  26.267  1.00  0.00    -0.224 OA
BRANCH  16  18
ATOM     18  O   UNL A   1      31.895  27.171  25.398  1.00  0.00    -0.444 OA
BRANCH  18  19
ATOM     19  C   UNL A   1      32.314  28.252  26.284  1.00  0.00     0.106 C 
ATOM     20  C   UNL A   1      31.521  28.100  27.584  1.00  0.00     0.056 C 
ATOM     21  C   UNL A   1      31.885  29.561  25.604  1.00  0.00     0.056 C 
ATOM     22  C   UNL A   1      33.815  28.345  26.591  1.00  0.00     0.056 C 
ENDBRANCH  18  19
ENDBRANCH  16  18
ENDBRANCH  12  16
ENDBRANCH   8  11
ENDBRANCH   6   7
BRANCH   6  23
ATOM     23  C   UNL A   1      32.132  20.840  24.946  1.00  0.00     0.070 C 
BRANCH  23  24
ATOM     24  C   UNL A   1      32.522  19.451  24.520  1.00  0.00    -0.045 A 
ATOM     25  C   UNL A   1      32.546  19.089  23.167  1.00  0.00     0.004 A 
ATOM     26  C   UNL A   1      32.849  18.487  25.488  1.00  0.00     0.004 A 
ATOM     27  C   UNL A   1      32.926  17.800  22.789  1.00  0.00     0.000 A 
ATOM     28  C   UNL A   1      33.229  17.199  25.108  1.00  0.00     0.000 A 
ATOM     29  C   UNL A   1      33.276  16.858  23.757  1.00  0.00     0.000 A 
ENDBRANCH  23  24
ENDBRANCH   6  23
ENDBRANCH   3   6
ENDBRANCH   1   2
BRANCH   1  30
ATOM     30  C   UNL A   1      36.321  19.767  24.887  1.00  0.00     0.023 C 
BRANCH  30  31
ATOM     31  C   UNL A   1      37.685  19.072  24.862  1.00  0.00     0.023 C 
BRANCH  31  32
ATOM     32  C   UNL A   1      38.820  19.799  25.579  1.00  0.00     0.116 C 
BRANCH  32  33
ATOM     33  N   UNL A   1      40.040  19.012  25.689  1.00  0.00    -0.352 N 
ATOM     34  C   UNL A   1      41.289  19.403  26.107  1.00  0.00     0.251 C 
ATOM     35  H   UNL A   1      39.958  18.066  25.429  1.00  0.00     0.163 HD
ATOM     36  O   UNL A   1      42.236  18.626  26.072  1.00  0.00    -0.269 OA
BRANCH  34  37
ATOM     37  C   UNL A   1      41.485  20.789  26.573  1.00  0.00     0.039 A 
ATOM     38  C   UNL A   1      41.397  21.061  27.941  1.00  0.00     0.014 A 
ATOM     39  C   UNL A   1      41.811  21.800  25.665  1.00  0.00     0.014 A 
ATOM     40  C   UNL A   1      41.714  22.337  28.408  1.00  0.00     0.010 A 
ATOM     41  C   UNL A   1      42.191  23.051  26.139  1.00  0.00     0.010 A 
ATOM     42  C   UNL A   1      42.154  23.328  27.515  1.00  0.00    -0.014 A 
BRANCH  42  43
ATOM     43  C   UNL A   1      42.602  24.656  28.006  1.00  0.00     0.031 A 
ATOM     44  C   UNL A   1      41.601  25.745  28.266  1.00  0.00     0.074 A 
ATOM     45  C   UNL A   1      43.918  24.900  28.155  1.00  0.00     0.049 A 
ATOM     46  N   UNL A   1      41.805  26.977  28.660  1.00  0.00    -0.248 NA
ATOM     47  C   UNL A   1      40.186  25.415  28.029  1.00  0.00     0.031 C 
ATOM     48  C   UNL A   1      44.994  23.943  27.891  1.00  0.00     0.029 A 
ATOM     49  N   UNL A   1      44.575  26.035  28.560  1.00  0.00    -0.354 N 
ATOM     50  C   UNL A   1      40.550  27.571  28.703  1.00  0.00     0.074 A 
ATOM     51  C   UNL A   1      39.598  26.582  28.247  1.00  0.00     0.031 C 
ATOM     52  C   UNL A   1      46.175  24.521  28.168  1.00  0.00     0.029 A 
ATOM     53  C   UNL A   1      45.942  25.897  28.594  1.00  0.00     0.049 A 
ATOM     54  H   UNL A   1      44.111  26.868  28.805  1.00  0.00     0.167 HD
ATOM     55  C   UNL A   1      40.217  28.820  29.104  1.00  0.00     0.031 A 
ATOM     56  C   UNL A   1      46.901  26.781  28.928  1.00  0.00     0.031 A 
ATOM     57  C   UNL A   1      41.163  29.803  29.563  1.00  0.00     0.049 A 
ATOM     58  C   UNL A   1      46.508  28.165  29.360  1.00  0.00     0.074 A 
ATOM     59  C   UNL A   1      40.918  31.075  30.047  1.00  0.00     0.029 A 
ATOM     60  N   UNL A   1      42.538  29.622  29.588  1.00  0.00    -0.354 N 
ATOM     61  N   UNL A   1      45.309  28.687  29.470  1.00  0.00    -0.248 NA
ATOM     62  C   UNL A   1      47.599  29.079  29.727  1.00  0.00     0.031 C 
ATOM     63  C   UNL A   1      42.148  31.684  30.318  1.00  0.00     0.029 A 
ATOM     64  C   UNL A   1      43.155  30.770  30.055  1.00  0.00     0.049 A 
ATOM     65  H   UNL A   1      43.005  28.799  29.315  1.00  0.00     0.167 HD
ATOM     66  C   UNL A   1      45.501  29.978  29.944  1.00  0.00     0.074 A 
ATOM     67  C   UNL A   1      46.929  30.156  30.114  1.00  0.00     0.031 C 
ATOM     68  C   UNL A   1      44.577  30.932  30.215  1.00  0.00     0.031 A 
BRANCH  55  69
ATOM     69  C   UNL A   1      38.762  29.195  29.056  1.00  0.00    -0.014 A 
ATOM     70  C   UNL A   1      37.927  29.014  30.171  1.00  0.00     0.009 A 
ATOM     71  C   UNL A   1      38.222  29.754  27.888  1.00  0.00     0.009 A 
ATOM     72  C   UNL A   1      36.573  29.349  30.103  1.00  0.00     0.001 A 
ATOM     73  C   UNL A   1      36.875  30.117  27.833  1.00  0.00     0.001 A 
ATOM     74  C   UNL A   1      36.050  29.904  28.936  1.00  0.00     0.000 A 
ENDBRANCH  55  69
BRANCH  56  75
ATOM     75  C   UNL A   1      48.331  26.378  28.889  1.00  0.00    -0.014 A 
ATOM     76  C   UNL A   1      48.950  25.844  30.030  1.00  0.00     0.009 A 
ATOM     77  C   UNL A   1      49.084  26.523  27.714  1.00  0.00     0.009 A 
ATOM     78  C   UNL A   1      50.301  25.490  30.002  1.00  0.00     0.001 A 
ATOM     79  C   UNL A   1      50.426  26.141  27.681  1.00  0.00     0.001 A 
ATOM     80  C   UNL A   1      51.036  25.634  28.827  1.00  0.00     0.000 A 
ENDBRANCH  56  75
BRANCH  68  81
ATOM     81  C   UNL A   1      45.079  32.242  30.755  1.00  0.00    -0.014 A 
ATOM     82  C   UNL A   1      45.382  33.315  29.902  1.00  0.00     0.009 A 
ATOM     83  C   UNL A   1      45.211  32.416  32.141  1.00  0.00     0.009 A 
ATOM     84  C   UNL A   1      45.836  34.526  30.426  1.00  0.00     0.001 A 
ATOM     85  C   UNL A   1      45.639  33.637  32.664  1.00  0.00     0.001 A 
ATOM     86  C   UNL A   1      45.959  34.687  31.807  1.00  0.00     0.000 A 
ENDBRANCH  68  81
ENDBRANCH  42  43
ENDBRANCH  34  37
ENDBRANCH  32  33
ENDBRANCH  31  32
ENDBRANCH  30  31
ENDBRANCH   1  30
TORSDOF 18
ENDMDL
MODEL 2
REMARK VINA RESULT:     -11.3      1.317      6.045
REMARK SMILES CC(C)(C)OC(=O)N1CCC[C@H]1C(=O)N[C@@H](Cc1ccccc1)C(=O)NCCCCNC(=O)c1ccc(-c2c3nc(c(-c4ccccc4)c4ccc([nH]4)c(-c4ccccc4)c4nc(c(-c5ccccc5)c5ccc2[nH]5)C=C4)C=C3)cc1
REMARK SMILES IDX 27 1 26 2 24 3 25 4 16 6 15 7 13 8 14 9 12 11 8 12 9 13
REMARK SMILES IDX 10 14 11 15 6 16 7 17 5 18 2 19 1 20 3 21 4 22 17 23 18 24
REMARK SMILES IDX 19 25 23 26 20 27 22 28 21 29 28 30 29 31 30 32 31 33 32 34
REMARK SMILES IDX 33 36 34 37 35 38 81 39 36 40 80 41 37 42 38 43 39 44 74 45
REMARK SMILES IDX 40 46 79 47 73 48 75 49 41 50 78 51 72 52 71 53 42 55 64 56
REMARK SMILES IDX 49 57 63 58 50 59 53 60 62 61 76 62 51 63 52 64 61 66 77 67
REMARK SMILES IDX 54 68 43 69 44 70 48 71 45 72 47 73 46 74 65 75 66 76 70 77
REMARK SMILES IDX 67 78 69 79 68 80 55 81 56 82 60 83 57 84 59 85 58 86
REMARK H PARENT 26 5 15 10 31 35 75 54 53 65
REMARK Flexibility Score: inf
ROOT
ATOM      1  C   UNL A   1      35.797  21.628  24.658  1.00  0.00     0.116 C 
ENDROOT
BRANCH   1   2
ATOM      2  N   UNL A   1      35.451  22.436  25.805  1.00  0.00    -0.354 N 
ATOM      3  C   UNL A   1      34.332  22.457  26.573  1.00  0.00     0.242 C 
ATOM      4  O   UNL A   1      34.423  23.099  27.623  1.00  0.00    -0.273 OA
ATOM      5  H   UNL A   1      36.144  23.080  26.075  1.00  0.00     0.163 HD
BRANCH   3   6
ATOM      6  C   UNL A   1      33.031  21.707  26.226  1.00  0.00     0.175 C 
BRANCH   6   7
ATOM      7  N   UNL A   1      31.888  22.231  26.960  1.00  0.00    -0.342 N 
ATOM      8  C   UNL A   1      31.122  23.332  26.717  1.00  0.00     0.243 C 
ATOM      9  O   UNL A   1      30.120  23.424  27.440  1.00  0.00    -0.273 OA
ATOM     10  H   UNL A   1      31.629  21.710  27.753  1.00  0.00     0.164 HD
BRANCH   8  11
ATOM     11  C   UNL A   1      31.558  24.520  25.788  1.00  0.00     0.178 C 
ATOM     12  N   UNL A   1      30.640  24.962  24.731  1.00  0.00    -0.296 N 
ATOM     13  C   UNL A   1      29.953  26.172  25.127  1.00  0.00     0.124 C 
ATOM     14  C   UNL A   1      31.043  26.912  25.883  1.00  0.00     0.024 C 
ATOM     15  C   UNL A   1      31.768  25.799  26.637  1.00  0.00     0.037 C 
BRANCH  12  16
ATOM     16  C   UNL A   1      30.810  24.622  23.402  1.00  0.00     0.410 C 
ATOM     17  O   UNL A   1      30.381  23.576  22.933  1.00  0.00    -0.224 OA
BRANCH  16  18
ATOM     18  O   UNL A   1      31.414  25.612  22.699  1.00  0.00    -0.444 OA
BRANCH  18  19
ATOM     19  C   UNL A   1      32.780  25.552  22.190  1.00  0.00     0.106 C 
ATOM     20  C   UNL A   1      33.357  26.966  22.286  1.00  0.00     0.056 C 
ATOM     21  C   UNL A   1      32.673  25.170  20.706  1.00  0.00     0.056 C 
ATOM     22  C   UNL A   1      33.722  24.551  22.873  1.00  0.00     0.056 C 
ENDBRANCH  18  19
ENDBRANCH  16  18
ENDBRANCH  12  16
ENDBRANCH   8  11
ENDBRANCH   6   7
BRANCH   6  23
ATOM     23  C   UNL A   1      32.776  21.395  24.741  1.00  0.00     0.070 C 
BRANCH  23  24
ATOM     24  C   UNL A   1      32.726  19.958  24.297  1.00  0.00    -0.045 A 
ATOM     25  C   UNL A   1      32.427  19.621  22.971  1.00  0.00     0.004 A 
ATOM     26  C   UNL A   1      32.963  18.930  25.225  1.00  0.00     0.004 A 
ATOM     27  C   UNL A   1      32.401  18.283  22.574  1.00  0.00     0.000 A 
ATOM     28  C   UNL A   1      32.936  17.593  24.825  1.00  0.00     0.000 A 
ATOM     29  C   UNL A   1      32.665  17.270  23.497  1.00  0.00     0.000 A 
ENDBRANCH  23  24
ENDBRANCH   6  23
ENDBRANCH   3   6
ENDBRANCH   1   2
BRANCH   1  30
ATOM     30  C   UNL A   1      36.443  20.306  25.045  1.00  0.00     0.023 C 
BRANCH  30  31
ATOM     31  C   UNL A   1      37.916  20.170  24.647  1.00  0.00     0.023 C 
BRANCH  31  32
ATOM     32  C   UNL A   1      38.930  20.307  25.780  1.00  0.00     0.116 C 
BRANCH  32  33
ATOM     33  N   UNL A   1      39.902  19.224  25.827  1.00  0.00    -0.352 N 
ATOM     34  C   UNL A   1      41.243  19.276  26.120  1.00  0.00     0.251 C 
ATOM     35  H   UNL A   1      39.549  18.329  25.620  1.00  0.00     0.163 HD
ATOM     36  O   UNL A   1      41.943  18.273  26.043  1.00  0.00    -0.269 OA
BRANCH  34  37
ATOM     37  C   UNL A   1      41.843  20.569  26.500  1.00  0.00     0.039 A 
ATOM     38  C   UNL A   1      42.286  21.430  25.494  1.00  0.00     0.014 A 
ATOM     39  C   UNL A   1      41.913  20.946  27.844  1.00  0.00     0.014 A 
ATOM     40  C   UNL A   1      42.729  22.709  25.832  1.00  0.00     0.010 A 
ATOM     41  C   UNL A   1      42.291  22.244  28.172  1.00  0.00     0.010 A 
ATOM     42  C   UNL A   1      42.695  23.140  27.169  1.00  0.00    -0.014 A 
BRANCH  42  43
ATOM     43  C   UNL A   1      43.056  24.533  27.533  1.00  0.00     0.031 A 
ATOM     44  C   UNL A   1      44.495  24.961  27.556  1.00  0.00     0.074 A 
ATOM     45  C   UNL A   1      42.090  25.394  27.908  1.00  0.00     0.049 A 
ATOM     46  N   UNL A   1      45.006  26.121  27.885  1.00  0.00    -0.248 NA
ATOM     47  C   UNL A   1      45.495  23.947  27.184  1.00  0.00     0.031 C 
ATOM     48  C   UNL A   1      40.660  25.089  27.975  1.00  0.00     0.029 A 
ATOM     49  N   UNL A   1      42.169  26.703  28.311  1.00  0.00    -0.354 N 
ATOM     50  C   UNL A   1      46.382  25.971  27.773  1.00  0.00     0.074 A 
ATOM     51  C   UNL A   1      46.629  24.597  27.398  1.00  0.00     0.031 C 
ATOM     52  C   UNL A   1      39.993  26.187  28.366  1.00  0.00     0.029 A 
ATOM     53  C   UNL A   1      40.949  27.261  28.611  1.00  0.00     0.049 A 
ATOM     54  H   UNL A   1      43.018  27.197  28.378  1.00  0.00     0.167 HD
ATOM     55  C   UNL A   1      47.353  26.898  27.949  1.00  0.00     0.031 A 
ATOM     56  C   UNL A   1      40.636  28.499  29.039  1.00  0.00     0.031 A 
ATOM     57  C   UNL A   1      47.108  28.267  28.318  1.00  0.00     0.049 A 
ATOM     58  C   UNL A   1      41.732  29.508  29.237  1.00  0.00     0.074 A 
ATOM     59  C   UNL A   1      48.020  29.298  28.462  1.00  0.00     0.029 A 
ATOM     60  N   UNL A   1      45.859  28.795  28.607  1.00  0.00    -0.354 N 
ATOM     61  N   UNL A   1      43.023  29.372  29.053  1.00  0.00    -0.248 NA
ATOM     62  C   UNL A   1      41.326  30.846  29.691  1.00  0.00     0.031 C 
ATOM     63  C   UNL A   1      47.329  30.437  28.887  1.00  0.00     0.029 A 
ATOM     64  C   UNL A   1      45.979  30.130  28.953  1.00  0.00     0.049 A 
ATOM     65  H   UNL A   1      45.011  28.294  28.570  1.00  0.00     0.167 HD
ATOM     66  C   UNL A   1      43.579  30.612  29.340  1.00  0.00     0.074 A 
ATOM     67  C   UNL A   1      42.484  31.490  29.697  1.00  0.00     0.031 C 
ATOM     68  C   UNL A   1      44.881  30.990  29.310  1.00  0.00     0.031 A 
BRANCH  55  69
ATOM     69  C   UNL A   1      48.775  26.454  27.750  1.00  0.00    -0.014 A 
ATOM     70  C   UNL A   1      49.555  26.005  28.829  1.00  0.00     0.009 A 
ATOM     71  C   UNL A   1      49.338  26.463  26.465  1.00  0.00     0.009 A 
ATOM     72  C   UNL A   1      50.880  25.614  28.631  1.00  0.00     0.001 A 
ATOM     73  C   UNL A   1      50.654  26.043  26.265  1.00  0.00     0.001 A 
ATOM     74  C   UNL A   1      51.427  25.630  27.348  1.00  0.00     0.000 A 
ENDBRANCH  55  69
BRANCH  56  75
ATOM     75  C   UNL A   1      39.217  28.863  29.290  1.00  0.00    -0.014 A 
ATOM     76  C   UNL A   1      38.644  28.655  30.555  1.00  0.00     0.009 A 
ATOM     77  C   UNL A   1      38.429  29.417  28.270  1.00  0.00     0.009 A 
ATOM     78  C   UNL A   1      37.303  28.972  30.784  1.00  0.00     0.001 A 
ATOM     79  C   UNL A   1      37.097  29.758  28.511  1.00  0.00     0.001 A 
ATOM     80  C   UNL A   1      36.532  29.527  29.764  1.00  0.00     0.000 A 
ENDBRANCH  56  75
BRANCH  68  81
ATOM     81  C   UNL A   1      45.188  32.423  29.641  1.00  0.00    -0.014 A 
ATOM     82  C   UNL A   1      45.188  33.417  28.650  1.00  0.00     0.009 A 
ATOM     83  C   UNL A   1      45.437  32.789  30.973  1.00  0.00     0.009 A 
ATOM     84  C   UNL A   1      45.464  34.744  28.983  1.00  0.00     0.001 A 
ATOM     85  C   UNL A   1      45.685  34.122  31.307  1.00  0.00     0.001 A 
ATOM     86  C   UNL A   1      45.708  35.096  30.311  1.00  0.00     0.000 A 
ENDBRANCH  68  81
ENDBRANCH  42  43
ENDBRANCH  34  37
ENDBRANCH  32  33
ENDBRANCH  31  32
ENDBRANCH  30  31
ENDBRANCH   1  30
TORSDOF 18
ENDMDL
MODEL 3
REMARK VINA RESULT:     -11.3      0.735      5.744
REMARK SMILES CC(C)(C)OC(=O)N1CCC[C@H]1C(=O)N[C@@H](Cc1ccccc1)C(=O)NCCCCNC(=O)c1ccc(-c2c3nc(c(-c4ccccc4)c4ccc([nH]4)c(-c4ccccc4)c4nc(c(-c5ccccc5)c5ccc2[nH]5)C=C4)C=C3)cc1
REMARK SMILES IDX 27 1 26 2 24 3 25 4 16 6 15 7 13 8 14 9 12 11 8 12 9 13
REMARK SMILES IDX 10 14 11 15 6 16 7 17 5 18 2 19 1 20 3 21 4 22 17 23 18 24
REMARK SMILES IDX 19 25 23 26 20 27 22 28 21 29 28 30 29 31 30 32 31 33 32 34
REMARK SMILES IDX 33 36 34 37 35 38 81 39 36 40 80 41 37 42 38 43 39 44 74 45
REMARK SMILES IDX 40 46 79 47 73 48 75 49 41 50 78 51 72 52 71 53 42 55 64 56
REMARK SMILES IDX 49 57 63 58 50 59 53 60 62 61 76 62 51 63 52 64 61 66 77 67
REMARK SMILES IDX 54 68 43 69 44 70 48 71 45 72 47 73 46 74 65 75 66 76 70 77
REMARK SMILES IDX 67 78 69 79 68 80 55 81 56 82 60 83 57 84 59 85 58 86
REMARK H PARENT 26 5 15 10 31 35 75 54 53 65
REMARK Flexibility Score: inf
ROOT
ATOM      1  C   UNL A   1      36.411  21.236  25.347  1.00  0.00     0.116 C 
ENDROOT
BRANCH   1   2
ATOM      2  N   UNL A   1      35.536  21.398  26.485  1.00  0.00    -0.354 N 
ATOM      3  C   UNL A   1      34.196  21.610  26.553  1.00  0.00     0.242 C 
ATOM      4  O   UNL A   1      33.697  21.478  27.674  1.00  0.00    -0.273 OA
ATOM      5  H   UNL A   1      35.987  21.346  27.357  1.00  0.00     0.163 HD
BRANCH   3   6
ATOM      6  C   UNL A   1      33.311  21.945  25.337  1.00  0.00     0.175 C 
BRANCH   6   7
ATOM      7  N   UNL A   1      34.096  22.406  24.202  1.00  0.00    -0.342 N 
ATOM      8  C   UNL A   1      34.135  23.630  23.603  1.00  0.00     0.243 C 
ATOM      9  O   UNL A   1      35.026  23.752  22.751  1.00  0.00    -0.273 OA
ATOM     10  H   UNL A   1      34.692  21.730  23.806  1.00  0.00     0.164 HD
BRANCH   8  11
ATOM     11  C   UNL A   1      33.024  24.726  23.771  1.00  0.00     0.178 C 
ATOM     12  N   UNL A   1      33.336  26.110  23.392  1.00  0.00    -0.296 N 
ATOM     13  C   UNL A   1      32.762  26.427  22.103  1.00  0.00     0.124 C 
ATOM     14  C   UNL A   1      31.443  25.677  22.159  1.00  0.00     0.024 C 
ATOM     15  C   UNL A   1      31.806  24.378  22.878  1.00  0.00     0.037 C 
BRANCH  12  16
ATOM     16  C   UNL A   1      33.631  27.092  24.320  1.00  0.00     0.410 C 
ATOM     17  O   UNL A   1      34.330  28.060  24.052  1.00  0.00    -0.224 OA
BRANCH  16  18
ATOM     18  O   UNL A   1      32.987  26.886  25.496  1.00  0.00    -0.444 OA
BRANCH  18  19
ATOM     19  C   UNL A   1      31.733  27.528  25.877  1.00  0.00     0.106 C 
ATOM     20  C   UNL A   1      31.997  28.293  27.175  1.00  0.00     0.056 C 
ATOM     21  C   UNL A   1      30.739  26.394  26.175  1.00  0.00     0.056 C 
ATOM     22  C   UNL A   1      31.095  28.459  24.836  1.00  0.00     0.056 C 
ENDBRANCH  18  19
ENDBRANCH  16  18
ENDBRANCH  12  16
ENDBRANCH   8  11
ENDBRANCH   6   7
BRANCH   6  23
ATOM     23  C   UNL A   1      32.180  20.957  25.000  1.00  0.00     0.070 C 
BRANCH  23  24
ATOM     24  C   UNL A   1      32.538  19.574  24.528  1.00  0.00    -0.045 A 
ATOM     25  C   UNL A   1      32.486  19.238  23.169  1.00  0.00     0.004 A 
ATOM     26  C   UNL A   1      32.913  18.592  25.458  1.00  0.00     0.004 A 
ATOM     27  C   UNL A   1      32.838  17.955  22.747  1.00  0.00     0.000 A 
ATOM     28  C   UNL A   1      33.264  17.309  25.034  1.00  0.00     0.000 A 
ATOM     29  C   UNL A   1      33.235  16.994  23.677  1.00  0.00     0.000 A 
ENDBRANCH  23  24
ENDBRANCH   6  23
ENDBRANCH   3   6
ENDBRANCH   1   2
BRANCH   1  30
ATOM     30  C   UNL A   1      36.434  19.808  24.822  1.00  0.00     0.023 C 
BRANCH  30  31
ATOM     31  C   UNL A   1      37.768  19.078  25.004  1.00  0.00     0.023 C 
BRANCH  31  32
ATOM     32  C   UNL A   1      38.864  19.858  25.726  1.00  0.00     0.116 C 
BRANCH  32  33
ATOM     33  N   UNL A   1      40.139  19.158  25.779  1.00  0.00    -0.352 N 
ATOM     34  C   UNL A   1      41.373  19.631  26.154  1.00  0.00     0.251 C 
ATOM     35  H   UNL A   1      40.114  18.211  25.508  1.00  0.00     0.163 HD
ATOM     36  O   UNL A   1      42.370  18.925  26.071  1.00  0.00    -0.269 OA
BRANCH  34  37
ATOM     37  C   UNL A   1      41.489  21.022  26.632  1.00  0.00     0.039 A 
ATOM     38  C   UNL A   1      41.267  21.293  27.984  1.00  0.00     0.014 A 
ATOM     39  C   UNL A   1      41.872  22.041  25.754  1.00  0.00     0.014 A 
ATOM     40  C   UNL A   1      41.506  22.577  28.475  1.00  0.00     0.010 A 
ATOM     41  C   UNL A   1      42.174  23.301  26.259  1.00  0.00     0.010 A 
ATOM     42  C   UNL A   1      42.002  23.579  27.624  1.00  0.00    -0.014 A 
BRANCH  42  43
ATOM     43  C   UNL A   1      42.367  24.918  28.151  1.00  0.00     0.031 A 
ATOM     44  C   UNL A   1      43.784  25.213  28.552  1.00  0.00     0.074 A 
ATOM     45  C   UNL A   1      41.407  25.846  28.330  1.00  0.00     0.049 A 
ATOM     46  N   UNL A   1      44.284  26.308  29.068  1.00  0.00    -0.248 NA
ATOM     47  C   UNL A   1      44.763  24.129  28.376  1.00  0.00     0.031 C 
ATOM     48  C   UNL A   1      39.987  25.669  28.024  1.00  0.00     0.029 A 
ATOM     49  N   UNL A   1      41.484  27.126  28.819  1.00  0.00    -0.354 N 
ATOM     50  C   UNL A   1      45.629  26.039  29.289  1.00  0.00     0.074 A 
ATOM     51  C   UNL A   1      45.855  24.665  28.901  1.00  0.00     0.031 C 
ATOM     52  C   UNL A   1      39.331  26.806  28.306  1.00  0.00     0.029 A 
ATOM     53  C   UNL A   1      40.275  27.779  28.845  1.00  0.00     0.049 A 
ATOM     54  H   UNL A   1      42.325  27.538  29.123  1.00  0.00     0.167 HD
ATOM     55  C   UNL A   1      46.593  26.867  29.755  1.00  0.00     0.031 A 
ATOM     56  C   UNL A   1      39.962  29.022  29.258  1.00  0.00     0.031 A 
ATOM     57  C   UNL A   1      46.371  28.237  30.136  1.00  0.00     0.049 A 
ATOM     58  C   UNL A   1      41.047  29.919  29.781  1.00  0.00     0.074 A 
ATOM     59  C   UNL A   1      47.295  29.174  30.563  1.00  0.00     0.029 A 
ATOM     60  N   UNL A   1      45.133  28.862  30.141  1.00  0.00    -0.354 N 
ATOM     61  N   UNL A   1      42.330  29.675  29.912  1.00  0.00    -0.248 NA
ATOM     62  C   UNL A   1      40.646  31.268  30.203  1.00  0.00     0.031 C 
ATOM     63  C   UNL A   1      46.609  30.352  30.875  1.00  0.00     0.029 A 
ATOM     64  C   UNL A   1      45.266  30.166  30.589  1.00  0.00     0.049 A 
ATOM     65  H   UNL A   1      44.286  28.442  29.867  1.00  0.00     0.167 HD
ATOM     66  C   UNL A   1      42.890  30.847  30.403  1.00  0.00     0.074 A 
ATOM     67  C   UNL A   1      41.812  31.805  30.533  1.00  0.00     0.031 C 
ATOM     68  C   UNL A   1      44.183  31.106  30.717  1.00  0.00     0.031 A 
BRANCH  55  69
ATOM     69  C   UNL A   1      47.981  26.304  29.884  1.00  0.00    -0.014 A 
ATOM     70  C   UNL A   1      48.441  25.775  31.102  1.00  0.00     0.009 A 
ATOM     71  C   UNL A   1      48.835  26.284  28.771  1.00  0.00     0.009 A 
ATOM     72  C   UNL A   1      49.739  25.274  31.211  1.00  0.00     0.001 A 
ATOM     73  C   UNL A   1      50.122  25.755  28.875  1.00  0.00     0.001 A 
ATOM     74  C   UNL A   1      50.577  25.261  30.096  1.00  0.00     0.000 A 
ENDBRANCH  55  69
BRANCH  56  75
ATOM     75  C   UNL A   1      38.558  29.501  29.174  1.00  0.00    -0.014 A 
ATOM     76  C   UNL A   1      37.708  29.408  30.288  1.00  0.00     0.009 A 
ATOM     77  C   UNL A   1      38.059  30.053  27.985  1.00  0.00     0.009 A 
ATOM     78  C   UNL A   1      36.381  29.834  30.203  1.00  0.00     0.001 A 
ATOM     79  C   UNL A   1      36.739  30.503  27.911  1.00  0.00     0.001 A 
ATOM     80  C   UNL A   1      35.899  30.386  29.017  1.00  0.00     0.000 A 
ENDBRANCH  56  75
BRANCH  68  81
ATOM     81  C   UNL A   1      44.507  32.491  31.201  1.00  0.00    -0.014 A 
ATOM     82  C   UNL A   1      44.505  32.804  32.570  1.00  0.00     0.009 A 
ATOM     83  C   UNL A   1      44.861  33.485  30.276  1.00  0.00     0.009 A 
ATOM     84  C   UNL A   1      44.821  34.095  32.998  1.00  0.00     0.001 A 
ATOM     85  C   UNL A   1      45.204  34.767  30.709  1.00  0.00     0.001 A 
ATOM     86  C   UNL A   1      45.174  35.073  32.068  1.00  0.00     0.000 A 
ENDBRANCH  68  81
ENDBRANCH  42  43
ENDBRANCH  34  37
ENDBRANCH  32  33
ENDBRANCH  31  32
ENDBRANCH  30  31
ENDBRANCH   1  30
TORSDOF 18
ENDMDL
