MODEL 1
REMARK VINA RESULT:      -9.0      0.000      0.000
REMARK SMILES CCOC(=O)c1cc(C[NH2+]CC(=O)NCCCCNC(=O)c2ccc(-c3c4nc(c(-c5ccccc5)c5ccc([nH]5)c(-c5ccccc5)c5nc(c(-c6ccccc6)c6ccc3[nH]6)C=C5)C=C4)cc2)c(C)o1
REMARK SMILES IDX 12 1 13 2 14 3 11 5 10 6 9 9 8 10 6 11 7 12 72 13 70 14
REMARK SMILES IDX 71 15 4 16 5 17 3 18 2 19 1 20 15 21 16 22 17 23 18 24 19 25
REMARK SMILES IDX 20 26 21 28 22 29 23 30 69 31 24 32 68 33 25 34 26 35 27 36
REMARK SMILES IDX 62 37 28 38 67 39 61 40 63 41 29 42 66 43 60 44 59 45 30 47
REMARK SMILES IDX 52 48 37 49 51 50 38 51 41 52 50 53 64 54 39 55 40 56 49 58
REMARK SMILES IDX 65 59 42 60 31 61 32 62 36 63 33 64 35 65 34 66 53 67 54 68
REMARK SMILES IDX 58 69 55 70 57 71 56 72 43 73 44 74 48 75 45 76 47 77 46 78
REMARK H PARENT 14 4 10 7 10 8 19 27 63 46 41 57
REMARK Flexibility Score: inf
ROOT
ATOM      1  C   UNL A   1      33.881  33.894  33.140  1.00  0.00     0.275 C 
ATOM      2  O   UNL A   1      33.713  32.673  33.082  1.00  0.00    -0.269 OA
ATOM      3  N   UNL A   1      32.844  34.692  32.731  1.00  0.00    -0.351 N 
ATOM      4  H   UNL A   1      32.013  34.206  32.528  1.00  0.00     0.163 HD
ENDROOT
BRANCH   1   5
ATOM      5  C   UNL A   1      35.228  34.486  33.615  1.00  0.00     0.362 C 
BRANCH   5   6
ATOM      6  N   UNL A   1      35.656  33.992  34.959  1.00  0.00    -0.335 N 
ATOM      7  H   UNL A   1      36.013  34.769  35.517  1.00  0.00     0.347 HD
ATOM      8  H   UNL A   1      34.868  33.577  35.454  1.00  0.00     0.347 HD
BRANCH   6   9
ATOM      9  C   UNL A   1      36.700  33.012  34.757  1.00  0.00     0.301 C 
BRANCH   9  10
ATOM     10  C   UNL A   1      37.663  32.779  35.853  1.00  0.00     0.048 A 
ATOM     11  C   UNL A   1      38.161  32.558  38.034  1.00  0.00     0.212 A 
ATOM     12  C   UNL A   1      37.546  33.400  37.129  1.00  0.00     0.068 A 
ATOM     13  O   UNL A   1      38.881  31.617  37.349  1.00  0.00    -0.454 OA
ATOM     14  C   UNL A   1      38.570  31.751  36.023  1.00  0.00     0.110 A 
ATOM     15  C   UNL A   1      39.104  30.705  35.126  1.00  0.00     0.088 C 
BRANCH  11  16
ATOM     16  C   UNL A   1      37.966  32.434  39.462  1.00  0.00     0.374 C 
ATOM     17  O   UNL A   1      38.822  32.239  40.313  1.00  0.00    -0.242 OA
BRANCH  16  18
ATOM     18  O   UNL A   1      36.620  32.367  39.696  1.00  0.00    -0.460 OA
BRANCH  18  19
ATOM     19  C   UNL A   1      36.199  31.343  40.606  1.00  0.00     0.230 C 
ATOM     20  C   UNL A   1      35.379  32.031  41.688  1.00  0.00     0.049 C 
ENDBRANCH  18  19
ENDBRANCH  16  18
ENDBRANCH  11  16
ENDBRANCH   9  10
ENDBRANCH   6   9
ENDBRANCH   5   6
ENDBRANCH   1   5
BRANCH   3  21
ATOM     21  C   UNL A   1      32.759  36.134  32.545  1.00  0.00     0.116 C 
BRANCH  21  22
ATOM     22  C   UNL A   1      32.218  36.507  31.154  1.00  0.00     0.023 C 
BRANCH  22  23
ATOM     23  C   UNL A   1      33.202  37.235  30.251  1.00  0.00     0.023 C 
BRANCH  23  24
ATOM     24  C   UNL A   1      33.866  36.344  29.220  1.00  0.00     0.116 C 
BRANCH  24  25
ATOM     25  N   UNL A   1      32.931  35.455  28.540  1.00  0.00    -0.352 N 
ATOM     26  C   UNL A   1      33.104  34.149  28.151  1.00  0.00     0.251 C 
ATOM     27  H   UNL A   1      32.052  35.846  28.331  1.00  0.00     0.163 HD
ATOM     28  O   UNL A   1      32.247  33.579  27.485  1.00  0.00    -0.269 OA
BRANCH  26  29
ATOM     29  C   UNL A   1      34.356  33.454  28.508  1.00  0.00     0.039 A 
ATOM     30  C   UNL A   1      35.509  33.702  27.761  1.00  0.00     0.014 A 
ATOM     31  C   UNL A   1      34.401  32.617  29.625  1.00  0.00     0.014 A 
ATOM     32  C   UNL A   1      36.728  33.177  28.191  1.00  0.00     0.010 A 
ATOM     33  C   UNL A   1      35.629  32.198  30.115  1.00  0.00     0.010 A 
ATOM     34  C   UNL A   1      36.803  32.462  29.397  1.00  0.00    -0.014 A 
BRANCH  34  35
ATOM     35  C   UNL A   1      38.093  31.955  29.925  1.00  0.00     0.031 A 
ATOM     36  C   UNL A   1      38.639  30.648  29.422  1.00  0.00     0.074 A 
ATOM     37  C   UNL A   1      38.723  32.621  30.912  1.00  0.00     0.049 A 
ATOM     38  N   UNL A   1      39.698  29.989  29.815  1.00  0.00    -0.248 NA
ATOM     39  C   UNL A   1      37.870  29.970  28.365  1.00  0.00     0.031 C 
ATOM     40  C   UNL A   1      38.263  33.868  31.529  1.00  0.00     0.029 A 
ATOM     41  N   UNL A   1      39.889  32.333  31.575  1.00  0.00    -0.354 N 
ATOM     42  C   UNL A   1      39.700  28.810  29.080  1.00  0.00     0.074 A 
ATOM     43  C   UNL A   1      38.507  28.814  28.264  1.00  0.00     0.031 C 
ATOM     44  C   UNL A   1      39.157  34.257  32.452  1.00  0.00     0.029 A 
ATOM     45  C   UNL A   1      40.229  33.269  32.521  1.00  0.00     0.049 A 
ATOM     46  H   UNL A   1      40.430  31.533  31.390  1.00  0.00     0.167 HD
ATOM     47  C   UNL A   1      40.626  27.823  29.062  1.00  0.00     0.031 A 
ATOM     48  C   UNL A   1      41.287  33.324  33.351  1.00  0.00     0.031 A 
ATOM     49  C   UNL A   1      41.829  27.837  29.847  1.00  0.00     0.049 A 
ATOM     50  C   UNL A   1      42.317  32.230  33.296  1.00  0.00     0.074 A 
ATOM     51  C   UNL A   1      42.870  26.927  29.848  1.00  0.00     0.029 A 
ATOM     52  N   UNL A   1      42.152  28.820  30.771  1.00  0.00    -0.354 N 
ATOM     53  N   UNL A   1      42.343  31.160  32.541  1.00  0.00    -0.248 NA
ATOM     54  C   UNL A   1      43.467  32.361  34.200  1.00  0.00     0.031 C 
ATOM     55  C   UNL A   1      43.804  27.337  30.805  1.00  0.00     0.029 A 
ATOM     56  C   UNL A   1      43.368  28.528  31.362  1.00  0.00     0.049 A 
ATOM     57  H   UNL A   1      41.597  29.608  30.975  1.00  0.00     0.167 HD
ATOM     58  C   UNL A   1      43.523  30.502  32.859  1.00  0.00     0.074 A 
ATOM     59  C   UNL A   1      44.192  31.303  33.863  1.00  0.00     0.031 C 
ATOM     60  C   UNL A   1      44.013  29.340  32.362  1.00  0.00     0.031 A 
BRANCH  47  61
ATOM     61  C   UNL A   1      40.363  26.651  28.158  1.00  0.00    -0.014 A 
ATOM     62  C   UNL A   1      40.928  26.578  26.874  1.00  0.00     0.009 A 
ATOM     63  C   UNL A   1      39.543  25.601  28.598  1.00  0.00     0.009 A 
ATOM     64  C   UNL A   1      40.638  25.503  26.032  1.00  0.00     0.001 A 
ATOM     65  C   UNL A   1      39.281  24.511  27.766  1.00  0.00     0.001 A 
ATOM     66  C   UNL A   1      39.818  24.468  26.481  1.00  0.00     0.000 A 
ENDBRANCH  47  61
BRANCH  48  67
ATOM     67  C   UNL A   1      41.445  34.474  34.280  1.00  0.00    -0.014 A 
ATOM     68  C   UNL A   1      42.098  35.642  33.858  1.00  0.00     0.009 A 
ATOM     69  C   UNL A   1      40.939  34.415  35.588  1.00  0.00     0.009 A 
ATOM     70  C   UNL A   1      42.262  36.718  34.733  1.00  0.00     0.001 A 
ATOM     71  C   UNL A   1      41.081  35.502  36.452  1.00  0.00     0.001 A 
ATOM     72  C   UNL A   1      41.750  36.649  36.028  1.00  0.00     0.000 A 
ENDBRANCH  48  67
BRANCH  60  73
ATOM     73  C   UNL A   1      45.347  28.883  32.877  1.00  0.00    -0.014 A 
ATOM     74  C   UNL A   1      46.543  29.296  32.271  1.00  0.00     0.009 A 
ATOM     75  C   UNL A   1      45.407  28.063  34.015  1.00  0.00     0.009 A 
ATOM     76  C   UNL A   1      47.773  28.870  32.777  1.00  0.00     0.001 A 
ATOM     77  C   UNL A   1      46.638  27.663  34.536  1.00  0.00     0.001 A 
ATOM     78  C   UNL A   1      47.819  28.060  33.911  1.00  0.00     0.000 A 
ENDBRANCH  60  73
ENDBRANCH  34  35
ENDBRANCH  26  29
ENDBRANCH  24  25
ENDBRANCH  23  24
ENDBRANCH  22  23
ENDBRANCH  21  22
ENDBRANCH   3  21
TORSDOF 17
ENDMDL
MODEL 2
REMARK VINA RESULT:      -8.9      6.324     12.358
REMARK SMILES CCOC(=O)c1cc(C[NH2+]CC(=O)NCCCCNC(=O)c2ccc(-c3c4nc(c(-c5ccccc5)c5ccc([nH]5)c(-c5ccccc5)c5nc(c(-c6ccccc6)c6ccc3[nH]6)C=C5)C=C4)cc2)c(C)o1
REMARK SMILES IDX 12 1 13 2 14 3 11 5 10 6 9 9 8 10 6 11 7 12 72 13 70 14
REMARK SMILES IDX 71 15 4 16 5 17 3 18 2 19 1 20 15 21 16 22 17 23 18 24 19 25
REMARK SMILES IDX 20 26 21 28 22 29 23 30 69 31 24 32 68 33 25 34 26 35 27 36
REMARK SMILES IDX 62 37 28 38 67 39 61 40 63 41 29 42 66 43 60 44 59 45 30 47
REMARK SMILES IDX 52 48 37 49 51 50 38 51 41 52 50 53 64 54 39 55 40 56 49 58
REMARK SMILES IDX 65 59 42 60 31 61 32 62 36 63 33 64 35 65 34 66 53 67 54 68
REMARK SMILES IDX 58 69 55 70 57 71 56 72 43 73 44 74 48 75 45 76 47 77 46 78
REMARK H PARENT 14 4 10 7 10 8 19 27 63 46 41 57
REMARK Flexibility Score: inf
ROOT
ATOM      1  C   UNL A   1      34.444  22.889  26.885  1.00  0.00     0.275 C 
ATOM      2  O   UNL A   1      34.092  22.556  28.019  1.00  0.00    -0.269 OA
ATOM      3  N   UNL A   1      35.769  22.736  26.567  1.00  0.00    -0.351 N 
ATOM      4  H   UNL A   1      36.299  22.267  27.251  1.00  0.00     0.163 HD
ENDROOT
BRANCH   1   5
ATOM      5  C   UNL A   1      33.430  23.495  25.886  1.00  0.00     0.362 C 
BRANCH   5   6
ATOM      6  N   UNL A   1      32.019  23.467  26.378  1.00  0.00    -0.335 N 
ATOM      7  H   UNL A   1      32.006  23.322  27.388  1.00  0.00     0.347 HD
ATOM      8  H   UNL A   1      31.553  24.350  26.174  1.00  0.00     0.347 HD
BRANCH   6   9
ATOM      9  C   UNL A   1      31.343  22.373  25.715  1.00  0.00     0.301 C 
BRANCH   9  10
ATOM     10  C   UNL A   1      32.145  21.465  24.869  1.00  0.00     0.048 A 
ATOM     11  C   UNL A   1      32.662  19.414  24.109  1.00  0.00     0.212 A 
ATOM     12  C   UNL A   1      32.493  20.144  25.268  1.00  0.00     0.068 A 
ATOM     13  O   UNL A   1      32.716  20.273  23.045  1.00  0.00    -0.454 OA
ATOM     14  C   UNL A   1      32.394  21.518  23.511  1.00  0.00     0.110 A 
ATOM     15  C   UNL A   1      32.214  22.566  22.484  1.00  0.00     0.088 C 
BRANCH  11  16
ATOM     16  C   UNL A   1      32.571  17.986  23.893  1.00  0.00     0.374 C 
ATOM     17  O   UNL A   1      32.734  17.383  22.842  1.00  0.00    -0.242 OA
BRANCH  16  18
ATOM     18  O   UNL A   1      32.062  17.422  25.031  1.00  0.00    -0.460 OA
BRANCH  18  19
ATOM     19  C   UNL A   1      32.943  16.538  25.733  1.00  0.00     0.230 C 
ATOM     20  C   UNL A   1      32.448  15.124  25.463  1.00  0.00     0.049 C 
ENDBRANCH  18  19
ENDBRANCH  16  18
ENDBRANCH  11  16
ENDBRANCH   9  10
ENDBRANCH   6   9
ENDBRANCH   5   6
ENDBRANCH   1   5
BRANCH   3  21
ATOM     21  C   UNL A   1      36.528  23.146  25.393  1.00  0.00     0.116 C 
BRANCH  21  22
ATOM     22  C   UNL A   1      36.678  22.005  24.373  1.00  0.00     0.023 C 
BRANCH  22  23
ATOM     23  C   UNL A   1      37.370  20.756  24.897  1.00  0.00     0.023 C 
BRANCH  23  24
ATOM     24  C   UNL A   1      38.671  21.032  25.625  1.00  0.00     0.116 C 
BRANCH  24  25
ATOM     25  N   UNL A   1      39.583  19.895  25.625  1.00  0.00    -0.352 N 
ATOM     26  C   UNL A   1      40.904  19.843  26.001  1.00  0.00     0.251 C 
ATOM     27  H   UNL A   1      39.199  19.045  25.311  1.00  0.00     0.163 HD
ATOM     28  O   UNL A   1      41.560  18.822  25.831  1.00  0.00    -0.269 OA
BRANCH  26  29
ATOM     29  C   UNL A   1      41.535  21.048  26.573  1.00  0.00     0.039 A 
ATOM     30  C   UNL A   1      42.090  21.998  25.714  1.00  0.00     0.014 A 
ATOM     31  C   UNL A   1      41.508  21.268  27.952  1.00  0.00     0.014 A 
ATOM     32  C   UNL A   1      42.540  23.212  26.236  1.00  0.00     0.010 A 
ATOM     33  C   UNL A   1      41.844  22.517  28.451  1.00  0.00     0.010 A 
ATOM     34  C   UNL A   1      42.375  23.498  27.601  1.00  0.00    -0.014 A 
BRANCH  34  35
ATOM     35  C   UNL A   1      42.771  24.805  28.178  1.00  0.00     0.031 A 
ATOM     36  C   UNL A   1      41.727  25.860  28.414  1.00  0.00     0.074 A 
ATOM     37  C   UNL A   1      44.072  25.073  28.405  1.00  0.00     0.049 A 
ATOM     38  N   UNL A   1      41.875  27.093  28.825  1.00  0.00    -0.248 NA
ATOM     39  C   UNL A   1      40.333  25.494  28.109  1.00  0.00     0.031 C 
ATOM     40  C   UNL A   1      45.187  24.156  28.158  1.00  0.00     0.029 A 
ATOM     41  N   UNL A   1      44.675  26.205  28.890  1.00  0.00    -0.354 N 
ATOM     42  C   UNL A   1      40.605  27.654  28.793  1.00  0.00     0.074 A 
ATOM     43  C   UNL A   1      39.708  26.650  28.266  1.00  0.00     0.031 C 
ATOM     44  C   UNL A   1      46.333  24.748  28.530  1.00  0.00     0.029 A 
ATOM     45  C   UNL A   1      46.040  26.097  29.001  1.00  0.00     0.049 A 
ATOM     46  H   UNL A   1      44.177  27.017  29.136  1.00  0.00     0.167 HD
ATOM     47  C   UNL A   1      40.211  28.885  29.194  1.00  0.00     0.031 A 
ATOM     48  C   UNL A   1      46.952  26.987  29.435  1.00  0.00     0.031 A 
ATOM     49  C   UNL A   1      41.097  29.868  29.751  1.00  0.00     0.049 A 
ATOM     50  C   UNL A   1      46.489  28.340  29.900  1.00  0.00     0.074 A 
ATOM     51  C   UNL A   1      40.790  31.117  30.260  1.00  0.00     0.029 A 
ATOM     52  N   UNL A   1      42.469  29.708  29.876  1.00  0.00    -0.354 N 
ATOM     53  N   UNL A   1      45.274  28.828  29.935  1.00  0.00    -0.248 NA
ATOM     54  C   UNL A   1      47.524  29.256  30.395  1.00  0.00     0.031 C 
ATOM     55  C   UNL A   1      41.984  31.731  30.653  1.00  0.00     0.029 A 
ATOM     56  C   UNL A   1      43.026  30.844  30.437  1.00  0.00     0.049 A 
ATOM     57  H   UNL A   1      42.971  28.906  29.606  1.00  0.00     0.167 HD
ATOM     58  C   UNL A   1      45.393  30.100  30.480  1.00  0.00     0.074 A 
ATOM     59  C   UNL A   1      46.797  30.299  30.774  1.00  0.00     0.031 C 
ATOM     60  C   UNL A   1      44.427  31.020  30.718  1.00  0.00     0.031 A 
BRANCH  47  61
ATOM     61  C   UNL A   1      38.754  29.224  29.041  1.00  0.00    -0.014 A 
ATOM     62  C   UNL A   1      37.849  29.051  30.102  1.00  0.00     0.009 A 
ATOM     63  C   UNL A   1      38.280  29.729  27.821  1.00  0.00     0.009 A 
ATOM     64  C   UNL A   1      36.492  29.331  29.928  1.00  0.00     0.001 A 
ATOM     65  C   UNL A   1      36.928  30.038  27.660  1.00  0.00     0.001 A 
ATOM     66  C   UNL A   1      36.034  29.828  28.709  1.00  0.00     0.000 A 
ENDBRANCH  47  61
BRANCH  48  67
ATOM     67  C   UNL A   1      48.390  26.614  29.484  1.00  0.00    -0.014 A 
ATOM     68  C   UNL A   1      49.224  26.864  28.384  1.00  0.00     0.009 A 
ATOM     69  C   UNL A   1      48.938  26.018  30.630  1.00  0.00     0.009 A 
ATOM     70  C   UNL A   1      50.573  26.500  28.421  1.00  0.00     0.001 A 
ATOM     71  C   UNL A   1      50.292  25.680  30.674  1.00  0.00     0.001 A 
ATOM     72  C   UNL A   1      51.106  25.913  29.567  1.00  0.00     0.000 A 
ENDBRANCH  48  67
BRANCH  60  73
ATOM     73  C   UNL A   1      44.854  32.312  31.354  1.00  0.00    -0.014 A 
ATOM     74  C   UNL A   1      45.199  33.428  30.577  1.00  0.00     0.009 A 
ATOM     75  C   UNL A   1      44.864  32.425  32.754  1.00  0.00     0.009 A 
ATOM     76  C   UNL A   1      45.578  34.623  31.191  1.00  0.00     0.001 A 
ATOM     77  C   UNL A   1      45.215  33.630  33.363  1.00  0.00     0.001 A 
ATOM     78  C   UNL A   1      45.580  34.724  32.582  1.00  0.00     0.000 A 
ENDBRANCH  60  73
ENDBRANCH  34  35
ENDBRANCH  26  29
ENDBRANCH  24  25
ENDBRANCH  23  24
ENDBRANCH  22  23
ENDBRANCH  21  22
ENDBRANCH   3  21
TORSDOF 17
ENDMDL
MODEL 3
REMARK VINA RESULT:      -8.8      3.797      9.848
REMARK SMILES CCOC(=O)c1cc(C[NH2+]CC(=O)NCCCCNC(=O)c2ccc(-c3c4nc(c(-c5ccccc5)c5ccc([nH]5)c(-c5ccccc5)c5nc(c(-c6ccccc6)c6ccc3[nH]6)C=C5)C=C4)cc2)c(C)o1
REMARK SMILES IDX 12 1 13 2 14 3 11 5 10 6 9 9 8 10 6 11 7 12 72 13 70 14
REMARK SMILES IDX 71 15 4 16 5 17 3 18 2 19 1 20 15 21 16 22 17 23 18 24 19 25
REMARK SMILES IDX 20 26 21 28 22 29 23 30 69 31 24 32 68 33 25 34 26 35 27 36
REMARK SMILES IDX 62 37 28 38 67 39 61 40 63 41 29 42 66 43 60 44 59 45 30 47
REMARK SMILES IDX 52 48 37 49 51 50 38 51 41 52 50 53 64 54 39 55 40 56 49 58
REMARK SMILES IDX 65 59 42 60 31 61 32 62 36 63 33 64 35 65 34 66 53 67 54 68
REMARK SMILES IDX 58 69 55 70 57 71 56 72 43 73 44 74 48 75 45 76 47 77 46 78
REMARK H PARENT 14 4 10 7 10 8 19 27 63 46 41 57
REMARK Flexibility Score: inf
ROOT
ATOM      1  C   UNL A   1      35.920  30.454  27.649  1.00  0.00     0.275 C 
ATOM      2  O   UNL A   1      37.014  29.884  27.646  1.00  0.00    -0.269 OA
ATOM      3  N   UNL A   1      35.916  31.806  27.877  1.00  0.00    -0.351 N 
ATOM      4  H   UNL A   1      36.810  32.215  27.913  1.00  0.00     0.163 HD
ENDROOT
BRANCH   1   5
ATOM      5  C   UNL A   1      34.610  29.657  27.444  1.00  0.00     0.362 C 
BRANCH   5   6
ATOM      6  N   UNL A   1      34.340  29.310  26.016  1.00  0.00    -0.335 N 
ATOM      7  H   UNL A   1      34.970  29.832  25.406  1.00  0.00     0.347 HD
ATOM      8  H   UNL A   1      34.491  28.314  25.856  1.00  0.00     0.347 HD
BRANCH   6   9
ATOM      9  C   UNL A   1      32.968  29.666  25.727  1.00  0.00     0.301 C 
BRANCH   9  10
ATOM     10  C   UNL A   1      32.271  28.944  24.643  1.00  0.00     0.048 A 
ATOM     11  C   UNL A   1      30.488  28.617  23.314  1.00  0.00     0.212 A 
ATOM     12  C   UNL A   1      30.864  28.731  24.637  1.00  0.00     0.068 A 
ATOM     13  O   UNL A   1      31.609  28.466  22.543  1.00  0.00    -0.454 OA
ATOM     14  C   UNL A   1      32.692  28.673  23.355  1.00  0.00     0.110 A 
ATOM     15  C   UNL A   1      34.004  28.736  22.678  1.00  0.00     0.088 C 
BRANCH  11  16
ATOM     16  C   UNL A   1      29.201  28.843  22.694  1.00  0.00     0.374 C 
ATOM     17  O   UNL A   1      28.143  28.291  22.959  1.00  0.00    -0.242 OA
BRANCH  16  18
ATOM     18  O   UNL A   1      29.396  29.646  21.603  1.00  0.00    -0.460 OA
BRANCH  18  19
ATOM     19  C   UNL A   1      29.160  31.043  21.811  1.00  0.00     0.230 C 
ATOM     20  C   UNL A   1      28.060  31.449  20.840  1.00  0.00     0.049 C 
ENDBRANCH  18  19
ENDBRANCH  16  18
ENDBRANCH  11  16
ENDBRANCH   9  10
ENDBRANCH   6   9
ENDBRANCH   5   6
ENDBRANCH   1   5
BRANCH   3  21
ATOM     21  C   UNL A   1      34.817  32.741  28.079  1.00  0.00     0.116 C 
BRANCH  21  22
ATOM     22  C   UNL A   1      35.298  34.082  28.659  1.00  0.00     0.023 C 
BRANCH  22  23
ATOM     23  C   UNL A   1      34.202  35.104  28.920  1.00  0.00     0.023 C 
BRANCH  23  24
ATOM     24  C   UNL A   1      33.046  34.570  29.742  1.00  0.00     0.116 C 
BRANCH  24  25
ATOM     25  N   UNL A   1      32.527  35.537  30.702  1.00  0.00    -0.352 N 
ATOM     26  C   UNL A   1      32.930  35.780  31.993  1.00  0.00     0.251 C 
ATOM     27  H   UNL A   1      31.782  36.094  30.379  1.00  0.00     0.163 HD
ATOM     28  O   UNL A   1      32.306  36.559  32.704  1.00  0.00    -0.269 OA
BRANCH  26  29
ATOM     29  C   UNL A   1      34.100  35.056  32.526  1.00  0.00     0.039 A 
ATOM     30  C   UNL A   1      33.931  33.767  33.033  1.00  0.00     0.014 A 
ATOM     31  C   UNL A   1      35.372  35.629  32.455  1.00  0.00     0.014 A 
ATOM     32  C   UNL A   1      35.054  33.018  33.386  1.00  0.00     0.010 A 
ATOM     33  C   UNL A   1      36.489  34.843  32.693  1.00  0.00     0.010 A 
ATOM     34  C   UNL A   1      36.343  33.534  33.173  1.00  0.00    -0.014 A 
BRANCH  34  35
ATOM     35  C   UNL A   1      37.560  32.739  33.465  1.00  0.00     0.031 A 
ATOM     36  C   UNL A   1      38.317  32.981  34.741  1.00  0.00     0.074 A 
ATOM     37  C   UNL A   1      38.029  31.868  32.550  1.00  0.00     0.049 A 
ATOM     38  N   UNL A   1      39.447  32.459  35.143  1.00  0.00    -0.248 NA
ATOM     39  C   UNL A   1      37.751  33.973  35.671  1.00  0.00     0.031 C 
ATOM     40  C   UNL A   1      37.420  31.590  31.247  1.00  0.00     0.029 A 
ATOM     41  N   UNL A   1      39.137  31.061  32.577  1.00  0.00    -0.354 N 
ATOM     42  C   UNL A   1      39.740  33.083  36.349  1.00  0.00     0.074 A 
ATOM     43  C   UNL A   1      38.706  34.064  36.584  1.00  0.00     0.031 C 
ATOM     44  C   UNL A   1      38.140  30.647  30.618  1.00  0.00     0.029 A 
ATOM     45  C   UNL A   1      39.282  30.287  31.452  1.00  0.00     0.049 A 
ATOM     46  H   UNL A   1      39.768  31.038  33.332  1.00  0.00     0.167 HD
ATOM     47  C   UNL A   1      40.762  32.842  37.202  1.00  0.00     0.031 A 
ATOM     48  C   UNL A   1      40.229  29.386  31.130  1.00  0.00     0.031 A 
ATOM     49  C   UNL A   1      41.770  31.842  36.984  1.00  0.00     0.049 A 
ATOM     50  C   UNL A   1      41.342  29.116  32.103  1.00  0.00     0.074 A 
ATOM     51  C   UNL A   1      42.805  31.463  37.819  1.00  0.00     0.029 A 
ATOM     52  N   UNL A   1      41.863  31.056  35.845  1.00  0.00    -0.354 N 
ATOM     53  N   UNL A   1      41.563  29.660  33.275  1.00  0.00    -0.248 NA
ATOM     54  C   UNL A   1      42.327  28.099  31.714  1.00  0.00     0.031 C 
ATOM     55  C   UNL A   1      43.552  30.477  37.166  1.00  0.00     0.029 A 
ATOM     56  C   UNL A   1      42.951  30.206  35.947  1.00  0.00     0.049 A 
ATOM     57  H   UNL A   1      41.247  31.097  35.079  1.00  0.00     0.167 HD
ATOM     58  C   UNL A   1      42.697  29.034  33.775  1.00  0.00     0.074 A 
ATOM     59  C   UNL A   1      43.107  28.059  32.786  1.00  0.00     0.031 C 
ATOM     60  C   UNL A   1      43.340  29.246  34.949  1.00  0.00     0.031 A 
BRANCH  47  61
ATOM     61  C   UNL A   1      40.830  33.681  38.448  1.00  0.00    -0.014 A 
ATOM     62  C   UNL A   1      41.539  34.893  38.473  1.00  0.00     0.009 A 
ATOM     63  C   UNL A   1      40.172  33.256  39.612  1.00  0.00     0.009 A 
ATOM     64  C   UNL A   1      41.628  35.638  39.651  1.00  0.00     0.001 A 
ATOM     65  C   UNL A   1      40.235  34.019  40.779  1.00  0.00     0.001 A 
ATOM     66  C   UNL A   1      40.972  35.202  40.802  1.00  0.00     0.000 A 
ENDBRANCH  47  61
BRANCH  48  67
ATOM     67  C   UNL A   1      40.147  28.648  29.842  1.00  0.00    -0.014 A 
ATOM     68  C   UNL A   1      40.722  29.185  28.680  1.00  0.00     0.009 A 
ATOM     69  C   UNL A   1      39.503  27.404  29.768  1.00  0.00     0.009 A 
ATOM     70  C   UNL A   1      40.632  28.502  27.465  1.00  0.00     0.001 A 
ATOM     71  C   UNL A   1      39.438  26.710  28.558  1.00  0.00     0.001 A 
ATOM     72  C   UNL A   1      39.994  27.264  27.405  1.00  0.00     0.000 A 
ENDBRANCH  48  67
BRANCH  60  73
ATOM     73  C   UNL A   1      44.537  28.385  35.238  1.00  0.00    -0.014 A 
ATOM     74  C   UNL A   1      45.832  28.796  34.889  1.00  0.00     0.009 A 
ATOM     75  C   UNL A   1      44.366  27.166  35.913  1.00  0.00     0.009 A 
ATOM     76  C   UNL A   1      46.931  27.986  35.182  1.00  0.00     0.001 A 
ATOM     77  C   UNL A   1      45.469  26.372  36.230  1.00  0.00     0.001 A 
ATOM     78  C   UNL A   1      46.749  26.779  35.856  1.00  0.00     0.000 A 
ENDBRANCH  60  73
ENDBRANCH  34  35
ENDBRANCH  26  29
ENDBRANCH  24  25
ENDBRANCH  23  24
ENDBRANCH  22  23
ENDBRANCH  21  22
ENDBRANCH   3  21
TORSDOF 17
ENDMDL
