MODEL 1
REMARK VINA RESULT:     -11.6      0.000      0.000
REMARK SMILES Cc1cc(C)cc(-c2cccc(Cl)c2C(=O)NCCCCNC(=O)c2ccc(-c3c4nc(c(-c5ccccc5)c5ccc([nH]5)c(-c5ccccc5)c5nc(c(-c6ccccc6)c6ccc3[nH]6)C=C5)C=C4)cc2)c1
REMARK SMILES IDX 20 1 19 2 18 3 17 4 15 5 16 6 14 8 8 9 9 10 10 11 12 12
REMARK SMILES IDX 11 13 13 14 7 15 1 16 2 17 3 18 73 19 4 20 5 21 6 22 21 23
REMARK SMILES IDX 22 24 23 25 24 27 25 28 26 29 72 30 27 31 71 32 28 33 29 34
REMARK SMILES IDX 30 35 65 36 31 37 70 38 64 39 66 40 32 41 69 42 63 43 62 44
REMARK SMILES IDX 33 46 55 47 40 48 54 49 41 50 44 51 53 52 67 53 42 54 43 55
REMARK SMILES IDX 52 57 68 58 45 59 34 60 35 61 39 62 36 63 38 64 37 65 56 66
REMARK SMILES IDX 57 67 61 68 58 69 60 70 59 71 46 72 47 73 51 74 48 75 50 76
REMARK SMILES IDX 49 77
REMARK H PARENT 17 7 22 26 66 45 44 56
REMARK Flexibility Score: inf
ROOT
ATOM      1  C   UNL A   1      32.057  29.212  26.834  1.00  0.00     0.023 C 
ENDROOT
BRANCH   1   2
ATOM      2  C   UNL A   1      31.678  27.812  27.321  1.00  0.00     0.023 C 
BRANCH   2   3
ATOM      3  C   UNL A   1      32.263  26.626  26.559  1.00  0.00     0.116 C 
BRANCH   3   4
ATOM      4  N   UNL A   1      31.368  25.496  26.358  1.00  0.00    -0.352 N 
ATOM      5  C   UNL A   1      31.201  24.683  25.249  1.00  0.00     0.253 C 
ATOM      6  O   UNL A   1      30.593  23.626  25.390  1.00  0.00    -0.269 OA
ATOM      7  H   UNL A   1      30.795  25.276  27.127  1.00  0.00     0.163 HD
BRANCH   5   8
ATOM      8  C   UNL A   1      31.679  25.101  23.902  1.00  0.00     0.066 A 
ATOM      9  C   UNL A   1      32.759  24.413  23.293  1.00  0.00    -0.004 A 
ATOM     10  C   UNL A   1      33.076  24.706  21.948  1.00  0.00     0.009 A 
ATOM     11  C   UNL A   1      32.403  25.698  21.242  1.00  0.00     0.002 A 
ATOM     12  C   UNL A   1      31.115  26.199  23.228  1.00  0.00     0.054 A 
ATOM     13  C   UNL A   1      31.450  26.469  21.895  1.00  0.00     0.021 A 
ATOM     14  Cl  UNL A   1      30.109  27.372  24.009  1.00  0.00    -0.083 Cl
BRANCH   9  15
ATOM     15  C   UNL A   1      33.695  23.523  24.009  1.00  0.00    -0.017 A 
ATOM     16  C   UNL A   1      37.044  23.918  25.825  1.00  0.00     0.044 C 
ATOM     17  C   UNL A   1      35.821  23.300  25.217  1.00  0.00    -0.050 A 
ATOM     18  C   UNL A   1      35.629  21.918  25.273  1.00  0.00     0.006 A 
ATOM     19  C   UNL A   1      34.850  24.088  24.588  1.00  0.00     0.012 A 
ATOM     20  C   UNL A   1      34.488  21.327  24.709  1.00  0.00    -0.050 A 
ATOM     21  C   UNL A   1      34.315  19.840  24.799  1.00  0.00     0.044 C 
ATOM     22  C   UNL A   1      33.527  22.134  24.077  1.00  0.00     0.012 A 
ENDBRANCH   9  15
ENDBRANCH   5   8
ENDBRANCH   3   4
ENDBRANCH   2   3
ENDBRANCH   1   2
BRANCH   1  23
ATOM     23  C   UNL A   1      33.504  29.656  27.034  1.00  0.00     0.116 C 
BRANCH  23  24
ATOM     24  N   UNL A   1      33.659  30.840  27.867  1.00  0.00    -0.352 N 
ATOM     25  C   UNL A   1      34.704  31.249  28.665  1.00  0.00     0.251 C 
ATOM     26  H   UNL A   1      32.887  31.451  27.860  1.00  0.00     0.163 HD
ATOM     27  O   UNL A   1      34.597  32.274  29.333  1.00  0.00    -0.269 OA
BRANCH  25  28
ATOM     28  C   UNL A   1      35.939  30.440  28.773  1.00  0.00     0.039 A 
ATOM     29  C   UNL A   1      36.833  30.439  27.697  1.00  0.00     0.014 A 
ATOM     30  C   UNL A   1      36.238  29.704  29.922  1.00  0.00     0.014 A 
ATOM     31  C   UNL A   1      38.077  29.814  27.823  1.00  0.00     0.010 A 
ATOM     32  C   UNL A   1      37.505  29.144  30.075  1.00  0.00     0.010 A 
ATOM     33  C   UNL A   1      38.451  29.223  29.040  1.00  0.00    -0.014 A 
BRANCH  33  34
ATOM     34  C   UNL A   1      39.843  28.761  29.283  1.00  0.00     0.031 A 
ATOM     35  C   UNL A   1      40.877  29.692  29.851  1.00  0.00     0.074 A 
ATOM     36  C   UNL A   1      40.203  27.522  28.890  1.00  0.00     0.049 A 
ATOM     37  N   UNL A   1      42.161  29.493  30.020  1.00  0.00    -0.248 NA
ATOM     38  C   UNL A   1      40.415  31.026  30.261  1.00  0.00     0.031 C 
ATOM     39  C   UNL A   1      39.309  26.529  28.286  1.00  0.00     0.029 A 
ATOM     40  N   UNL A   1      41.422  26.890  28.924  1.00  0.00    -0.354 N 
ATOM     41  C   UNL A   1      42.662  30.680  30.539  1.00  0.00     0.074 A 
ATOM     42  C   UNL A   1      41.552  31.605  30.622  1.00  0.00     0.031 C 
ATOM     43  C   UNL A   1      40.004  25.411  28.026  1.00  0.00     0.029 A 
ATOM     44  C   UNL A   1      41.399  25.621  28.397  1.00  0.00     0.049 A 
ATOM     45  H   UNL A   1      42.234  27.305  29.292  1.00  0.00     0.167 HD
ATOM     46  C   UNL A   1      43.928  30.969  30.924  1.00  0.00     0.031 A 
ATOM     47  C   UNL A   1      42.391  24.729  28.211  1.00  0.00     0.031 A 
ATOM     48  C   UNL A   1      45.033  30.050  30.851  1.00  0.00     0.049 A 
ATOM     49  C   UNL A   1      43.793  25.089  28.613  1.00  0.00     0.074 A 
ATOM     50  C   UNL A   1      46.335  30.232  31.282  1.00  0.00     0.029 A 
ATOM     51  N   UNL A   1      44.967  28.777  30.305  1.00  0.00    -0.354 N 
ATOM     52  N   UNL A   1      44.234  26.191  29.165  1.00  0.00    -0.248 NA
ATOM     53  C   UNL A   1      44.833  24.080  28.362  1.00  0.00     0.031 C 
ATOM     54  C   UNL A   1      47.071  29.090  30.951  1.00  0.00     0.029 A 
ATOM     55  C   UNL A   1      46.214  28.177  30.357  1.00  0.00     0.049 A 
ATOM     56  H   UNL A   1      44.154  28.362  29.935  1.00  0.00     0.167 HD
ATOM     57  C   UNL A   1      45.597  26.004  29.343  1.00  0.00     0.074 A 
ATOM     58  C   UNL A   1      45.908  24.676  28.858  1.00  0.00     0.031 C 
ATOM     59  C   UNL A   1      46.512  26.859  29.862  1.00  0.00     0.031 A 
BRANCH  46  60
ATOM     60  C   UNL A   1      44.190  32.349  31.456  1.00  0.00    -0.014 A 
ATOM     61  C   UNL A   1      44.018  32.648  32.817  1.00  0.00     0.009 A 
ATOM     62  C   UNL A   1      44.660  33.353  30.595  1.00  0.00     0.009 A 
ATOM     63  C   UNL A   1      44.280  33.932  33.298  1.00  0.00     0.001 A 
ATOM     64  C   UNL A   1      44.945  34.630  31.083  1.00  0.00     0.001 A 
ATOM     65  C   UNL A   1      44.746  34.920  32.431  1.00  0.00     0.000 A 
ENDBRANCH  46  60
BRANCH  47  66
ATOM     66  C   UNL A   1      42.098  23.405  27.603  1.00  0.00    -0.014 A 
ATOM     67  C   UNL A   1      42.231  23.214  26.220  1.00  0.00     0.009 A 
ATOM     68  C   UNL A   1      41.678  22.328  28.400  1.00  0.00     0.009 A 
ATOM     69  C   UNL A   1      41.927  21.979  25.644  1.00  0.00     0.001 A 
ATOM     70  C   UNL A   1      41.400  21.087  27.825  1.00  0.00     0.001 A 
ATOM     71  C   UNL A   1      41.516  20.915  26.446  1.00  0.00     0.000 A 
ENDBRANCH  47  66
BRANCH  59  72
ATOM     72  C   UNL A   1      47.932  26.379  29.943  1.00  0.00    -0.014 A 
ATOM     73  C   UNL A   1      48.432  25.796  31.118  1.00  0.00     0.009 A 
ATOM     74  C   UNL A   1      48.767  26.473  28.819  1.00  0.00     0.009 A 
ATOM     75  C   UNL A   1      49.749  25.336  31.171  1.00  0.00     0.001 A 
ATOM     76  C   UNL A   1      50.075  25.990  28.867  1.00  0.00     0.001 A 
ATOM     77  C   UNL A   1      50.567  25.429  30.045  1.00  0.00     0.000 A 
ENDBRANCH  59  72
ENDBRANCH  33  34
ENDBRANCH  25  28
ENDBRANCH  23  24
ENDBRANCH   1  23
TORSDOF 12
ENDMDL
MODEL 2
REMARK VINA RESULT:     -11.6      2.931      7.891
REMARK SMILES Cc1cc(C)cc(-c2cccc(Cl)c2C(=O)NCCCCNC(=O)c2ccc(-c3c4nc(c(-c5ccccc5)c5ccc([nH]5)c(-c5ccccc5)c5nc(c(-c6ccccc6)c6ccc3[nH]6)C=C5)C=C4)cc2)c1
REMARK SMILES IDX 20 1 19 2 18 3 17 4 15 5 16 6 14 8 8 9 9 10 10 11 12 12
REMARK SMILES IDX 11 13 13 14 7 15 1 16 2 17 3 18 73 19 4 20 5 21 6 22 21 23
REMARK SMILES IDX 22 24 23 25 24 27 25 28 26 29 72 30 27 31 71 32 28 33 29 34
REMARK SMILES IDX 30 35 65 36 31 37 70 38 64 39 66 40 32 41 69 42 63 43 62 44
REMARK SMILES IDX 33 46 55 47 40 48 54 49 41 50 44 51 53 52 67 53 42 54 43 55
REMARK SMILES IDX 52 57 68 58 45 59 34 60 35 61 39 62 36 63 38 64 37 65 56 66
REMARK SMILES IDX 57 67 61 68 58 69 60 70 59 71 46 72 47 73 51 74 48 75 50 76
REMARK SMILES IDX 49 77
REMARK H PARENT 17 7 22 26 66 45 44 56
REMARK Flexibility Score: inf
ROOT
ATOM      1  C   UNL A   1      36.992  23.652  24.660  1.00  0.00     0.023 C 
ENDROOT
BRANCH   1   2
ATOM      2  C   UNL A   1      36.232  23.064  23.470  1.00  0.00     0.023 C 
BRANCH   2   3
ATOM      3  C   UNL A   1      34.938  23.759  23.055  1.00  0.00     0.116 C 
BRANCH   3   4
ATOM      4  N   UNL A   1      33.806  22.885  22.785  1.00  0.00    -0.352 N 
ATOM      5  C   UNL A   1      32.847  22.384  23.648  1.00  0.00     0.253 C 
ATOM      6  O   UNL A   1      31.830  21.892  23.166  1.00  0.00    -0.269 OA
ATOM      7  H   UNL A   1      33.708  22.608  21.845  1.00  0.00     0.163 HD
BRANCH   5   8
ATOM      8  C   UNL A   1      33.060  22.372  25.122  1.00  0.00     0.066 A 
ATOM      9  C   UNL A   1      32.561  23.437  25.915  1.00  0.00    -0.004 A 
ATOM     10  C   UNL A   1      32.615  23.317  27.321  1.00  0.00     0.009 A 
ATOM     11  C   UNL A   1      33.209  22.218  27.935  1.00  0.00     0.002 A 
ATOM     12  C   UNL A   1      33.789  21.349  25.753  1.00  0.00     0.054 A 
ATOM     13  C   UNL A   1      33.829  21.255  27.150  1.00  0.00     0.021 A 
ATOM     14  Cl  UNL A   1      34.801  20.240  24.890  1.00  0.00    -0.083 Cl
BRANCH   9  15
ATOM     15  C   UNL A   1      32.135  24.747  25.385  1.00  0.00    -0.017 A 
ATOM     16  C   UNL A   1      33.676  28.240  25.075  1.00  0.00     0.044 C 
ATOM     17  C   UNL A   1      32.693  27.110  25.017  1.00  0.00    -0.050 A 
ATOM     18  C   UNL A   1      31.398  27.328  24.541  1.00  0.00     0.006 A 
ATOM     19  C   UNL A   1      33.048  25.821  25.430  1.00  0.00     0.012 A 
ATOM     20  C   UNL A   1      30.468  26.279  24.481  1.00  0.00    -0.050 A 
ATOM     21  C   UNL A   1      29.090  26.553  23.954  1.00  0.00     0.044 C 
ATOM     22  C   UNL A   1      30.842  24.992  24.905  1.00  0.00     0.012 A 
ENDBRANCH   9  15
ENDBRANCH   5   8
ENDBRANCH   3   4
ENDBRANCH   2   3
ENDBRANCH   1   2
BRANCH   1  23
ATOM     23  C   UNL A   1      37.305  22.714  25.824  1.00  0.00     0.116 C 
BRANCH  23  24
ATOM     24  N   UNL A   1      38.673  22.216  25.842  1.00  0.00    -0.352 N 
ATOM     25  C   UNL A   1      39.844  22.814  26.252  1.00  0.00     0.251 C 
ATOM     26  H   UNL A   1      38.780  21.297  25.503  1.00  0.00     0.163 HD
ATOM     27  O   UNL A   1      40.910  22.218  26.125  1.00  0.00    -0.269 OA
BRANCH  25  28
ATOM     28  C   UNL A   1      39.844  24.192  26.793  1.00  0.00     0.039 A 
ATOM     29  C   UNL A   1      39.303  24.409  28.065  1.00  0.00     0.014 A 
ATOM     30  C   UNL A   1      40.387  25.262  26.079  1.00  0.00     0.014 A 
ATOM     31  C   UNL A   1      39.425  25.664  28.670  1.00  0.00     0.010 A 
ATOM     32  C   UNL A   1      40.574  26.491  26.710  1.00  0.00     0.010 A 
ATOM     33  C   UNL A   1      40.126  26.694  28.025  1.00  0.00    -0.014 A 
BRANCH  33  34
ATOM     34  C   UNL A   1      40.476  27.954  28.733  1.00  0.00     0.031 A 
ATOM     35  C   UNL A   1      41.788  28.097  29.451  1.00  0.00     0.074 A 
ATOM     36  C   UNL A   1      39.559  28.940  28.812  1.00  0.00     0.049 A 
ATOM     37  N   UNL A   1      42.207  29.077  30.213  1.00  0.00    -0.248 NA
ATOM     38  C   UNL A   1      42.742  26.986  29.318  1.00  0.00     0.031 C 
ATOM     39  C   UNL A   1      38.230  28.916  28.195  1.00  0.00     0.029 A 
ATOM     40  N   UNL A   1      39.598  30.149  29.462  1.00  0.00    -0.354 N 
ATOM     41  C   UNL A   1      43.465  28.695  30.662  1.00  0.00     0.074 A 
ATOM     42  C   UNL A   1      43.724  27.378  30.119  1.00  0.00     0.031 C 
ATOM     43  C   UNL A   1      37.591  30.061  28.479  1.00  0.00     0.029 A 
ATOM     44  C   UNL A   1      38.440  30.880  29.337  1.00  0.00     0.049 A 
ATOM     45  H   UNL A   1      40.381  30.464  29.968  1.00  0.00     0.167 HD
ATOM     46  C   UNL A   1      44.331  29.382  31.444  1.00  0.00     0.031 A 
ATOM     47  C   UNL A   1      38.088  32.067  29.867  1.00  0.00     0.031 A 
ATOM     48  C   UNL A   1      44.081  30.694  31.979  1.00  0.00     0.049 A 
ATOM     49  C   UNL A   1      39.054  32.791  30.761  1.00  0.00     0.074 A 
ATOM     50  C   UNL A   1      44.928  31.496  32.725  1.00  0.00     0.029 A 
ATOM     51  N   UNL A   1      42.894  31.395  31.833  1.00  0.00    -0.354 N 
ATOM     52  N   UNL A   1      40.265  32.444  31.119  1.00  0.00    -0.248 NA
ATOM     53  C   UNL A   1      38.600  34.071  31.326  1.00  0.00     0.031 C 
ATOM     54  C   UNL A   1      44.236  32.661  33.073  1.00  0.00     0.029 A 
ATOM     55  C   UNL A   1      42.975  32.604  32.502  1.00  0.00     0.049 A 
ATOM     56  H   UNL A   1      42.110  31.079  31.328  1.00  0.00     0.167 HD
ATOM     57  C   UNL A   1      40.725  33.467  31.936  1.00  0.00     0.074 A 
ATOM     58  C   UNL A   1      39.670  34.457  32.007  1.00  0.00     0.031 C 
ATOM     59  C   UNL A   1      41.915  33.575  32.574  1.00  0.00     0.031 A 
BRANCH  46  60
ATOM     60  C   UNL A   1      45.637  28.719  31.779  1.00  0.00    -0.014 A 
ATOM     61  C   UNL A   1      46.789  28.960  31.015  1.00  0.00     0.009 A 
ATOM     62  C   UNL A   1      45.728  27.878  32.899  1.00  0.00     0.009 A 
ATOM     63  C   UNL A   1      47.999  28.346  31.346  1.00  0.00     0.001 A 
ATOM     64  C   UNL A   1      46.944  27.285  33.243  1.00  0.00     0.001 A 
ATOM     65  C   UNL A   1      48.075  27.513  32.462  1.00  0.00     0.000 A 
ENDBRANCH  46  60
BRANCH  47  66
ATOM     66  C   UNL A   1      36.751  32.646  29.575  1.00  0.00    -0.014 A 
ATOM     67  C   UNL A   1      35.694  32.480  30.482  1.00  0.00     0.009 A 
ATOM     68  C   UNL A   1      36.524  33.361  28.389  1.00  0.00     0.009 A 
ATOM     69  C   UNL A   1      34.429  32.998  30.194  1.00  0.00     0.001 A 
ATOM     70  C   UNL A   1      35.266  33.900  28.117  1.00  0.00     0.001 A 
ATOM     71  C   UNL A   1      34.216  33.711  29.015  1.00  0.00     0.000 A 
ENDBRANCH  47  66
BRANCH  59  72
ATOM     72  C   UNL A   1      42.146  34.813  33.392  1.00  0.00    -0.014 A 
ATOM     73  C   UNL A   1      41.689  34.898  34.718  1.00  0.00     0.009 A 
ATOM     74  C   UNL A   1      42.863  35.888  32.847  1.00  0.00     0.009 A 
ATOM     75  C   UNL A   1      41.929  36.047  35.473  1.00  0.00     0.001 A 
ATOM     76  C   UNL A   1      43.123  37.026  33.612  1.00  0.00     0.001 A 
ATOM     77  C   UNL A   1      42.650  37.107  34.922  1.00  0.00     0.000 A 
ENDBRANCH  59  72
ENDBRANCH  33  34
ENDBRANCH  25  28
ENDBRANCH  23  24
ENDBRANCH   1  23
TORSDOF 12
ENDMDL
MODEL 3
REMARK VINA RESULT:     -11.5      2.297      7.332
REMARK SMILES Cc1cc(C)cc(-c2cccc(Cl)c2C(=O)NCCCCNC(=O)c2ccc(-c3c4nc(c(-c5ccccc5)c5ccc([nH]5)c(-c5ccccc5)c5nc(c(-c6ccccc6)c6ccc3[nH]6)C=C5)C=C4)cc2)c1
REMARK SMILES IDX 20 1 19 2 18 3 17 4 15 5 16 6 14 8 8 9 9 10 10 11 12 12
REMARK SMILES IDX 11 13 13 14 7 15 1 16 2 17 3 18 73 19 4 20 5 21 6 22 21 23
REMARK SMILES IDX 22 24 23 25 24 27 25 28 26 29 72 30 27 31 71 32 28 33 29 34
REMARK SMILES IDX 30 35 65 36 31 37 70 38 64 39 66 40 32 41 69 42 63 43 62 44
REMARK SMILES IDX 33 46 55 47 40 48 54 49 41 50 44 51 53 52 67 53 42 54 43 55
REMARK SMILES IDX 52 57 68 58 45 59 34 60 35 61 39 62 36 63 38 64 37 65 56 66
REMARK SMILES IDX 57 67 61 68 58 69 60 70 59 71 46 72 47 73 51 74 48 75 50 76
REMARK SMILES IDX 49 77
REMARK H PARENT 17 7 22 26 66 45 44 56
REMARK Flexibility Score: inf
ROOT
ATOM      1  C   UNL A   1      37.093  21.049  24.740  1.00  0.00     0.023 C 
ENDROOT
BRANCH   1   2
ATOM      2  C   UNL A   1      36.609  22.228  23.894  1.00  0.00     0.023 C 
BRANCH   2   3
ATOM      3  C   UNL A   1      36.620  23.607  24.547  1.00  0.00     0.116 C 
BRANCH   3   4
ATOM      4  N   UNL A   1      35.832  23.741  25.762  1.00  0.00    -0.352 N 
ATOM      5  C   UNL A   1      34.552  23.293  26.043  1.00  0.00     0.253 C 
ATOM      6  O   UNL A   1      34.187  23.274  27.216  1.00  0.00    -0.269 OA
ATOM      7  H   UNL A   1      36.276  24.223  26.497  1.00  0.00     0.163 HD
BRANCH   5   8
ATOM      8  C   UNL A   1      33.609  22.907  24.957  1.00  0.00     0.066 A 
ATOM      9  C   UNL A   1      33.007  23.912  24.157  1.00  0.00    -0.004 A 
ATOM     10  C   UNL A   1      32.263  23.518  23.023  1.00  0.00     0.009 A 
ATOM     11  C   UNL A   1      32.050  22.177  22.723  1.00  0.00     0.002 A 
ATOM     12  C   UNL A   1      33.258  21.566  24.727  1.00  0.00     0.054 A 
ATOM     13  C   UNL A   1      32.516  21.203  23.596  1.00  0.00     0.021 A 
ATOM     14  Cl  UNL A   1      33.567  20.300  25.869  1.00  0.00    -0.083 Cl
BRANCH   9  15
ATOM     15  C   UNL A   1      32.958  25.345  24.509  1.00  0.00    -0.017 A 
ATOM     16  C   UNL A   1      34.324  28.605  23.032  1.00  0.00     0.044 C 
ATOM     17  C   UNL A   1      33.649  27.636  23.956  1.00  0.00    -0.050 A 
ATOM     18  C   UNL A   1      33.062  28.085  25.141  1.00  0.00     0.006 A 
ATOM     19  C   UNL A   1      33.587  26.271  23.651  1.00  0.00     0.012 A 
ATOM     20  C   UNL A   1      32.426  27.188  26.013  1.00  0.00    -0.050 A 
ATOM     21  C   UNL A   1      31.800  27.713  27.272  1.00  0.00     0.044 C 
ATOM     22  C   UNL A   1      32.379  25.820  25.693  1.00  0.00     0.012 A 
ENDBRANCH   9  15
ENDBRANCH   5   8
ENDBRANCH   3   4
ENDBRANCH   2   3
ENDBRANCH   1   2
BRANCH   1  23
ATOM     23  C   UNL A   1      38.380  21.242  25.539  1.00  0.00     0.116 C 
BRANCH  23  24
ATOM     24  N   UNL A   1      39.282  20.099  25.508  1.00  0.00    -0.352 N 
ATOM     25  C   UNL A   1      40.581  19.966  25.947  1.00  0.00     0.251 C 
ATOM     26  H   UNL A   1      38.901  19.286  25.106  1.00  0.00     0.163 HD
ATOM     27  O   UNL A   1      41.179  18.908  25.768  1.00  0.00    -0.269 OA
BRANCH  25  28
ATOM     28  C   UNL A   1      41.289  21.100  26.582  1.00  0.00     0.039 A 
ATOM     29  C   UNL A   1      41.928  22.033  25.759  1.00  0.00     0.014 A 
ATOM     30  C   UNL A   1      41.312  21.268  27.968  1.00  0.00     0.014 A 
ATOM     31  C   UNL A   1      42.472  23.196  26.313  1.00  0.00     0.010 A 
ATOM     32  C   UNL A   1      41.788  22.460  28.513  1.00  0.00     0.010 A 
ATOM     33  C   UNL A   1      42.342  23.451  27.687  1.00  0.00    -0.014 A 
BRANCH  33  34
ATOM     34  C   UNL A   1      42.696  24.775  28.266  1.00  0.00     0.031 A 
ATOM     35  C   UNL A   1      41.652  25.838  28.458  1.00  0.00     0.074 A 
ATOM     36  C   UNL A   1      43.990  25.054  28.525  1.00  0.00     0.049 A 
ATOM     37  N   UNL A   1      41.803  27.081  28.840  1.00  0.00    -0.248 NA
ATOM     38  C   UNL A   1      40.261  25.463  28.160  1.00  0.00     0.031 C 
ATOM     39  C   UNL A   1      45.111  24.127  28.347  1.00  0.00     0.029 A 
ATOM     40  N   UNL A   1      44.584  26.206  28.979  1.00  0.00    -0.354 N 
ATOM     41  C   UNL A   1      40.532  27.642  28.812  1.00  0.00     0.074 A 
ATOM     42  C   UNL A   1      39.628  26.615  28.340  1.00  0.00     0.031 C 
ATOM     43  C   UNL A   1      46.251  24.739  28.704  1.00  0.00     0.029 A 
ATOM     44  C   UNL A   1      45.951  26.114  29.090  1.00  0.00     0.049 A 
ATOM     45  H   UNL A   1      44.079  27.020  29.204  1.00  0.00     0.167 HD
ATOM     46  C   UNL A   1      40.150  28.894  29.160  1.00  0.00     0.031 A 
ATOM     47  C   UNL A   1      46.868  27.034  29.443  1.00  0.00     0.031 A 
ATOM     48  C   UNL A   1      41.044  29.916  29.638  1.00  0.00     0.049 A 
ATOM     49  C   UNL A   1      46.421  28.426  29.789  1.00  0.00     0.074 A 
ATOM     50  C   UNL A   1      40.737  31.191  30.079  1.00  0.00     0.029 A 
ATOM     51  N   UNL A   1      42.421  29.782  29.729  1.00  0.00    -0.354 N 
ATOM     52  N   UNL A   1      45.208  28.918  29.823  1.00  0.00    -0.248 NA
ATOM     53  C   UNL A   1      47.474  29.390  30.144  1.00  0.00     0.031 C 
ATOM     54  C   UNL A   1      41.932  31.848  30.390  1.00  0.00     0.029 A 
ATOM     55  C   UNL A   1      42.979  30.963  30.188  1.00  0.00     0.049 A 
ATOM     56  H   UNL A   1      42.926  28.968  29.502  1.00  0.00     0.167 HD
ATOM     57  C   UNL A   1      45.347  30.241  30.217  1.00  0.00     0.074 A 
ATOM     58  C   UNL A   1      46.761  30.471  30.429  1.00  0.00     0.031 C 
ATOM     59  C   UNL A   1      44.388  31.183  30.385  1.00  0.00     0.031 A 
BRANCH  46  60
ATOM     60  C   UNL A   1      38.693  29.234  29.028  1.00  0.00    -0.014 A 
ATOM     61  C   UNL A   1      37.816  29.104  30.117  1.00  0.00     0.009 A 
ATOM     62  C   UNL A   1      38.198  29.735  27.814  1.00  0.00     0.009 A 
ATOM     63  C   UNL A   1      36.467  29.437  29.983  1.00  0.00     0.001 A 
ATOM     64  C   UNL A   1      36.854  30.091  27.689  1.00  0.00     0.001 A 
ATOM     65  C   UNL A   1      35.989  29.934  28.770  1.00  0.00     0.000 A 
ENDBRANCH  46  60
BRANCH  47  66
ATOM     66  C   UNL A   1      48.309  26.675  29.479  1.00  0.00    -0.014 A 
ATOM     67  C   UNL A   1      48.876  26.132  30.642  1.00  0.00     0.009 A 
ATOM     68  C   UNL A   1      49.127  26.879  28.357  1.00  0.00     0.009 A 
ATOM     69  C   UNL A   1      50.237  25.823  30.687  1.00  0.00     0.001 A 
ATOM     70  C   UNL A   1      50.481  26.544  28.396  1.00  0.00     0.001 A 
ATOM     71  C   UNL A   1      51.038  26.025  29.564  1.00  0.00     0.000 A 
ENDBRANCH  47  66
BRANCH  59  72
ATOM     72  C   UNL A   1      44.834  32.545  30.833  1.00  0.00    -0.014 A 
ATOM     73  C   UNL A   1      45.131  33.551  29.900  1.00  0.00     0.009 A 
ATOM     74  C   UNL A   1      44.917  32.838  32.202  1.00  0.00     0.009 A 
ATOM     75  C   UNL A   1      45.526  34.819  30.332  1.00  0.00     0.001 A 
ATOM     76  C   UNL A   1      45.287  34.113  32.632  1.00  0.00     0.001 A 
ATOM     77  C   UNL A   1      45.598  35.100  31.696  1.00  0.00     0.000 A 
ENDBRANCH  59  72
ENDBRANCH  33  34
ENDBRANCH  25  28
ENDBRANCH  23  24
ENDBRANCH   1  23
TORSDOF 12
ENDMDL
