MODEL 1
REMARK VINA RESULT:     -11.9      0.000      0.000
REMARK SMILES CCc1ncc(C[N@H+]2CCC[C@@H](c3cccc(C(=O)NCCCCNC(=O)c4ccc(-c5c6nc(c(-c7ccccc7)c7ccc([nH]7)c(-c7ccccc7)c7nc(c(-c8ccccc8)c8ccc5[nH]8)C=C7)C=C6)cc4)c3)C2)cn1
REMARK SMILES IDX 21 1 20 2 18 3 19 4 17 6 13 7 14 8 76 9 15 10 16 11 12 12
REMARK SMILES IDX 8 13 9 14 77 15 10 17 11 18 7 19 6 20 3 21 4 22 79 23 5 24
REMARK SMILES IDX 78 25 2 26 1 27 22 28 23 29 24 30 25 31 26 32 27 34 28 35
REMARK SMILES IDX 29 36 75 37 30 38 74 39 31 40 32 41 33 42 68 43 34 44 73 45
REMARK SMILES IDX 67 46 69 47 35 48 72 49 66 50 65 51 36 53 58 54 43 55 57 56
REMARK SMILES IDX 44 57 47 58 56 59 70 60 45 61 46 62 55 64 71 65 48 66 37 67
REMARK SMILES IDX 38 68 42 69 39 70 41 71 40 72 59 73 60 74 64 75 61 76 63 77
REMARK SMILES IDX 62 78 49 79 50 80 54 81 51 82 53 83 52 84
REMARK H PARENT 20 5 8 16 25 33 69 52 47 63
REMARK Flexibility Score: inf
ROOT
ATOM      1  C   UNL A   1      32.089  30.638  26.205  1.00  0.00     0.116 C 
ENDROOT
BRANCH   1   2
ATOM      2  N   UNL A   1      31.038  30.834  25.216  1.00  0.00    -0.352 N 
ATOM      3  C   UNL A   1      30.676  30.088  24.109  1.00  0.00     0.251 C 
ATOM      4  O   UNL A   1      29.720  30.465  23.433  1.00  0.00    -0.269 OA
ATOM      5  H   UNL A   1      30.490  31.639  25.359  1.00  0.00     0.163 HD
BRANCH   3   6
ATOM      6  C   UNL A   1      31.456  28.898  23.668  1.00  0.00     0.040 A 
ATOM      7  C   UNL A   1      31.922  26.530  23.890  1.00  0.00    -0.039 A 
ATOM      8  C   UNL A   1      33.166  26.721  23.280  1.00  0.00     0.004 A 
ATOM      9  C   UNL A   1      31.022  27.599  23.915  1.00  0.00     0.018 A 
ATOM     10  C   UNL A   1      33.536  27.989  22.827  1.00  0.00     0.001 A 
ATOM     11  C   UNL A   1      32.704  29.086  23.064  1.00  0.00     0.014 A 
BRANCH   7  12
ATOM     12  C   UNL A   1      31.516  25.252  24.602  1.00  0.00     0.074 C 
ATOM     13  N   UNL A   1      32.380  23.185  25.687  1.00  0.00    -0.331 N 
ATOM     14  C   UNL A   1      31.547  23.432  26.872  1.00  0.00     0.262 C 
ATOM     15  C   UNL A   1      32.743  24.439  25.008  1.00  0.00     0.270 C 
ATOM     16  H   UNL A   1      31.804  22.648  25.040  1.00  0.00     0.348 HD
ATOM     17  C   UNL A   1      30.265  24.180  26.500  1.00  0.00     0.062 C 
ATOM     18  C   UNL A   1      30.584  25.497  25.799  1.00  0.00     0.020 C 
BRANCH  13  19
ATOM     19  C   UNL A   1      33.555  22.336  25.967  1.00  0.00     0.302 C 
BRANCH  19  20
ATOM     20  C   UNL A   1      33.479  20.932  25.445  1.00  0.00     0.043 A 
ATOM     21  C   UNL A   1      33.350  18.508  24.232  1.00  0.00     0.127 A 
ATOM     22  N   UNL A   1      34.565  18.966  24.589  1.00  0.00    -0.241 NA
ATOM     23  N   UNL A   1      32.191  19.145  24.475  1.00  0.00    -0.241 NA
ATOM     24  C   UNL A   1      34.598  20.168  25.196  1.00  0.00     0.124 A 
ATOM     25  C   UNL A   1      32.285  20.337  25.089  1.00  0.00     0.124 A 
BRANCH  21  26
ATOM     26  C   UNL A   1      33.285  17.247  23.420  1.00  0.00     0.074 C 
ATOM     27  C   UNL A   1      34.217  16.186  23.989  1.00  0.00     0.012 C 
ENDBRANCH  21  26
ENDBRANCH  19  20
ENDBRANCH  13  19
ENDBRANCH   7  12
ENDBRANCH   3   6
ENDBRANCH   1   2
BRANCH   1  28
ATOM     28  C   UNL A   1      31.977  29.372  27.038  1.00  0.00     0.023 C 
BRANCH  28  29
ATOM     29  C   UNL A   1      33.221  28.505  27.124  1.00  0.00     0.023 C 
BRANCH  29  30
ATOM     30  C   UNL A   1      34.548  29.247  27.201  1.00  0.00     0.116 C 
BRANCH  30  31
ATOM     31  N   UNL A   1      34.636  30.194  28.302  1.00  0.00    -0.352 N 
ATOM     32  C   UNL A   1      35.691  30.483  29.140  1.00  0.00     0.251 C 
ATOM     33  H   UNL A   1      33.816  30.708  28.475  1.00  0.00     0.163 HD
ATOM     34  O   UNL A   1      35.540  31.267  30.064  1.00  0.00    -0.269 OA
BRANCH  32  35
ATOM     35  C   UNL A   1      36.995  29.805  28.954  1.00  0.00     0.039 A 
ATOM     36  C   UNL A   1      37.606  29.871  27.699  1.00  0.00     0.014 A 
ATOM     37  C   UNL A   1      37.626  29.132  30.003  1.00  0.00     0.014 A 
ATOM     38  C   UNL A   1      38.885  29.339  27.525  1.00  0.00     0.010 A 
ATOM     39  C   UNL A   1      38.937  28.687  29.854  1.00  0.00     0.010 A 
ATOM     40  C   UNL A   1      39.583  28.789  28.614  1.00  0.00    -0.014 A 
BRANCH  40  41
ATOM     41  C   UNL A   1      40.996  28.355  28.461  1.00  0.00     0.031 A 
ATOM     42  C   UNL A   1      41.335  26.928  28.126  1.00  0.00     0.074 A 
ATOM     43  C   UNL A   1      41.984  29.251  28.658  1.00  0.00     0.049 A 
ATOM     44  N   UNL A   1      42.510  26.393  27.903  1.00  0.00    -0.248 NA
ATOM     45  C   UNL A   1      40.219  25.974  28.056  1.00  0.00     0.031 C 
ATOM     46  C   UNL A   1      41.793  30.650  29.055  1.00  0.00     0.029 A 
ATOM     47  N   UNL A   1      43.345  29.126  28.539  1.00  0.00    -0.354 N 
ATOM     48  C   UNL A   1      42.273  25.044  27.670  1.00  0.00     0.074 A 
ATOM     49  C   UNL A   1      40.852  24.830  27.842  1.00  0.00     0.031 C 
ATOM     50  C   UNL A   1      42.987  31.263  29.092  1.00  0.00     0.029 A 
ATOM     51  C   UNL A   1      44.027  30.297  28.760  1.00  0.00     0.049 A 
ATOM     52  H   UNL A   1      43.790  28.275  28.316  1.00  0.00     0.167 HD
ATOM     53  C   UNL A   1      43.152  24.074  27.323  1.00  0.00     0.031 A 
ATOM     54  C   UNL A   1      45.344  30.569  28.693  1.00  0.00     0.031 A 
ATOM     55  C   UNL A   1      44.566  24.284  27.156  1.00  0.00     0.049 A 
ATOM     56  C   UNL A   1      46.297  29.477  28.299  1.00  0.00     0.074 A 
ATOM     57  C   UNL A   1      45.532  23.378  26.754  1.00  0.00     0.029 A 
ATOM     58  N   UNL A   1      45.219  25.484  27.392  1.00  0.00    -0.354 N 
ATOM     59  N   UNL A   1      46.045  28.227  27.994  1.00  0.00    -0.248 NA
ATOM     60  C   UNL A   1      47.718  29.842  28.219  1.00  0.00     0.031 C 
ATOM     61  C   UNL A   1      46.777  24.015  26.801  1.00  0.00     0.029 A 
ATOM     62  C   UNL A   1      46.579  25.335  27.169  1.00  0.00     0.049 A 
ATOM     63  H   UNL A   1      44.782  26.318  27.678  1.00  0.00     0.167 HD
ATOM     64  C   UNL A   1      47.270  27.663  27.665  1.00  0.00     0.074 A 
ATOM     65  C   UNL A   1      48.258  28.716  27.777  1.00  0.00     0.031 C 
ATOM     66  C   UNL A   1      47.554  26.387  27.302  1.00  0.00     0.031 A 
BRANCH  53  67
ATOM     67  C   UNL A   1      42.602  22.689  27.104  1.00  0.00    -0.014 A 
ATOM     68  C   UNL A   1      42.560  22.116  25.821  1.00  0.00     0.009 A 
ATOM     69  C   UNL A   1      42.153  21.933  28.197  1.00  0.00     0.009 A 
ATOM     70  C   UNL A   1      42.042  20.832  25.634  1.00  0.00     0.001 A 
ATOM     71  C   UNL A   1      41.667  20.637  28.012  1.00  0.00     0.001 A 
ATOM     72  C   UNL A   1      41.603  20.092  26.730  1.00  0.00     0.000 A 
ENDBRANCH  53  67
BRANCH  54  73
ATOM     73  C   UNL A   1      45.839  31.943  28.972  1.00  0.00    -0.014 A 
ATOM     74  C   UNL A   1      45.992  32.394  30.293  1.00  0.00     0.009 A 
ATOM     75  C   UNL A   1      46.151  32.817  27.919  1.00  0.00     0.009 A 
ATOM     76  C   UNL A   1      46.415  33.700  30.552  1.00  0.00     0.001 A 
ATOM     77  C   UNL A   1      46.605  34.111  28.181  1.00  0.00     0.001 A 
ATOM     78  C   UNL A   1      46.726  34.555  29.496  1.00  0.00     0.000 A 
ENDBRANCH  54  73
BRANCH  66  79
ATOM     79  C   UNL A   1      48.990  26.078  26.978  1.00  0.00    -0.014 A 
ATOM     80  C   UNL A   1      49.498  26.233  25.679  1.00  0.00     0.009 A 
ATOM     81  C   UNL A   1      49.847  25.619  27.991  1.00  0.00     0.009 A 
ATOM     82  C   UNL A   1      50.818  25.879  25.388  1.00  0.00     0.001 A 
ATOM     83  C   UNL A   1      51.176  25.300  27.706  1.00  0.00     0.001 A 
ATOM     84  C   UNL A   1      51.654  25.415  26.402  1.00  0.00     0.000 A 
ENDBRANCH  66  79
ENDBRANCH  40  41
ENDBRANCH  32  35
ENDBRANCH  30  31
ENDBRANCH  29  30
ENDBRANCH  28  29
ENDBRANCH   1  28
TORSDOF 15
ENDMDL
MODEL 2
REMARK VINA RESULT:     -11.8      2.886      8.699
REMARK SMILES CCc1ncc(C[N@H+]2CCC[C@@H](c3cccc(C(=O)NCCCCNC(=O)c4ccc(-c5c6nc(c(-c7ccccc7)c7ccc([nH]7)c(-c7ccccc7)c7nc(c(-c8ccccc8)c8ccc5[nH]8)C=C7)C=C6)cc4)c3)C2)cn1
REMARK SMILES IDX 21 1 20 2 18 3 19 4 17 6 13 7 14 8 76 9 15 10 16 11 12 12
REMARK SMILES IDX 8 13 9 14 77 15 10 17 11 18 7 19 6 20 3 21 4 22 79 23 5 24
REMARK SMILES IDX 78 25 2 26 1 27 22 28 23 29 24 30 25 31 26 32 27 34 28 35
REMARK SMILES IDX 29 36 75 37 30 38 74 39 31 40 32 41 33 42 68 43 34 44 73 45
REMARK SMILES IDX 67 46 69 47 35 48 72 49 66 50 65 51 36 53 58 54 43 55 57 56
REMARK SMILES IDX 44 57 47 58 56 59 70 60 45 61 46 62 55 64 71 65 48 66 37 67
REMARK SMILES IDX 38 68 42 69 39 70 41 71 40 72 59 73 60 74 64 75 61 76 63 77
REMARK SMILES IDX 62 78 49 79 50 80 54 81 51 82 53 83 52 84
REMARK H PARENT 20 5 8 16 25 33 69 52 47 63
REMARK Flexibility Score: inf
ROOT
ATOM      1  C   UNL A   1      38.110  23.674  26.000  1.00  0.00     0.116 C 
ENDROOT
BRANCH   1   2
ATOM      2  N   UNL A   1      37.698  23.486  24.616  1.00  0.00    -0.352 N 
ATOM      3  C   UNL A   1      36.470  23.168  24.065  1.00  0.00     0.251 C 
ATOM      4  O   UNL A   1      36.380  23.084  22.841  1.00  0.00    -0.269 OA
ATOM      5  H   UNL A   1      38.420  23.604  23.958  1.00  0.00     0.163 HD
BRANCH   3   6
ATOM      6  C   UNL A   1      35.285  22.844  24.906  1.00  0.00     0.040 A 
ATOM      7  C   UNL A   1      33.173  23.547  25.866  1.00  0.00    -0.039 A 
ATOM      8  C   UNL A   1      33.280  22.540  26.829  1.00  0.00     0.004 A 
ATOM      9  C   UNL A   1      34.099  23.566  24.819  1.00  0.00     0.018 A 
ATOM     10  C   UNL A   1      34.364  21.659  26.806  1.00  0.00     0.001 A 
ATOM     11  C   UNL A   1      35.390  21.842  25.877  1.00  0.00     0.014 A 
BRANCH   7  12
ATOM     12  C   UNL A   1      32.159  24.675  25.929  1.00  0.00     0.074 C 
ATOM     13  N   UNL A   1      31.205  26.602  24.675  1.00  0.00    -0.331 N 
ATOM     14  C   UNL A   1      29.840  26.130  24.942  1.00  0.00     0.262 C 
ATOM     15  C   UNL A   1      32.167  25.490  24.636  1.00  0.00     0.270 C 
ATOM     16  H   UNL A   1      31.462  27.196  25.462  1.00  0.00     0.348 HD
ATOM     17  C   UNL A   1      29.769  25.371  26.269  1.00  0.00     0.062 C 
ATOM     18  C   UNL A   1      30.742  24.196  26.282  1.00  0.00     0.020 C 
BRANCH  13  19
ATOM     19  C   UNL A   1      31.299  27.468  23.482  1.00  0.00     0.302 C 
BRANCH  19  20
ATOM     20  C   UNL A   1      30.308  28.592  23.418  1.00  0.00     0.043 A 
ATOM     21  C   UNL A   1      28.687  30.745  23.100  1.00  0.00     0.127 A 
ATOM     22  N   UNL A   1      28.411  29.641  22.379  1.00  0.00    -0.241 NA
ATOM     23  N   UNL A   1      29.681  30.842  24.001  1.00  0.00    -0.241 NA
ATOM     24  C   UNL A   1      29.228  28.585  22.563  1.00  0.00     0.124 A 
ATOM     25  C   UNL A   1      30.459  29.755  24.147  1.00  0.00     0.124 A 
BRANCH  21  26
ATOM     26  C   UNL A   1      27.896  31.988  22.811  1.00  0.00     0.074 C 
ATOM     27  C   UNL A   1      28.101  32.440  21.372  1.00  0.00     0.012 C 
ENDBRANCH  21  26
ENDBRANCH  19  20
ENDBRANCH  13  19
ENDBRANCH   7  12
ENDBRANCH   3   6
ENDBRANCH   1   2
BRANCH   1  28
ATOM     28  C   UNL A   1      39.079  22.636  26.542  1.00  0.00     0.023 C 
BRANCH  28  29
ATOM     29  C   UNL A   1      39.275  21.387  25.699  1.00  0.00     0.023 C 
BRANCH  29  30
ATOM     30  C   UNL A   1      39.678  20.128  26.455  1.00  0.00     0.116 C 
BRANCH  30  31
ATOM     31  N   UNL A   1      40.811  19.423  25.874  1.00  0.00    -0.352 N 
ATOM     32  C   UNL A   1      42.141  19.780  25.815  1.00  0.00     0.251 C 
ATOM     33  H   UNL A   1      40.594  18.558  25.460  1.00  0.00     0.163 HD
ATOM     34  O   UNL A   1      42.935  19.077  25.210  1.00  0.00    -0.269 OA
BRANCH  32  35
ATOM     35  C   UNL A   1      42.600  21.042  26.440  1.00  0.00     0.039 A 
ATOM     36  C   UNL A   1      43.134  22.037  25.618  1.00  0.00     0.014 A 
ATOM     37  C   UNL A   1      42.485  21.261  27.816  1.00  0.00     0.014 A 
ATOM     38  C   UNL A   1      43.470  23.277  26.162  1.00  0.00     0.010 A 
ATOM     39  C   UNL A   1      42.729  22.528  28.340  1.00  0.00     0.010 A 
ATOM     40  C   UNL A   1      43.222  23.551  27.518  1.00  0.00    -0.014 A 
BRANCH  40  41
ATOM     41  C   UNL A   1      43.444  24.915  28.064  1.00  0.00     0.031 A 
ATOM     42  C   UNL A   1      44.829  25.398  28.399  1.00  0.00     0.074 A 
ATOM     43  C   UNL A   1      42.383  25.715  28.288  1.00  0.00     0.049 A 
ATOM     44  N   UNL A   1      45.208  26.576  28.830  1.00  0.00    -0.248 NA
ATOM     45  C   UNL A   1      45.928  24.431  28.256  1.00  0.00     0.031 C 
ATOM     46  C   UNL A   1      40.981  25.343  28.071  1.00  0.00     0.029 A 
ATOM     47  N   UNL A   1      42.314  27.010  28.736  1.00  0.00    -0.354 N 
ATOM     48  C   UNL A   1      46.582  26.489  29.013  1.00  0.00     0.074 A 
ATOM     49  C   UNL A   1      46.962  25.126  28.706  1.00  0.00     0.031 C 
ATOM     50  C   UNL A   1      40.199  26.403  28.333  1.00  0.00     0.029 A 
ATOM     51  C   UNL A   1      41.037  27.514  28.772  1.00  0.00     0.049 A 
ATOM     52  H   UNL A   1      43.106  27.529  29.006  1.00  0.00     0.167 HD
ATOM     53  C   UNL A   1      47.454  27.458  29.378  1.00  0.00     0.031 A 
ATOM     54  C   UNL A   1      40.587  28.737  29.109  1.00  0.00     0.031 A 
ATOM     55  C   UNL A   1      47.077  28.812  29.688  1.00  0.00     0.049 A 
ATOM     56  C   UNL A   1      41.576  29.796  29.505  1.00  0.00     0.074 A 
ATOM     57  C   UNL A   1      47.893  29.881  30.017  1.00  0.00     0.029 A 
ATOM     58  N   UNL A   1      45.774  29.282  29.716  1.00  0.00    -0.354 N 
ATOM     59  N   UNL A   1      42.883  29.721  29.585  1.00  0.00    -0.248 NA
ATOM     60  C   UNL A   1      41.026  31.117  29.838  1.00  0.00     0.031 C 
ATOM     61  C   UNL A   1      47.078  30.983  30.298  1.00  0.00     0.029 A 
ATOM     62  C   UNL A   1      45.759  30.619  30.081  1.00  0.00     0.049 A 
ATOM     63  H   UNL A   1      44.975  28.745  29.508  1.00  0.00     0.167 HD
ATOM     64  C   UNL A   1      43.312  30.989  29.954  1.00  0.00     0.074 A 
ATOM     65  C   UNL A   1      42.129  31.819  30.050  1.00  0.00     0.031 C 
ATOM     66  C   UNL A   1      44.573  31.428  30.192  1.00  0.00     0.031 A 
BRANCH  53  67
ATOM     67  C   UNL A   1      48.909  27.081  29.468  1.00  0.00    -0.014 A 
ATOM     68  C   UNL A   1      49.468  26.611  30.670  1.00  0.00     0.009 A 
ATOM     69  C   UNL A   1      49.726  27.161  28.330  1.00  0.00     0.009 A 
ATOM     70  C   UNL A   1      50.820  26.270  30.738  1.00  0.00     0.001 A 
ATOM     71  C   UNL A   1      51.070  26.788  28.393  1.00  0.00     0.001 A 
ATOM     72  C   UNL A   1      51.618  26.353  29.598  1.00  0.00     0.000 A 
ENDBRANCH  53  67
BRANCH  54  73
ATOM     73  C   UNL A   1      39.132  29.040  29.054  1.00  0.00    -0.014 A 
ATOM     74  C   UNL A   1      38.542  29.503  27.866  1.00  0.00     0.009 A 
ATOM     75  C   UNL A   1      38.326  28.879  30.191  1.00  0.00     0.009 A 
ATOM     76  C   UNL A   1      37.184  29.829  27.830  1.00  0.00     0.001 A 
ATOM     77  C   UNL A   1      36.962  29.173  30.142  1.00  0.00     0.001 A 
ATOM     78  C   UNL A   1      36.395  29.659  28.965  1.00  0.00     0.000 A 
ENDBRANCH  54  73
BRANCH  66  79
ATOM     79  C   UNL A   1      44.728  32.881  30.555  1.00  0.00    -0.014 A 
ATOM     80  C   UNL A   1      44.728  33.305  31.893  1.00  0.00     0.009 A 
ATOM     81  C   UNL A   1      44.871  33.839  29.539  1.00  0.00     0.009 A 
ATOM     82  C   UNL A   1      44.810  34.664  32.204  1.00  0.00     0.001 A 
ATOM     83  C   UNL A   1      44.988  35.193  29.853  1.00  0.00     0.001 A 
ATOM     84  C   UNL A   1      44.941  35.606  31.183  1.00  0.00     0.000 A 
ENDBRANCH  66  79
ENDBRANCH  40  41
ENDBRANCH  32  35
ENDBRANCH  30  31
ENDBRANCH  29  30
ENDBRANCH  28  29
ENDBRANCH   1  28
TORSDOF 15
ENDMDL
MODEL 3
REMARK VINA RESULT:     -11.7      4.036      5.735
REMARK SMILES CCc1ncc(C[N@H+]2CCC[C@@H](c3cccc(C(=O)NCCCCNC(=O)c4ccc(-c5c6nc(c(-c7ccccc7)c7ccc([nH]7)c(-c7ccccc7)c7nc(c(-c8ccccc8)c8ccc5[nH]8)C=C7)C=C6)cc4)c3)C2)cn1
REMARK SMILES IDX 21 1 20 2 18 3 19 4 17 6 13 7 14 8 76 9 15 10 16 11 12 12
REMARK SMILES IDX 8 13 9 14 77 15 10 17 11 18 7 19 6 20 3 21 4 22 79 23 5 24
REMARK SMILES IDX 78 25 2 26 1 27 22 28 23 29 24 30 25 31 26 32 27 34 28 35
REMARK SMILES IDX 29 36 75 37 30 38 74 39 31 40 32 41 33 42 68 43 34 44 73 45
REMARK SMILES IDX 67 46 69 47 35 48 72 49 66 50 65 51 36 53 58 54 43 55 57 56
REMARK SMILES IDX 44 57 47 58 56 59 70 60 45 61 46 62 55 64 71 65 48 66 37 67
REMARK SMILES IDX 38 68 42 69 39 70 41 71 40 72 59 73 60 74 64 75 61 76 63 77
REMARK SMILES IDX 62 78 49 79 50 80 54 81 51 82 53 83 52 84
REMARK H PARENT 20 5 8 16 25 33 69 52 47 63
REMARK Flexibility Score: inf
ROOT
ATOM      1  C   UNL A   1      34.819  29.404  27.192  1.00  0.00     0.116 C 
ENDROOT
BRANCH   1   2
ATOM      2  N   UNL A   1      34.416  29.490  25.795  1.00  0.00    -0.352 N 
ATOM      3  C   UNL A   1      33.494  28.764  25.065  1.00  0.00     0.251 C 
ATOM      4  O   UNL A   1      33.324  29.052  23.881  1.00  0.00    -0.269 OA
ATOM      5  H   UNL A   1      34.884  30.186  25.280  1.00  0.00     0.163 HD
BRANCH   3   6
ATOM      6  C   UNL A   1      32.768  27.599  25.643  1.00  0.00     0.040 A 
ATOM      7  C   UNL A   1      32.660  25.208  26.022  1.00  0.00    -0.039 A 
ATOM      8  C   UNL A   1      31.284  25.309  26.246  1.00  0.00     0.004 A 
ATOM      9  C   UNL A   1      33.401  26.386  25.894  1.00  0.00     0.018 A 
ATOM     10  C   UNL A   1      30.658  26.556  26.211  1.00  0.00     0.001 A 
ATOM     11  C   UNL A   1      31.389  27.694  25.861  1.00  0.00     0.014 A 
BRANCH   7  12
ATOM     12  C   UNL A   1      33.393  23.892  25.829  1.00  0.00     0.074 C 
ATOM     13  N   UNL A   1      33.377  21.739  24.580  1.00  0.00    -0.331 N 
ATOM     14  C   UNL A   1      34.786  21.919  24.205  1.00  0.00     0.262 C 
ATOM     15  C   UNL A   1      32.698  23.029  24.777  1.00  0.00     0.270 C 
ATOM     16  H   UNL A   1      33.379  21.258  25.479  1.00  0.00     0.348 HD
ATOM     17  C   UNL A   1      35.542  22.716  25.271  1.00  0.00     0.062 C 
ATOM     18  C   UNL A   1      34.886  24.072  25.510  1.00  0.00     0.020 C 
BRANCH  13  19
ATOM     19  C   UNL A   1      32.639  20.850  23.660  1.00  0.00     0.302 C 
BRANCH  19  20
ATOM     20  C   UNL A   1      32.668  19.391  24.007  1.00  0.00     0.043 A 
ATOM     21  C   UNL A   1      33.009  16.775  24.643  1.00  0.00     0.127 A 
ATOM     22  N   UNL A   1      32.799  17.643  25.652  1.00  0.00    -0.241 NA
ATOM     23  N   UNL A   1      33.016  17.105  23.340  1.00  0.00    -0.241 NA
ATOM     24  C   UNL A   1      32.625  18.933  25.306  1.00  0.00     0.124 A 
ATOM     25  C   UNL A   1      32.831  18.406  23.055  1.00  0.00     0.124 A 
BRANCH  21  26
ATOM     26  C   UNL A   1      33.358  15.358  24.997  1.00  0.00     0.074 C 
ATOM     27  C   UNL A   1      32.312  14.757  25.925  1.00  0.00     0.012 C 
ENDBRANCH  21  26
ENDBRANCH  19  20
ENDBRANCH  13  19
ENDBRANCH   7  12
ENDBRANCH   3   6
ENDBRANCH   1   2
BRANCH   1  28
ATOM     28  C   UNL A   1      34.627  30.672  28.008  1.00  0.00     0.023 C 
BRANCH  28  29
ATOM     29  C   UNL A   1      33.354  31.459  27.747  1.00  0.00     0.023 C 
BRANCH  29  30
ATOM     30  C   UNL A   1      33.539  32.856  27.170  1.00  0.00     0.116 C 
BRANCH  30  31
ATOM     31  N   UNL A   1      32.979  33.918  27.993  1.00  0.00    -0.352 N 
ATOM     32  C   UNL A   1      33.430  34.449  29.182  1.00  0.00     0.251 C 
ATOM     33  H   UNL A   1      32.151  34.319  27.647  1.00  0.00     0.163 HD
ATOM     34  O   UNL A   1      32.769  35.296  29.762  1.00  0.00    -0.269 OA
BRANCH  32  35
ATOM     35  C   UNL A   1      34.691  33.957  29.784  1.00  0.00     0.039 A 
ATOM     36  C   UNL A   1      34.612  33.086  30.874  1.00  0.00     0.014 A 
ATOM     37  C   UNL A   1      35.938  34.323  29.272  1.00  0.00     0.014 A 
ATOM     38  C   UNL A   1      35.778  32.518  31.390  1.00  0.00     0.010 A 
ATOM     39  C   UNL A   1      37.090  33.683  29.725  1.00  0.00     0.010 A 
ATOM     40  C   UNL A   1      37.022  32.771  30.787  1.00  0.00    -0.014 A 
BRANCH  40  41
ATOM     41  C   UNL A   1      38.240  32.054  31.245  1.00  0.00     0.031 A 
ATOM     42  C   UNL A   1      38.725  30.821  30.533  1.00  0.00     0.074 A 
ATOM     43  C   UNL A   1      38.898  32.503  32.332  1.00  0.00     0.049 A 
ATOM     44  N   UNL A   1      39.799  30.106  30.764  1.00  0.00    -0.248 NA
ATOM     45  C   UNL A   1      37.889  30.308  29.438  1.00  0.00     0.031 C 
ATOM     46  C   UNL A   1      38.494  33.648  33.154  1.00  0.00     0.029 A 
ATOM     47  N   UNL A   1      40.053  32.062  32.927  1.00  0.00    -0.354 N 
ATOM     48  C   UNL A   1      39.762  29.062  29.849  1.00  0.00     0.074 A 
ATOM     49  C   UNL A   1      38.531  29.199  29.101  1.00  0.00     0.031 C 
ATOM     50  C   UNL A   1      39.415  33.849  34.110  1.00  0.00     0.029 A 
ATOM     51  C   UNL A   1      40.451  32.830  33.994  1.00  0.00     0.049 A 
ATOM     52  H   UNL A   1      40.549  31.268  32.619  1.00  0.00     0.167 HD
ATOM     53  C   UNL A   1      40.680  28.089  29.632  1.00  0.00     0.031 A 
ATOM     54  C   UNL A   1      41.536  32.734  34.786  1.00  0.00     0.031 A 
ATOM     55  C   UNL A   1      41.902  27.948  30.378  1.00  0.00     0.049 A 
ATOM     56  C   UNL A   1      42.541  31.649  34.520  1.00  0.00     0.074 A 
ATOM     57  C   UNL A   1      42.922  27.028  30.199  1.00  0.00     0.029 A 
ATOM     58  N   UNL A   1      42.268  28.744  31.452  1.00  0.00    -0.354 N 
ATOM     59  N   UNL A   1      42.536  30.724  33.591  1.00  0.00    -0.248 NA
ATOM     60  C   UNL A   1      43.715  31.611  35.402  1.00  0.00     0.031 C 
ATOM     61  C   UNL A   1      43.877  27.233  31.201  1.00  0.00     0.029 A 
ATOM     62  C   UNL A   1      43.485  28.321  31.963  1.00  0.00     0.049 A 
ATOM     63  H   UNL A   1      41.740  29.498  31.802  1.00  0.00     0.167 HD
ATOM     64  C   UNL A   1      43.714  30.010  33.762  1.00  0.00     0.074 A 
ATOM     65  C   UNL A   1      44.422  30.630  34.863  1.00  0.00     0.031 C 
ATOM     66  C   UNL A   1      44.170  28.936  33.071  1.00  0.00     0.031 A 
BRANCH  53  67
ATOM     67  C   UNL A   1      40.387  27.094  28.540  1.00  0.00    -0.014 A 
ATOM     68  C   UNL A   1      40.898  27.266  27.242  1.00  0.00     0.009 A 
ATOM     69  C   UNL A   1      39.621  25.952  28.819  1.00  0.00     0.009 A 
ATOM     70  C   UNL A   1      40.613  26.337  26.239  1.00  0.00     0.001 A 
ATOM     71  C   UNL A   1      39.366  25.008  27.823  1.00  0.00     0.001 A 
ATOM     72  C   UNL A   1      39.853  25.206  26.532  1.00  0.00     0.000 A 
ENDBRANCH  53  67
BRANCH  54  73
ATOM     73  C   UNL A   1      41.748  33.712  35.885  1.00  0.00    -0.014 A 
ATOM     74  C   UNL A   1      42.443  34.909  35.653  1.00  0.00     0.009 A 
ATOM     75  C   UNL A   1      41.265  33.450  37.177  1.00  0.00     0.009 A 
ATOM     76  C   UNL A   1      42.679  35.806  36.698  1.00  0.00     0.001 A 
ATOM     77  C   UNL A   1      41.474  34.364  38.212  1.00  0.00     0.001 A 
ATOM     78  C   UNL A   1      42.190  35.535  37.974  1.00  0.00     0.000 A 
ENDBRANCH  54  73
BRANCH  66  79
ATOM     79  C   UNL A   1      45.511  28.386  33.478  1.00  0.00    -0.014 A 
ATOM     80  C   UNL A   1      46.704  28.904  32.952  1.00  0.00     0.009 A 
ATOM     81  C   UNL A   1      45.577  27.330  34.401  1.00  0.00     0.009 A 
ATOM     82  C   UNL A   1      47.934  28.336  33.297  1.00  0.00     0.001 A 
ATOM     83  C   UNL A   1      46.808  26.788  34.771  1.00  0.00     0.001 A 
ATOM     84  C   UNL A   1      47.983  27.280  34.206  1.00  0.00     0.000 A 
ENDBRANCH  66  79
ENDBRANCH  40  41
ENDBRANCH  32  35
ENDBRANCH  30  31
ENDBRANCH  29  30
ENDBRANCH  28  29
ENDBRANCH   1  28
TORSDOF 15
ENDMDL
