MODEL 1
REMARK VINA RESULT:     -11.4      0.000      0.000
REMARK SMILES C[N@@H+]1CC[N@H+](Cc2ccc(C#CC(C)(C)O)s2)C[C@H]1C(=O)NCCCCNC(=O)c1ccc(-c2c3nc(c(-c4ccccc4)c4ccc([nH]4)c(-c4ccccc4)c4nc(c(-c5ccccc5)c5ccc2[nH]5)C=C4)C=C3)cc1
REMARK SMILES IDX 23 1 22 2 20 3 21 4 19 6 1 7 2 8 3 9 4 11 18 12 5 13 6 15
REMARK SMILES IDX 7 16 8 17 17 18 9 19 10 20 11 21 12 22 13 23 14 24 15 25
REMARK SMILES IDX 16 26 24 28 25 29 26 30 27 31 28 32 29 34 30 35 31 36 77 37
REMARK SMILES IDX 32 38 76 39 33 40 34 41 35 42 70 43 36 44 75 45 69 46 71 47
REMARK SMILES IDX 37 48 74 49 68 50 67 51 38 53 60 54 45 55 59 56 46 57 49 58
REMARK SMILES IDX 58 59 72 60 47 61 48 62 57 64 73 65 50 66 39 67 40 68 44 69
REMARK SMILES IDX 41 70 43 71 42 72 61 73 62 74 66 75 63 76 65 77 64 78 51 79
REMARK SMILES IDX 52 80 56 81 53 82 55 83 54 84
REMARK H PARENT 22 5 2 10 5 14 16 27 27 33 71 52 49 63
REMARK Flexibility Score: inf
ROOT
ATOM      1  C   UNL A   1      33.850  28.947  26.378  1.00  0.00     0.116 C 
ENDROOT
BRANCH   1   2
ATOM      2  N   UNL A   1      34.083  29.224  24.973  1.00  0.00    -0.351 N 
ATOM      3  C   UNL A   1      33.612  28.553  23.878  1.00  0.00     0.284 C 
ATOM      4  O   UNL A   1      33.961  28.958  22.764  1.00  0.00    -0.268 OA
ATOM      5  H   UNL A   1      34.658  30.001  24.781  1.00  0.00     0.163 HD
BRANCH   3   6
ATOM      6  C   UNL A   1      32.642  27.362  24.028  1.00  0.00     0.329 C 
ATOM      7  C   UNL A   1      30.639  28.532  23.296  1.00  0.00     0.333 C 
ATOM      8  N   UNL A   1      31.564  27.430  23.001  1.00  0.00    -0.318 N 
ATOM      9  C   UNL A   1      30.827  26.164  22.897  1.00  0.00     0.325 C 
ATOM     10  H   UNL A   1      32.014  27.603  22.102  1.00  0.00     0.348 HD
ATOM     11  C   UNL A   1      31.701  24.888  22.884  1.00  0.00     0.324 C 
ATOM     12  C   UNL A   1      33.483  26.051  24.051  1.00  0.00     0.339 C 
ATOM     13  N   UNL A   1      32.750  24.783  23.904  1.00  0.00    -0.320 N 
ATOM     14  H   UNL A   1      33.418  24.103  23.542  1.00  0.00     0.348 HD
BRANCH  13  15
ATOM     15  C   UNL A   1      32.359  24.129  25.162  1.00  0.00     0.310 C 
BRANCH  15  16
ATOM     16  C   UNL A   1      33.003  22.802  25.402  1.00  0.00     0.060 A 
ATOM     17  C   UNL A   1      34.323  22.510  25.689  1.00  0.00     0.022 A 
ATOM     18  S   UNL A   1      32.063  21.368  25.341  1.00  0.00    -0.126 S 
ATOM     19  C   UNL A   1      34.606  21.127  25.492  1.00  0.00     0.029 A 
ATOM     20  C   UNL A   1      33.468  20.415  25.192  1.00  0.00     0.077 A 
BRANCH  20  21
ATOM     21  C   UNL A   1      33.417  19.028  24.917  1.00  0.00    -0.053 C 
ATOM     22  C   UNL A   1      33.685  17.763  24.748  1.00  0.00    -0.063 C 
BRANCH  22  23
ATOM     23  C   UNL A   1      33.998  16.289  24.552  1.00  0.00     0.120 C 
ATOM     24  C   UNL A   1      35.307  15.940  25.255  1.00  0.00     0.056 C 
ATOM     25  C   UNL A   1      32.842  15.441  25.077  1.00  0.00     0.056 C 
BRANCH  23  26
ATOM     26  O   UNL A   1      34.143  16.051  23.154  1.00  0.00    -0.378 OA
ATOM     27  H   UNL A   1      35.084  15.965  22.936  1.00  0.00     0.212 HD
ENDBRANCH  23  26
ENDBRANCH  22  23
ENDBRANCH  20  21
ENDBRANCH  15  16
ENDBRANCH  13  15
ENDBRANCH   3   6
ENDBRANCH   1   2
BRANCH   1  28
ATOM     28  C   UNL A   1      34.675  29.838  27.306  1.00  0.00     0.023 C 
BRANCH  28  29
ATOM     29  C   UNL A   1      34.056  31.198  27.645  1.00  0.00     0.023 C 
BRANCH  29  30
ATOM     30  C   UNL A   1      35.051  32.238  28.136  1.00  0.00     0.116 C 
BRANCH  30  31
ATOM     31  N   UNL A   1      34.924  32.518  29.562  1.00  0.00    -0.352 N 
ATOM     32  C   UNL A   1      35.555  31.879  30.613  1.00  0.00     0.251 C 
ATOM     33  H   UNL A   1      34.315  33.252  29.807  1.00  0.00     0.163 HD
ATOM     34  O   UNL A   1      35.124  31.946  31.750  1.00  0.00    -0.269 OA
BRANCH  32  35
ATOM     35  C   UNL A   1      36.779  31.110  30.324  1.00  0.00     0.039 A 
ATOM     36  C   UNL A   1      37.998  31.751  30.094  1.00  0.00     0.014 A 
ATOM     37  C   UNL A   1      36.688  29.721  30.326  1.00  0.00     0.014 A 
ATOM     38  C   UNL A   1      39.149  30.977  29.951  1.00  0.00     0.010 A 
ATOM     39  C   UNL A   1      37.833  28.968  30.319  1.00  0.00     0.010 A 
ATOM     40  C   UNL A   1      39.061  29.584  30.085  1.00  0.00    -0.014 A 
BRANCH  40  41
ATOM     41  C   UNL A   1      40.262  28.754  30.105  1.00  0.00     0.031 A 
ATOM     42  C   UNL A   1      40.867  28.546  31.452  1.00  0.00     0.074 A 
ATOM     43  C   UNL A   1      40.626  28.004  29.042  1.00  0.00     0.049 A 
ATOM     44  N   UNL A   1      42.057  28.856  31.848  1.00  0.00    -0.248 NA
ATOM     45  C   UNL A   1      40.004  28.015  32.523  1.00  0.00     0.031 C 
ATOM     46  C   UNL A   1      39.918  27.856  27.763  1.00  0.00     0.029 A 
ATOM     47  N   UNL A   1      41.623  27.084  28.936  1.00  0.00    -0.354 N 
ATOM     48  C   UNL A   1      42.166  28.384  33.157  1.00  0.00     0.074 A 
ATOM     49  C   UNL A   1      40.830  28.038  33.571  1.00  0.00     0.031 C 
ATOM     50  C   UNL A   1      40.340  26.734  27.140  1.00  0.00     0.029 A 
ATOM     51  C   UNL A   1      41.459  26.189  27.883  1.00  0.00     0.049 A 
ATOM     52  H   UNL A   1      42.392  27.055  29.549  1.00  0.00     0.167 HD
ATOM     53  C   UNL A   1      43.376  28.070  33.701  1.00  0.00     0.031 A 
ATOM     54  C   UNL A   1      42.165  25.054  27.659  1.00  0.00     0.031 A 
ATOM     55  C   UNL A   1      44.461  28.626  32.932  1.00  0.00     0.049 A 
ATOM     56  C   UNL A   1      43.412  25.143  28.447  1.00  0.00     0.074 A 
ATOM     57  C   UNL A   1      44.846  29.895  32.549  1.00  0.00     0.029 A 
ATOM     58  N   UNL A   1      45.141  27.763  32.105  1.00  0.00    -0.354 N 
ATOM     59  N   UNL A   1      44.360  26.000  28.197  1.00  0.00    -0.248 NA
ATOM     60  C   UNL A   1      43.416  24.579  29.787  1.00  0.00     0.031 C 
ATOM     61  C   UNL A   1      45.340  29.740  31.219  1.00  0.00     0.029 A 
ATOM     62  C   UNL A   1      45.296  28.383  30.897  1.00  0.00     0.049 A 
ATOM     63  H   UNL A   1      45.458  26.861  32.342  1.00  0.00     0.167 HD
ATOM     64  C   UNL A   1      44.786  26.423  29.447  1.00  0.00     0.074 A 
ATOM     65  C   UNL A   1      44.256  25.431  30.382  1.00  0.00     0.031 C 
ATOM     66  C   UNL A   1      45.274  27.686  29.631  1.00  0.00     0.031 A 
BRANCH  53  67
ATOM     67  C   UNL A   1      43.599  26.893  34.632  1.00  0.00    -0.014 A 
ATOM     68  C   UNL A   1      44.201  27.137  35.883  1.00  0.00     0.009 A 
ATOM     69  C   UNL A   1      43.542  25.549  34.219  1.00  0.00     0.009 A 
ATOM     70  C   UNL A   1      44.826  26.115  36.607  1.00  0.00     0.001 A 
ATOM     71  C   UNL A   1      44.125  24.518  34.963  1.00  0.00     0.001 A 
ATOM     72  C   UNL A   1      44.802  24.807  36.137  1.00  0.00     0.000 A 
ENDBRANCH  53  67
BRANCH  54  73
ATOM     73  C   UNL A   1      41.729  23.797  27.014  1.00  0.00    -0.014 A 
ATOM     74  C   UNL A   1      42.640  23.007  26.296  1.00  0.00     0.009 A 
ATOM     75  C   UNL A   1      40.480  23.233  27.332  1.00  0.00     0.009 A 
ATOM     76  C   UNL A   1      42.326  21.686  25.944  1.00  0.00     0.001 A 
ATOM     77  C   UNL A   1      40.165  21.916  26.978  1.00  0.00     0.001 A 
ATOM     78  C   UNL A   1      41.095  21.138  26.298  1.00  0.00     0.000 A 
ENDBRANCH  54  73
BRANCH  66  79
ATOM     79  C   UNL A   1      45.571  28.517  28.407  1.00  0.00    -0.014 A 
ATOM     80  C   UNL A   1      44.622  29.360  27.800  1.00  0.00     0.009 A 
ATOM     81  C   UNL A   1      46.896  28.570  27.952  1.00  0.00     0.009 A 
ATOM     82  C   UNL A   1      44.987  30.206  26.748  1.00  0.00     0.001 A 
ATOM     83  C   UNL A   1      47.263  29.431  26.916  1.00  0.00     0.001 A 
ATOM     84  C   UNL A   1      46.308  30.245  26.311  1.00  0.00     0.000 A 
ENDBRANCH  66  79
ENDBRANCH  40  41
ENDBRANCH  32  35
ENDBRANCH  30  31
ENDBRANCH  29  30
ENDBRANCH  28  29
ENDBRANCH   1  28
TORSDOF 16
ENDMDL
MODEL 2
REMARK VINA RESULT:     -10.9      2.618      6.308
REMARK SMILES C[N@@H+]1CC[N@H+](Cc2ccc(C#CC(C)(C)O)s2)C[C@H]1C(=O)NCCCCNC(=O)c1ccc(-c2c3nc(c(-c4ccccc4)c4ccc([nH]4)c(-c4ccccc4)c4nc(c(-c5ccccc5)c5ccc2[nH]5)C=C4)C=C3)cc1
REMARK SMILES IDX 23 1 22 2 20 3 21 4 19 6 1 7 2 8 3 9 4 11 18 12 5 13 6 15
REMARK SMILES IDX 7 16 8 17 17 18 9 19 10 20 11 21 12 22 13 23 14 24 15 25
REMARK SMILES IDX 16 26 24 28 25 29 26 30 27 31 28 32 29 34 30 35 31 36 77 37
REMARK SMILES IDX 32 38 76 39 33 40 34 41 35 42 70 43 36 44 75 45 69 46 71 47
REMARK SMILES IDX 37 48 74 49 68 50 67 51 38 53 60 54 45 55 59 56 46 57 49 58
REMARK SMILES IDX 58 59 72 60 47 61 48 62 57 64 73 65 50 66 39 67 40 68 44 69
REMARK SMILES IDX 41 70 43 71 42 72 61 73 62 74 66 75 63 76 65 77 64 78 51 79
REMARK SMILES IDX 52 80 56 81 53 82 55 83 54 84
REMARK H PARENT 22 5 2 10 5 14 16 27 27 33 71 52 49 63
REMARK Flexibility Score: inf
ROOT
ATOM      1  C   UNL A   1      33.320  29.517  26.649  1.00  0.00     0.116 C 
ENDROOT
BRANCH   1   2
ATOM      2  N   UNL A   1      32.860  29.761  25.294  1.00  0.00    -0.351 N 
ATOM      3  C   UNL A   1      32.516  28.854  24.330  1.00  0.00     0.284 C 
ATOM      4  O   UNL A   1      32.170  29.293  23.228  1.00  0.00    -0.268 OA
ATOM      5  H   UNL A   1      32.785  30.708  25.034  1.00  0.00     0.163 HD
BRANCH   3   6
ATOM      6  C   UNL A   1      32.516  27.339  24.622  1.00  0.00     0.329 C 
ATOM      7  C   UNL A   1      30.106  27.028  24.513  1.00  0.00     0.333 C 
ATOM      8  N   UNL A   1      31.395  26.666  23.908  1.00  0.00    -0.318 N 
ATOM      9  C   UNL A   1      31.554  25.206  23.891  1.00  0.00     0.325 C 
ATOM     10  H   UNL A   1      31.413  26.992  22.941  1.00  0.00     0.348 HD
ATOM     11  C   UNL A   1      32.977  24.700  23.557  1.00  0.00     0.324 C 
ATOM     12  C   UNL A   1      33.943  26.788  24.329  1.00  0.00     0.339 C 
ATOM     13  N   UNL A   1      34.096  25.324  24.269  1.00  0.00    -0.320 N 
ATOM     14  H   UNL A   1      34.921  25.144  23.698  1.00  0.00     0.348 HD
BRANCH  13  15
ATOM     15  C   UNL A   1      34.497  24.679  25.529  1.00  0.00     0.310 C 
BRANCH  15  16
ATOM     16  C   UNL A   1      34.900  23.246  25.395  1.00  0.00     0.060 A 
ATOM     17  C   UNL A   1      36.106  22.712  24.982  1.00  0.00     0.022 A 
ATOM     18  S   UNL A   1      33.787  22.001  25.787  1.00  0.00    -0.126 S 
ATOM     19  C   UNL A   1      35.978  21.333  24.649  1.00  0.00     0.029 A 
ATOM     20  C   UNL A   1      34.723  20.854  24.944  1.00  0.00     0.077 A 
BRANCH  20  21
ATOM     21  C   UNL A   1      34.272  19.534  24.708  1.00  0.00    -0.053 C 
ATOM     22  C   UNL A   1      34.156  18.239  24.599  1.00  0.00    -0.063 C 
BRANCH  22  23
ATOM     23  C   UNL A   1      34.019  16.731  24.473  1.00  0.00     0.120 C 
ATOM     24  C   UNL A   1      35.224  16.048  25.114  1.00  0.00     0.056 C 
ATOM     25  C   UNL A   1      32.713  16.274  25.118  1.00  0.00     0.056 C 
BRANCH  23  26
ATOM     26  O   UNL A   1      33.983  16.406  23.085  1.00  0.00    -0.378 OA
ATOM     27  H   UNL A   1      34.300  17.163  22.568  1.00  0.00     0.212 HD
ENDBRANCH  23  26
ENDBRANCH  22  23
ENDBRANCH  20  21
ENDBRANCH  15  16
ENDBRANCH  13  15
ENDBRANCH   3   6
ENDBRANCH   1   2
BRANCH   1  28
ATOM     28  C   UNL A   1      33.806  30.784  27.351  1.00  0.00     0.023 C 
BRANCH  28  29
ATOM     29  C   UNL A   1      32.717  31.796  27.723  1.00  0.00     0.023 C 
BRANCH  29  30
ATOM     30  C   UNL A   1      32.862  33.152  27.049  1.00  0.00     0.116 C 
BRANCH  30  31
ATOM     31  N   UNL A   1      32.485  34.262  27.918  1.00  0.00    -0.352 N 
ATOM     32  C   UNL A   1      33.027  34.604  29.142  1.00  0.00     0.251 C 
ATOM     33  H   UNL A   1      31.757  34.839  27.592  1.00  0.00     0.163 HD
ATOM     34  O   UNL A   1      32.425  35.310  29.931  1.00  0.00    -0.269 OA
BRANCH  32  35
ATOM     35  C   UNL A   1      34.370  34.094  29.475  1.00  0.00     0.039 A 
ATOM     36  C   UNL A   1      34.576  33.262  30.577  1.00  0.00     0.014 A 
ATOM     37  C   UNL A   1      35.421  34.439  28.630  1.00  0.00     0.014 A 
ATOM     38  C   UNL A   1      35.839  32.706  30.774  1.00  0.00     0.010 A 
ATOM     39  C   UNL A   1      36.623  33.789  28.746  1.00  0.00     0.010 A 
ATOM     40  C   UNL A   1      36.854  32.960  29.841  1.00  0.00    -0.014 A 
BRANCH  40  41
ATOM     41  C   UNL A   1      38.138  32.268  29.921  1.00  0.00     0.031 A 
ATOM     42  C   UNL A   1      38.124  30.850  29.460  1.00  0.00     0.074 A 
ATOM     43  C   UNL A   1      39.295  32.937  30.121  1.00  0.00     0.049 A 
ATOM     44  N   UNL A   1      38.431  29.790  30.132  1.00  0.00    -0.248 NA
ATOM     45  C   UNL A   1      37.611  30.568  28.107  1.00  0.00     0.031 C 
ATOM     46  C   UNL A   1      39.481  34.389  30.250  1.00  0.00     0.029 A 
ATOM     47  N   UNL A   1      40.574  32.476  30.090  1.00  0.00    -0.354 N 
ATOM     48  C   UNL A   1      38.340  28.723  29.237  1.00  0.00     0.074 A 
ATOM     49  C   UNL A   1      37.670  29.235  28.070  1.00  0.00     0.031 C 
ATOM     50  C   UNL A   1      40.774  34.701  30.015  1.00  0.00     0.029 A 
ATOM     51  C   UNL A   1      41.530  33.468  29.897  1.00  0.00     0.049 A 
ATOM     52  H   UNL A   1      40.803  31.525  30.195  1.00  0.00     0.167 HD
ATOM     53  C   UNL A   1      39.055  27.577  29.423  1.00  0.00     0.031 A 
ATOM     54  C   UNL A   1      42.844  33.294  29.615  1.00  0.00     0.031 A 
ATOM     55  C   UNL A   1      39.565  27.483  30.768  1.00  0.00     0.049 A 
ATOM     56  C   UNL A   1      43.195  31.905  29.979  1.00  0.00     0.074 A 
ATOM     57  C   UNL A   1      39.008  27.464  32.031  1.00  0.00     0.029 A 
ATOM     58  N   UNL A   1      40.895  27.781  30.949  1.00  0.00    -0.354 N 
ATOM     59  N   UNL A   1      43.210  31.464  31.204  1.00  0.00    -0.248 NA
ATOM     60  C   UNL A   1      43.099  30.883  28.948  1.00  0.00     0.031 C 
ATOM     61  C   UNL A   1      39.908  28.223  32.838  1.00  0.00     0.029 A 
ATOM     62  C   UNL A   1      40.991  28.598  32.041  1.00  0.00     0.049 A 
ATOM     63  H   UNL A   1      41.642  27.464  30.392  1.00  0.00     0.167 HD
ATOM     64  C   UNL A   1      42.673  30.189  31.123  1.00  0.00     0.074 A 
ATOM     65  C   UNL A   1      42.735  29.842  29.703  1.00  0.00     0.031 C 
ATOM     66  C   UNL A   1      41.965  29.658  32.165  1.00  0.00     0.031 A 
BRANCH  53  67
ATOM     67  C   UNL A   1      39.686  26.788  28.291  1.00  0.00    -0.014 A 
ATOM     68  C   UNL A   1      39.692  25.381  28.382  1.00  0.00     0.009 A 
ATOM     69  C   UNL A   1      40.536  27.354  27.322  1.00  0.00     0.009 A 
ATOM     70  C   UNL A   1      40.592  24.603  27.644  1.00  0.00     0.001 A 
ATOM     71  C   UNL A   1      41.404  26.575  26.550  1.00  0.00     0.001 A 
ATOM     72  C   UNL A   1      41.461  25.203  26.740  1.00  0.00     0.000 A 
ENDBRANCH  53  67
BRANCH  54  73
ATOM     73  C   UNL A   1      43.752  34.156  28.829  1.00  0.00    -0.014 A 
ATOM     74  C   UNL A   1      43.728  34.128  27.426  1.00  0.00     0.009 A 
ATOM     75  C   UNL A   1      44.452  35.205  29.452  1.00  0.00     0.009 A 
ATOM     76  C   UNL A   1      44.350  35.137  26.675  1.00  0.00     0.001 A 
ATOM     77  C   UNL A   1      45.075  36.210  28.704  1.00  0.00     0.001 A 
ATOM     78  C   UNL A   1      45.009  36.184  27.315  1.00  0.00     0.000 A 
ENDBRANCH  54  73
BRANCH  66  79
ATOM     79  C   UNL A   1      41.995  30.386  33.486  1.00  0.00    -0.014 A 
ATOM     80  C   UNL A   1      42.938  30.114  34.493  1.00  0.00     0.009 A 
ATOM     81  C   UNL A   1      41.145  31.489  33.650  1.00  0.00     0.009 A 
ATOM     82  C   UNL A   1      43.004  30.906  35.644  1.00  0.00     0.001 A 
ATOM     83  C   UNL A   1      41.226  32.292  34.789  1.00  0.00     0.001 A 
ATOM     84  C   UNL A   1      42.151  31.998  35.788  1.00  0.00     0.000 A 
ENDBRANCH  66  79
ENDBRANCH  40  41
ENDBRANCH  32  35
ENDBRANCH  30  31
ENDBRANCH  29  30
ENDBRANCH  28  29
ENDBRANCH   1  28
TORSDOF 16
ENDMDL
MODEL 3
REMARK VINA RESULT:     -10.2      5.319     10.189
REMARK SMILES C[N@@H+]1CC[N@H+](Cc2ccc(C#CC(C)(C)O)s2)C[C@H]1C(=O)NCCCCNC(=O)c1ccc(-c2c3nc(c(-c4ccccc4)c4ccc([nH]4)c(-c4ccccc4)c4nc(c(-c5ccccc5)c5ccc2[nH]5)C=C4)C=C3)cc1
REMARK SMILES IDX 23 1 22 2 20 3 21 4 19 6 1 7 2 8 3 9 4 11 18 12 5 13 6 15
REMARK SMILES IDX 7 16 8 17 17 18 9 19 10 20 11 21 12 22 13 23 14 24 15 25
REMARK SMILES IDX 16 26 24 28 25 29 26 30 27 31 28 32 29 34 30 35 31 36 77 37
REMARK SMILES IDX 32 38 76 39 33 40 34 41 35 42 70 43 36 44 75 45 69 46 71 47
REMARK SMILES IDX 37 48 74 49 68 50 67 51 38 53 60 54 45 55 59 56 46 57 49 58
REMARK SMILES IDX 58 59 72 60 47 61 48 62 57 64 73 65 50 66 39 67 40 68 44 69
REMARK SMILES IDX 41 70 43 71 42 72 61 73 62 74 66 75 63 76 65 77 64 78 51 79
REMARK SMILES IDX 52 80 56 81 53 82 55 83 54 84
REMARK H PARENT 22 5 2 10 5 14 16 27 27 33 71 52 49 63
REMARK Flexibility Score: inf
ROOT
ATOM      1  C   UNL A   1      46.774  25.741  26.780  1.00  0.00     0.116 C 
ENDROOT
BRANCH   1   2
ATOM      2  N   UNL A   1      46.816  26.660  25.658  1.00  0.00    -0.351 N 
ATOM      3  C   UNL A   1      45.849  27.524  25.222  1.00  0.00     0.284 C 
ATOM      4  O   UNL A   1      46.099  28.204  24.221  1.00  0.00    -0.268 OA
ATOM      5  H   UNL A   1      47.655  26.663  25.142  1.00  0.00     0.163 HD
BRANCH   3   6
ATOM      6  C   UNL A   1      44.514  27.677  25.980  1.00  0.00     0.329 C 
ATOM      7  C   UNL A   1      45.050  29.779  27.080  1.00  0.00     0.333 C 
ATOM      8  N   UNL A   1      44.154  29.115  26.124  1.00  0.00    -0.318 N 
ATOM      9  C   UNL A   1      42.755  29.291  26.536  1.00  0.00     0.325 C 
ATOM     10  H   UNL A   1      44.265  29.548  25.207  1.00  0.00     0.348 HD
ATOM     11  C   UNL A   1      41.730  28.402  25.792  1.00  0.00     0.324 C 
ATOM     12  C   UNL A   1      43.454  26.772  25.283  1.00  0.00     0.339 C 
ATOM     13  N   UNL A   1      42.046  26.976  25.664  1.00  0.00    -0.320 N 
ATOM     14  H   UNL A   1      41.485  26.639  24.883  1.00  0.00     0.348 HD
BRANCH  13  15
ATOM     15  C   UNL A   1      41.551  26.108  26.743  1.00  0.00     0.310 C 
BRANCH  15  16
ATOM     16  C   UNL A   1      42.276  24.808  26.880  1.00  0.00     0.060 A 
ATOM     17  C   UNL A   1      43.224  24.430  27.812  1.00  0.00     0.022 A 
ATOM     18  S   UNL A   1      41.963  23.530  25.780  1.00  0.00    -0.126 S 
ATOM     19  C   UNL A   1      43.927  23.263  27.396  1.00  0.00     0.029 A 
ATOM     20  C   UNL A   1      43.400  22.738  26.239  1.00  0.00     0.077 A 
BRANCH  20  21
ATOM     21  C   UNL A   1      43.888  21.599  25.557  1.00  0.00    -0.053 C 
ATOM     22  C   UNL A   1      44.395  20.442  25.233  1.00  0.00    -0.063 C 
BRANCH  22  23
ATOM     23  C   UNL A   1      44.985  19.094  24.854  1.00  0.00     0.120 C 
ATOM     24  C   UNL A   1      44.933  18.914  23.339  1.00  0.00     0.056 C 
ATOM     25  C   UNL A   1      46.416  18.991  25.377  1.00  0.00     0.056 C 
BRANCH  23  26
ATOM     26  O   UNL A   1      44.198  18.078  25.471  1.00  0.00    -0.378 OA
ATOM     27  H   UNL A   1      43.562  18.486  26.080  1.00  0.00     0.212 HD
ENDBRANCH  23  26
ENDBRANCH  22  23
ENDBRANCH  20  21
ENDBRANCH  15  16
ENDBRANCH  13  15
ENDBRANCH   3   6
ENDBRANCH   1   2
BRANCH   1  28
ATOM     28  C   UNL A   1      47.555  26.245  27.994  1.00  0.00     0.023 C 
BRANCH  28  29
ATOM     29  C   UNL A   1      46.816  27.242  28.892  1.00  0.00     0.023 C 
BRANCH  29  30
ATOM     30  C   UNL A   1      46.751  26.839  30.358  1.00  0.00     0.116 C 
BRANCH  30  31
ATOM     31  N   UNL A   1      46.149  25.525  30.560  1.00  0.00    -0.352 N 
ATOM     32  C   UNL A   1      44.948  25.226  31.174  1.00  0.00     0.251 C 
ATOM     33  H   UNL A   1      46.661  24.757  30.215  1.00  0.00     0.163 HD
ATOM     34  O   UNL A   1      44.710  24.110  31.598  1.00  0.00    -0.269 OA
BRANCH  32  35
ATOM     35  C   UNL A   1      43.946  26.300  31.300  1.00  0.00     0.039 A 
ATOM     36  C   UNL A   1      43.743  26.962  32.512  1.00  0.00     0.014 A 
ATOM     37  C   UNL A   1      43.234  26.660  30.159  1.00  0.00     0.014 A 
ATOM     38  C   UNL A   1      42.876  28.052  32.547  1.00  0.00     0.010 A 
ATOM     39  C   UNL A   1      42.488  27.809  30.161  1.00  0.00     0.010 A 
ATOM     40  C   UNL A   1      42.266  28.483  31.360  1.00  0.00    -0.014 A 
BRANCH  40  41
ATOM     41  C   UNL A   1      41.483  29.715  31.322  1.00  0.00     0.031 A 
ATOM     42  C   UNL A   1      42.251  30.944  30.970  1.00  0.00     0.074 A 
ATOM     43  C   UNL A   1      40.132  29.699  31.320  1.00  0.00     0.049 A 
ATOM     44  N   UNL A   1      42.401  32.019  31.672  1.00  0.00    -0.248 NA
ATOM     45  C   UNL A   1      43.033  30.937  29.721  1.00  0.00     0.031 C 
ATOM     46  C   UNL A   1      39.247  28.526  31.318  1.00  0.00     0.029 A 
ATOM     47  N   UNL A   1      39.258  30.729  31.156  1.00  0.00    -0.354 N 
ATOM     48  C   UNL A   1      43.130  32.903  30.876  1.00  0.00     0.074 A 
ATOM     49  C   UNL A   1      43.634  32.127  29.772  1.00  0.00     0.031 C 
ATOM     50  C   UNL A   1      38.017  28.888  30.895  1.00  0.00     0.029 A 
ATOM     51  C   UNL A   1      37.982  30.333  30.768  1.00  0.00     0.049 A 
ATOM     52  H   UNL A   1      39.506  31.671  31.298  1.00  0.00     0.167 HD
ATOM     53  C   UNL A   1      43.042  34.253  31.049  1.00  0.00     0.031 A 
ATOM     54  C   UNL A   1      36.976  31.129  30.331  1.00  0.00     0.031 A 
ATOM     55  C   UNL A   1      42.448  34.586  32.319  1.00  0.00     0.049 A 
ATOM     56  C   UNL A   1      37.293  32.512  30.745  1.00  0.00     0.074 A 
ATOM     57  C   UNL A   1      42.748  34.331  33.642  1.00  0.00     0.029 A 
ATOM     58  N   UNL A   1      41.130  34.979  32.303  1.00  0.00    -0.354 N 
ATOM     59  N   UNL A   1      37.311  32.904  31.986  1.00  0.00    -0.248 NA
ATOM     60  C   UNL A   1      38.025  33.354  29.812  1.00  0.00     0.031 C 
ATOM     61  C   UNL A   1      41.484  34.111  34.268  1.00  0.00     0.029 A 
ATOM     62  C   UNL A   1      40.488  34.315  33.311  1.00  0.00     0.049 A 
ATOM     63  H   UNL A   1      40.723  35.621  31.678  1.00  0.00     0.167 HD
ATOM     64  C   UNL A   1      38.405  33.753  32.069  1.00  0.00     0.074 A 
ATOM     65  C   UNL A   1      38.731  34.084  30.682  1.00  0.00     0.031 C 
ATOM     66  C   UNL A   1      39.116  33.868  33.229  1.00  0.00     0.031 A 
BRANCH  53  67
ATOM     67  C   UNL A   1      43.051  35.249  29.904  1.00  0.00    -0.014 A 
ATOM     68  C   UNL A   1      43.842  36.408  30.035  1.00  0.00     0.009 A 
ATOM     69  C   UNL A   1      42.096  35.259  28.870  1.00  0.00     0.009 A 
ATOM     70  C   UNL A   1      43.597  37.553  29.268  1.00  0.00     0.001 A 
ATOM     71  C   UNL A   1      41.881  36.386  28.070  1.00  0.00     0.001 A 
ATOM     72  C   UNL A   1      42.604  37.546  28.296  1.00  0.00     0.000 A 
ENDBRANCH  53  67
BRANCH  54  73
ATOM     73  C   UNL A   1      35.893  30.822  29.373  1.00  0.00    -0.014 A 
ATOM     74  C   UNL A   1      34.883  31.761  29.108  1.00  0.00     0.009 A 
ATOM     75  C   UNL A   1      36.000  29.715  28.512  1.00  0.00     0.009 A 
ATOM     76  C   UNL A   1      34.037  31.616  27.999  1.00  0.00     0.001 A 
ATOM     77  C   UNL A   1      35.154  29.567  27.407  1.00  0.00     0.001 A 
ATOM     78  C   UNL A   1      34.183  30.527  27.142  1.00  0.00     0.000 A 
ENDBRANCH  54  73
BRANCH  66  79
ATOM     79  C   UNL A   1      38.540  33.250  34.479  1.00  0.00    -0.014 A 
ATOM     80  C   UNL A   1      38.687  31.889  34.803  1.00  0.00     0.009 A 
ATOM     81  C   UNL A   1      37.970  34.104  35.434  1.00  0.00     0.009 A 
ATOM     82  C   UNL A   1      38.247  31.396  36.036  1.00  0.00     0.001 A 
ATOM     83  C   UNL A   1      37.550  33.614  36.672  1.00  0.00     0.001 A 
ATOM     84  C   UNL A   1      37.684  32.261  36.971  1.00  0.00     0.000 A 
ENDBRANCH  66  79
ENDBRANCH  40  41
ENDBRANCH  32  35
ENDBRANCH  30  31
ENDBRANCH  29  30
ENDBRANCH  28  29
ENDBRANCH   1  28
TORSDOF 16
ENDMDL
