MODEL 1
REMARK VINA RESULT:     -12.0      0.000      0.000
REMARK SMILES COc1c[nH]c(C[N@H+]2CCC[C@@H](c3ccc(C(=O)NCCCCNC(=O)c4ccc(-c5c6nc(c(-c7ccccc7)c7ccc([nH]7)c(-c7ccccc7)c7nc(c(-c8ccccc8)c8ccc5[nH]8)C=C7)C=C6)cc4)cc3)C2)cc1=O
REMARK SMILES IDX 20 1 19 2 17 3 18 4 16 6 13 7 14 8 76 9 15 10 75 11 12 12
REMARK SMILES IDX 8 13 9 14 77 15 10 17 11 18 7 19 6 20 3 21 4 22 79 23 5 24
REMARK SMILES IDX 78 25 80 26 2 28 1 29 21 30 22 31 23 32 24 33 25 34 26 36
REMARK SMILES IDX 27 37 28 38 74 39 29 40 73 41 30 42 31 43 32 44 67 45 33 46
REMARK SMILES IDX 72 47 66 48 68 49 34 50 71 51 65 52 64 53 35 55 57 56 42 57
REMARK SMILES IDX 56 58 43 59 46 60 55 61 69 62 44 63 45 64 54 66 70 67 47 68
REMARK SMILES IDX 36 69 37 70 41 71 38 72 40 73 39 74 58 75 59 76 63 77 60 78
REMARK SMILES IDX 62 79 61 80 48 81 49 82 53 83 50 84 52 85 51 86
REMARK H PARENT 19 5 8 16 5 27 24 35 68 54 46 65
REMARK Flexibility Score: inf
ROOT
ATOM      1  C   UNL A   1      41.017  20.010  27.560  1.00  0.00     0.116 C 
ENDROOT
BRANCH   1   2
ATOM      2  N   UNL A   1      41.160  21.403  27.931  1.00  0.00    -0.352 N 
ATOM      3  C   UNL A   1      40.461  22.520  27.549  1.00  0.00     0.251 C 
ATOM      4  O   UNL A   1      40.787  23.594  28.056  1.00  0.00    -0.269 OA
ATOM      5  H   UNL A   1      41.888  21.579  28.570  1.00  0.00     0.163 HD
BRANCH   3   6
ATOM      6  C   UNL A   1      39.304  22.478  26.611  1.00  0.00     0.039 A 
ATOM      7  C   UNL A   1      37.008  22.552  24.957  1.00  0.00    -0.039 A 
ATOM      8  C   UNL A   1      37.399  23.677  25.698  1.00  0.00     0.005 A 
ATOM      9  C   UNL A   1      37.823  21.419  24.996  1.00  0.00     0.005 A 
ATOM     10  C   UNL A   1      38.523  23.636  26.525  1.00  0.00     0.014 A 
ATOM     11  C   UNL A   1      38.969  21.393  25.796  1.00  0.00     0.014 A 
BRANCH   7  12
ATOM     12  C   UNL A   1      35.738  22.535  24.122  1.00  0.00     0.074 C 
ATOM     13  N   UNL A   1      33.405  21.586  24.009  1.00  0.00    -0.329 N 
ATOM     14  C   UNL A   1      32.851  22.943  23.904  1.00  0.00     0.262 C 
ATOM     15  C   UNL A   1      34.683  21.589  24.731  1.00  0.00     0.270 C 
ATOM     16  H   UNL A   1      33.599  21.259  23.062  1.00  0.00     0.348 HD
ATOM     17  C   UNL A   1      33.833  23.895  23.214  1.00  0.00     0.062 C 
ATOM     18  C   UNL A   1      35.169  23.948  23.951  1.00  0.00     0.020 C 
BRANCH  13  19
ATOM     19  C   UNL A   1      32.431  20.628  24.577  1.00  0.00     0.317 C 
BRANCH  19  20
ATOM     20  C   UNL A   1      32.864  19.166  24.637  1.00  0.00     0.074 A 
ATOM     21  C   UNL A   1      33.349  16.364  24.928  1.00  0.00     0.182 A 
ATOM     22  C   UNL A   1      32.941  17.140  25.941  1.00  0.00     0.133 A 
ATOM     23  C   UNL A   1      33.633  17.067  23.626  1.00  0.00     0.223 A 
ATOM     24  N   UNL A   1      32.768  18.492  25.843  1.00  0.00    -0.357 N 
ATOM     25  C   UNL A   1      33.320  18.525  23.545  1.00  0.00     0.083 A 
ATOM     26  O   UNL A   1      34.079  16.493  22.636  1.00  0.00    -0.286 OA
ATOM     27  H   UNL A   1      32.568  19.006  26.659  1.00  0.00     0.166 HD
BRANCH  21  28
ATOM     28  O   UNL A   1      33.411  14.992  25.077  1.00  0.00    -0.491 OA
ATOM     29  C   UNL A   1      32.215  14.430  25.604  1.00  0.00     0.278 C 
ENDBRANCH  21  28
ENDBRANCH  19  20
ENDBRANCH  13  19
ENDBRANCH   7  12
ENDBRANCH   3   6
ENDBRANCH   1   2
BRANCH   1  30
ATOM     30  C   UNL A   1      42.377  19.309  27.570  1.00  0.00     0.023 C 
BRANCH  30  31
ATOM     31  C   UNL A   1      42.670  18.479  26.320  1.00  0.00     0.023 C 
BRANCH  31  32
ATOM     32  C   UNL A   1      43.031  19.292  25.085  1.00  0.00     0.116 C 
BRANCH  32  33
ATOM     33  N   UNL A   1      44.337  18.957  24.537  1.00  0.00    -0.352 N 
ATOM     34  C   UNL A   1      45.421  19.783  24.361  1.00  0.00     0.251 C 
ATOM     35  H   UNL A   1      44.459  18.021  24.259  1.00  0.00     0.163 HD
ATOM     36  O   UNL A   1      46.427  19.380  23.793  1.00  0.00    -0.269 OA
BRANCH  34  37
ATOM     37  C   UNL A   1      45.334  21.181  24.824  1.00  0.00     0.039 A 
ATOM     38  C   UNL A   1      45.583  21.458  26.170  1.00  0.00     0.014 A 
ATOM     39  C   UNL A   1      45.065  22.215  23.923  1.00  0.00     0.014 A 
ATOM     40  C   UNL A   1      45.630  22.783  26.600  1.00  0.00     0.010 A 
ATOM     41  C   UNL A   1      45.180  23.536  24.339  1.00  0.00     0.010 A 
ATOM     42  C   UNL A   1      45.467  23.832  25.679  1.00  0.00    -0.014 A 
BRANCH  42  43
ATOM     43  C   UNL A   1      45.607  25.245  26.100  1.00  0.00     0.031 A 
ATOM     44  C   UNL A   1      46.957  25.904  26.100  1.00  0.00     0.074 A 
ATOM     45  C   UNL A   1      44.526  25.916  26.542  1.00  0.00     0.049 A 
ATOM     46  N   UNL A   1      47.281  27.118  26.468  1.00  0.00    -0.248 NA
ATOM     47  C   UNL A   1      48.095  25.085  25.655  1.00  0.00     0.031 C 
ATOM     48  C   UNL A   1      43.169  25.369  26.637  1.00  0.00     0.029 A 
ATOM     49  N   UNL A   1      44.398  27.203  26.999  1.00  0.00    -0.354 N 
ATOM     50  C   UNL A   1      48.658  27.203  26.312  1.00  0.00     0.074 A 
ATOM     51  C   UNL A   1      49.115  25.904  25.866  1.00  0.00     0.031 C 
ATOM     52  C   UNL A   1      42.343  26.324  27.095  1.00  0.00     0.029 A 
ATOM     53  C   UNL A   1      43.114  27.535  27.356  1.00  0.00     0.049 A 
ATOM     54  H   UNL A   1      45.156  27.828  27.066  1.00  0.00     0.167 HD
ATOM     55  C   UNL A   1      49.468  28.270  26.505  1.00  0.00     0.031 A 
ATOM     56  C   UNL A   1      42.614  28.687  27.839  1.00  0.00     0.031 A 
ATOM     57  C   UNL A   1      49.012  29.563  26.937  1.00  0.00     0.049 A 
ATOM     58  C   UNL A   1      43.534  29.858  28.042  1.00  0.00     0.074 A 
ATOM     59  C   UNL A   1      49.745  30.725  27.102  1.00  0.00     0.029 A 
ATOM     60  N   UNL A   1      47.701  29.864  27.275  1.00  0.00    -0.354 N 
ATOM     61  N   UNL A   1      44.823  29.945  27.817  1.00  0.00    -0.248 NA
ATOM     62  C   UNL A   1      42.925  31.095  28.551  1.00  0.00     0.031 C 
ATOM     63  C   UNL A   1      48.886  31.718  27.582  1.00  0.00     0.029 A 
ATOM     64  C   UNL A   1      47.608  31.188  27.668  1.00  0.00     0.049 A 
ATOM     65  H   UNL A   1      46.950  29.229  27.240  1.00  0.00     0.167 HD
ATOM     66  C   UNL A   1      45.175  31.250  28.133  1.00  0.00     0.074 A 
ATOM     67  C   UNL A   1      43.960  31.923  28.550  1.00  0.00     0.031 C 
ATOM     68  C   UNL A   1      46.393  31.839  28.082  1.00  0.00     0.031 A 
BRANCH  55  69
ATOM     69  C   UNL A   1      50.936  28.076  26.250  1.00  0.00    -0.014 A 
ATOM     70  C   UNL A   1      51.492  28.323  24.984  1.00  0.00     0.009 A 
ATOM     71  C   UNL A   1      51.780  27.666  27.294  1.00  0.00     0.009 A 
ATOM     72  C   UNL A   1      52.856  28.127  24.760  1.00  0.00     0.001 A 
ATOM     73  C   UNL A   1      53.148  27.499  27.074  1.00  0.00     0.001 A 
ATOM     74  C   UNL A   1      53.684  27.720  25.805  1.00  0.00     0.000 A 
ENDBRANCH  55  69
BRANCH  56  75
ATOM     75  C   UNL A   1      41.163  28.800  28.139  1.00  0.00    -0.014 A 
ATOM     76  C   UNL A   1      40.683  28.529  29.429  1.00  0.00     0.009 A 
ATOM     77  C   UNL A   1      40.253  29.176  27.140  1.00  0.00     0.009 A 
ATOM     78  C   UNL A   1      39.317  28.608  29.707  1.00  0.00     0.001 A 
ATOM     79  C   UNL A   1      38.891  29.279  27.427  1.00  0.00     0.001 A 
ATOM     80  C   UNL A   1      38.423  28.988  28.707  1.00  0.00     0.000 A 
ENDBRANCH  56  75
BRANCH  68  81
ATOM     81  C   UNL A   1      46.468  33.292  28.456  1.00  0.00    -0.014 A 
ATOM     82  C   UNL A   1      46.738  33.691  29.774  1.00  0.00     0.009 A 
ATOM     83  C   UNL A   1      46.302  34.274  27.467  1.00  0.00     0.009 A 
ATOM     84  C   UNL A   1      46.811  35.047  30.099  1.00  0.00     0.001 A 
ATOM     85  C   UNL A   1      46.402  35.627  27.789  1.00  0.00     0.001 A 
ATOM     86  C   UNL A   1      46.646  36.013  29.106  1.00  0.00     0.000 A 
ENDBRANCH  68  81
ENDBRANCH  42  43
ENDBRANCH  34  37
ENDBRANCH  32  33
ENDBRANCH  31  32
ENDBRANCH  30  31
ENDBRANCH   1  30
TORSDOF 15
ENDMDL
MODEL 2
REMARK VINA RESULT:     -11.7      6.294     11.121
REMARK SMILES COc1c[nH]c(C[N@H+]2CCC[C@@H](c3ccc(C(=O)NCCCCNC(=O)c4ccc(-c5c6nc(c(-c7ccccc7)c7ccc([nH]7)c(-c7ccccc7)c7nc(c(-c8ccccc8)c8ccc5[nH]8)C=C7)C=C6)cc4)cc3)C2)cc1=O
REMARK SMILES IDX 20 1 19 2 17 3 18 4 16 6 13 7 14 8 76 9 15 10 75 11 12 12
REMARK SMILES IDX 8 13 9 14 77 15 10 17 11 18 7 19 6 20 3 21 4 22 79 23 5 24
REMARK SMILES IDX 78 25 80 26 2 28 1 29 21 30 22 31 23 32 24 33 25 34 26 36
REMARK SMILES IDX 27 37 28 38 74 39 29 40 73 41 30 42 31 43 32 44 67 45 33 46
REMARK SMILES IDX 72 47 66 48 68 49 34 50 71 51 65 52 64 53 35 55 57 56 42 57
REMARK SMILES IDX 56 58 43 59 46 60 55 61 69 62 44 63 45 64 54 66 70 67 47 68
REMARK SMILES IDX 36 69 37 70 41 71 38 72 40 73 39 74 58 75 59 76 63 77 60 78
REMARK SMILES IDX 62 79 61 80 48 81 49 82 53 83 50 84 52 85 51 86
REMARK H PARENT 19 5 8 16 5 27 24 35 68 54 46 65
REMARK Flexibility Score: inf
ROOT
ATOM      1  C   UNL A   1      34.049  30.963  27.616  1.00  0.00     0.116 C 
ENDROOT
BRANCH   1   2
ATOM      2  N   UNL A   1      32.831  31.064  26.840  1.00  0.00    -0.352 N 
ATOM      3  C   UNL A   1      32.170  30.146  26.064  1.00  0.00     0.251 C 
ATOM      4  O   UNL A   1      31.120  30.503  25.532  1.00  0.00    -0.269 OA
ATOM      5  H   UNL A   1      32.401  31.949  26.875  1.00  0.00     0.163 HD
BRANCH   3   6
ATOM      6  C   UNL A   1      32.632  28.739  25.893  1.00  0.00     0.039 A 
ATOM      7  C   UNL A   1      33.454  26.033  25.781  1.00  0.00    -0.039 A 
ATOM      8  C   UNL A   1      32.445  26.443  26.666  1.00  0.00     0.005 A 
ATOM      9  C   UNL A   1      33.988  26.977  24.902  1.00  0.00     0.005 A 
ATOM     10  C   UNL A   1      32.051  27.781  26.731  1.00  0.00     0.014 A 
ATOM     11  C   UNL A   1      33.563  28.308  24.944  1.00  0.00     0.014 A 
BRANCH   7  12
ATOM     12  C   UNL A   1      33.971  24.603  25.752  1.00  0.00     0.074 C 
ATOM     13  N   UNL A   1      33.282  22.212  25.349  1.00  0.00    -0.329 N 
ATOM     14  C   UNL A   1      34.332  22.074  24.329  1.00  0.00     0.262 C 
ATOM     15  C   UNL A   1      32.832  23.604  25.462  1.00  0.00     0.270 C 
ATOM     16  H   UNL A   1      33.691  21.957  26.248  1.00  0.00     0.348 HD
ATOM     17  C   UNL A   1      35.527  22.982  24.634  1.00  0.00     0.062 C 
ATOM     18  C   UNL A   1      35.106  24.446  24.734  1.00  0.00     0.020 C 
BRANCH  13  19
ATOM     19  C   UNL A   1      32.164  21.267  25.129  1.00  0.00     0.317 C 
BRANCH  19  20
ATOM     20  C   UNL A   1      32.542  19.816  24.845  1.00  0.00     0.074 A 
ATOM     21  C   UNL A   1      33.025  17.009  24.604  1.00  0.00     0.182 A 
ATOM     22  C   UNL A   1      33.094  17.661  25.772  1.00  0.00     0.133 A 
ATOM     23  C   UNL A   1      32.764  17.856  23.385  1.00  0.00     0.223 A 
ATOM     24  N   UNL A   1      32.935  19.012  25.902  1.00  0.00    -0.357 N 
ATOM     25  C   UNL A   1      32.487  19.308  23.600  1.00  0.00     0.083 A 
ATOM     26  O   UNL A   1      32.744  17.404  22.244  1.00  0.00    -0.286 OA
ATOM     27  H   UNL A   1      33.105  19.429  26.778  1.00  0.00     0.166 HD
BRANCH  21  28
ATOM     28  O   UNL A   1      33.104  15.631  24.565  1.00  0.00    -0.491 OA
ATOM     29  C   UNL A   1      32.297  14.994  25.548  1.00  0.00     0.278 C 
ENDBRANCH  21  28
ENDBRANCH  19  20
ENDBRANCH  13  19
ENDBRANCH   7  12
ENDBRANCH   3   6
ENDBRANCH   1   2
BRANCH   1  30
ATOM     30  C   UNL A   1      34.174  32.148  28.576  1.00  0.00     0.023 C 
BRANCH  30  31
ATOM     31  C   UNL A   1      33.449  33.413  28.116  1.00  0.00     0.023 C 
BRANCH  31  32
ATOM     32  C   UNL A   1      33.906  34.694  28.800  1.00  0.00     0.116 C 
BRANCH  32  33
ATOM     33  N   UNL A   1      33.009  35.134  29.857  1.00  0.00    -0.352 N 
ATOM     34  C   UNL A   1      33.144  34.960  31.213  1.00  0.00     0.251 C 
ATOM     35  H   UNL A   1      32.204  35.618  29.563  1.00  0.00     0.163 HD
ATOM     36  O   UNL A   1      32.252  35.302  31.979  1.00  0.00    -0.269 OA
BRANCH  34  37
ATOM     37  C   UNL A   1      34.363  34.308  31.729  1.00  0.00     0.039 A 
ATOM     38  C   UNL A   1      34.260  33.022  32.264  1.00  0.00     0.014 A 
ATOM     39  C   UNL A   1      35.605  34.942  31.633  1.00  0.00     0.014 A 
ATOM     40  C   UNL A   1      35.418  32.342  32.639  1.00  0.00     0.010 A 
ATOM     41  C   UNL A   1      36.762  34.237  31.944  1.00  0.00     0.010 A 
ATOM     42  C   UNL A   1      36.679  32.930  32.446  1.00  0.00    -0.014 A 
BRANCH  42  43
ATOM     43  C   UNL A   1      37.923  32.186  32.751  1.00  0.00     0.031 A 
ATOM     44  C   UNL A   1      38.676  32.460  34.021  1.00  0.00     0.074 A 
ATOM     45  C   UNL A   1      38.407  31.307  31.853  1.00  0.00     0.049 A 
ATOM     46  N   UNL A   1      39.799  31.936  34.442  1.00  0.00    -0.248 NA
ATOM     47  C   UNL A   1      38.109  33.476  34.923  1.00  0.00     0.031 C 
ATOM     48  C   UNL A   1      37.793  30.991  30.560  1.00  0.00     0.029 A 
ATOM     49  N   UNL A   1      39.531  30.521  31.888  1.00  0.00    -0.354 N 
ATOM     50  C   UNL A   1      40.079  32.567  35.647  1.00  0.00     0.074 A 
ATOM     51  C   UNL A   1      39.038  33.547  35.866  1.00  0.00     0.031 C 
ATOM     52  C   UNL A   1      38.533  30.057  29.940  1.00  0.00     0.029 A 
ATOM     53  C   UNL A   1      39.687  29.734  30.773  1.00  0.00     0.049 A 
ATOM     54  H   UNL A   1      40.165  30.523  32.641  1.00  0.00     0.167 HD
ATOM     55  C   UNL A   1      41.101  32.338  36.506  1.00  0.00     0.031 A 
ATOM     56  C   UNL A   1      40.652  28.850  30.459  1.00  0.00     0.031 A 
ATOM     57  C   UNL A   1      42.130  31.356  36.294  1.00  0.00     0.049 A 
ATOM     58  C   UNL A   1      41.774  28.612  31.429  1.00  0.00     0.074 A 
ATOM     59  C   UNL A   1      43.173  31.006  37.133  1.00  0.00     0.029 A 
ATOM     60  N   UNL A   1      42.245  30.568  35.159  1.00  0.00    -0.354 N 
ATOM     61  N   UNL A   1      41.983  29.162  32.601  1.00  0.00    -0.248 NA
ATOM     62  C   UNL A   1      42.785  27.621  31.039  1.00  0.00     0.031 C 
ATOM     63  C   UNL A   1      43.945  30.036  36.486  1.00  0.00     0.029 A 
ATOM     64  C   UNL A   1      43.354  29.747  35.266  1.00  0.00     0.049 A 
ATOM     65  H   UNL A   1      41.629  30.590  34.391  1.00  0.00     0.167 HD
ATOM     66  C   UNL A   1      43.133  28.566  33.099  1.00  0.00     0.074 A 
ATOM     67  C   UNL A   1      43.568  27.601  32.109  1.00  0.00     0.031 C 
ATOM     68  C   UNL A   1      43.773  28.795  34.270  1.00  0.00     0.031 A 
BRANCH  55  69
ATOM     69  C   UNL A   1      41.152  33.173  37.754  1.00  0.00    -0.014 A 
ATOM     70  C   UNL A   1      40.477  32.778  38.920  1.00  0.00     0.009 A 
ATOM     71  C   UNL A   1      41.907  34.355  37.774  1.00  0.00     0.009 A 
ATOM     72  C   UNL A   1      40.525  33.570  40.069  1.00  0.00     0.001 A 
ATOM     73  C   UNL A   1      41.977  35.131  38.933  1.00  0.00     0.001 A 
ATOM     74  C   UNL A   1      41.279  34.743  40.076  1.00  0.00     0.000 A 
ENDBRANCH  55  69
BRANCH  56  75
ATOM     75  C   UNL A   1      40.585  28.102  29.177  1.00  0.00    -0.014 A 
ATOM     76  C   UNL A   1      41.134  28.650  28.007  1.00  0.00     0.009 A 
ATOM     77  C   UNL A   1      39.973  26.842  29.115  1.00  0.00     0.009 A 
ATOM     78  C   UNL A   1      41.049  27.961  26.796  1.00  0.00     0.001 A 
ATOM     79  C   UNL A   1      39.912  26.144  27.907  1.00  0.00     0.001 A 
ATOM     80  C   UNL A   1      40.442  26.707  26.747  1.00  0.00     0.000 A 
ENDBRANCH  56  75
BRANCH  68  81
ATOM     81  C   UNL A   1      44.992  27.967  34.560  1.00  0.00    -0.014 A 
ATOM     82  C   UNL A   1      46.273  28.405  34.194  1.00  0.00     0.009 A 
ATOM     83  C   UNL A   1      44.857  26.748  35.243  1.00  0.00     0.009 A 
ATOM     84  C   UNL A   1      47.394  27.623  34.478  1.00  0.00     0.001 A 
ATOM     85  C   UNL A   1      45.981  25.981  35.550  1.00  0.00     0.001 A 
ATOM     86  C   UNL A   1      47.247  26.414  35.160  1.00  0.00     0.000 A 
ENDBRANCH  68  81
ENDBRANCH  42  43
ENDBRANCH  34  37
ENDBRANCH  32  33
ENDBRANCH  31  32
ENDBRANCH  30  31
ENDBRANCH   1  30
TORSDOF 15
ENDMDL
MODEL 3
REMARK VINA RESULT:     -11.6      4.673      6.964
REMARK SMILES COc1c[nH]c(C[N@H+]2CCC[C@@H](c3ccc(C(=O)NCCCCNC(=O)c4ccc(-c5c6nc(c(-c7ccccc7)c7ccc([nH]7)c(-c7ccccc7)c7nc(c(-c8ccccc8)c8ccc5[nH]8)C=C7)C=C6)cc4)cc3)C2)cc1=O
REMARK SMILES IDX 20 1 19 2 17 3 18 4 16 6 13 7 14 8 76 9 15 10 75 11 12 12
REMARK SMILES IDX 8 13 9 14 77 15 10 17 11 18 7 19 6 20 3 21 4 22 79 23 5 24
REMARK SMILES IDX 78 25 80 26 2 28 1 29 21 30 22 31 23 32 24 33 25 34 26 36
REMARK SMILES IDX 27 37 28 38 74 39 29 40 73 41 30 42 31 43 32 44 67 45 33 46
REMARK SMILES IDX 72 47 66 48 68 49 34 50 71 51 65 52 64 53 35 55 57 56 42 57
REMARK SMILES IDX 56 58 43 59 46 60 55 61 69 62 44 63 45 64 54 66 70 67 47 68
REMARK SMILES IDX 36 69 37 70 41 71 38 72 40 73 39 74 58 75 59 76 63 77 60 78
REMARK SMILES IDX 62 79 61 80 48 81 49 82 53 83 50 84 52 85 51 86
REMARK H PARENT 19 5 8 16 5 27 24 35 68 54 46 65
REMARK Flexibility Score: inf
ROOT
ATOM      1  C   UNL A   1      35.289  20.722  25.658  1.00  0.00     0.116 C 
ENDROOT
BRANCH   1   2
ATOM      2  N   UNL A   1      34.016  20.064  25.453  1.00  0.00    -0.352 N 
ATOM      3  C   UNL A   1      32.842  20.511  24.902  1.00  0.00     0.251 C 
ATOM      4  O   UNL A   1      31.909  19.711  24.825  1.00  0.00    -0.269 OA
ATOM      5  H   UNL A   1      33.987  19.130  25.763  1.00  0.00     0.163 HD
BRANCH   3   6
ATOM      6  C   UNL A   1      32.672  21.883  24.344  1.00  0.00     0.039 A 
ATOM      7  C   UNL A   1      32.570  24.495  23.259  1.00  0.00    -0.039 A 
ATOM      8  C   UNL A   1      33.591  23.604  22.897  1.00  0.00     0.005 A 
ATOM      9  C   UNL A   1      31.561  24.036  24.108  1.00  0.00     0.005 A 
ATOM     10  C   UNL A   1      33.649  22.321  23.444  1.00  0.00     0.014 A 
ATOM     11  C   UNL A   1      31.602  22.738  24.625  1.00  0.00     0.014 A 
BRANCH   7  12
ATOM     12  C   UNL A   1      32.531  25.929  22.754  1.00  0.00     0.074 C 
ATOM     13  N   UNL A   1      31.675  28.239  23.291  1.00  0.00    -0.329 N 
ATOM     14  C   UNL A   1      33.040  28.775  23.189  1.00  0.00     0.262 C 
ATOM     15  C   UNL A   1      31.689  26.825  23.685  1.00  0.00     0.270 C 
ATOM     16  H   UNL A   1      31.256  28.284  22.362  1.00  0.00     0.348 HD
ATOM     17  C   UNL A   1      33.883  27.969  22.197  1.00  0.00     0.062 C 
ATOM     18  C   UNL A   1      33.946  26.494  22.587  1.00  0.00     0.020 C 
BRANCH  13  19
ATOM     19  C   UNL A   1      30.814  29.066  24.165  1.00  0.00     0.317 C 
BRANCH  19  20
ATOM     20  C   UNL A   1      29.843  30.015  23.467  1.00  0.00     0.074 A 
ATOM     21  C   UNL A   1      28.289  32.058  22.211  1.00  0.00     0.182 A 
ATOM     22  C   UNL A   1      28.906  32.234  23.387  1.00  0.00     0.133 A 
ATOM     23  C   UNL A   1      28.380  30.678  21.613  1.00  0.00     0.223 A 
ATOM     24  N   UNL A   1      29.597  31.252  24.039  1.00  0.00    -0.357 N 
ATOM     25  C   UNL A   1      29.240  29.678  22.313  1.00  0.00     0.083 A 
ATOM     26  O   UNL A   1      27.806  30.355  20.577  1.00  0.00    -0.286 OA
ATOM     27  H   UNL A   1      29.932  31.430  24.948  1.00  0.00     0.166 HD
BRANCH  21  28
ATOM     28  O   UNL A   1      27.689  33.123  21.568  1.00  0.00    -0.491 OA
ATOM     29  C   UNL A   1      27.699  33.002  20.150  1.00  0.00     0.278 C 
ENDBRANCH  21  28
ENDBRANCH  19  20
ENDBRANCH  13  19
ENDBRANCH   7  12
ENDBRANCH   3   6
ENDBRANCH   1   2
BRANCH   1  30
ATOM     30  C   UNL A   1      36.405  19.971  24.929  1.00  0.00     0.023 C 
BRANCH  30  31
ATOM     31  C   UNL A   1      37.640  20.818  24.619  1.00  0.00     0.023 C 
BRANCH  31  32
ATOM     32  C   UNL A   1      38.666  20.884  25.741  1.00  0.00     0.116 C 
BRANCH  32  33
ATOM     33  N   UNL A   1      39.651  19.815  25.684  1.00  0.00    -0.352 N 
ATOM     34  C   UNL A   1      40.979  19.864  26.033  1.00  0.00     0.251 C 
ATOM     35  H   UNL A   1      39.324  18.947  25.355  1.00  0.00     0.163 HD
ATOM     36  O   UNL A   1      41.713  18.904  25.837  1.00  0.00    -0.269 OA
BRANCH  34  37
ATOM     37  C   UNL A   1      41.519  21.112  26.604  1.00  0.00     0.039 A 
ATOM     38  C   UNL A   1      42.000  22.094  25.735  1.00  0.00     0.014 A 
ATOM     39  C   UNL A   1      41.498  21.332  27.985  1.00  0.00     0.014 A 
ATOM     40  C   UNL A   1      42.396  23.329  26.248  1.00  0.00     0.010 A 
ATOM     41  C   UNL A   1      41.829  22.585  28.486  1.00  0.00     0.010 A 
ATOM     42  C   UNL A   1      42.277  23.596  27.622  1.00  0.00    -0.014 A 
BRANCH  42  43
ATOM     43  C   UNL A   1      42.604  24.932  28.171  1.00  0.00     0.031 A 
ATOM     44  C   UNL A   1      44.012  25.259  28.578  1.00  0.00     0.074 A 
ATOM     45  C   UNL A   1      41.618  25.830  28.360  1.00  0.00     0.049 A 
ATOM     46  N   UNL A   1      44.482  26.359  29.110  1.00  0.00    -0.248 NA
ATOM     47  C   UNL A   1      45.019  24.202  28.390  1.00  0.00     0.031 C 
ATOM     48  C   UNL A   1      40.202  25.614  28.052  1.00  0.00     0.029 A 
ATOM     49  N   UNL A   1      41.657  27.106  28.864  1.00  0.00    -0.354 N 
ATOM     50  C   UNL A   1      45.832  26.122  29.331  1.00  0.00     0.074 A 
ATOM     51  C   UNL A   1      46.097  24.759  28.925  1.00  0.00     0.031 C 
ATOM     52  C   UNL A   1      39.514  26.729  28.345  1.00  0.00     0.029 A 
ATOM     53  C   UNL A   1      40.431  27.724  28.892  1.00  0.00     0.049 A 
ATOM     54  H   UNL A   1      42.486  27.536  29.175  1.00  0.00     0.167 HD
ATOM     55  C   UNL A   1      46.773  26.969  29.811  1.00  0.00     0.031 A 
ATOM     56  C   UNL A   1      40.085  28.955  29.311  1.00  0.00     0.031 A 
ATOM     57  C   UNL A   1      46.513  28.327  30.204  1.00  0.00     0.049 A 
ATOM     58  C   UNL A   1      41.148  29.876  29.838  1.00  0.00     0.074 A 
ATOM     59  C   UNL A   1      47.410  29.284  30.645  1.00  0.00     0.029 A 
ATOM     60  N   UNL A   1      45.260  28.921  30.205  1.00  0.00    -0.354 N 
ATOM     61  N   UNL A   1      42.435  29.663  29.970  1.00  0.00    -0.248 NA
ATOM     62  C   UNL A   1      40.711  31.214  30.260  1.00  0.00     0.031 C 
ATOM     63  C   UNL A   1      46.693  30.444  30.954  1.00  0.00     0.029 A 
ATOM     64  C   UNL A   1      45.356  30.225  30.659  1.00  0.00     0.049 A 
ATOM     65  H   UNL A   1      44.426  28.479  29.924  1.00  0.00     0.167 HD
ATOM     66  C   UNL A   1      42.965  30.846  30.466  1.00  0.00     0.074 A 
ATOM     67  C   UNL A   1      41.863  31.779  30.596  1.00  0.00     0.031 C 
ATOM     68  C   UNL A   1      44.249  31.136  30.784  1.00  0.00     0.031 A 
BRANCH  55  69
ATOM     69  C   UNL A   1      48.174  26.441  29.940  1.00  0.00    -0.014 A 
ATOM     70  C   UNL A   1      49.098  26.572  28.891  1.00  0.00     0.009 A 
ATOM     71  C   UNL A   1      48.584  25.828  31.134  1.00  0.00     0.009 A 
ATOM     72  C   UNL A   1      50.394  26.067  29.022  1.00  0.00     0.001 A 
ATOM     73  C   UNL A   1      49.888  25.349  31.273  1.00  0.00     0.001 A 
ATOM     74  C   UNL A   1      50.789  25.460  30.213  1.00  0.00     0.000 A 
ENDBRANCH  55  69
BRANCH  56  75
ATOM     75  C   UNL A   1      38.669  29.399  29.224  1.00  0.00    -0.014 A 
ATOM     76  C   UNL A   1      37.805  29.229  30.316  1.00  0.00     0.009 A 
ATOM     77  C   UNL A   1      38.176  29.991  28.052  1.00  0.00     0.009 A 
ATOM     78  C   UNL A   1      36.468  29.621  30.227  1.00  0.00     0.001 A 
ATOM     79  C   UNL A   1      36.845  30.405  27.975  1.00  0.00     0.001 A 
ATOM     80  C   UNL A   1      35.990  30.212  29.059  1.00  0.00     0.000 A 
ENDBRANCH  56  75
BRANCH  68  81
ATOM     81  C   UNL A   1      44.537  32.526  31.274  1.00  0.00    -0.014 A 
ATOM     82  C   UNL A   1      44.749  33.585  30.378  1.00  0.00     0.009 A 
ATOM     83  C   UNL A   1      44.560  32.786  32.653  1.00  0.00     0.009 A 
ATOM     84  C   UNL A   1      45.009  34.871  30.855  1.00  0.00     0.001 A 
ATOM     85  C   UNL A   1      44.792  34.077  33.127  1.00  0.00     0.001 A 
ATOM     86  C   UNL A   1      45.026  35.117  32.228  1.00  0.00     0.000 A 
ENDBRANCH  68  81
ENDBRANCH  42  43
ENDBRANCH  34  37
ENDBRANCH  32  33
ENDBRANCH  31  32
ENDBRANCH  30  31
ENDBRANCH   1  30
TORSDOF 15
ENDMDL
