MODEL 1
REMARK VINA RESULT:     -11.9      0.000      0.000
REMARK SMILES O=C(NCCCCNC(=O)[C@H]1CC(=O)N(Cc2ccc3cc[nH]c3c2)C1)c1ccc(-c2c3nc(c(-c4ccccc4)c4ccc([nH]4)c(-c4ccccc4)c4nc(c(-c5ccccc5)c5ccc2[nH]5)C=C4)C=C3)cc1
REMARK SMILES IDX 5 1 4 2 3 3 1 4 2 5 27 7 28 8 74 9 29 10 73 11 30 12 31 13
REMARK SMILES IDX 32 14 67 15 33 16 72 17 66 18 68 19 34 20 71 21 65 22 64 23
REMARK SMILES IDX 35 25 57 26 42 27 56 28 43 29 46 30 55 31 69 32 44 33 45 34
REMARK SMILES IDX 54 36 70 37 47 38 36 39 37 40 41 41 38 42 40 43 39 44 58 45
REMARK SMILES IDX 59 46 63 47 60 48 62 49 61 50 48 51 49 52 53 53 50 54 52 55
REMARK SMILES IDX 51 56 6 57 7 58 8 59 9 60 10 62 11 63 12 64 26 65 13 66
REMARK SMILES IDX 15 67 14 68 16 69 17 70 18 71 25 72 19 73 24 74 20 75 23 76
REMARK SMILES IDX 21 77 22 78
REMARK H PARENT 3 6 68 24 46 35 8 61 23 79
REMARK Flexibility Score: inf
ROOT
ATOM      1  C   UNL A   1      37.778  19.973  24.741  1.00  0.00     0.023 C 
ENDROOT
BRANCH   1   2
ATOM      2  C   UNL A   1      38.865  20.323  25.751  1.00  0.00     0.116 C 
BRANCH   2   3
ATOM      3  N   UNL A   1      39.940  19.344  25.775  1.00  0.00    -0.352 N 
ATOM      4  O   UNL A   1      42.068  18.605  25.853  1.00  0.00    -0.269 OA
ATOM      5  C   UNL A   1      41.273  19.517  26.051  1.00  0.00     0.251 C 
ATOM      6  H   UNL A   1      39.671  18.421  25.564  1.00  0.00     0.163 HD
BRANCH   5   7
ATOM      7  C   UNL A   1      41.752  20.817  26.562  1.00  0.00     0.039 A 
ATOM      8  C   UNL A   1      41.837  21.057  27.936  1.00  0.00     0.014 A 
ATOM      9  C   UNL A   1      42.122  21.804  25.648  1.00  0.00     0.014 A 
ATOM     10  C   UNL A   1      42.153  22.330  28.396  1.00  0.00     0.010 A 
ATOM     11  C   UNL A   1      42.524  23.056  26.114  1.00  0.00     0.010 A 
ATOM     12  C   UNL A   1      42.514  23.337  27.490  1.00  0.00    -0.014 A 
BRANCH  12  13
ATOM     13  C   UNL A   1      42.934  24.671  27.982  1.00  0.00     0.031 A 
ATOM     14  C   UNL A   1      41.916  25.725  28.304  1.00  0.00     0.074 A 
ATOM     15  C   UNL A   1      44.248  24.941  28.091  1.00  0.00     0.049 A 
ATOM     16  N   UNL A   1      42.103  26.976  28.641  1.00  0.00    -0.248 NA
ATOM     17  C   UNL A   1      40.503  25.325  28.228  1.00  0.00     0.031 C 
ATOM     18  C   UNL A   1      45.330  23.995  27.814  1.00  0.00     0.029 A 
ATOM     19  N   UNL A   1      44.895  26.097  28.446  1.00  0.00    -0.354 N 
ATOM     20  C   UNL A   1      40.834  27.523  28.787  1.00  0.00     0.074 A 
ATOM     21  C   UNL A   1      39.886  26.472  28.480  1.00  0.00     0.031 C 
ATOM     22  C   UNL A   1      46.507  24.605  28.016  1.00  0.00     0.029 A 
ATOM     23  C   UNL A   1      46.262  25.999  28.365  1.00  0.00     0.049 A 
ATOM     24  H   UNL A   1      44.426  26.913  28.732  1.00  0.00     0.167 HD
ATOM     25  C   UNL A   1      40.494  28.786  29.140  1.00  0.00     0.031 A 
ATOM     26  C   UNL A   1      47.217  26.935  28.508  1.00  0.00     0.031 A 
ATOM     27  C   UNL A   1      41.446  29.827  29.424  1.00  0.00     0.049 A 
ATOM     28  C   UNL A   1      46.818  28.343  28.838  1.00  0.00     0.074 A 
ATOM     29  C   UNL A   1      41.205  31.130  29.824  1.00  0.00     0.029 A 
ATOM     30  N   UNL A   1      42.823  29.690  29.318  1.00  0.00    -0.354 N 
ATOM     31  N   UNL A   1      45.616  28.839  29.010  1.00  0.00    -0.248 NA
ATOM     32  C   UNL A   1      47.904  29.319  28.999  1.00  0.00     0.031 C 
ATOM     33  C   UNL A   1      42.431  31.800  29.890  1.00  0.00     0.029 A 
ATOM     34  C   UNL A   1      43.442  30.894  29.611  1.00  0.00     0.049 A 
ATOM     35  H   UNL A   1      43.291  28.860  29.072  1.00  0.00     0.167 HD
ATOM     36  C   UNL A   1      45.801  30.178  29.330  1.00  0.00     0.074 A 
ATOM     37  C   UNL A   1      47.231  30.414  29.330  1.00  0.00     0.031 C 
ATOM     38  C   UNL A   1      44.867  31.117  29.610  1.00  0.00     0.031 A 
BRANCH  25  39
ATOM     39  C   UNL A   1      39.026  29.119  29.181  1.00  0.00    -0.014 A 
ATOM     40  C   UNL A   1      38.286  29.058  30.373  1.00  0.00     0.009 A 
ATOM     41  C   UNL A   1      38.372  29.511  28.001  1.00  0.00     0.009 A 
ATOM     42  C   UNL A   1      36.915  29.325  30.370  1.00  0.00     0.001 A 
ATOM     43  C   UNL A   1      37.010  29.812  28.008  1.00  0.00     0.001 A 
ATOM     44  C   UNL A   1      36.278  29.703  29.189  1.00  0.00     0.000 A 
ENDBRANCH  25  39
BRANCH  26  45
ATOM     45  C   UNL A   1      48.639  26.554  28.312  1.00  0.00    -0.014 A 
ATOM     46  C   UNL A   1      49.238  26.651  27.049  1.00  0.00     0.009 A 
ATOM     47  C   UNL A   1      49.421  26.149  29.406  1.00  0.00     0.009 A 
ATOM     48  C   UNL A   1      50.590  26.341  26.884  1.00  0.00     0.001 A 
ATOM     49  C   UNL A   1      50.778  25.869  29.245  1.00  0.00     0.001 A 
ATOM     50  C   UNL A   1      51.360  25.961  27.982  1.00  0.00     0.000 A 
ENDBRANCH  26  45
BRANCH  38  51
ATOM     51  C   UNL A   1      45.352  32.487  29.997  1.00  0.00    -0.014 A 
ATOM     52  C   UNL A   1      45.474  33.519  29.054  1.00  0.00     0.009 A 
ATOM     53  C   UNL A   1      45.612  32.766  31.348  1.00  0.00     0.009 A 
ATOM     54  C   UNL A   1      45.861  34.799  29.458  1.00  0.00     0.001 A 
ATOM     55  C   UNL A   1      45.970  34.053  31.753  1.00  0.00     0.001 A 
ATOM     56  C   UNL A   1      46.099  35.067  30.806  1.00  0.00     0.000 A 
ENDBRANCH  38  51
ENDBRANCH  12  13
ENDBRANCH   5   7
ENDBRANCH   2   3
ENDBRANCH   1   2
BRANCH   1  57
ATOM     57  C   UNL A   1      36.572  20.907  24.750  1.00  0.00     0.023 C 
BRANCH  57  58
ATOM     58  C   UNL A   1      36.583  21.957  25.854  1.00  0.00     0.116 C 
BRANCH  58  59
ATOM     59  N   UNL A   1      35.278  22.135  26.464  1.00  0.00    -0.356 N 
ATOM     60  C   UNL A   1      34.360  23.115  26.216  1.00  0.00     0.225 C 
ATOM     61  H   UNL A   1      35.024  21.467  27.140  1.00  0.00     0.163 HD
ATOM     62  O   UNL A   1      33.312  23.120  26.858  1.00  0.00    -0.275 OA
BRANCH  60  63
ATOM     63  C   UNL A   1      34.701  24.161  25.183  1.00  0.00     0.107 C 
ATOM     64  C   UNL A   1      34.080  23.872  23.814  1.00  0.00     0.115 C 
ATOM     65  C   UNL A   1      34.127  25.521  25.528  1.00  0.00     0.133 C 
ATOM     66  C   UNL A   1      33.947  25.246  23.211  1.00  0.00     0.223 C 
ATOM     67  N   UNL A   1      34.028  26.164  24.240  1.00  0.00    -0.338 N 
ATOM     68  O   UNL A   1      33.786  25.480  22.023  1.00  0.00    -0.275 OA
BRANCH  67  69
ATOM     69  C   UNL A   1      33.855  27.595  24.079  1.00  0.00     0.155 C 
BRANCH  69  70
ATOM     70  C   UNL A   1      32.429  27.965  23.754  1.00  0.00    -0.026 A 
ATOM     71  C   UNL A   1      31.368  27.299  24.383  1.00  0.00     0.006 A 
ATOM     72  C   UNL A   1      32.162  28.954  22.793  1.00  0.00     0.032 A 
ATOM     73  C   UNL A   1      30.036  27.571  24.051  1.00  0.00     0.010 A 
ATOM     74  C   UNL A   1      30.823  29.236  22.496  1.00  0.00     0.046 A 
ATOM     75  C   UNL A   1      29.759  28.561  23.093  1.00  0.00    -0.001 A 
ATOM     76  N   UNL A   1      30.279  30.154  21.626  1.00  0.00    -0.361 N 
ATOM     77  C   UNL A   1      28.562  29.082  22.533  1.00  0.00     0.028 A 
ATOM     78  C   UNL A   1      28.913  30.068  21.639  1.00  0.00     0.083 A 
ATOM     79  H   UNL A   1      30.799  30.783  21.074  1.00  0.00     0.166 HD
ENDBRANCH  69  70
ENDBRANCH  67  69
ENDBRANCH  60  63
ENDBRANCH  58  59
ENDBRANCH  57  58
ENDBRANCH   1  57
TORSDOF 13
ENDMDL
MODEL 2
REMARK VINA RESULT:     -11.8      4.950     10.166
REMARK SMILES O=C(NCCCCNC(=O)[C@H]1CC(=O)N(Cc2ccc3cc[nH]c3c2)C1)c1ccc(-c2c3nc(c(-c4ccccc4)c4ccc([nH]4)c(-c4ccccc4)c4nc(c(-c5ccccc5)c5ccc2[nH]5)C=C4)C=C3)cc1
REMARK SMILES IDX 5 1 4 2 3 3 1 4 2 5 27 7 28 8 74 9 29 10 73 11 30 12 31 13
REMARK SMILES IDX 32 14 67 15 33 16 72 17 66 18 68 19 34 20 71 21 65 22 64 23
REMARK SMILES IDX 35 25 57 26 42 27 56 28 43 29 46 30 55 31 69 32 44 33 45 34
REMARK SMILES IDX 54 36 70 37 47 38 36 39 37 40 41 41 38 42 40 43 39 44 58 45
REMARK SMILES IDX 59 46 63 47 60 48 62 49 61 50 48 51 49 52 53 53 50 54 52 55
REMARK SMILES IDX 51 56 6 57 7 58 8 59 9 60 10 62 11 63 12 64 26 65 13 66
REMARK SMILES IDX 15 67 14 68 16 69 17 70 18 71 25 72 19 73 24 74 20 75 23 76
REMARK SMILES IDX 21 77 22 78
REMARK H PARENT 3 6 68 24 46 35 8 61 23 79
REMARK Flexibility Score: inf
ROOT
ATOM      1  C   UNL A   1      31.400  32.147  26.555  1.00  0.00     0.023 C 
ENDROOT
BRANCH   1   2
ATOM      2  C   UNL A   1      32.610  32.784  27.226  1.00  0.00     0.116 C 
BRANCH   2   3
ATOM      3  N   UNL A   1      32.365  34.159  27.631  1.00  0.00    -0.352 N 
ATOM      4  O   UNL A   1      32.532  36.001  28.920  1.00  0.00    -0.269 OA
ATOM      5  C   UNL A   1      32.989  34.911  28.594  1.00  0.00     0.251 C 
ATOM      6  H   UNL A   1      31.645  34.618  27.141  1.00  0.00     0.163 HD
BRANCH   5   7
ATOM      7  C   UNL A   1      34.201  34.389  29.257  1.00  0.00     0.039 A 
ATOM      8  C   UNL A   1      35.460  34.545  28.670  1.00  0.00     0.014 A 
ATOM      9  C   UNL A   1      34.069  33.740  30.485  1.00  0.00     0.014 A 
ATOM     10  C   UNL A   1      36.567  33.926  29.238  1.00  0.00     0.010 A 
ATOM     11  C   UNL A   1      35.197  33.194  31.098  1.00  0.00     0.010 A 
ATOM     12  C   UNL A   1      36.449  33.257  30.464  1.00  0.00    -0.014 A 
BRANCH  12  13
ATOM     13  C   UNL A   1      37.645  32.669  31.114  1.00  0.00     0.031 A 
ATOM     14  C   UNL A   1      38.328  31.471  30.523  1.00  0.00     0.074 A 
ATOM     15  C   UNL A   1      38.083  33.196  32.272  1.00  0.00     0.049 A 
ATOM     16  N   UNL A   1      39.315  30.761  31.008  1.00  0.00    -0.248 NA
ATOM     17  C   UNL A   1      37.831  31.002  29.220  1.00  0.00     0.031 C 
ATOM     18  C   UNL A   1      37.506  34.365  32.938  1.00  0.00     0.029 A 
ATOM     19  N   UNL A   1      39.104  32.807  33.100  1.00  0.00    -0.354 N 
ATOM     20  C   UNL A   1      39.538  29.744  30.089  1.00  0.00     0.074 A 
ATOM     21  C   UNL A   1      38.568  29.917  29.028  1.00  0.00     0.031 C 
ATOM     22  C   UNL A   1      38.185  34.602  34.070  1.00  0.00     0.029 A 
ATOM     23  C   UNL A   1      39.193  33.563  34.242  1.00  0.00     0.049 A 
ATOM     24  H   UNL A   1      39.712  32.061  32.896  1.00  0.00     0.167 HD
ATOM     25  C   UNL A   1      40.464  28.756  30.130  1.00  0.00     0.031 A 
ATOM     26  C   UNL A   1      39.967  33.416  35.333  1.00  0.00     0.031 A 
ATOM     27  C   UNL A   1      41.410  28.583  31.201  1.00  0.00     0.049 A 
ATOM     28  C   UNL A   1      40.943  32.278  35.389  1.00  0.00     0.074 A 
ATOM     29  C   UNL A   1      42.412  27.635  31.322  1.00  0.00     0.029 A 
ATOM     30  N   UNL A   1      41.460  29.365  32.347  1.00  0.00    -0.354 N 
ATOM     31  N   UNL A   1      41.171  31.345  34.496  1.00  0.00    -0.248 NA
ATOM     32  C   UNL A   1      41.774  32.176  36.596  1.00  0.00     0.031 C 
ATOM     33  C   UNL A   1      43.019  27.799  32.571  1.00  0.00     0.029 A 
ATOM     34  C   UNL A   1      42.451  28.899  33.195  1.00  0.00     0.049 A 
ATOM     35  H   UNL A   1      40.877  30.136  32.530  1.00  0.00     0.167 HD
ATOM     36  C   UNL A   1      42.192  30.561  35.019  1.00  0.00     0.074 A 
ATOM     37  C   UNL A   1      42.539  31.132  36.305  1.00  0.00     0.031 C 
ATOM     38  C   UNL A   1      42.791  29.477  34.472  1.00  0.00     0.031 A 
BRANCH  25  39
ATOM     39  C   UNL A   1      40.454  27.753  29.007  1.00  0.00    -0.014 A 
ATOM     40  C   UNL A   1      41.222  27.935  27.846  1.00  0.00     0.009 A 
ATOM     41  C   UNL A   1      39.665  26.597  29.119  1.00  0.00     0.009 A 
ATOM     42  C   UNL A   1      41.154  27.012  26.799  1.00  0.00     0.001 A 
ATOM     43  C   UNL A   1      39.626  25.658  28.087  1.00  0.00     0.001 A 
ATOM     44  C   UNL A   1      40.358  25.874  26.921  1.00  0.00     0.000 A 
ENDBRANCH  25  39
BRANCH  26  45
ATOM     45  C   UNL A   1      39.815  34.369  36.462  1.00  0.00    -0.014 A 
ATOM     46  C   UNL A   1      39.001  34.055  37.558  1.00  0.00     0.009 A 
ATOM     47  C   UNL A   1      40.539  35.573  36.474  1.00  0.00     0.009 A 
ATOM     48  C   UNL A   1      38.906  34.935  38.640  1.00  0.00     0.001 A 
ATOM     49  C   UNL A   1      40.466  36.434  37.569  1.00  0.00     0.001 A 
ATOM     50  C   UNL A   1      39.646  36.116  38.649  1.00  0.00     0.000 A 
ENDBRANCH  26  45
BRANCH  38  51
ATOM     51  C   UNL A   1      43.928  28.853  35.232  1.00  0.00    -0.014 A 
ATOM     52  C   UNL A   1      45.249  29.303  35.082  1.00  0.00     0.009 A 
ATOM     53  C   UNL A   1      43.655  27.850  36.176  1.00  0.00     0.009 A 
ATOM     54  C   UNL A   1      46.274  28.749  35.853  1.00  0.00     0.001 A 
ATOM     55  C   UNL A   1      44.675  27.320  36.966  1.00  0.00     0.001 A 
ATOM     56  C   UNL A   1      45.985  27.766  36.800  1.00  0.00     0.000 A 
ENDBRANCH  38  51
ENDBRANCH  12  13
ENDBRANCH   5   7
ENDBRANCH   2   3
ENDBRANCH   1   2
BRANCH   1  57
ATOM     57  C   UNL A   1      31.404  30.621  26.542  1.00  0.00     0.023 C 
BRANCH  57  58
ATOM     58  C   UNL A   1      32.250  29.992  25.442  1.00  0.00     0.116 C 
BRANCH  58  59
ATOM     59  N   UNL A   1      31.448  29.302  24.450  1.00  0.00    -0.356 N 
ATOM     60  C   UNL A   1      31.124  27.976  24.401  1.00  0.00     0.225 C 
ATOM     61  H   UNL A   1      31.092  29.859  23.720  1.00  0.00     0.163 HD
ATOM     62  O   UNL A   1      30.452  27.565  23.459  1.00  0.00    -0.275 OA
BRANCH  60  63
ATOM     63  C   UNL A   1      31.641  27.081  25.502  1.00  0.00     0.107 C 
ATOM     64  C   UNL A   1      30.598  26.074  25.990  1.00  0.00     0.115 C 
ATOM     65  C   UNL A   1      32.772  26.187  25.033  1.00  0.00     0.133 C 
ATOM     66  C   UNL A   1      31.444  24.936  26.499  1.00  0.00     0.223 C 
ATOM     67  N   UNL A   1      32.704  25.076  25.951  1.00  0.00    -0.338 N 
ATOM     68  O   UNL A   1      31.059  24.054  27.250  1.00  0.00    -0.275 OA
BRANCH  67  69
ATOM     69  C   UNL A   1      33.786  24.127  26.128  1.00  0.00     0.155 C 
BRANCH  69  70
ATOM     70  C   UNL A   1      33.490  22.796  25.480  1.00  0.00    -0.026 A 
ATOM     71  C   UNL A   1      33.244  22.723  24.102  1.00  0.00     0.006 A 
ATOM     72  C   UNL A   1      33.426  21.632  26.265  1.00  0.00     0.032 A 
ATOM     73  C   UNL A   1      32.899  21.516  23.486  1.00  0.00     0.010 A 
ATOM     74  C   UNL A   1      33.110  20.427  25.625  1.00  0.00     0.046 A 
ATOM     75  C   UNL A   1      32.834  20.346  24.261  1.00  0.00    -0.001 A 
ATOM     76  N   UNL A   1      32.999  19.153  26.135  1.00  0.00    -0.361 N 
ATOM     77  C   UNL A   1      32.527  18.989  23.974  1.00  0.00     0.028 A 
ATOM     78  C   UNL A   1      32.645  18.276  25.145  1.00  0.00     0.083 A 
ATOM     79  H   UNL A   1      33.153  18.908  27.076  1.00  0.00     0.166 HD
ENDBRANCH  69  70
ENDBRANCH  67  69
ENDBRANCH  60  63
ENDBRANCH  58  59
ENDBRANCH  57  58
ENDBRANCH   1  57
TORSDOF 13
ENDMDL
MODEL 3
REMARK VINA RESULT:     -11.8      3.221      7.350
REMARK SMILES O=C(NCCCCNC(=O)[C@H]1CC(=O)N(Cc2ccc3cc[nH]c3c2)C1)c1ccc(-c2c3nc(c(-c4ccccc4)c4ccc([nH]4)c(-c4ccccc4)c4nc(c(-c5ccccc5)c5ccc2[nH]5)C=C4)C=C3)cc1
REMARK SMILES IDX 5 1 4 2 3 3 1 4 2 5 27 7 28 8 74 9 29 10 73 11 30 12 31 13
REMARK SMILES IDX 32 14 67 15 33 16 72 17 66 18 68 19 34 20 71 21 65 22 64 23
REMARK SMILES IDX 35 25 57 26 42 27 56 28 43 29 46 30 55 31 69 32 44 33 45 34
REMARK SMILES IDX 54 36 70 37 47 38 36 39 37 40 41 41 38 42 40 43 39 44 58 45
REMARK SMILES IDX 59 46 63 47 60 48 62 49 61 50 48 51 49 52 53 53 50 54 52 55
REMARK SMILES IDX 51 56 6 57 7 58 8 59 9 60 10 62 11 63 12 64 26 65 13 66
REMARK SMILES IDX 15 67 14 68 16 69 17 70 18 71 25 72 19 73 24 74 20 75 23 76
REMARK SMILES IDX 21 77 22 78
REMARK H PARENT 3 6 68 24 46 35 8 61 23 79
REMARK Flexibility Score: inf
ROOT
ATOM      1  C   UNL A   1      35.792  23.320  25.995  1.00  0.00     0.023 C 
ENDROOT
BRANCH   1   2
ATOM      2  C   UNL A   1      37.097  23.719  25.316  1.00  0.00     0.116 C 
BRANCH   2   3
ATOM      3  N   UNL A   1      38.175  22.781  25.584  1.00  0.00    -0.352 N 
ATOM      4  O   UNL A   1      40.250  22.121  26.170  1.00  0.00    -0.269 OA
ATOM      5  C   UNL A   1      39.391  22.995  26.185  1.00  0.00     0.251 C 
ATOM      6  H   UNL A   1      38.008  21.856  25.293  1.00  0.00     0.163 HD
BRANCH   5   7
ATOM      7  C   UNL A   1      39.670  24.296  26.827  1.00  0.00     0.039 A 
ATOM      8  C   UNL A   1      40.379  25.290  26.148  1.00  0.00     0.014 A 
ATOM      9  C   UNL A   1      39.209  24.517  28.125  1.00  0.00     0.014 A 
ATOM     10  C   UNL A   1      40.754  26.449  26.816  1.00  0.00     0.010 A 
ATOM     11  C   UNL A   1      39.511  25.720  28.765  1.00  0.00     0.010 A 
ATOM     12  C   UNL A   1      40.311  26.681  28.127  1.00  0.00    -0.014 A 
BRANCH  12  13
ATOM     13  C   UNL A   1      40.637  27.954  28.812  1.00  0.00     0.031 A 
ATOM     14  C   UNL A   1      41.946  28.128  29.525  1.00  0.00     0.074 A 
ATOM     15  C   UNL A   1      39.721  28.940  28.828  1.00  0.00     0.049 A 
ATOM     16  N   UNL A   1      42.356  29.127  30.266  1.00  0.00    -0.248 NA
ATOM     17  C   UNL A   1      42.919  27.033  29.398  1.00  0.00     0.031 C 
ATOM     18  C   UNL A   1      38.417  28.890  28.164  1.00  0.00     0.029 A 
ATOM     19  N   UNL A   1      39.740  30.167  29.439  1.00  0.00    -0.354 N 
ATOM     20  C   UNL A   1      43.618  28.769  30.720  1.00  0.00     0.074 A 
ATOM     21  C   UNL A   1      43.898  27.451  30.188  1.00  0.00     0.031 C 
ATOM     22  C   UNL A   1      37.763  30.037  28.397  1.00  0.00     0.029 A 
ATOM     23  C   UNL A   1      38.570  30.868  29.283  1.00  0.00     0.049 A 
ATOM     24  H   UNL A   1      40.515  30.511  29.938  1.00  0.00     0.167 HD
ATOM     25  C   UNL A   1      44.464  29.474  31.510  1.00  0.00     0.031 A 
ATOM     26  C   UNL A   1      38.166  32.030  29.828  1.00  0.00     0.031 A 
ATOM     27  C   UNL A   1      44.165  30.776  32.048  1.00  0.00     0.049 A 
ATOM     28  C   UNL A   1      39.090  32.767  30.750  1.00  0.00     0.074 A 
ATOM     29  C   UNL A   1      44.967  31.589  32.831  1.00  0.00     0.029 A 
ATOM     30  N   UNL A   1      42.963  31.446  31.876  1.00  0.00    -0.354 N 
ATOM     31  N   UNL A   1      40.298  32.436  31.142  1.00  0.00    -0.248 NA
ATOM     32  C   UNL A   1      38.603  34.038  31.302  1.00  0.00     0.031 C 
ATOM     33  C   UNL A   1      44.224  32.717  33.191  1.00  0.00     0.029 A 
ATOM     34  C   UNL A   1      42.988  32.647  32.567  1.00  0.00     0.049 A 
ATOM     35  H   UNL A   1      42.205  31.118  31.342  1.00  0.00     0.167 HD
ATOM     36  C   UNL A   1      40.728  33.472  31.961  1.00  0.00     0.074 A 
ATOM     37  C   UNL A   1      39.652  34.442  32.007  1.00  0.00     0.031 C 
ATOM     38  C   UNL A   1      41.912  33.607  32.604  1.00  0.00     0.031 A 
BRANCH  25  39
ATOM     39  C   UNL A   1      45.767  28.819  31.883  1.00  0.00    -0.014 A 
ATOM     40  C   UNL A   1      45.907  28.069  33.062  1.00  0.00     0.009 A 
ATOM     41  C   UNL A   1      46.876  28.949  31.031  1.00  0.00     0.009 A 
ATOM     42  C   UNL A   1      47.143  27.514  33.406  1.00  0.00     0.001 A 
ATOM     43  C   UNL A   1      48.100  28.365  31.360  1.00  0.00     0.001 A 
ATOM     44  C   UNL A   1      48.237  27.661  32.555  1.00  0.00     0.000 A 
ENDBRANCH  25  39
BRANCH  26  45
ATOM     45  C   UNL A   1      36.805  32.539  29.519  1.00  0.00    -0.014 A 
ATOM     46  C   UNL A   1      35.741  32.321  30.405  1.00  0.00     0.009 A 
ATOM     47  C   UNL A   1      36.580  33.301  28.360  1.00  0.00     0.009 A 
ATOM     48  C   UNL A   1      34.477  32.849  30.131  1.00  0.00     0.001 A 
ATOM     49  C   UNL A   1      35.324  33.853  28.106  1.00  0.00     0.001 A 
ATOM     50  C   UNL A   1      34.273  33.622  28.989  1.00  0.00     0.000 A 
ENDBRANCH  26  45
BRANCH  38  51
ATOM     51  C   UNL A   1      42.144  34.875  33.377  1.00  0.00    -0.014 A 
ATOM     52  C   UNL A   1      41.712  35.019  34.704  1.00  0.00     0.009 A 
ATOM     53  C   UNL A   1      42.882  35.913  32.786  1.00  0.00     0.009 A 
ATOM     54  C   UNL A   1      42.004  36.184  35.417  1.00  0.00     0.001 A 
ATOM     55  C   UNL A   1      43.198  37.063  33.510  1.00  0.00     0.001 A 
ATOM     56  C   UNL A   1      42.754  37.200  34.823  1.00  0.00     0.000 A 
ENDBRANCH  38  51
ENDBRANCH  12  13
ENDBRANCH   5   7
ENDBRANCH   2   3
ENDBRANCH   1   2
BRANCH   1  57
ATOM     57  C   UNL A   1      35.603  21.818  26.186  1.00  0.00     0.023 C 
BRANCH  57  58
ATOM     58  C   UNL A   1      34.415  21.428  27.057  1.00  0.00     0.116 C 
BRANCH  58  59
ATOM     59  N   UNL A   1      33.508  20.518  26.384  1.00  0.00    -0.356 N 
ATOM     60  C   UNL A   1      32.550  20.814  25.458  1.00  0.00     0.225 C 
ATOM     61  H   UNL A   1      33.594  19.568  26.627  1.00  0.00     0.163 HD
ATOM     62  O   UNL A   1      31.852  19.905  25.017  1.00  0.00    -0.275 OA
BRANCH  60  63
ATOM     63  C   UNL A   1      32.383  22.258  25.049  1.00  0.00     0.107 C 
ATOM     64  C   UNL A   1      31.504  22.428  23.808  1.00  0.00     0.115 C 
ATOM     65  C   UNL A   1      31.644  23.070  26.094  1.00  0.00     0.133 C 
ATOM     66  C   UNL A   1      30.933  23.810  23.990  1.00  0.00     0.223 C 
ATOM     67  N   UNL A   1      31.081  24.151  25.320  1.00  0.00    -0.338 N 
ATOM     68  O   UNL A   1      30.424  24.482  23.107  1.00  0.00    -0.275 OA
BRANCH  67  69
ATOM     69  C   UNL A   1      30.574  25.372  25.917  1.00  0.00     0.155 C 
BRANCH  69  70
ATOM     70  C   UNL A   1      31.655  26.406  26.108  1.00  0.00    -0.026 A 
ATOM     71  C   UNL A   1      32.966  26.140  25.689  1.00  0.00     0.006 A 
ATOM     72  C   UNL A   1      31.356  27.625  26.739  1.00  0.00     0.032 A 
ATOM     73  C   UNL A   1      34.004  27.051  25.916  1.00  0.00     0.010 A 
ATOM     74  C   UNL A   1      32.401  28.538  26.929  1.00  0.00     0.046 A 
ATOM     75  C   UNL A   1      33.715  28.274  26.544  1.00  0.00    -0.001 A 
ATOM     76  N   UNL A   1      32.392  29.795  27.492  1.00  0.00    -0.361 N 
ATOM     77  C   UNL A   1      34.498  29.399  26.919  1.00  0.00     0.028 A 
ATOM     78  C   UNL A   1      33.655  30.324  27.492  1.00  0.00     0.083 A 
ATOM     79  H   UNL A   1      31.592  30.249  27.843  1.00  0.00     0.166 HD
ENDBRANCH  69  70
ENDBRANCH  67  69
ENDBRANCH  60  63
ENDBRANCH  58  59
ENDBRANCH  57  58
ENDBRANCH   1  57
TORSDOF 13
ENDMDL
