MODEL 1
REMARK VINA RESULT:     -12.8      0.000      0.000
REMARK SMILES CC1=C([C@H](NC(=O)[C@@H]2[C@H](C)c3cc(F)ccc3N2C)C(=O)NCCCCNC(=O)c2ccc(-c3c4nc(c(-c5ccccc5)c5ccc([nH]5)c(-c5ccccc5)c5nc(c(-c6ccccc6)c6ccc3[nH]6)C=C5)C=C4)cc2)[C@@H](C)N=N1
REMARK SMILES IDX 24 1 23 2 22 3 20 4 21 5 4 7 3 8 1 9 2 10 81 11 78 12 80 13
REMARK SMILES IDX 79 14 5 15 6 16 7 18 8 19 9 20 18 21 11 22 10 23 17 24 19 25
REMARK SMILES IDX 12 26 16 27 13 28 15 29 14 30 25 31 26 32 27 33 28 34 29 36
REMARK SMILES IDX 30 37 31 38 77 39 32 40 76 41 33 42 34 43 35 44 70 45 36 46
REMARK SMILES IDX 75 47 69 48 71 49 37 50 74 51 68 52 67 53 38 55 60 56 45 57
REMARK SMILES IDX 59 58 46 59 49 60 58 61 72 62 47 63 48 64 57 66 73 67 50 68
REMARK SMILES IDX 39 69 40 70 44 71 41 72 43 73 42 74 61 75 62 76 66 77 63 78
REMARK SMILES IDX 65 79 64 80 51 81 52 82 56 83 53 84 55 85 54 86
REMARK H PARENT 22 6 5 17 27 35 71 54 49 65
REMARK Flexibility Score: inf
ROOT
ATOM      1  C   UNL A   1      31.428  28.353  27.617  1.00  0.00     0.023 C 
ENDROOT
BRANCH   1   2
ATOM      2  C   UNL A   1      32.079  27.140  27.009  1.00  0.00     0.116 C 
BRANCH   2   3
ATOM      3  N   UNL A   1      31.108  26.098  26.775  1.00  0.00    -0.354 N 
ATOM      4  C   UNL A   1      30.870  25.385  25.655  1.00  0.00     0.247 C 
ATOM      5  O   UNL A   1      30.141  24.394  25.771  1.00  0.00    -0.272 OA
ATOM      6  H   UNL A   1      30.537  25.875  27.545  1.00  0.00     0.163 HD
BRANCH   4   7
ATOM      7  C   UNL A   1      31.616  25.673  24.333  1.00  0.00     0.202 C 
BRANCH   7   8
ATOM      8  C   UNL A   1      31.348  26.997  23.748  1.00  0.00     0.011 C 
ATOM      9  C   UNL A   1      34.200  28.922  23.714  1.00  0.00     0.069 C 
ATOM     10  C   UNL A   1      32.203  28.054  23.410  1.00  0.00     0.064 C 
ATOM     11  N   UNL A   1      31.275  28.671  22.349  1.00  0.00    -0.160 NA
ATOM     12  C   UNL A   1      30.043  27.037  22.949  1.00  0.00     0.156 C 
ATOM     13  N   UNL A   1      30.226  28.117  22.036  1.00  0.00    -0.181 NA
ATOM     14  C   UNL A   1      28.710  27.308  23.638  1.00  0.00     0.040 C 
ENDBRANCH   7   8
BRANCH   7  15
ATOM     15  N   UNL A   1      31.642  24.794  23.192  1.00  0.00    -0.339 N 
ATOM     16  C   UNL A   1      32.411  23.652  23.114  1.00  0.00     0.244 C 
ATOM     17  H   UNL A   1      31.076  25.024  22.420  1.00  0.00     0.164 HD
ATOM     18  O   UNL A   1      32.520  23.112  22.011  1.00  0.00    -0.273 OA
BRANCH  16  19
ATOM     19  C   UNL A   1      32.983  22.993  24.417  1.00  0.00     0.178 C 
ATOM     20  C   UNL A   1      34.562  23.973  25.253  1.00  0.00     0.050 C 
ATOM     21  N   UNL A   1      33.510  21.083  24.494  1.00  0.00    -0.362 N 
ATOM     22  C   UNL A   1      35.989  22.624  25.426  1.00  0.00    -0.016 A 
ATOM     23  C   UNL A   1      34.802  25.503  25.352  1.00  0.00     0.015 C 
ATOM     24  C   UNL A   1      35.324  20.932  25.112  1.00  0.00     0.041 A 
ATOM     25  C   UNL A   1      32.774  20.005  23.868  1.00  0.00     0.144 C 
ATOM     26  C   UNL A   1      37.311  22.878  25.522  1.00  0.00     0.045 A 
ATOM     27  C   UNL A   1      36.136  19.854  24.961  1.00  0.00     0.029 A 
ATOM     28  C   UNL A   1      38.030  21.682  25.334  1.00  0.00     0.123 A 
ATOM     29  C   UNL A   1      37.496  20.296  25.074  1.00  0.00     0.041 A 
ATOM     30  F   UNL A   1      39.372  21.800  25.338  1.00  0.00    -0.207 F 
ENDBRANCH  16  19
ENDBRANCH   7  15
ENDBRANCH   4   7
ENDBRANCH   2   3
ENDBRANCH   1   2
BRANCH   1  31
ATOM     31  C   UNL A   1      31.881  29.649  26.943  1.00  0.00     0.023 C 
BRANCH  31  32
ATOM     32  C   UNL A   1      33.371  29.973  27.129  1.00  0.00     0.116 C 
BRANCH  32  33
ATOM     33  N   UNL A   1      33.626  31.083  28.020  1.00  0.00    -0.352 N 
ATOM     34  C   UNL A   1      34.776  31.672  28.459  1.00  0.00     0.251 C 
ATOM     35  H   UNL A   1      32.808  31.494  28.381  1.00  0.00     0.163 HD
ATOM     36  O   UNL A   1      34.657  32.715  29.103  1.00  0.00    -0.269 OA
BRANCH  34  37
ATOM     37  C   UNL A   1      36.115  31.053  28.321  1.00  0.00     0.039 A 
ATOM     38  C   UNL A   1      36.391  29.822  27.729  1.00  0.00     0.014 A 
ATOM     39  C   UNL A   1      37.161  31.751  28.940  1.00  0.00     0.014 A 
ATOM     40  C   UNL A   1      37.572  29.164  28.027  1.00  0.00     0.010 A 
ATOM     41  C   UNL A   1      38.391  31.154  29.119  1.00  0.00     0.010 A 
ATOM     42  C   UNL A   1      38.536  29.812  28.805  1.00  0.00    -0.014 A 
BRANCH  42  43
ATOM     43  C   UNL A   1      39.818  29.167  29.042  1.00  0.00     0.031 A 
ATOM     44  C   UNL A   1      40.046  28.989  30.503  1.00  0.00     0.074 A 
ATOM     45  C   UNL A   1      40.606  28.693  28.047  1.00  0.00     0.049 A 
ATOM     46  N   UNL A   1      40.981  29.533  31.205  1.00  0.00    -0.248 NA
ATOM     47  C   UNL A   1      38.991  28.352  31.323  1.00  0.00     0.031 C 
ATOM     48  C   UNL A   1      40.366  28.692  26.599  1.00  0.00     0.029 A 
ATOM     49  N   UNL A   1      41.784  28.005  28.134  1.00  0.00    -0.354 N 
ATOM     50  C   UNL A   1      40.779  29.095  32.509  1.00  0.00     0.074 A 
ATOM     51  C   UNL A   1      39.452  28.550  32.558  1.00  0.00     0.031 C 
ATOM     52  C   UNL A   1      41.203  27.813  25.994  1.00  0.00     0.029 A 
ATOM     53  C   UNL A   1      42.134  27.295  26.976  1.00  0.00     0.049 A 
ATOM     54  H   UNL A   1      42.343  28.009  28.945  1.00  0.00     0.167 HD
ATOM     55  C   UNL A   1      41.835  28.959  33.353  1.00  0.00     0.031 A 
ATOM     56  C   UNL A   1      43.080  26.313  26.877  1.00  0.00     0.031 A 
ATOM     57  C   UNL A   1      42.962  29.726  32.892  1.00  0.00     0.049 A 
ATOM     58  C   UNL A   1      44.006  26.502  28.027  1.00  0.00     0.074 A 
ATOM     59  C   UNL A   1      43.169  31.073  32.665  1.00  0.00     0.029 A 
ATOM     60  N   UNL A   1      43.898  29.055  32.142  1.00  0.00    -0.354 N 
ATOM     61  N   UNL A   1      44.773  27.551  28.137  1.00  0.00    -0.248 NA
ATOM     62  C   UNL A   1      43.622  25.850  29.274  1.00  0.00     0.031 C 
ATOM     63  C   UNL A   1      43.872  31.126  31.429  1.00  0.00     0.029 A 
ATOM     64  C   UNL A   1      44.198  29.824  31.047  1.00  0.00     0.049 A 
ATOM     65  H   UNL A   1      44.285  28.175  32.353  1.00  0.00     0.167 HD
ATOM     66  C   UNL A   1      44.580  27.971  29.443  1.00  0.00     0.074 A 
ATOM     67  C   UNL A   1      43.850  26.878  30.095  1.00  0.00     0.031 C 
ATOM     68  C   UNL A   1      44.709  29.281  29.806  1.00  0.00     0.031 A 
BRANCH  55  69
ATOM     69  C   UNL A   1      41.977  27.796  34.299  1.00  0.00    -0.014 A 
ATOM     70  C   UNL A   1      42.646  26.601  33.967  1.00  0.00     0.009 A 
ATOM     71  C   UNL A   1      41.676  27.994  35.657  1.00  0.00     0.009 A 
ATOM     72  C   UNL A   1      42.997  25.653  34.931  1.00  0.00     0.001 A 
ATOM     73  C   UNL A   1      42.058  27.064  36.632  1.00  0.00     0.001 A 
ATOM     74  C   UNL A   1      42.717  25.894  36.267  1.00  0.00     0.000 A 
ENDBRANCH  55  69
BRANCH  56  75
ATOM     75  C   UNL A   1      42.893  24.953  26.272  1.00  0.00    -0.014 A 
ATOM     76  C   UNL A   1      42.185  23.968  26.983  1.00  0.00     0.009 A 
ATOM     77  C   UNL A   1      43.660  24.517  25.171  1.00  0.00     0.009 A 
ATOM     78  C   UNL A   1      42.287  22.607  26.663  1.00  0.00     0.001 A 
ATOM     79  C   UNL A   1      43.754  23.150  24.842  1.00  0.00     0.001 A 
ATOM     80  C   UNL A   1      43.087  22.195  25.604  1.00  0.00     0.000 A 
ENDBRANCH  56  75
BRANCH  68  81
ATOM     81  C   UNL A   1      45.259  30.288  28.823  1.00  0.00    -0.014 A 
ATOM     82  C   UNL A   1      44.311  30.995  28.065  1.00  0.00     0.009 A 
ATOM     83  C   UNL A   1      46.614  30.406  28.459  1.00  0.00     0.009 A 
ATOM     84  C   UNL A   1      44.682  31.763  26.964  1.00  0.00     0.001 A 
ATOM     85  C   UNL A   1      46.991  31.207  27.369  1.00  0.00     0.001 A 
ATOM     86  C   UNL A   1      46.024  31.873  26.616  1.00  0.00     0.000 A 
ENDBRANCH  68  81
ENDBRANCH  42  43
ENDBRANCH  34  37
ENDBRANCH  32  33
ENDBRANCH  31  32
ENDBRANCH   1  31
TORSDOF 14
ENDMDL
MODEL 2
REMARK VINA RESULT:     -12.2      1.956      3.059
REMARK SMILES CC1=C([C@H](NC(=O)[C@@H]2[C@H](C)c3cc(F)ccc3N2C)C(=O)NCCCCNC(=O)c2ccc(-c3c4nc(c(-c5ccccc5)c5ccc([nH]5)c(-c5ccccc5)c5nc(c(-c6ccccc6)c6ccc3[nH]6)C=C5)C=C4)cc2)[C@@H](C)N=N1
REMARK SMILES IDX 24 1 23 2 22 3 20 4 21 5 4 7 3 8 1 9 2 10 81 11 78 12 80 13
REMARK SMILES IDX 79 14 5 15 6 16 7 18 8 19 9 20 18 21 11 22 10 23 17 24 19 25
REMARK SMILES IDX 12 26 16 27 13 28 15 29 14 30 25 31 26 32 27 33 28 34 29 36
REMARK SMILES IDX 30 37 31 38 77 39 32 40 76 41 33 42 34 43 35 44 70 45 36 46
REMARK SMILES IDX 75 47 69 48 71 49 37 50 74 51 68 52 67 53 38 55 60 56 45 57
REMARK SMILES IDX 59 58 46 59 49 60 58 61 72 62 47 63 48 64 57 66 73 67 50 68
REMARK SMILES IDX 39 69 40 70 44 71 41 72 43 73 42 74 61 75 62 76 66 77 63 78
REMARK SMILES IDX 65 79 64 80 51 81 52 82 56 83 53 84 55 85 54 86
REMARK H PARENT 22 6 5 17 27 35 71 54 49 65
REMARK Flexibility Score: inf
ROOT
ATOM      1  C   UNL A   1      35.052  29.249  27.914  1.00  0.00     0.023 C 
ENDROOT
BRANCH   1   2
ATOM      2  C   UNL A   1      34.252  28.762  26.736  1.00  0.00     0.116 C 
BRANCH   2   3
ATOM      3  N   UNL A   1      33.202  29.695  26.406  1.00  0.00    -0.354 N 
ATOM      4  C   UNL A   1      32.002  29.465  25.834  1.00  0.00     0.247 C 
ATOM      5  O   UNL A   1      31.186  30.393  25.862  1.00  0.00    -0.272 OA
ATOM      6  H   UNL A   1      33.388  30.634  26.632  1.00  0.00     0.163 HD
BRANCH   4   7
ATOM      7  C   UNL A   1      31.593  28.061  25.336  1.00  0.00     0.202 C 
BRANCH   7   8
ATOM      8  C   UNL A   1      31.086  28.019  23.955  1.00  0.00     0.011 C 
ATOM      9  C   UNL A   1      27.852  26.844  23.872  1.00  0.00     0.069 C 
ATOM     10  C   UNL A   1      29.812  27.743  23.441  1.00  0.00     0.064 C 
ATOM     11  N   UNL A   1      30.004  28.519  22.125  1.00  0.00    -0.160 NA
ATOM     12  C   UNL A   1      31.921  28.867  22.992  1.00  0.00     0.156 C 
ATOM     13  N   UNL A   1      31.024  29.171  21.926  1.00  0.00    -0.181 NA
ATOM     14  C   UNL A   1      33.167  28.296  22.325  1.00  0.00     0.040 C 
ENDBRANCH   7   8
BRANCH   7  15
ATOM     15  N   UNL A   1      30.727  27.155  26.046  1.00  0.00    -0.339 N 
ATOM     16  C   UNL A   1      30.804  25.781  25.952  1.00  0.00     0.244 C 
ATOM     17  H   UNL A   1      30.037  27.540  26.633  1.00  0.00     0.164 HD
ATOM     18  O   UNL A   1      29.873  25.124  26.423  1.00  0.00    -0.273 OA
BRANCH  16  19
ATOM     19  C   UNL A   1      32.105  25.096  25.407  1.00  0.00     0.178 C 
ATOM     20  C   UNL A   1      32.001  24.469  23.471  1.00  0.00     0.050 C 
ATOM     21  N   UNL A   1      32.983  23.591  26.351  1.00  0.00    -0.362 N 
ATOM     22  C   UNL A   1      32.496  22.562  23.506  1.00  0.00    -0.016 A 
ATOM     23  C   UNL A   1      31.291  25.157  22.274  1.00  0.00     0.015 C 
ATOM     24  C   UNL A   1      33.192  22.103  25.152  1.00  0.00     0.041 A 
ATOM     25  C   UNL A   1      33.134  23.501  27.788  1.00  0.00     0.144 C 
ATOM     26  C   UNL A   1      32.171  21.643  22.574  1.00  0.00     0.045 A 
ATOM     27  C   UNL A   1      33.414  20.810  25.507  1.00  0.00     0.029 A 
ATOM     28  C   UNL A   1      32.437  20.354  23.077  1.00  0.00     0.123 A 
ATOM     29  C   UNL A   1      33.004  19.969  24.420  1.00  0.00     0.041 A 
ATOM     30  F   UNL A   1      32.096  19.329  22.272  1.00  0.00    -0.207 F 
ENDBRANCH  16  19
ENDBRANCH   7  15
ENDBRANCH   4   7
ENDBRANCH   2   3
ENDBRANCH   1   2
BRANCH   1  31
ATOM     31  C   UNL A   1      35.958  30.426  27.548  1.00  0.00     0.023 C 
BRANCH  31  32
ATOM     32  C   UNL A   1      35.384  31.804  27.908  1.00  0.00     0.116 C 
BRANCH  32  33
ATOM     33  N   UNL A   1      34.913  31.909  29.272  1.00  0.00    -0.352 N 
ATOM     34  C   UNL A   1      35.527  31.740  30.478  1.00  0.00     0.251 C 
ATOM     35  H   UNL A   1      33.962  32.151  29.342  1.00  0.00     0.163 HD
ATOM     36  O   UNL A   1      34.885  32.057  31.480  1.00  0.00    -0.269 OA
BRANCH  34  37
ATOM     37  C   UNL A   1      36.843  31.077  30.640  1.00  0.00     0.039 A 
ATOM     38  C   UNL A   1      38.088  31.672  30.446  1.00  0.00     0.014 A 
ATOM     39  C   UNL A   1      36.788  29.705  30.919  1.00  0.00     0.014 A 
ATOM     40  C   UNL A   1      39.199  30.880  30.209  1.00  0.00     0.010 A 
ATOM     41  C   UNL A   1      37.923  28.927  30.822  1.00  0.00     0.010 A 
ATOM     42  C   UNL A   1      39.082  29.492  30.314  1.00  0.00    -0.014 A 
BRANCH  42  43
ATOM     43  C   UNL A   1      40.264  28.658  30.162  1.00  0.00     0.031 A 
ATOM     44  C   UNL A   1      40.902  28.417  31.486  1.00  0.00     0.074 A 
ATOM     45  C   UNL A   1      40.627  28.092  28.986  1.00  0.00     0.049 A 
ATOM     46  N   UNL A   1      42.077  28.800  31.852  1.00  0.00    -0.248 NA
ATOM     47  C   UNL A   1      40.067  27.927  32.607  1.00  0.00     0.031 C 
ATOM     48  C   UNL A   1      39.956  28.158  27.682  1.00  0.00     0.029 A 
ATOM     49  N   UNL A   1      41.659  27.234  28.724  1.00  0.00    -0.354 N 
ATOM     50  C   UNL A   1      42.224  28.369  33.166  1.00  0.00     0.074 A 
ATOM     51  C   UNL A   1      40.910  28.028  33.636  1.00  0.00     0.031 C 
ATOM     52  C   UNL A   1      40.425  27.177  26.872  1.00  0.00     0.029 A 
ATOM     53  C   UNL A   1      41.526  26.504  27.534  1.00  0.00     0.049 A 
ATOM     54  H   UNL A   1      42.434  27.137  29.324  1.00  0.00     0.167 HD
ATOM     55  C   UNL A   1      43.456  28.059  33.648  1.00  0.00     0.031 A 
ATOM     56  C   UNL A   1      42.237  25.394  27.174  1.00  0.00     0.031 A 
ATOM     57  C   UNL A   1      44.487  28.658  32.842  1.00  0.00     0.049 A 
ATOM     58  C   UNL A   1      43.489  25.418  27.979  1.00  0.00     0.074 A 
ATOM     59  C   UNL A   1      44.812  29.963  32.528  1.00  0.00     0.029 A 
ATOM     60  N   UNL A   1      45.036  27.870  31.859  1.00  0.00    -0.354 N 
ATOM     61  N   UNL A   1      44.401  26.337  27.820  1.00  0.00    -0.248 NA
ATOM     62  C   UNL A   1      43.416  24.804  29.300  1.00  0.00     0.031 C 
ATOM     63  C   UNL A   1      45.100  29.936  31.135  1.00  0.00     0.029 A 
ATOM     64  C   UNL A   1      45.095  28.609  30.705  1.00  0.00     0.049 A 
ATOM     65  H   UNL A   1      45.333  26.938  31.964  1.00  0.00     0.167 HD
ATOM     66  C   UNL A   1      44.684  26.754  29.110  1.00  0.00     0.074 A 
ATOM     67  C   UNL A   1      44.036  25.769  29.984  1.00  0.00     0.031 C 
ATOM     68  C   UNL A   1      45.112  28.022  29.382  1.00  0.00     0.031 A 
BRANCH  55  69
ATOM     69  C   UNL A   1      43.707  26.867  34.534  1.00  0.00    -0.014 A 
ATOM     70  C   UNL A   1      43.597  26.906  35.938  1.00  0.00     0.009 A 
ATOM     71  C   UNL A   1      43.792  25.595  33.942  1.00  0.00     0.009 A 
ATOM     72  C   UNL A   1      43.570  25.744  36.713  1.00  0.00     0.001 A 
ATOM     73  C   UNL A   1      43.729  24.428  34.712  1.00  0.00     0.001 A 
ATOM     74  C   UNL A   1      43.620  24.503  36.097  1.00  0.00     0.000 A 
ENDBRANCH  55  69
BRANCH  56  75
ATOM     75  C   UNL A   1      41.673  24.091  26.692  1.00  0.00    -0.014 A 
ATOM     76  C   UNL A   1      40.456  23.623  27.221  1.00  0.00     0.009 A 
ATOM     77  C   UNL A   1      42.455  23.162  25.974  1.00  0.00     0.009 A 
ATOM     78  C   UNL A   1      40.066  22.281  27.103  1.00  0.00     0.001 A 
ATOM     79  C   UNL A   1      42.057  21.816  25.846  1.00  0.00     0.001 A 
ATOM     80  C   UNL A   1      40.875  21.372  26.433  1.00  0.00     0.000 A 
ENDBRANCH  56  75
BRANCH  68  81
ATOM     81  C   UNL A   1      45.476  28.956  28.251  1.00  0.00    -0.014 A 
ATOM     82  C   UNL A   1      46.847  29.087  27.974  1.00  0.00     0.009 A 
ATOM     83  C   UNL A   1      44.589  29.848  27.621  1.00  0.00     0.009 A 
ATOM     84  C   UNL A   1      47.329  30.087  27.133  1.00  0.00     0.001 A 
ATOM     85  C   UNL A   1      45.072  30.835  26.747  1.00  0.00     0.001 A 
ATOM     86  C   UNL A   1      46.442  30.961  26.515  1.00  0.00     0.000 A 
ENDBRANCH  68  81
ENDBRANCH  42  43
ENDBRANCH  34  37
ENDBRANCH  32  33
ENDBRANCH  31  32
ENDBRANCH   1  31
TORSDOF 14
ENDMDL
MODEL 3
REMARK VINA RESULT:     -12.1      3.130      7.319
REMARK SMILES CC1=C([C@H](NC(=O)[C@@H]2[C@H](C)c3cc(F)ccc3N2C)C(=O)NCCCCNC(=O)c2ccc(-c3c4nc(c(-c5ccccc5)c5ccc([nH]5)c(-c5ccccc5)c5nc(c(-c6ccccc6)c6ccc3[nH]6)C=C5)C=C4)cc2)[C@@H](C)N=N1
REMARK SMILES IDX 24 1 23 2 22 3 20 4 21 5 4 7 3 8 1 9 2 10 81 11 78 12 80 13
REMARK SMILES IDX 79 14 5 15 6 16 7 18 8 19 9 20 18 21 11 22 10 23 17 24 19 25
REMARK SMILES IDX 12 26 16 27 13 28 15 29 14 30 25 31 26 32 27 33 28 34 29 36
REMARK SMILES IDX 30 37 31 38 77 39 32 40 76 41 33 42 34 43 35 44 70 45 36 46
REMARK SMILES IDX 75 47 69 48 71 49 37 50 74 51 68 52 67 53 38 55 60 56 45 57
REMARK SMILES IDX 59 58 46 59 49 60 58 61 72 62 47 63 48 64 57 66 73 67 50 68
REMARK SMILES IDX 39 69 40 70 44 71 41 72 43 73 42 74 61 75 62 76 66 77 63 78
REMARK SMILES IDX 65 79 64 80 51 81 52 82 56 83 53 84 55 85 54 86
REMARK H PARENT 22 6 5 17 27 35 71 54 49 65
REMARK Flexibility Score: inf
ROOT
ATOM      1  C   UNL A   1      32.776  26.495  26.699  1.00  0.00     0.023 C 
ENDROOT
BRANCH   1   2
ATOM      2  C   UNL A   1      32.930  25.016  26.467  1.00  0.00     0.116 C 
BRANCH   2   3
ATOM      3  N   UNL A   1      34.301  24.682  26.168  1.00  0.00    -0.354 N 
ATOM      4  C   UNL A   1      34.808  24.008  25.116  1.00  0.00     0.247 C 
ATOM      5  O   UNL A   1      36.036  24.046  24.970  1.00  0.00    -0.272 OA
ATOM      6  H   UNL A   1      34.962  24.990  26.829  1.00  0.00     0.163 HD
BRANCH   4   7
ATOM      7  C   UNL A   1      33.899  23.379  24.037  1.00  0.00     0.202 C 
BRANCH   7   8
ATOM      8  C   UNL A   1      33.923  21.908  23.991  1.00  0.00     0.011 C 
ATOM      9  C   UNL A   1      36.914  20.693  25.182  1.00  0.00     0.069 C 
ATOM     10  C   UNL A   1      34.851  20.978  24.478  1.00  0.00     0.064 C 
ATOM     11  N   UNL A   1      33.854  19.811  24.597  1.00  0.00    -0.160 NA
ATOM     12  C   UNL A   1      32.527  21.298  23.838  1.00  0.00     0.156 C 
ATOM     13  N   UNL A   1      32.661  19.982  24.370  1.00  0.00    -0.181 NA
ATOM     14  C   UNL A   1      31.898  21.118  22.460  1.00  0.00     0.040 C 
ENDBRANCH   7   8
BRANCH   7  15
ATOM     15  N   UNL A   1      33.878  23.764  22.649  1.00  0.00    -0.339 N 
ATOM     16  C   UNL A   1      33.161  24.834  22.156  1.00  0.00     0.244 C 
ATOM     17  H   UNL A   1      34.406  23.229  22.014  1.00  0.00     0.164 HD
ATOM     18  O   UNL A   1      33.041  24.925  20.932  1.00  0.00    -0.273 OA
BRANCH  16  19
ATOM     19  C   UNL A   1      32.663  25.966  23.121  1.00  0.00     0.178 C 
ATOM     20  C   UNL A   1      30.824  25.650  23.940  1.00  0.00     0.050 C 
ATOM     21  N   UNL A   1      32.628  27.874  22.585  1.00  0.00    -0.362 N 
ATOM     22  C   UNL A   1      29.772  27.259  23.510  1.00  0.00    -0.016 A 
ATOM     23  C   UNL A   1      30.201  24.311  24.419  1.00  0.00     0.015 C 
ATOM     24  C   UNL A   1      30.863  28.592  22.848  1.00  0.00     0.041 A 
ATOM     25  C   UNL A   1      33.660  28.527  21.808  1.00  0.00     0.144 C 
ATOM     26  C   UNL A   1      28.425  27.336  23.466  1.00  0.00     0.045 A 
ATOM     27  C   UNL A   1      30.362  29.720  22.281  1.00  0.00     0.029 A 
ATOM     28  C   UNL A   1      28.046  28.543  22.845  1.00  0.00     0.123 A 
ATOM     29  C   UNL A   1      28.931  29.636  22.300  1.00  0.00     0.041 A 
ATOM     30  F   UNL A   1      26.723  28.722  22.673  1.00  0.00    -0.207 F 
ENDBRANCH  16  19
ENDBRANCH   7  15
ENDBRANCH   4   7
ENDBRANCH   2   3
ENDBRANCH   1   2
BRANCH   1  31
ATOM     31  C   UNL A   1      34.072  27.260  26.421  1.00  0.00     0.023 C 
BRANCH  31  32
ATOM     32  C   UNL A   1      33.886  28.544  25.599  1.00  0.00     0.116 C 
BRANCH  32  33
ATOM     33  N   UNL A   1      32.866  29.430  26.111  1.00  0.00    -0.352 N 
ATOM     34  C   UNL A   1      32.919  30.554  26.883  1.00  0.00     0.251 C 
ATOM     35  H   UNL A   1      31.953  29.172  25.851  1.00  0.00     0.163 HD
ATOM     36  O   UNL A   1      31.870  31.184  27.024  1.00  0.00    -0.269 OA
BRANCH  34  37
ATOM     37  C   UNL A   1      34.117  30.961  27.654  1.00  0.00     0.039 A 
ATOM     38  C   UNL A   1      34.708  32.223  27.644  1.00  0.00     0.014 A 
ATOM     39  C   UNL A   1      34.743  29.931  28.370  1.00  0.00     0.014 A 
ATOM     40  C   UNL A   1      36.024  32.370  28.046  1.00  0.00     0.010 A 
ATOM     41  C   UNL A   1      36.004  30.113  28.898  1.00  0.00     0.010 A 
ATOM     42  C   UNL A   1      36.696  31.275  28.594  1.00  0.00    -0.014 A 
BRANCH  42  43
ATOM     43  C   UNL A   1      38.047  31.445  29.108  1.00  0.00     0.031 A 
ATOM     44  C   UNL A   1      38.808  30.170  28.996  1.00  0.00     0.074 A 
ATOM     45  C   UNL A   1      38.545  32.641  29.503  1.00  0.00     0.049 A 
ATOM     46  N   UNL A   1      39.277  29.469  29.971  1.00  0.00    -0.248 NA
ATOM     47  C   UNL A   1      38.838  29.463  27.696  1.00  0.00     0.031 C 
ATOM     48  C   UNL A   1      37.902  33.961  29.489  1.00  0.00     0.029 A 
ATOM     49  N   UNL A   1      39.807  32.951  29.928  1.00  0.00    -0.354 N 
ATOM     50  C   UNL A   1      39.886  28.365  29.385  1.00  0.00     0.074 A 
ATOM     51  C   UNL A   1      39.418  28.309  28.028  1.00  0.00     0.031 C 
ATOM     52  C   UNL A   1      38.841  34.932  29.612  1.00  0.00     0.029 A 
ATOM     53  C   UNL A   1      40.129  34.315  29.860  1.00  0.00     0.049 A 
ATOM     54  H   UNL A   1      40.440  32.271  30.256  1.00  0.00     0.167 HD
ATOM     55  C   UNL A   1      40.947  27.769  29.991  1.00  0.00     0.031 A 
ATOM     56  C   UNL A   1      41.379  34.863  29.939  1.00  0.00     0.031 A 
ATOM     57  C   UNL A   1      40.995  28.110  31.389  1.00  0.00     0.049 A 
ATOM     58  C   UNL A   1      42.236  33.856  30.625  1.00  0.00     0.074 A 
ATOM     59  C   UNL A   1      40.131  27.911  32.448  1.00  0.00     0.029 A 
ATOM     60  N   UNL A   1      41.807  29.162  31.738  1.00  0.00    -0.354 N 
ATOM     61  N   UNL A   1      42.052  33.520  31.871  1.00  0.00    -0.248 NA
ATOM     62  C   UNL A   1      42.855  32.850  29.769  1.00  0.00     0.031 C 
ATOM     63  C   UNL A   1      40.133  29.148  33.150  1.00  0.00     0.029 A 
ATOM     64  C   UNL A   1      41.105  29.977  32.590  1.00  0.00     0.049 A 
ATOM     65  H   UNL A   1      42.730  29.307  31.430  1.00  0.00     0.167 HD
ATOM     66  C   UNL A   1      42.079  32.135  31.851  1.00  0.00     0.074 A 
ATOM     67  C   UNL A   1      42.575  31.779  30.517  1.00  0.00     0.031 C 
ATOM     68  C   UNL A   1      41.389  31.386  32.761  1.00  0.00     0.031 A 
BRANCH  55  69
ATOM     69  C   UNL A   1      42.153  27.286  29.231  1.00  0.00    -0.014 A 
ATOM     70  C   UNL A   1      42.401  25.928  28.947  1.00  0.00     0.009 A 
ATOM     71  C   UNL A   1      42.932  28.228  28.537  1.00  0.00     0.009 A 
ATOM     72  C   UNL A   1      43.369  25.527  28.023  1.00  0.00     0.001 A 
ATOM     73  C   UNL A   1      43.878  27.831  27.584  1.00  0.00     0.001 A 
ATOM     74  C   UNL A   1      44.096  26.481  27.330  1.00  0.00     0.000 A 
ENDBRANCH  55  69
BRANCH  56  75
ATOM     75  C   UNL A   1      41.984  35.845  28.982  1.00  0.00    -0.014 A 
ATOM     76  C   UNL A   1      41.699  35.743  27.609  1.00  0.00     0.009 A 
ATOM     77  C   UNL A   1      43.072  36.666  29.347  1.00  0.00     0.009 A 
ATOM     78  C   UNL A   1      42.496  36.368  26.639  1.00  0.00     0.001 A 
ATOM     79  C   UNL A   1      43.866  37.303  28.374  1.00  0.00     0.001 A 
ATOM     80  C   UNL A   1      43.592  37.132  27.019  1.00  0.00     0.000 A 
ENDBRANCH  56  75
BRANCH  68  81
ATOM     81  C   UNL A   1      40.724  32.054  33.942  1.00  0.00    -0.014 A 
ATOM     82  C   UNL A   1      39.478  32.651  33.694  1.00  0.00     0.009 A 
ATOM     83  C   UNL A   1      41.344  32.311  35.179  1.00  0.00     0.009 A 
ATOM     84  C   UNL A   1      38.879  33.502  34.621  1.00  0.00     0.001 A 
ATOM     85  C   UNL A   1      40.725  33.143  36.127  1.00  0.00     0.001 A 
ATOM     86  C   UNL A   1      39.500  33.746  35.841  1.00  0.00     0.000 A 
ENDBRANCH  68  81
ENDBRANCH  42  43
ENDBRANCH  34  37
ENDBRANCH  32  33
ENDBRANCH  31  32
ENDBRANCH   1  31
TORSDOF 14
ENDMDL
