MODEL 1
REMARK VINA RESULT:     -11.6      0.000      0.000
REMARK SMILES Cc1ccc2c(c1)OCCN2c1sc(C(=O)NCCCCNC(=O)c2ccc(-c3c4nc(c(-c5ccccc5)c5ccc([nH]5)c(-c5ccccc5)c5nc(c(-c6ccccc6)c6ccc3[nH]6)C=C5)C=C4)cc2)cc1C
REMARK SMILES IDX 20 1 19 2 18 3 17 4 15 5 16 6 14 8 12 9 13 10 74 11 73 12
REMARK SMILES IDX 75 13 11 14 1 15 2 16 3 17 7 18 4 19 6 20 5 21 8 22 9 23
REMARK SMILES IDX 10 24 21 25 22 26 23 27 24 29 25 30 26 31 72 32 27 33 71 34
REMARK SMILES IDX 28 35 29 36 30 37 65 38 31 39 70 40 64 41 66 42 32 43 69 44
REMARK SMILES IDX 63 45 62 46 33 48 55 49 40 50 54 51 41 52 44 53 53 54 67 55
REMARK SMILES IDX 42 56 43 57 52 59 68 60 45 61 34 62 35 63 39 64 36 65 38 66
REMARK SMILES IDX 37 67 56 68 57 69 61 70 58 71 60 72 59 73 46 74 47 75 51 76
REMARK SMILES IDX 48 77 50 78 49 79
REMARK H PARENT 17 7 22 28 66 47 44 58
REMARK Flexibility Score: inf
ROOT
ATOM      1  C   UNL A   1      33.823  28.481  25.809  1.00  0.00     0.023 C 
ENDROOT
BRANCH   1   2
ATOM      2  C   UNL A   1      33.116  29.448  24.853  1.00  0.00     0.023 C 
BRANCH   2   3
ATOM      3  C   UNL A   1      33.335  29.129  23.374  1.00  0.00     0.116 C 
BRANCH   3   4
ATOM      4  N   UNL A   1      32.071  28.994  22.677  1.00  0.00    -0.351 N 
ATOM      5  C   UNL A   1      31.187  27.951  22.549  1.00  0.00     0.261 C 
ATOM      6  O   UNL A   1      30.166  28.217  21.905  1.00  0.00    -0.268 OA
ATOM      7  H   UNL A   1      31.792  29.812  22.202  1.00  0.00     0.163 HD
BRANCH   5   8
ATOM      8  C   UNL A   1      31.369  26.650  23.175  1.00  0.00     0.094 A 
ATOM      9  C   UNL A   1      32.115  24.400  23.926  1.00  0.00     0.099 A 
ATOM     10  S   UNL A   1      32.121  25.297  22.463  1.00  0.00    -0.112 S 
ATOM     11  C   UNL A   1      31.278  24.996  24.858  1.00  0.00    -0.015 A 
ATOM     12  C   UNL A   1      30.857  26.292  24.411  1.00  0.00     0.031 A 
ATOM     13  C   UNL A   1      30.900  24.439  26.189  1.00  0.00     0.047 C 
BRANCH   9  14
ATOM     14  N   UNL A   1      32.806  23.234  24.073  1.00  0.00    -0.327 N 
ATOM     15  C   UNL A   1      38.207  22.632  26.005  1.00  0.00     0.044 C 
ATOM     16  C   UNL A   1      36.794  22.784  25.527  1.00  0.00    -0.047 A 
ATOM     17  C   UNL A   1      36.237  24.055  25.370  1.00  0.00     0.006 A 
ATOM     18  C   UNL A   1      36.020  21.667  25.204  1.00  0.00     0.052 A 
ATOM     19  C   UNL A   1      34.923  24.208  24.909  1.00  0.00     0.030 A 
ATOM     20  C   UNL A   1      34.706  21.823  24.744  1.00  0.00     0.143 A 
ATOM     21  C   UNL A   1      34.133  23.101  24.559  1.00  0.00     0.085 A 
ATOM     22  O   UNL A   1      34.034  20.645  24.492  1.00  0.00    -0.490 OA
ATOM     23  C   UNL A   1      32.617  20.837  24.438  1.00  0.00     0.251 C 
ATOM     24  C   UNL A   1      32.252  21.998  23.522  1.00  0.00     0.165 C 
ENDBRANCH   9  14
ENDBRANCH   5   8
ENDBRANCH   3   4
ENDBRANCH   2   3
ENDBRANCH   1   2
BRANCH   1  25
ATOM     25  C   UNL A   1      33.523  28.697  27.287  1.00  0.00     0.116 C 
BRANCH  25  26
ATOM     26  N   UNL A   1      33.574  30.094  27.695  1.00  0.00    -0.352 N 
ATOM     27  C   UNL A   1      34.639  30.783  28.229  1.00  0.00     0.251 C 
ATOM     28  H   UNL A   1      32.744  30.610  27.572  1.00  0.00     0.163 HD
ATOM     29  O   UNL A   1      34.517  31.942  28.608  1.00  0.00    -0.269 OA
BRANCH  27  30
ATOM     30  C   UNL A   1      35.925  30.077  28.386  1.00  0.00     0.039 A 
ATOM     31  C   UNL A   1      36.258  29.497  29.611  1.00  0.00     0.014 A 
ATOM     32  C   UNL A   1      36.836  30.087  27.328  1.00  0.00     0.014 A 
ATOM     33  C   UNL A   1      37.563  29.070  29.830  1.00  0.00     0.010 A 
ATOM     34  C   UNL A   1      38.126  29.593  27.529  1.00  0.00     0.010 A 
ATOM     35  C   UNL A   1      38.514  29.133  28.797  1.00  0.00    -0.014 A 
BRANCH  35  36
ATOM     36  C   UNL A   1      39.915  28.733  29.074  1.00  0.00     0.031 A 
ATOM     37  C   UNL A   1      40.422  27.376  28.666  1.00  0.00     0.074 A 
ATOM     38  C   UNL A   1      40.751  29.622  29.641  1.00  0.00     0.049 A 
ATOM     39  N   UNL A   1      41.622  26.873  28.803  1.00  0.00    -0.248 NA
ATOM     40  C   UNL A   1      39.461  26.466  28.018  1.00  0.00     0.031 C 
ATOM     41  C   UNL A   1      40.383  30.979  30.052  1.00  0.00     0.029 A 
ATOM     42  N   UNL A   1      42.086  29.533  29.940  1.00  0.00    -0.354 N 
ATOM     43  C   UNL A   1      41.558  25.588  28.280  1.00  0.00     0.074 A 
ATOM     44  C   UNL A   1      40.197  25.376  27.840  1.00  0.00     0.031 C 
ATOM     45  C   UNL A   1      41.479  31.614  30.493  1.00  0.00     0.029 A 
ATOM     46  C   UNL A   1      42.609  30.691  30.458  1.00  0.00     0.049 A 
ATOM     47  H   UNL A   1      42.618  28.716  29.797  1.00  0.00     0.167 HD
ATOM     48  C   UNL A   1      42.548  24.670  28.171  1.00  0.00     0.031 A 
ATOM     49  C   UNL A   1      43.857  30.981  30.870  1.00  0.00     0.031 A 
ATOM     50  C   UNL A   1      43.906  24.888  28.590  1.00  0.00     0.049 A 
ATOM     51  C   UNL A   1      44.920  29.926  30.795  1.00  0.00     0.074 A 
ATOM     52  C   UNL A   1      44.986  24.027  28.484  1.00  0.00     0.029 A 
ATOM     53  N   UNL A   1      44.371  26.044  29.195  1.00  0.00    -0.354 N 
ATOM     54  N   UNL A   1      44.841  28.716  30.297  1.00  0.00    -0.248 NA
ATOM     55  C   UNL A   1      46.237  30.268  31.350  1.00  0.00     0.031 C 
ATOM     56  C   UNL A   1      46.092  24.643  29.074  1.00  0.00     0.029 A 
ATOM     57  C   UNL A   1      45.715  25.907  29.498  1.00  0.00     0.049 A 
ATOM     58  H   UNL A   1      43.829  26.844  29.380  1.00  0.00     0.167 HD
ATOM     59  C   UNL A   1      46.097  28.152  30.475  1.00  0.00     0.074 A 
ATOM     60  C   UNL A   1      46.924  29.158  31.109  1.00  0.00     0.031 C 
ATOM     61  C   UNL A   1      46.521  26.909  30.145  1.00  0.00     0.031 A 
BRANCH  48  62
ATOM     62  C   UNL A   1      42.205  23.328  27.587  1.00  0.00    -0.014 A 
ATOM     63  C   UNL A   1      42.405  23.097  26.217  1.00  0.00     0.009 A 
ATOM     64  C   UNL A   1      41.600  22.330  28.364  1.00  0.00     0.009 A 
ATOM     65  C   UNL A   1      42.000  21.895  25.633  1.00  0.00     0.001 A 
ATOM     66  C   UNL A   1      41.216  21.119  27.783  1.00  0.00     0.001 A 
ATOM     67  C   UNL A   1      41.408  20.906  26.418  1.00  0.00     0.000 A 
ENDBRANCH  48  62
BRANCH  49  68
ATOM     68  C   UNL A   1      44.150  32.338  31.396  1.00  0.00    -0.014 A 
ATOM     69  C   UNL A   1      44.629  33.346  30.542  1.00  0.00     0.009 A 
ATOM     70  C   UNL A   1      44.015  32.613  32.764  1.00  0.00     0.009 A 
ATOM     71  C   UNL A   1      44.995  34.591  31.052  1.00  0.00     0.001 A 
ATOM     72  C   UNL A   1      44.358  33.870  33.267  1.00  0.00     0.001 A 
ATOM     73  C   UNL A   1      44.857  34.854  32.414  1.00  0.00     0.000 A 
ENDBRANCH  49  68
BRANCH  61  74
ATOM     74  C   UNL A   1      47.942  26.551  30.465  1.00  0.00    -0.014 A 
ATOM     75  C   UNL A   1      48.953  26.783  29.520  1.00  0.00     0.009 A 
ATOM     76  C   UNL A   1      48.264  25.897  31.665  1.00  0.00     0.009 A 
ATOM     77  C   UNL A   1      50.259  26.354  29.763  1.00  0.00     0.001 A 
ATOM     78  C   UNL A   1      49.575  25.490  31.914  1.00  0.00     0.001 A 
ATOM     79  C   UNL A   1      50.569  25.711  30.960  1.00  0.00     0.000 A 
ENDBRANCH  61  74
ENDBRANCH  35  36
ENDBRANCH  27  30
ENDBRANCH  25  26
ENDBRANCH   1  25
TORSDOF 12
ENDMDL
MODEL 2
REMARK VINA RESULT:     -11.5      0.354      5.952
REMARK SMILES Cc1ccc2c(c1)OCCN2c1sc(C(=O)NCCCCNC(=O)c2ccc(-c3c4nc(c(-c5ccccc5)c5ccc([nH]5)c(-c5ccccc5)c5nc(c(-c6ccccc6)c6ccc3[nH]6)C=C5)C=C4)cc2)cc1C
REMARK SMILES IDX 20 1 19 2 18 3 17 4 15 5 16 6 14 8 12 9 13 10 74 11 73 12
REMARK SMILES IDX 75 13 11 14 1 15 2 16 3 17 7 18 4 19 6 20 5 21 8 22 9 23
REMARK SMILES IDX 10 24 21 25 22 26 23 27 24 29 25 30 26 31 72 32 27 33 71 34
REMARK SMILES IDX 28 35 29 36 30 37 65 38 31 39 70 40 64 41 66 42 32 43 69 44
REMARK SMILES IDX 63 45 62 46 33 48 55 49 40 50 54 51 41 52 44 53 53 54 67 55
REMARK SMILES IDX 42 56 43 57 52 59 68 60 45 61 34 62 35 63 39 64 36 65 38 66
REMARK SMILES IDX 37 67 56 68 57 69 61 70 58 71 60 72 59 73 46 74 47 75 51 76
REMARK SMILES IDX 48 77 50 78 49 79
REMARK H PARENT 17 7 22 28 66 47 44 58
REMARK Flexibility Score: inf
ROOT
ATOM      1  C   UNL A   1      34.000  28.654  25.880  1.00  0.00     0.023 C 
ENDROOT
BRANCH   1   2
ATOM      2  C   UNL A   1      33.168  29.406  24.835  1.00  0.00     0.023 C 
BRANCH   2   3
ATOM      3  C   UNL A   1      33.437  28.969  23.395  1.00  0.00     0.116 C 
BRANCH   3   4
ATOM      4  N   UNL A   1      32.198  28.724  22.684  1.00  0.00    -0.351 N 
ATOM      5  C   UNL A   1      31.379  27.625  22.594  1.00  0.00     0.261 C 
ATOM      6  O   UNL A   1      30.358  27.797  21.920  1.00  0.00    -0.268 OA
ATOM      7  H   UNL A   1      31.881  29.499  22.164  1.00  0.00     0.163 HD
BRANCH   5   8
ATOM      8  C   UNL A   1      31.624  26.369  23.288  1.00  0.00     0.094 A 
ATOM      9  C   UNL A   1      32.438  24.168  24.110  1.00  0.00     0.099 A 
ATOM     10  S   UNL A   1      32.277  24.957  22.594  1.00  0.00    -0.112 S 
ATOM     11  C   UNL A   1      31.721  24.843  25.087  1.00  0.00    -0.015 A 
ATOM     12  C   UNL A   1      31.260  26.110  24.599  1.00  0.00     0.031 A 
ATOM     13  C   UNL A   1      31.499  24.390  26.491  1.00  0.00     0.047 C 
BRANCH   9  14
ATOM     14  N   UNL A   1      33.133  23.005  24.259  1.00  0.00    -0.327 N 
ATOM     15  C   UNL A   1      38.589  22.439  26.039  1.00  0.00     0.044 C 
ATOM     16  C   UNL A   1      37.163  22.582  25.601  1.00  0.00    -0.047 A 
ATOM     17  C   UNL A   1      36.602  23.850  25.434  1.00  0.00     0.006 A 
ATOM     18  C   UNL A   1      36.379  21.459  25.325  1.00  0.00     0.052 A 
ATOM     19  C   UNL A   1      35.274  23.994  25.011  1.00  0.00     0.030 A 
ATOM     20  C   UNL A   1      35.052  21.607  24.902  1.00  0.00     0.143 A 
ATOM     21  C   UNL A   1      34.473  22.881  24.708  1.00  0.00     0.085 A 
ATOM     22  O   UNL A   1      34.373  20.425  24.695  1.00  0.00    -0.490 OA
ATOM     23  C   UNL A   1      32.954  20.616  24.680  1.00  0.00     0.251 C 
ATOM     24  C   UNL A   1      32.562  21.758  23.752  1.00  0.00     0.165 C 
ENDBRANCH   9  14
ENDBRANCH   5   8
ENDBRANCH   3   4
ENDBRANCH   2   3
ENDBRANCH   1   2
BRANCH   1  25
ATOM     25  C   UNL A   1      33.537  28.825  27.321  1.00  0.00     0.116 C 
BRANCH  25  26
ATOM     26  N   UNL A   1      33.603  30.200  27.797  1.00  0.00    -0.352 N 
ATOM     27  C   UNL A   1      34.684  30.860  28.335  1.00  0.00     0.251 C 
ATOM     28  H   UNL A   1      32.772  30.723  27.722  1.00  0.00     0.163 HD
ATOM     29  O   UNL A   1      34.577  31.998  28.775  1.00  0.00    -0.269 OA
BRANCH  27  30
ATOM     30  C   UNL A   1      35.972  30.145  28.422  1.00  0.00     0.039 A 
ATOM     31  C   UNL A   1      36.323  29.477  29.597  1.00  0.00     0.014 A 
ATOM     32  C   UNL A   1      36.868  30.230  27.354  1.00  0.00     0.014 A 
ATOM     33  C   UNL A   1      37.631  29.036  29.765  1.00  0.00     0.010 A 
ATOM     34  C   UNL A   1      38.160  29.723  27.500  1.00  0.00     0.010 A 
ATOM     35  C   UNL A   1      38.566  29.173  28.726  1.00  0.00    -0.014 A 
BRANCH  35  36
ATOM     36  C   UNL A   1      39.971  28.754  28.952  1.00  0.00     0.031 A 
ATOM     37  C   UNL A   1      40.929  29.647  29.692  1.00  0.00     0.074 A 
ATOM     38  C   UNL A   1      40.365  27.534  28.541  1.00  0.00     0.049 A 
ATOM     39  N   UNL A   1      42.181  29.428  30.003  1.00  0.00    -0.248 NA
ATOM     40  C   UNL A   1      40.420  30.953  30.143  1.00  0.00     0.031 C 
ATOM     41  C   UNL A   1      39.517  26.567  27.842  1.00  0.00     0.029 A 
ATOM     42  N   UNL A   1      41.566  26.887  28.681  1.00  0.00    -0.354 N 
ATOM     43  C   UNL A   1      42.614  30.569  30.666  1.00  0.00     0.074 A 
ATOM     44  C   UNL A   1      41.500  31.490  30.697  1.00  0.00     0.031 C 
ATOM     45  C   UNL A   1      40.205  25.430  27.666  1.00  0.00     0.029 A 
ATOM     46  C   UNL A   1      41.559  25.609  28.180  1.00  0.00     0.049 A 
ATOM     47  H   UNL A   1      42.357  27.300  29.098  1.00  0.00     0.167 HD
ATOM     48  C   UNL A   1      43.830  30.822  31.207  1.00  0.00     0.031 A 
ATOM     49  C   UNL A   1      42.535  24.683  28.130  1.00  0.00     0.031 A 
ATOM     50  C   UNL A   1      44.932  29.898  31.193  1.00  0.00     0.049 A 
ATOM     51  C   UNL A   1      43.889  25.012  28.680  1.00  0.00     0.074 A 
ATOM     52  C   UNL A   1      46.190  30.054  31.750  1.00  0.00     0.029 A 
ATOM     53  N   UNL A   1      44.909  28.649  30.595  1.00  0.00    -0.354 N 
ATOM     54  N   UNL A   1      44.281  26.097  29.305  1.00  0.00    -0.248 NA
ATOM     55  C   UNL A   1      44.941  24.000  28.509  1.00  0.00     0.031 C 
ATOM     56  C   UNL A   1      46.946  28.922  31.441  1.00  0.00     0.029 A 
ATOM     57  C   UNL A   1      46.143  28.037  30.740  1.00  0.00     0.049 A 
ATOM     58  H   UNL A   1      44.133  28.254  30.137  1.00  0.00     0.167 HD
ATOM     59  C   UNL A   1      45.622  25.897  29.603  1.00  0.00     0.074 A 
ATOM     60  C   UNL A   1      45.972  24.581  29.109  1.00  0.00     0.031 C 
ATOM     61  C   UNL A   1      46.483  26.736  30.227  1.00  0.00     0.031 A 
BRANCH  48  62
ATOM     62  C   UNL A   1      44.051  32.161  31.851  1.00  0.00    -0.014 A 
ATOM     63  C   UNL A   1      43.726  32.342  33.204  1.00  0.00     0.009 A 
ATOM     64  C   UNL A   1      44.489  33.265  31.103  1.00  0.00     0.009 A 
ATOM     65  C   UNL A   1      43.827  33.603  33.796  1.00  0.00     0.001 A 
ATOM     66  C   UNL A   1      44.610  34.521  31.703  1.00  0.00     0.001 A 
ATOM     67  C   UNL A   1      44.272  34.690  33.046  1.00  0.00     0.000 A 
ENDBRANCH  48  62
BRANCH  49  68
ATOM     68  C   UNL A   1      42.246  23.359  27.523  1.00  0.00    -0.014 A 
ATOM     69  C   UNL A   1      41.727  22.314  28.305  1.00  0.00     0.009 A 
ATOM     70  C   UNL A   1      42.550  23.115  26.176  1.00  0.00     0.009 A 
ATOM     71  C   UNL A   1      41.546  21.043  27.759  1.00  0.00     0.001 A 
ATOM     72  C   UNL A   1      42.343  21.848  25.626  1.00  0.00     0.001 A 
ATOM     73  C   UNL A   1      41.852  20.812  26.419  1.00  0.00     0.000 A 
ENDBRANCH  49  68
BRANCH  61  74
ATOM     74  C   UNL A   1      47.897  26.269  30.412  1.00  0.00    -0.014 A 
ATOM     75  C   UNL A   1      48.295  25.709  31.636  1.00  0.00     0.009 A 
ATOM     76  C   UNL A   1      48.856  26.471  29.408  1.00  0.00     0.009 A 
ATOM     77  C   UNL A   1      49.632  25.373  31.857  1.00  0.00     0.001 A 
ATOM     78  C   UNL A   1      50.187  26.113  29.623  1.00  0.00     0.001 A 
ATOM     79  C   UNL A   1      50.575  25.572  30.849  1.00  0.00     0.000 A 
ENDBRANCH  61  74
ENDBRANCH  35  36
ENDBRANCH  27  30
ENDBRANCH  25  26
ENDBRANCH   1  25
TORSDOF 12
ENDMDL
MODEL 3
REMARK VINA RESULT:     -11.5      2.348      7.838
REMARK SMILES Cc1ccc2c(c1)OCCN2c1sc(C(=O)NCCCCNC(=O)c2ccc(-c3c4nc(c(-c5ccccc5)c5ccc([nH]5)c(-c5ccccc5)c5nc(c(-c6ccccc6)c6ccc3[nH]6)C=C5)C=C4)cc2)cc1C
REMARK SMILES IDX 20 1 19 2 18 3 17 4 15 5 16 6 14 8 12 9 13 10 74 11 73 12
REMARK SMILES IDX 75 13 11 14 1 15 2 16 3 17 7 18 4 19 6 20 5 21 8 22 9 23
REMARK SMILES IDX 10 24 21 25 22 26 23 27 24 29 25 30 26 31 72 32 27 33 71 34
REMARK SMILES IDX 28 35 29 36 30 37 65 38 31 39 70 40 64 41 66 42 32 43 69 44
REMARK SMILES IDX 63 45 62 46 33 48 55 49 40 50 54 51 41 52 44 53 53 54 67 55
REMARK SMILES IDX 42 56 43 57 52 59 68 60 45 61 34 62 35 63 39 64 36 65 38 66
REMARK SMILES IDX 37 67 56 68 57 69 61 70 58 71 60 72 59 73 46 74 47 75 51 76
REMARK SMILES IDX 48 77 50 78 49 79
REMARK H PARENT 17 7 22 28 66 47 44 58
REMARK Flexibility Score: inf
ROOT
ATOM      1  C   UNL A   1      36.103  23.266  25.916  1.00  0.00     0.023 C 
ENDROOT
BRANCH   1   2
ATOM      2  C   UNL A   1      35.641  21.823  26.145  1.00  0.00     0.023 C 
BRANCH   2   3
ATOM      3  C   UNL A   1      34.384  21.703  27.007  1.00  0.00     0.116 C 
BRANCH   3   4
ATOM      4  N   UNL A   1      33.398  20.850  26.374  1.00  0.00    -0.351 N 
ATOM      5  C   UNL A   1      32.433  21.089  25.426  1.00  0.00     0.261 C 
ATOM      6  O   UNL A   1      31.791  20.091  25.082  1.00  0.00    -0.268 OA
ATOM      7  H   UNL A   1      33.425  19.915  26.685  1.00  0.00     0.163 HD
BRANCH   5   8
ATOM      8  C   UNL A   1      32.211  22.384  24.800  1.00  0.00     0.094 A 
ATOM      9  C   UNL A   1      31.703  24.751  24.232  1.00  0.00     0.099 A 
ATOM     10  S   UNL A   1      31.109  23.572  25.329  1.00  0.00    -0.112 S 
ATOM     11  C   UNL A   1      32.510  24.159  23.272  1.00  0.00    -0.015 A 
ATOM     12  C   UNL A   1      32.795  22.796  23.614  1.00  0.00     0.031 A 
ATOM     13  C   UNL A   1      33.091  24.828  22.071  1.00  0.00     0.047 C 
BRANCH   9  14
ATOM     14  N   UNL A   1      31.345  26.064  24.305  1.00  0.00    -0.327 N 
ATOM     15  C   UNL A   1      34.096  30.248  27.168  1.00  0.00     0.044 C 
ATOM     16  C   UNL A   1      33.394  29.167  26.402  1.00  0.00    -0.047 A 
ATOM     17  C   UNL A   1      33.846  27.848  26.471  1.00  0.00     0.006 A 
ATOM     18  C   UNL A   1      32.263  29.449  25.631  1.00  0.00     0.052 A 
ATOM     19  C   UNL A   1      33.187  26.828  25.772  1.00  0.00     0.030 A 
ATOM     20  C   UNL A   1      31.608  28.429  24.932  1.00  0.00     0.143 A 
ATOM     21  C   UNL A   1      32.038  27.085  25.006  1.00  0.00     0.085 A 
ATOM     22  O   UNL A   1      30.527  28.840  24.180  1.00  0.00    -0.490 OA
ATOM     23  C   UNL A   1      30.166  27.874  23.187  1.00  0.00     0.251 C 
ATOM     24  C   UNL A   1      30.041  26.481  23.791  1.00  0.00     0.165 C 
ENDBRANCH   9  14
ENDBRANCH   5   8
ENDBRANCH   3   4
ENDBRANCH   2   3
ENDBRANCH   1   2
BRANCH   1  25
ATOM     25  C   UNL A   1      37.335  23.419  25.033  1.00  0.00     0.116 C 
BRANCH  25  26
ATOM     26  N   UNL A   1      38.447  22.565  25.430  1.00  0.00    -0.352 N 
ATOM     27  C   UNL A   1      39.519  22.887  26.229  1.00  0.00     0.251 C 
ATOM     28  H   UNL A   1      38.427  21.643  25.084  1.00  0.00     0.163 HD
ATOM     29  O   UNL A   1      40.433  22.092  26.414  1.00  0.00    -0.269 OA
BRANCH  27  30
ATOM     30  C   UNL A   1      39.575  24.238  26.821  1.00  0.00     0.039 A 
ATOM     31  C   UNL A   1      40.243  25.266  26.153  1.00  0.00     0.014 A 
ATOM     32  C   UNL A   1      39.039  24.442  28.093  1.00  0.00     0.014 A 
ATOM     33  C   UNL A   1      40.518  26.450  26.828  1.00  0.00     0.010 A 
ATOM     34  C   UNL A   1      39.255  25.659  28.742  1.00  0.00     0.010 A 
ATOM     35  C   UNL A   1      40.043  26.650  28.134  1.00  0.00    -0.014 A 
BRANCH  35  36
ATOM     36  C   UNL A   1      40.403  27.895  28.856  1.00  0.00     0.031 A 
ATOM     37  C   UNL A   1      39.413  29.020  28.989  1.00  0.00     0.074 A 
ATOM     38  C   UNL A   1      41.608  27.984  29.448  1.00  0.00     0.049 A 
ATOM     39  N   UNL A   1      39.550  30.164  29.609  1.00  0.00    -0.248 NA
ATOM     40  C   UNL A   1      38.100  28.841  28.345  1.00  0.00     0.031 C 
ATOM     41  C   UNL A   1      42.640  26.945  29.416  1.00  0.00     0.029 A 
ATOM     42  N   UNL A   1      42.157  28.977  30.219  1.00  0.00    -0.354 N 
ATOM     43  C   UNL A   1      38.355  30.847  29.416  1.00  0.00     0.074 A 
ATOM     44  C   UNL A   1      37.510  30.000  28.604  1.00  0.00     0.031 C 
ATOM     45  C   UNL A   1      43.671  27.330  30.183  1.00  0.00     0.029 A 
ATOM     46  C   UNL A   1      43.402  28.666  30.705  1.00  0.00     0.049 A 
ATOM     47  H   UNL A   1      41.702  29.830  30.404  1.00  0.00     0.167 HD
ATOM     48  C   UNL A   1      37.994  32.066  29.881  1.00  0.00     0.031 A 
ATOM     49  C   UNL A   1      44.243  29.378  31.478  1.00  0.00     0.031 A 
ATOM     50  C   UNL A   1      38.828  32.900  30.705  1.00  0.00     0.049 A 
ATOM     51  C   UNL A   1      43.844  30.751  31.928  1.00  0.00     0.074 A 
ATOM     52  C   UNL A   1      38.531  34.135  31.254  1.00  0.00     0.029 A 
ATOM     53  N   UNL A   1      40.118  32.584  31.098  1.00  0.00    -0.354 N 
ATOM     54  N   UNL A   1      42.710  31.380  31.736  1.00  0.00    -0.248 NA
ATOM     55  C   UNL A   1      44.841  31.519  32.687  1.00  0.00     0.031 C 
ATOM     56  C   UNL A   1      39.662  34.592  31.934  1.00  0.00     0.029 A 
ATOM     57  C   UNL A   1      40.644  33.618  31.855  1.00  0.00     0.049 A 
ATOM     58  H   UNL A   1      40.591  31.751  30.875  1.00  0.00     0.167 HD
ATOM     59  C   UNL A   1      42.855  32.615  32.352  1.00  0.00     0.074 A 
ATOM     60  C   UNL A   1      44.178  32.640  32.940  1.00  0.00     0.031 C 
ATOM     61  C   UNL A   1      41.968  33.637  32.418  1.00  0.00     0.031 A 
BRANCH  48  62
ATOM     62  C   UNL A   1      36.640  32.595  29.500  1.00  0.00    -0.014 A 
ATOM     63  C   UNL A   1      36.484  33.300  28.297  1.00  0.00     0.009 A 
ATOM     64  C   UNL A   1      35.544  32.480  30.369  1.00  0.00     0.009 A 
ATOM     65  C   UNL A   1      35.260  33.888  27.973  1.00  0.00     0.001 A 
ATOM     66  C   UNL A   1      34.314  33.050  30.032  1.00  0.00     0.001 A 
ATOM     67  C   UNL A   1      34.175  33.759  28.839  1.00  0.00     0.000 A 
ENDBRANCH  48  62
BRANCH  49  68
ATOM     68  C   UNL A   1      45.550  28.787  31.862  1.00  0.00    -0.014 A 
ATOM     69  C   UNL A   1      46.675  28.948  31.035  1.00  0.00     0.009 A 
ATOM     70  C   UNL A   1      45.663  28.005  33.020  1.00  0.00     0.009 A 
ATOM     71  C   UNL A   1      47.878  28.314  31.346  1.00  0.00     0.001 A 
ATOM     72  C   UNL A   1      46.877  27.393  33.341  1.00  0.00     0.001 A 
ATOM     73  C   UNL A   1      47.979  27.539  32.500  1.00  0.00     0.000 A 
ENDBRANCH  49  68
BRANCH  61  74
ATOM     74  C   UNL A   1      42.392  34.880  33.144  1.00  0.00    -0.014 A 
ATOM     75  C   UNL A   1      41.967  35.100  34.463  1.00  0.00     0.009 A 
ATOM     76  C   UNL A   1      43.132  35.876  32.489  1.00  0.00     0.009 A 
ATOM     77  C   UNL A   1      42.263  36.301  35.109  1.00  0.00     0.001 A 
ATOM     78  C   UNL A   1      43.446  37.066  33.146  1.00  0.00     0.001 A 
ATOM     79  C   UNL A   1      43.004  37.281  34.451  1.00  0.00     0.000 A 
ENDBRANCH  61  74
ENDBRANCH  35  36
ENDBRANCH  27  30
ENDBRANCH  25  26
ENDBRANCH   1  25
TORSDOF 12
ENDMDL
