MODEL 1
REMARK VINA RESULT:     -11.8      0.000      0.000
REMARK SMILES O=C(/C=C/c1ccc(NC(=O)[C@@H]2COc3ccccc3C2)cc1)NCCCCNC(=O)c1ccc(-c2c3nc(c(-c4ccccc4)c4ccc([nH]4)c(-c4ccccc4)c4nc(c(-c5ccccc5)c5ccc2[nH]5)C=C4)C=C3)cc1
REMARK SMILES IDX 26 1 25 2 24 3 1 4 2 5 3 7 4 8 5 9 6 10 23 11 7 12 22 13
REMARK SMILES IDX 8 14 9 15 10 16 11 18 12 19 13 20 21 21 14 22 20 23 15 24
REMARK SMILES IDX 19 25 16 26 18 27 17 28 27 29 28 30 29 31 30 32 31 34 32 35
REMARK SMILES IDX 33 36 79 37 34 38 78 39 35 40 36 41 37 42 72 43 38 44 77 45
REMARK SMILES IDX 71 46 73 47 39 48 76 49 70 50 69 51 40 53 62 54 47 55 61 56
REMARK SMILES IDX 48 57 51 58 60 59 74 60 49 61 50 62 59 64 75 65 52 66 41 67
REMARK SMILES IDX 42 68 46 69 43 70 45 71 44 72 63 73 64 74 68 75 65 76 67 77
REMARK SMILES IDX 66 78 53 79 54 80 58 81 55 82 57 83 56 84
REMARK H PARENT 24 6 9 17 29 33 73 52 51 63
REMARK Flexibility Score: inf
ROOT
ATOM      1  C   UNL A   1      34.652  33.968  29.003  1.00  0.00     0.023 C 
ENDROOT
BRANCH   1   2
ATOM      2  C   UNL A   1      34.421  32.488  29.313  1.00  0.00     0.116 C 
BRANCH   2   3
ATOM      3  N   UNL A   1      34.223  31.686  28.123  1.00  0.00    -0.353 N 
ATOM      4  O   UNL A   1      35.530  29.913  28.774  1.00  0.00    -0.270 OA
ATOM      5  C   UNL A   1      34.789  30.445  27.955  1.00  0.00     0.243 C 
ATOM      6  H   UNL A   1      33.658  32.046  27.402  1.00  0.00     0.163 HD
BRANCH   5   7
ATOM      7  C   UNL A   1      34.427  29.701  26.709  1.00  0.00     0.072 C 
ATOM      8  C   UNL A   1      33.181  29.566  26.233  1.00  0.00     0.014 C 
BRANCH   8   9
ATOM      9  C   UNL A   1      32.743  28.880  25.005  1.00  0.00    -0.025 A 
ATOM     10  C   UNL A   1      33.677  28.845  23.961  1.00  0.00     0.010 A 
ATOM     11  C   UNL A   1      31.487  28.295  24.790  1.00  0.00     0.010 A 
ATOM     12  C   UNL A   1      33.396  28.182  22.772  1.00  0.00     0.027 A 
ATOM     13  C   UNL A   1      31.208  27.615  23.588  1.00  0.00     0.027 A 
ATOM     14  C   UNL A   1      32.200  27.493  22.617  1.00  0.00     0.041 A 
BRANCH  14  15
ATOM     15  N   UNL A   1      32.017  26.718  21.464  1.00  0.00    -0.326 N 
ATOM     16  C   UNL A   1      32.694  25.542  21.165  1.00  0.00     0.231 C 
ATOM     17  H   UNL A   1      31.352  27.035  20.810  1.00  0.00     0.169 HD
ATOM     18  O   UNL A   1      32.934  25.240  19.998  1.00  0.00    -0.274 OA
BRANCH  16  19
ATOM     19  C   UNL A   1      32.752  24.520  22.300  1.00  0.00     0.121 C 
ATOM     20  C   UNL A   1      33.563  23.232  22.247  1.00  0.00     0.243 C 
ATOM     21  C   UNL A   1      31.384  24.043  22.814  1.00  0.00     0.056 C 
ATOM     22  O   UNL A   1      33.893  22.800  23.584  1.00  0.00    -0.492 OA
ATOM     23  C   UNL A   1      31.681  23.619  24.235  1.00  0.00    -0.005 A 
ATOM     24  C   UNL A   1      32.970  23.142  24.543  1.00  0.00     0.122 A 
ATOM     25  C   UNL A   1      30.794  23.935  25.263  1.00  0.00     0.007 A 
ATOM     26  C   UNL A   1      33.426  23.167  25.855  1.00  0.00     0.047 A 
ATOM     27  C   UNL A   1      31.254  23.952  26.580  1.00  0.00     0.001 A 
ATOM     28  C   UNL A   1      32.580  23.618  26.867  1.00  0.00     0.004 A 
ENDBRANCH  16  19
ENDBRANCH  14  15
ENDBRANCH   8   9
ENDBRANCH   5   7
ENDBRANCH   2   3
ENDBRANCH   1   2
BRANCH   1  29
ATOM     29  C   UNL A   1      33.392  34.836  28.921  1.00  0.00     0.023 C 
BRANCH  29  30
ATOM     30  C   UNL A   1      33.441  36.162  29.676  1.00  0.00     0.116 C 
BRANCH  30  31
ATOM     31  N   UNL A   1      32.493  36.234  30.776  1.00  0.00    -0.352 N 
ATOM     32  C   UNL A   1      32.570  35.700  32.040  1.00  0.00     0.251 C 
ATOM     33  H   UNL A   1      31.672  36.743  30.587  1.00  0.00     0.163 HD
ATOM     34  O   UNL A   1      31.596  35.770  32.792  1.00  0.00    -0.269 OA
BRANCH  32  35
ATOM     35  C   UNL A   1      33.798  35.014  32.502  1.00  0.00     0.039 A 
ATOM     36  C   UNL A   1      33.701  33.692  32.949  1.00  0.00     0.014 A 
ATOM     37  C   UNL A   1      35.036  35.660  32.511  1.00  0.00     0.014 A 
ATOM     38  C   UNL A   1      34.854  32.997  33.329  1.00  0.00     0.010 A 
ATOM     39  C   UNL A   1      36.193  34.944  32.817  1.00  0.00     0.010 A 
ATOM     40  C   UNL A   1      36.117  33.604  33.226  1.00  0.00    -0.014 A 
BRANCH  40  41
ATOM     41  C   UNL A   1      37.362  32.847  33.522  1.00  0.00     0.031 A 
ATOM     42  C   UNL A   1      38.123  33.093  34.797  1.00  0.00     0.074 A 
ATOM     43  C   UNL A   1      37.848  31.979  32.612  1.00  0.00     0.049 A 
ATOM     44  N   UNL A   1      39.254  32.568  35.199  1.00  0.00    -0.248 NA
ATOM     45  C   UNL A   1      37.551  34.074  35.732  1.00  0.00     0.031 C 
ATOM     46  C   UNL A   1      37.230  31.668  31.321  1.00  0.00     0.029 A 
ATOM     47  N   UNL A   1      38.979  31.200  32.632  1.00  0.00    -0.354 N 
ATOM     48  C   UNL A   1      39.536  33.166  36.421  1.00  0.00     0.074 A 
ATOM     49  C   UNL A   1      38.485  34.128  36.672  1.00  0.00     0.031 C 
ATOM     50  C   UNL A   1      37.969  30.743  30.690  1.00  0.00     0.029 A 
ATOM     51  C   UNL A   1      39.138  30.430  31.505  1.00  0.00     0.049 A 
ATOM     52  H   UNL A   1      39.616  31.194  33.383  1.00  0.00     0.167 HD
ATOM     53  C   UNL A   1      40.566  32.925  37.268  1.00  0.00     0.031 A 
ATOM     54  C   UNL A   1      40.119  29.573  31.160  1.00  0.00     0.031 A 
ATOM     55  C   UNL A   1      41.610  31.965  37.024  1.00  0.00     0.049 A 
ATOM     56  C   UNL A   1      41.268  29.348  32.103  1.00  0.00     0.074 A 
ATOM     57  C   UNL A   1      42.663  31.609  37.850  1.00  0.00     0.029 A 
ATOM     58  N   UNL A   1      41.738  31.213  35.867  1.00  0.00    -0.354 N 
ATOM     59  N   UNL A   1      41.481  29.870  33.286  1.00  0.00    -0.248 NA
ATOM     60  C   UNL A   1      42.309  28.407  31.664  1.00  0.00     0.031 C 
ATOM     61  C   UNL A   1      43.466  30.692  37.164  1.00  0.00     0.029 A 
ATOM     62  C   UNL A   1      42.873  30.422  35.942  1.00  0.00     0.049 A 
ATOM     63  H   UNL A   1      41.117  31.239  35.105  1.00  0.00     0.167 HD
ATOM     64  C   UNL A   1      42.660  29.296  33.746  1.00  0.00     0.074 A 
ATOM     65  C   UNL A   1      43.107  28.377  32.721  1.00  0.00     0.031 C 
ATOM     66  C   UNL A   1      43.311  29.511  34.916  1.00  0.00     0.031 A 
BRANCH  53  67
ATOM     67  C   UNL A   1      40.622  33.731  38.539  1.00  0.00    -0.014 A 
ATOM     68  C   UNL A   1      41.334  34.939  38.609  1.00  0.00     0.009 A 
ATOM     69  C   UNL A   1      39.919  33.293  39.673  1.00  0.00     0.009 A 
ATOM     70  C   UNL A   1      41.374  35.670  39.798  1.00  0.00     0.001 A 
ATOM     71  C   UNL A   1      39.934  34.043  40.851  1.00  0.00     0.001 A 
ATOM     72  C   UNL A   1      40.671  35.224  40.916  1.00  0.00     0.000 A 
ENDBRANCH  53  67
BRANCH  54  73
ATOM     73  C   UNL A   1      40.055  28.848  29.861  1.00  0.00    -0.014 A 
ATOM     74  C   UNL A   1      39.474  27.573  29.786  1.00  0.00     0.009 A 
ATOM     75  C   UNL A   1      40.585  29.420  28.694  1.00  0.00     0.009 A 
ATOM     76  C   UNL A   1      39.453  26.874  28.576  1.00  0.00     0.001 A 
ATOM     77  C   UNL A   1      40.532  28.733  27.480  1.00  0.00     0.001 A 
ATOM     78  C   UNL A   1      39.977  27.456  27.425  1.00  0.00     0.000 A 
ENDBRANCH  54  73
BRANCH  66  79
ATOM     79  C   UNL A   1      44.557  28.708  35.170  1.00  0.00    -0.014 A 
ATOM     80  C   UNL A   1      45.827  29.189  34.813  1.00  0.00     0.009 A 
ATOM     81  C   UNL A   1      44.460  27.463  35.813  1.00  0.00     0.009 A 
ATOM     82  C   UNL A   1      46.968  28.423  35.064  1.00  0.00     0.001 A 
ATOM     83  C   UNL A   1      45.604  26.716  36.092  1.00  0.00     0.001 A 
ATOM     84  C   UNL A   1      46.856  27.192  35.708  1.00  0.00     0.000 A 
ENDBRANCH  66  79
ENDBRANCH  40  41
ENDBRANCH  32  35
ENDBRANCH  30  31
ENDBRANCH  29  30
ENDBRANCH   1  29
TORSDOF 14
ENDMDL
MODEL 2
REMARK VINA RESULT:     -11.7      1.239      1.923
REMARK SMILES O=C(/C=C/c1ccc(NC(=O)[C@@H]2COc3ccccc3C2)cc1)NCCCCNC(=O)c1ccc(-c2c3nc(c(-c4ccccc4)c4ccc([nH]4)c(-c4ccccc4)c4nc(c(-c5ccccc5)c5ccc2[nH]5)C=C4)C=C3)cc1
REMARK SMILES IDX 26 1 25 2 24 3 1 4 2 5 3 7 4 8 5 9 6 10 23 11 7 12 22 13
REMARK SMILES IDX 8 14 9 15 10 16 11 18 12 19 13 20 21 21 14 22 20 23 15 24
REMARK SMILES IDX 19 25 16 26 18 27 17 28 27 29 28 30 29 31 30 32 31 34 32 35
REMARK SMILES IDX 33 36 79 37 34 38 78 39 35 40 36 41 37 42 72 43 38 44 77 45
REMARK SMILES IDX 71 46 73 47 39 48 76 49 70 50 69 51 40 53 62 54 47 55 61 56
REMARK SMILES IDX 48 57 51 58 60 59 74 60 49 61 50 62 59 64 75 65 52 66 41 67
REMARK SMILES IDX 42 68 46 69 43 70 45 71 44 72 63 73 64 74 68 75 65 76 67 77
REMARK SMILES IDX 66 78 53 79 54 80 58 81 55 82 57 83 56 84
REMARK H PARENT 24 6 9 17 29 33 73 52 51 63
REMARK Flexibility Score: inf
ROOT
ATOM      1  C   UNL A   1      34.514  34.080  28.307  1.00  0.00     0.023 C 
ENDROOT
BRANCH   1   2
ATOM      2  C   UNL A   1      34.991  32.913  29.171  1.00  0.00     0.116 C 
BRANCH   2   3
ATOM      3  N   UNL A   1      34.415  31.643  28.775  1.00  0.00    -0.353 N 
ATOM      4  O   UNL A   1      36.249  30.858  27.639  1.00  0.00    -0.270 OA
ATOM      5  C   UNL A   1      35.104  30.704  28.046  1.00  0.00     0.243 C 
ATOM      6  H   UNL A   1      33.488  31.444  29.042  1.00  0.00     0.163 HD
BRANCH   5   7
ATOM      7  C   UNL A   1      34.405  29.408  27.785  1.00  0.00     0.072 C 
ATOM      8  C   UNL A   1      33.931  29.019  26.592  1.00  0.00     0.014 C 
BRANCH   8   9
ATOM      9  C   UNL A   1      33.262  27.754  26.245  1.00  0.00    -0.025 A 
ATOM     10  C   UNL A   1      31.862  27.791  26.225  1.00  0.00     0.010 A 
ATOM     11  C   UNL A   1      33.897  26.536  25.965  1.00  0.00     0.010 A 
ATOM     12  C   UNL A   1      31.122  26.672  25.863  1.00  0.00     0.027 A 
ATOM     13  C   UNL A   1      33.145  25.405  25.587  1.00  0.00     0.027 A 
ATOM     14  C   UNL A   1      31.761  25.507  25.459  1.00  0.00     0.041 A 
BRANCH  14  15
ATOM     15  N   UNL A   1      30.984  24.452  24.963  1.00  0.00    -0.326 N 
ATOM     16  C   UNL A   1      31.195  23.788  23.761  1.00  0.00     0.231 C 
ATOM     17  H   UNL A   1      30.223  24.157  25.514  1.00  0.00     0.169 HD
ATOM     18  O   UNL A   1      30.247  23.329  23.127  1.00  0.00    -0.274 OA
BRANCH  16  19
ATOM     19  C   UNL A   1      32.636  23.345  23.509  1.00  0.00     0.121 C 
ATOM     20  C   UNL A   1      33.350  23.488  22.171  1.00  0.00     0.243 C 
ATOM     21  C   UNL A   1      32.948  21.895  23.911  1.00  0.00     0.056 C 
ATOM     22  O   UNL A   1      34.778  23.547  22.376  1.00  0.00    -0.492 OA
ATOM     23  C   UNL A   1      34.437  21.926  24.177  1.00  0.00    -0.005 A 
ATOM     24  C   UNL A   1      35.230  22.850  23.471  1.00  0.00     0.122 A 
ATOM     25  C   UNL A   1      34.970  21.248  25.273  1.00  0.00     0.007 A 
ATOM     26  C   UNL A   1      36.469  23.230  23.973  1.00  0.00     0.047 A 
ATOM     27  C   UNL A   1      36.217  21.627  25.769  1.00  0.00     0.001 A 
ATOM     28  C   UNL A   1      36.940  22.649  25.150  1.00  0.00     0.004 A 
ENDBRANCH  16  19
ENDBRANCH  14  15
ENDBRANCH   8   9
ENDBRANCH   5   7
ENDBRANCH   2   3
ENDBRANCH   1   2
BRANCH   1  29
ATOM     29  C   UNL A   1      33.241  34.786  28.785  1.00  0.00     0.023 C 
BRANCH  29  30
ATOM     30  C   UNL A   1      33.447  36.081  29.568  1.00  0.00     0.116 C 
BRANCH  30  31
ATOM     31  N   UNL A   1      32.521  36.235  30.678  1.00  0.00    -0.352 N 
ATOM     32  C   UNL A   1      32.602  35.760  31.965  1.00  0.00     0.251 C 
ATOM     33  H   UNL A   1      31.713  36.761  30.478  1.00  0.00     0.163 HD
ATOM     34  O   UNL A   1      31.645  35.897  32.728  1.00  0.00    -0.269 OA
BRANCH  32  35
ATOM     35  C   UNL A   1      33.816  35.056  32.440  1.00  0.00     0.039 A 
ATOM     36  C   UNL A   1      33.696  33.737  32.887  1.00  0.00     0.014 A 
ATOM     37  C   UNL A   1      35.063  35.686  32.460  1.00  0.00     0.014 A 
ATOM     38  C   UNL A   1      34.835  33.026  33.279  1.00  0.00     0.010 A 
ATOM     39  C   UNL A   1      36.206  34.953  32.778  1.00  0.00     0.010 A 
ATOM     40  C   UNL A   1      36.107  33.615  33.187  1.00  0.00    -0.014 A 
BRANCH  40  41
ATOM     41  C   UNL A   1      37.338  32.841  33.497  1.00  0.00     0.031 A 
ATOM     42  C   UNL A   1      38.108  33.099  34.764  1.00  0.00     0.074 A 
ATOM     43  C   UNL A   1      37.805  31.944  32.605  1.00  0.00     0.049 A 
ATOM     44  N   UNL A   1      39.230  32.561  35.174  1.00  0.00    -0.248 NA
ATOM     45  C   UNL A   1      37.558  34.111  35.680  1.00  0.00     0.031 C 
ATOM     46  C   UNL A   1      37.177  31.617  31.322  1.00  0.00     0.029 A 
ATOM     47  N   UNL A   1      38.921  31.144  32.639  1.00  0.00    -0.354 N 
ATOM     48  C   UNL A   1      39.527  33.179  36.383  1.00  0.00     0.074 A 
ATOM     49  C   UNL A   1      38.495  34.168  36.615  1.00  0.00     0.031 C 
ATOM     50  C   UNL A   1      37.896  30.664  30.709  1.00  0.00     0.029 A 
ATOM     51  C   UNL A   1      39.062  30.347  31.527  1.00  0.00     0.049 A 
ATOM     52  H   UNL A   1      39.560  31.142  33.388  1.00  0.00     0.167 HD
ATOM     53  C   UNL A   1      40.555  32.937  37.232  1.00  0.00     0.031 A 
ATOM     54  C   UNL A   1      40.024  29.463  31.199  1.00  0.00     0.031 A 
ATOM     55  C   UNL A   1      41.579  31.952  37.006  1.00  0.00     0.049 A 
ATOM     56  C   UNL A   1      41.173  29.237  32.143  1.00  0.00     0.074 A 
ATOM     57  C   UNL A   1      42.628  31.594  37.837  1.00  0.00     0.029 A 
ATOM     58  N   UNL A   1      41.690  31.173  35.865  1.00  0.00    -0.354 N 
ATOM     59  N   UNL A   1      41.399  29.780  33.314  1.00  0.00    -0.248 NA
ATOM     60  C   UNL A   1      42.193  28.267  31.722  1.00  0.00     0.031 C 
ATOM     61  C   UNL A   1      43.411  30.647  37.168  1.00  0.00     0.029 A 
ATOM     62  C   UNL A   1      42.810  30.362  35.954  1.00  0.00     0.049 A 
ATOM     63  H   UNL A   1      41.066  31.194  35.104  1.00  0.00     0.167 HD
ATOM     64  C   UNL A   1      42.568  29.193  33.784  1.00  0.00     0.074 A 
ATOM     65  C   UNL A   1      42.994  28.244  32.777  1.00  0.00     0.031 C 
ATOM     66  C   UNL A   1      43.226  29.421  34.946  1.00  0.00     0.031 A 
BRANCH  53  67
ATOM     67  C   UNL A   1      40.631  33.769  38.485  1.00  0.00    -0.014 A 
ATOM     68  C   UNL A   1      40.024  33.350  39.681  1.00  0.00     0.009 A 
ATOM     69  C   UNL A   1      41.355  34.972  38.479  1.00  0.00     0.009 A 
ATOM     70  C   UNL A   1      40.106  34.137  40.830  1.00  0.00     0.001 A 
ATOM     71  C   UNL A   1      41.464  35.741  39.639  1.00  0.00     0.001 A 
ATOM     72  C   UNL A   1      40.830  35.329  40.810  1.00  0.00     0.000 A 
ENDBRANCH  53  67
BRANCH  54  73
ATOM     73  C   UNL A   1      39.942  28.712  29.916  1.00  0.00    -0.014 A 
ATOM     74  C   UNL A   1      40.424  29.280  28.727  1.00  0.00     0.009 A 
ATOM     75  C   UNL A   1      39.371  27.431  29.872  1.00  0.00     0.009 A 
ATOM     76  C   UNL A   1      40.307  28.593  27.516  1.00  0.00     0.001 A 
ATOM     77  C   UNL A   1      39.286  26.733  28.665  1.00  0.00     0.001 A 
ATOM     78  C   UNL A   1      39.744  27.320  27.487  1.00  0.00     0.000 A 
ENDBRANCH  54  73
BRANCH  66  79
ATOM     79  C   UNL A   1      44.458  28.600  35.214  1.00  0.00    -0.014 A 
ATOM     80  C   UNL A   1      45.736  29.049  34.845  1.00  0.00     0.009 A 
ATOM     81  C   UNL A   1      44.338  27.371  35.883  1.00  0.00     0.009 A 
ATOM     82  C   UNL A   1      46.862  28.267  35.110  1.00  0.00     0.001 A 
ATOM     83  C   UNL A   1      45.469  26.607  36.176  1.00  0.00     0.001 A 
ATOM     84  C   UNL A   1      46.729  27.051  35.779  1.00  0.00     0.000 A 
ENDBRANCH  66  79
ENDBRANCH  40  41
ENDBRANCH  32  35
ENDBRANCH  30  31
ENDBRANCH  29  30
ENDBRANCH   1  29
TORSDOF 14
ENDMDL
MODEL 3
REMARK VINA RESULT:     -11.5      6.571     11.840
REMARK SMILES O=C(/C=C/c1ccc(NC(=O)[C@@H]2COc3ccccc3C2)cc1)NCCCCNC(=O)c1ccc(-c2c3nc(c(-c4ccccc4)c4ccc([nH]4)c(-c4ccccc4)c4nc(c(-c5ccccc5)c5ccc2[nH]5)C=C4)C=C3)cc1
REMARK SMILES IDX 26 1 25 2 24 3 1 4 2 5 3 7 4 8 5 9 6 10 23 11 7 12 22 13
REMARK SMILES IDX 8 14 9 15 10 16 11 18 12 19 13 20 21 21 14 22 20 23 15 24
REMARK SMILES IDX 19 25 16 26 18 27 17 28 27 29 28 30 29 31 30 32 31 34 32 35
REMARK SMILES IDX 33 36 79 37 34 38 78 39 35 40 36 41 37 42 72 43 38 44 77 45
REMARK SMILES IDX 71 46 73 47 39 48 76 49 70 50 69 51 40 53 62 54 47 55 61 56
REMARK SMILES IDX 48 57 51 58 60 59 74 60 49 61 50 62 59 64 75 65 52 66 41 67
REMARK SMILES IDX 42 68 46 69 43 70 45 71 44 72 63 73 64 74 68 75 65 76 67 77
REMARK SMILES IDX 66 78 53 79 54 80 58 81 55 82 57 83 56 84
REMARK H PARENT 24 6 9 17 29 33 73 52 51 63
REMARK Flexibility Score: inf
ROOT
ATOM      1  C   UNL A   1      41.559  20.297  26.714  1.00  0.00     0.023 C 
ENDROOT
BRANCH   1   2
ATOM      2  C   UNL A   1      41.485  21.707  26.126  1.00  0.00     0.116 C 
BRANCH   2   3
ATOM      3  N   UNL A   1      40.138  22.096  25.758  1.00  0.00    -0.353 N 
ATOM      4  O   UNL A   1      39.712  23.379  27.614  1.00  0.00    -0.270 OA
ATOM      5  C   UNL A   1      39.359  22.920  26.533  1.00  0.00     0.243 C 
ATOM      6  H   UNL A   1      39.764  21.755  24.913  1.00  0.00     0.163 HD
BRANCH   5   7
ATOM      7  C   UNL A   1      38.022  23.300  25.982  1.00  0.00     0.072 C 
ATOM      8  C   UNL A   1      37.177  22.456  25.371  1.00  0.00     0.014 C 
BRANCH   8   9
ATOM      9  C   UNL A   1      35.837  22.740  24.829  1.00  0.00    -0.025 A 
ATOM     10  C   UNL A   1      35.591  24.075  24.483  1.00  0.00     0.010 A 
ATOM     11  C   UNL A   1      34.802  21.810  24.661  1.00  0.00     0.010 A 
ATOM     12  C   UNL A   1      34.380  24.455  23.916  1.00  0.00     0.027 A 
ATOM     13  C   UNL A   1      33.579  22.195  24.076  1.00  0.00     0.027 A 
ATOM     14  C   UNL A   1      33.408  23.504  23.631  1.00  0.00     0.041 A 
BRANCH  14  15
ATOM     15  N   UNL A   1      32.264  23.904  22.927  1.00  0.00    -0.326 N 
ATOM     16  C   UNL A   1      31.066  24.312  23.500  1.00  0.00     0.231 C 
ATOM     17  H   UNL A   1      32.315  23.896  21.944  1.00  0.00     0.169 HD
ATOM     18  O   UNL A   1      29.997  24.096  22.930  1.00  0.00    -0.274 OA
BRANCH  16  19
ATOM     19  C   UNL A   1      31.198  25.342  24.621  1.00  0.00     0.121 C 
ATOM     20  C   UNL A   1      30.956  25.036  26.093  1.00  0.00     0.243 C 
ATOM     21  C   UNL A   1      30.405  26.640  24.405  1.00  0.00     0.056 C 
ATOM     22  O   UNL A   1      31.693  25.963  26.918  1.00  0.00    -0.492 OA
ATOM     23  C   UNL A   1      31.174  27.652  25.225  1.00  0.00    -0.005 A 
ATOM     24  C   UNL A   1      31.873  27.208  26.364  1.00  0.00     0.122 A 
ATOM     25  C   UNL A   1      31.402  28.934  24.726  1.00  0.00     0.007 A 
ATOM     26  C   UNL A   1      32.921  27.963  26.874  1.00  0.00     0.047 A 
ATOM     27  C   UNL A   1      32.451  29.692  25.247  1.00  0.00     0.001 A 
ATOM     28  C   UNL A   1      33.238  29.185  26.284  1.00  0.00     0.004 A 
ENDBRANCH  16  19
ENDBRANCH  14  15
ENDBRANCH   8   9
ENDBRANCH   5   7
ENDBRANCH   2   3
ENDBRANCH   1   2
BRANCH   1  29
ATOM     29  C   UNL A   1      42.035  19.200  25.757  1.00  0.00     0.023 C 
BRANCH  29  30
ATOM     30  C   UNL A   1      43.384  18.565  26.084  1.00  0.00     0.116 C 
BRANCH  30  31
ATOM     31  N   UNL A   1      44.263  18.454  24.930  1.00  0.00    -0.352 N 
ATOM     32  C   UNL A   1      44.927  19.433  24.233  1.00  0.00     0.251 C 
ATOM     33  H   UNL A   1      44.404  17.537  24.600  1.00  0.00     0.163 HD
ATOM     34  O   UNL A   1      45.530  19.144  23.198  1.00  0.00    -0.269 OA
BRANCH  32  35
ATOM     35  C   UNL A   1      44.902  20.842  24.690  1.00  0.00     0.039 A 
ATOM     36  C   UNL A   1      45.256  21.125  26.013  1.00  0.00     0.014 A 
ATOM     37  C   UNL A   1      44.524  21.880  23.835  1.00  0.00     0.014 A 
ATOM     38  C   UNL A   1      45.304  22.451  26.454  1.00  0.00     0.010 A 
ATOM     39  C   UNL A   1      44.647  23.205  24.253  1.00  0.00     0.010 A 
ATOM     40  C   UNL A   1      45.041  23.507  25.565  1.00  0.00    -0.014 A 
BRANCH  40  41
ATOM     41  C   UNL A   1      45.193  24.925  25.985  1.00  0.00     0.031 A 
ATOM     42  C   UNL A   1      46.535  25.604  25.921  1.00  0.00     0.074 A 
ATOM     43  C   UNL A   1      44.134  25.589  26.489  1.00  0.00     0.049 A 
ATOM     44  N   UNL A   1      46.867  26.814  26.296  1.00  0.00    -0.248 NA
ATOM     45  C   UNL A   1      47.655  24.812  25.388  1.00  0.00     0.031 C 
ATOM     46  C   UNL A   1      42.782  25.043  26.638  1.00  0.00     0.029 A 
ATOM     47  N   UNL A   1      44.027  26.870  26.973  1.00  0.00    -0.354 N 
ATOM     48  C   UNL A   1      48.233  26.922  26.060  1.00  0.00     0.074 A 
ATOM     49  C   UNL A   1      48.676  25.640  25.557  1.00  0.00     0.031 C 
ATOM     50  C   UNL A   1      41.978  25.990  27.145  1.00  0.00     0.029 A 
ATOM     51  C   UNL A   1      42.761  27.193  27.403  1.00  0.00     0.049 A 
ATOM     52  H   UNL A   1      44.784  27.497  27.009  1.00  0.00     0.167 HD
ATOM     53  C   UNL A   1      49.043  27.995  26.229  1.00  0.00     0.031 A 
ATOM     54  C   UNL A   1      42.285  28.328  27.951  1.00  0.00     0.031 A 
ATOM     55  C   UNL A   1      48.604  29.273  26.724  1.00  0.00     0.049 A 
ATOM     56  C   UNL A   1      43.212  29.493  28.160  1.00  0.00     0.074 A 
ATOM     57  C   UNL A   1      49.340  30.437  26.875  1.00  0.00     0.029 A 
ATOM     58  N   UNL A   1      47.318  29.555  27.156  1.00  0.00    -0.354 N 
ATOM     59  N   UNL A   1      44.485  29.600  27.864  1.00  0.00    -0.248 NA
ATOM     60  C   UNL A   1      42.632  30.698  28.769  1.00  0.00     0.031 C 
ATOM     61  C   UNL A   1      48.515  31.402  27.461  1.00  0.00     0.029 A 
ATOM     62  C   UNL A   1      47.247  30.863  27.607  1.00  0.00     0.049 A 
ATOM     63  H   UNL A   1      46.566  28.920  27.145  1.00  0.00     0.167 HD
ATOM     64  C   UNL A   1      44.848  30.893  28.220  1.00  0.00     0.074 A 
ATOM     65  C   UNL A   1      43.658  31.535  28.740  1.00  0.00     0.031 C 
ATOM     66  C   UNL A   1      46.060  31.493  28.124  1.00  0.00     0.031 A 
BRANCH  53  67
ATOM     67  C   UNL A   1      50.500  27.826  25.889  1.00  0.00    -0.014 A 
ATOM     68  C   UNL A   1      50.982  28.060  24.591  1.00  0.00     0.009 A 
ATOM     69  C   UNL A   1      51.412  27.463  26.894  1.00  0.00     0.009 A 
ATOM     70  C   UNL A   1      52.336  27.896  24.298  1.00  0.00     0.001 A 
ATOM     71  C   UNL A   1      52.771  27.331  26.605  1.00  0.00     0.001 A 
ATOM     72  C   UNL A   1      53.231  27.537  25.305  1.00  0.00     0.000 A 
ENDBRANCH  53  67
BRANCH  54  73
ATOM     73  C   UNL A   1      40.850  28.427  28.334  1.00  0.00    -0.014 A 
ATOM     74  C   UNL A   1      39.910  28.963  27.441  1.00  0.00     0.009 A 
ATOM     75  C   UNL A   1      40.415  27.999  29.598  1.00  0.00     0.009 A 
ATOM     76  C   UNL A   1      38.571  29.096  27.817  1.00  0.00     0.001 A 
ATOM     77  C   UNL A   1      39.070  28.102  29.959  1.00  0.00     0.001 A 
ATOM     78  C   UNL A   1      38.152  28.662  29.072  1.00  0.00     0.000 A 
ENDBRANCH  54  73
BRANCH  66  79
ATOM     79  C   UNL A   1      46.153  32.933  28.550  1.00  0.00    -0.014 A 
ATOM     80  C   UNL A   1      46.518  33.290  29.858  1.00  0.00     0.009 A 
ATOM     81  C   UNL A   1      45.907  33.950  27.613  1.00  0.00     0.009 A 
ATOM     82  C   UNL A   1      46.600  34.635  30.225  1.00  0.00     0.001 A 
ATOM     83  C   UNL A   1      46.023  35.292  27.974  1.00  0.00     0.001 A 
ATOM     84  C   UNL A   1      46.358  35.634  29.283  1.00  0.00     0.000 A 
ENDBRANCH  66  79
ENDBRANCH  40  41
ENDBRANCH  32  35
ENDBRANCH  30  31
ENDBRANCH  29  30
ENDBRANCH   1  29
TORSDOF 14
ENDMDL
