MODEL 1
REMARK VINA RESULT:     -10.3      0.000      0.000
REMARK SMILES C=CCOC(=O)N[C@@H](Cc1ccccc1)C(=O)NCCCCNC(=O)c1ccc(-c2c3nc(c(-c4ccccc4)c4ccc([nH]4)c(-c4ccccc4)c4nc(c(-c5ccccc5)c5ccc2[nH]5)C=C4)C=C3)cc1
REMARK SMILES IDX 19 1 18 2 16 3 17 4 8 6 7 7 5 8 6 9 4 11 3 12 2 13 1 14 9 15
REMARK SMILES IDX 10 16 11 17 15 18 12 19 14 20 13 21 20 22 21 23 22 24 23 25
REMARK SMILES IDX 24 26 25 28 26 29 27 30 73 31 28 32 72 33 29 34 30 35 31 36
REMARK SMILES IDX 66 37 32 38 71 39 65 40 67 41 33 42 70 43 64 44 63 45 34 47
REMARK SMILES IDX 56 48 41 49 55 50 42 51 45 52 54 53 68 54 43 55 44 56 53 58
REMARK SMILES IDX 69 59 46 60 35 61 36 62 40 63 37 64 39 65 38 66 57 67 58 68
REMARK SMILES IDX 62 69 59 70 61 71 60 72 47 73 48 74 52 75 49 76 51 77 50 78
REMARK H PARENT 18 5 7 10 23 27 67 46 45 57
REMARK Flexibility Score: inf
ROOT
ATOM      1  C   UNL A   1      32.299  25.897  26.513  1.00  0.00     0.116 C 
ENDROOT
BRANCH   1   2
ATOM      2  N   UNL A   1      31.140  25.131  26.917  1.00  0.00    -0.354 N 
ATOM      3  C   UNL A   1      30.789  23.853  26.580  1.00  0.00     0.243 C 
ATOM      4  O   UNL A   1      30.046  23.260  27.372  1.00  0.00    -0.273 OA
ATOM      5  H   UNL A   1      30.515  25.596  27.520  1.00  0.00     0.163 HD
BRANCH   3   6
ATOM      6  C   UNL A   1      31.387  23.099  25.366  1.00  0.00     0.179 C 
BRANCH   6   7
ATOM      7  N   UNL A   1      31.412  21.644  25.497  1.00  0.00    -0.309 N 
ATOM      8  C   UNL A   1      32.353  20.779  25.027  1.00  0.00     0.408 C 
ATOM      9  O   UNL A   1      32.224  19.577  25.199  1.00  0.00    -0.225 OA
ATOM     10  H   UNL A   1      30.658  21.239  25.984  1.00  0.00     0.167 HD
BRANCH   8  11
ATOM     11  O   UNL A   1      33.348  21.381  24.333  1.00  0.00    -0.445 OA
BRANCH  11  12
ATOM     12  C   UNL A   1      34.659  21.210  24.888  1.00  0.00     0.262 C 
BRANCH  12  13
ATOM     13  C   UNL A   1      35.489  22.436  24.667  1.00  0.00     0.006 C 
ATOM     14  C   UNL A   1      36.016  22.776  23.482  1.00  0.00     0.007 C 
ENDBRANCH  12  13
ENDBRANCH  11  12
ENDBRANCH   8  11
ENDBRANCH   6   7
BRANCH   6  15
ATOM     15  C   UNL A   1      30.815  23.564  24.007  1.00  0.00     0.070 C 
BRANCH  15  16
ATOM     16  C   UNL A   1      31.516  24.714  23.322  1.00  0.00    -0.045 A 
ATOM     17  C   UNL A   1      30.820  25.881  22.969  1.00  0.00     0.004 A 
ATOM     18  C   UNL A   1      32.893  24.644  23.058  1.00  0.00     0.004 A 
ATOM     19  C   UNL A   1      31.500  26.974  22.425  1.00  0.00     0.000 A 
ATOM     20  C   UNL A   1      33.569  25.736  22.507  1.00  0.00     0.000 A 
ATOM     21  C   UNL A   1      32.875  26.907  22.206  1.00  0.00     0.000 A 
ENDBRANCH  15  16
ENDBRANCH   6  15
ENDBRANCH   3   6
ENDBRANCH   1   2
BRANCH   1  22
ATOM     22  C   UNL A   1      32.016  27.355  26.199  1.00  0.00     0.023 C 
BRANCH  22  23
ATOM     23  C   UNL A   1      32.388  28.326  27.316  1.00  0.00     0.023 C 
BRANCH  23  24
ATOM     24  C   UNL A   1      33.721  29.050  27.149  1.00  0.00     0.116 C 
BRANCH  24  25
ATOM     25  N   UNL A   1      33.766  30.362  27.784  1.00  0.00    -0.352 N 
ATOM     26  C   UNL A   1      34.804  30.928  28.491  1.00  0.00     0.251 C 
ATOM     27  H   UNL A   1      32.954  30.911  27.697  1.00  0.00     0.163 HD
ATOM     28  O   UNL A   1      34.683  32.011  29.049  1.00  0.00    -0.269 OA
BRANCH  26  29
ATOM     29  C   UNL A   1      36.071  30.177  28.585  1.00  0.00     0.039 A 
ATOM     30  C   UNL A   1      36.985  30.237  27.531  1.00  0.00     0.014 A 
ATOM     31  C   UNL A   1      36.389  29.519  29.775  1.00  0.00     0.014 A 
ATOM     32  C   UNL A   1      38.266  29.708  27.708  1.00  0.00     0.010 A 
ATOM     33  C   UNL A   1      37.686  29.069  29.974  1.00  0.00     0.010 A 
ATOM     34  C   UNL A   1      38.641  29.164  28.947  1.00  0.00    -0.014 A 
BRANCH  34  35
ATOM     35  C   UNL A   1      40.016  28.668  29.211  1.00  0.00     0.031 A 
ATOM     36  C   UNL A   1      41.036  29.607  29.792  1.00  0.00     0.074 A 
ATOM     37  C   UNL A   1      40.378  27.425  28.834  1.00  0.00     0.049 A 
ATOM     38  N   UNL A   1      42.324  29.440  29.940  1.00  0.00    -0.248 NA
ATOM     39  C   UNL A   1      40.543  30.922  30.234  1.00  0.00     0.031 C 
ATOM     40  C   UNL A   1      39.491  26.421  28.245  1.00  0.00     0.029 A 
ATOM     41  N   UNL A   1      41.603  26.804  28.873  1.00  0.00    -0.354 N 
ATOM     42  C   UNL A   1      42.798  30.637  30.462  1.00  0.00     0.074 A 
ATOM     43  C   UNL A   1      41.669  31.536  30.559  1.00  0.00     0.031 C 
ATOM     44  C   UNL A   1      40.198  25.306  27.990  1.00  0.00     0.029 A 
ATOM     45  C   UNL A   1      41.595  25.535  28.343  1.00  0.00     0.049 A 
ATOM     46  H   UNL A   1      42.409  27.228  29.244  1.00  0.00     0.167 HD
ATOM     47  C   UNL A   1      44.058  30.956  30.841  1.00  0.00     0.031 A 
ATOM     48  C   UNL A   1      42.605  24.664  28.144  1.00  0.00     0.031 A 
ATOM     49  C   UNL A   1      45.176  30.057  30.755  1.00  0.00     0.049 A 
ATOM     50  C   UNL A   1      44.005  25.055  28.536  1.00  0.00     0.074 A 
ATOM     51  C   UNL A   1      46.481  30.269  31.159  1.00  0.00     0.029 A 
ATOM     52  N   UNL A   1      45.119  28.777  30.226  1.00  0.00    -0.354 N 
ATOM     53  N   UNL A   1      44.429  26.173  29.075  1.00  0.00    -0.248 NA
ATOM     54  C   UNL A   1      45.065  24.065  28.298  1.00  0.00     0.031 C 
ATOM     55  C   UNL A   1      47.230  29.139  30.819  1.00  0.00     0.029 A 
ATOM     56  C   UNL A   1      46.375  28.197  30.272  1.00  0.00     0.049 A 
ATOM     57  H   UNL A   1      44.308  28.346  29.871  1.00  0.00     0.167 HD
ATOM     58  C   UNL A   1      45.793  26.001  29.281  1.00  0.00     0.074 A 
ATOM     59  C   UNL A   1      46.125  24.674  28.809  1.00  0.00     0.031 C 
ATOM     60  C   UNL A   1      46.686  26.865  29.820  1.00  0.00     0.031 A 
BRANCH  47  61
ATOM     61  C   UNL A   1      44.293  32.343  31.369  1.00  0.00    -0.014 A 
ATOM     62  C   UNL A   1      44.180  32.635  32.738  1.00  0.00     0.009 A 
ATOM     63  C   UNL A   1      44.666  33.369  30.487  1.00  0.00     0.009 A 
ATOM     64  C   UNL A   1      44.393  33.933  33.206  1.00  0.00     0.001 A 
ATOM     65  C   UNL A   1      44.914  34.658  30.962  1.00  0.00     0.001 A 
ATOM     66  C   UNL A   1      44.766  34.941  32.318  1.00  0.00     0.000 A 
ENDBRANCH  47  61
BRANCH  48  67
ATOM     67  C   UNL A   1      42.334  23.330  27.541  1.00  0.00    -0.014 A 
ATOM     68  C   UNL A   1      42.519  23.119  26.165  1.00  0.00     0.009 A 
ATOM     69  C   UNL A   1      41.872  22.265  28.331  1.00  0.00     0.009 A 
ATOM     70  C   UNL A   1      42.219  21.883  25.590  1.00  0.00     0.001 A 
ATOM     71  C   UNL A   1      41.604  21.020  27.758  1.00  0.00     0.001 A 
ATOM     72  C   UNL A   1      41.767  20.832  26.387  1.00  0.00     0.000 A 
ENDBRANCH  48  67
BRANCH  60  73
ATOM     73  C   UNL A   1      48.101  26.392  30.003  1.00  0.00    -0.014 A 
ATOM     74  C   UNL A   1      49.081  26.602  29.021  1.00  0.00     0.009 A 
ATOM     75  C   UNL A   1      48.476  25.817  31.228  1.00  0.00     0.009 A 
ATOM     76  C   UNL A   1      50.406  26.231  29.259  1.00  0.00     0.001 A 
ATOM     77  C   UNL A   1      49.807  25.475  31.474  1.00  0.00     0.001 A 
ATOM     78  C   UNL A   1      50.769  25.678  30.488  1.00  0.00     0.000 A 
ENDBRANCH  60  73
ENDBRANCH  34  35
ENDBRANCH  26  29
ENDBRANCH  24  25
ENDBRANCH  23  24
ENDBRANCH  22  23
ENDBRANCH   1  22
TORSDOF 17
ENDMDL
MODEL 2
REMARK VINA RESULT:     -10.2      2.855      7.246
REMARK SMILES C=CCOC(=O)N[C@@H](Cc1ccccc1)C(=O)NCCCCNC(=O)c1ccc(-c2c3nc(c(-c4ccccc4)c4ccc([nH]4)c(-c4ccccc4)c4nc(c(-c5ccccc5)c5ccc2[nH]5)C=C4)C=C3)cc1
REMARK SMILES IDX 19 1 18 2 16 3 17 4 8 6 7 7 5 8 6 9 4 11 3 12 2 13 1 14 9 15
REMARK SMILES IDX 10 16 11 17 15 18 12 19 14 20 13 21 20 22 21 23 22 24 23 25
REMARK SMILES IDX 24 26 25 28 26 29 27 30 73 31 28 32 72 33 29 34 30 35 31 36
REMARK SMILES IDX 66 37 32 38 71 39 65 40 67 41 33 42 70 43 64 44 63 45 34 47
REMARK SMILES IDX 56 48 41 49 55 50 42 51 45 52 54 53 68 54 43 55 44 56 53 58
REMARK SMILES IDX 69 59 46 60 35 61 36 62 40 63 37 64 39 65 38 66 57 67 58 68
REMARK SMILES IDX 62 69 59 70 61 71 60 72 47 73 48 74 52 75 49 76 51 77 50 78
REMARK H PARENT 18 5 7 10 23 27 67 46 45 57
REMARK Flexibility Score: inf
ROOT
ATOM      1  C   UNL A   1      31.897  27.721  26.457  1.00  0.00     0.116 C 
ENDROOT
BRANCH   1   2
ATOM      2  N   UNL A   1      30.942  26.684  26.782  1.00  0.00    -0.354 N 
ATOM      3  C   UNL A   1      30.341  25.773  25.957  1.00  0.00     0.243 C 
ATOM      4  O   UNL A   1      29.944  24.729  26.488  1.00  0.00    -0.273 OA
ATOM      5  H   UNL A   1      30.689  26.625  27.732  1.00  0.00     0.163 HD
BRANCH   3   6
ATOM      6  C   UNL A   1      30.279  25.933  24.418  1.00  0.00     0.179 C 
BRANCH   6   7
ATOM      7  N   UNL A   1      30.800  24.797  23.659  1.00  0.00    -0.309 N 
ATOM      8  C   UNL A   1      32.046  24.649  23.129  1.00  0.00     0.408 C 
ATOM      9  O   UNL A   1      32.329  23.642  22.498  1.00  0.00    -0.225 OA
ATOM     10  H   UNL A   1      30.176  24.050  23.515  1.00  0.00     0.167 HD
BRANCH   8  11
ATOM     11  O   UNL A   1      32.852  25.719  23.323  1.00  0.00    -0.445 OA
BRANCH  11  12
ATOM     12  C   UNL A   1      33.275  26.379  22.123  1.00  0.00     0.262 C 
BRANCH  12  13
ATOM     13  C   UNL A   1      33.472  27.844  22.369  1.00  0.00     0.006 C 
ATOM     14  C   UNL A   1      33.930  28.351  23.522  1.00  0.00     0.007 C 
ENDBRANCH  12  13
ENDBRANCH  11  12
ENDBRANCH   8  11
ENDBRANCH   6   7
BRANCH   6  15
ATOM     15  C   UNL A   1      28.901  26.410  23.901  1.00  0.00     0.070 C 
BRANCH  15  16
ATOM     16  C   UNL A   1      28.812  27.827  23.385  1.00  0.00    -0.045 A 
ATOM     17  C   UNL A   1      27.571  28.452  23.191  1.00  0.00     0.004 A 
ATOM     18  C   UNL A   1      29.983  28.557  23.122  1.00  0.00     0.004 A 
ATOM     19  C   UNL A   1      27.504  29.794  22.807  1.00  0.00     0.000 A 
ATOM     20  C   UNL A   1      29.914  29.896  22.731  1.00  0.00     0.000 A 
ATOM     21  C   UNL A   1      28.675  30.519  22.590  1.00  0.00     0.000 A 
ENDBRANCH  15  16
ENDBRANCH   6  15
ENDBRANCH   3   6
ENDBRANCH   1   2
BRANCH   1  22
ATOM     22  C   UNL A   1      31.763  28.987  27.284  1.00  0.00     0.023 C 
BRANCH  22  23
ATOM     23  C   UNL A   1      32.034  30.276  26.515  1.00  0.00     0.023 C 
BRANCH  23  24
ATOM     24  C   UNL A   1      33.018  31.244  27.169  1.00  0.00     0.116 C 
BRANCH  24  25
ATOM     25  N   UNL A   1      32.482  32.585  27.369  1.00  0.00    -0.352 N 
ATOM     26  C   UNL A   1      33.030  33.618  28.098  1.00  0.00     0.251 C 
ATOM     27  H   UNL A   1      31.623  32.777  26.929  1.00  0.00     0.163 HD
ATOM     28  O   UNL A   1      32.433  34.676  28.257  1.00  0.00    -0.269 OA
BRANCH  26  29
ATOM     29  C   UNL A   1      34.353  33.407  28.714  1.00  0.00     0.039 A 
ATOM     30  C   UNL A   1      34.445  32.732  29.933  1.00  0.00     0.014 A 
ATOM     31  C   UNL A   1      35.502  33.775  28.010  1.00  0.00     0.014 A 
ATOM     32  C   UNL A   1      35.701  32.344  30.406  1.00  0.00     0.010 A 
ATOM     33  C   UNL A   1      36.738  33.317  28.442  1.00  0.00     0.010 A 
ATOM     34  C   UNL A   1      36.852  32.591  29.640  1.00  0.00    -0.014 A 
BRANCH  34  35
ATOM     35  C   UNL A   1      38.198  32.123  30.058  1.00  0.00     0.031 A 
ATOM     36  C   UNL A   1      38.718  30.816  29.527  1.00  0.00     0.074 A 
ATOM     37  C   UNL A   1      38.900  32.803  30.987  1.00  0.00     0.049 A 
ATOM     38  N   UNL A   1      39.777  30.139  29.888  1.00  0.00    -0.248 NA
ATOM     39  C   UNL A   1      37.920  30.171  28.471  1.00  0.00     0.031 C 
ATOM     40  C   UNL A   1      38.502  34.074  31.595  1.00  0.00     0.029 A 
ATOM     41  N   UNL A   1      40.093  32.501  31.598  1.00  0.00    -0.354 N 
ATOM     42  C   UNL A   1      39.754  28.977  29.127  1.00  0.00     0.074 A 
ATOM     43  C   UNL A   1      38.553  29.018  28.322  1.00  0.00     0.031 C 
ATOM     44  C   UNL A   1      39.440  34.449  32.481  1.00  0.00     0.029 A 
ATOM     45  C   UNL A   1      40.474  33.421  32.547  1.00  0.00     0.049 A 
ATOM     46  H   UNL A   1      40.624  31.703  31.379  1.00  0.00     0.167 HD
ATOM     47  C   UNL A   1      40.659  27.971  29.090  1.00  0.00     0.031 A 
ATOM     48  C   UNL A   1      41.526  33.424  33.390  1.00  0.00     0.031 A 
ATOM     49  C   UNL A   1      41.857  27.937  29.883  1.00  0.00     0.049 A 
ATOM     50  C   UNL A   1      42.499  32.275  33.360  1.00  0.00     0.074 A 
ATOM     51  C   UNL A   1      42.861  26.987  29.882  1.00  0.00     0.029 A 
ATOM     52  N   UNL A   1      42.210  28.896  30.819  1.00  0.00    -0.354 N 
ATOM     53  N   UNL A   1      42.490  31.206  32.600  1.00  0.00    -0.248 NA
ATOM     54  C   UNL A   1      43.627  32.332  34.300  1.00  0.00     0.031 C 
ATOM     55  C   UNL A   1      43.794  27.338  30.861  1.00  0.00     0.029 A 
ATOM     56  C   UNL A   1      43.407  28.546  31.419  1.00  0.00     0.049 A 
ATOM     57  H   UNL A   1      41.688  29.705  31.026  1.00  0.00     0.167 HD
ATOM     58  C   UNL A   1      43.633  30.491  32.938  1.00  0.00     0.074 A 
ATOM     59  C   UNL A   1      44.310  31.245  33.971  1.00  0.00     0.031 C 
ATOM     60  C   UNL A   1      44.082  29.318  32.430  1.00  0.00     0.031 A 
BRANCH  47  61
ATOM     61  C   UNL A   1      40.374  26.816  28.172  1.00  0.00    -0.014 A 
ATOM     62  C   UNL A   1      40.895  26.772  26.868  1.00  0.00     0.009 A 
ATOM     63  C   UNL A   1      39.601  25.738  28.629  1.00  0.00     0.009 A 
ATOM     64  C   UNL A   1      40.610  25.694  26.028  1.00  0.00     0.001 A 
ATOM     65  C   UNL A   1      39.348  24.644  27.800  1.00  0.00     0.001 A 
ATOM     66  C   UNL A   1      39.842  24.629  26.497  1.00  0.00     0.000 A 
ENDBRANCH  47  61
BRANCH  48  67
ATOM     67  C   UNL A   1      41.720  34.553  34.341  1.00  0.00    -0.014 A 
ATOM     68  C   UNL A   1      42.447  35.690  33.957  1.00  0.00     0.009 A 
ATOM     69  C   UNL A   1      41.197  34.494  35.643  1.00  0.00     0.009 A 
ATOM     70  C   UNL A   1      42.672  36.729  34.864  1.00  0.00     0.001 A 
ATOM     71  C   UNL A   1      41.396  35.548  36.537  1.00  0.00     0.001 A 
ATOM     72  C   UNL A   1      42.142  36.660  36.151  1.00  0.00     0.000 A 
ENDBRANCH  48  67
BRANCH  60  73
ATOM     73  C   UNL A   1      45.403  28.798  32.922  1.00  0.00    -0.014 A 
ATOM     74  C   UNL A   1      46.615  29.193  32.336  1.00  0.00     0.009 A 
ATOM     75  C   UNL A   1      45.433  27.975  34.060  1.00  0.00     0.009 A 
ATOM     76  C   UNL A   1      47.830  28.761  32.874  1.00  0.00     0.001 A 
ATOM     77  C   UNL A   1      46.648  27.571  34.614  1.00  0.00     0.001 A 
ATOM     78  C   UNL A   1      47.846  27.961  34.017  1.00  0.00     0.000 A 
ENDBRANCH  60  73
ENDBRANCH  34  35
ENDBRANCH  26  29
ENDBRANCH  24  25
ENDBRANCH  23  24
ENDBRANCH  22  23
ENDBRANCH   1  22
TORSDOF 17
ENDMDL
MODEL 3
REMARK VINA RESULT:     -10.2      1.326      2.317
REMARK SMILES C=CCOC(=O)N[C@@H](Cc1ccccc1)C(=O)NCCCCNC(=O)c1ccc(-c2c3nc(c(-c4ccccc4)c4ccc([nH]4)c(-c4ccccc4)c4nc(c(-c5ccccc5)c5ccc2[nH]5)C=C4)C=C3)cc1
REMARK SMILES IDX 19 1 18 2 16 3 17 4 8 6 7 7 5 8 6 9 4 11 3 12 2 13 1 14 9 15
REMARK SMILES IDX 10 16 11 17 15 18 12 19 14 20 13 21 20 22 21 23 22 24 23 25
REMARK SMILES IDX 24 26 25 28 26 29 27 30 73 31 28 32 72 33 29 34 30 35 31 36
REMARK SMILES IDX 66 37 32 38 71 39 65 40 67 41 33 42 70 43 64 44 63 45 34 47
REMARK SMILES IDX 56 48 41 49 55 50 42 51 45 52 54 53 68 54 43 55 44 56 53 58
REMARK SMILES IDX 69 59 46 60 35 61 36 62 40 63 37 64 39 65 38 66 57 67 58 68
REMARK SMILES IDX 62 69 59 70 61 71 60 72 47 73 48 74 52 75 49 76 51 77 50 78
REMARK H PARENT 18 5 7 10 23 27 67 46 45 57
REMARK Flexibility Score: inf
ROOT
ATOM      1  C   UNL A   1      31.934  26.163  26.398  1.00  0.00     0.116 C 
ENDROOT
BRANCH   1   2
ATOM      2  N   UNL A   1      31.186  24.992  26.801  1.00  0.00    -0.354 N 
ATOM      3  C   UNL A   1      31.581  23.683  26.831  1.00  0.00     0.243 C 
ATOM      4  O   UNL A   1      30.976  22.944  27.617  1.00  0.00    -0.273 OA
ATOM      5  H   UNL A   1      30.262  25.162  27.097  1.00  0.00     0.163 HD
BRANCH   3   6
ATOM      6  C   UNL A   1      32.811  23.148  26.055  1.00  0.00     0.179 C 
BRANCH   6   7
ATOM      7  N   UNL A   1      32.629  23.044  24.609  1.00  0.00    -0.309 N 
ATOM      8  C   UNL A   1      32.326  21.933  23.883  1.00  0.00     0.408 C 
ATOM      9  O   UNL A   1      32.226  22.000  22.668  1.00  0.00    -0.225 OA
ATOM     10  H   UNL A   1      32.738  23.878  24.098  1.00  0.00     0.167 HD
BRANCH   8  11
ATOM     11  O   UNL A   1      32.223  20.806  24.628  1.00  0.00    -0.445 OA
BRANCH  11  12
ATOM     12  C   UNL A   1      32.526  19.592  23.929  1.00  0.00     0.262 C 
BRANCH  12  13
ATOM     13  C   UNL A   1      33.645  18.861  24.604  1.00  0.00     0.006 C 
ATOM     14  C   UNL A   1      34.258  17.790  24.080  1.00  0.00     0.007 C 
ENDBRANCH  12  13
ENDBRANCH  11  12
ENDBRANCH   8  11
ENDBRANCH   6   7
BRANCH   6  15
ATOM     15  C   UNL A   1      34.135  23.848  26.439  1.00  0.00     0.070 C 
BRANCH  15  16
ATOM     16  C   UNL A   1      35.418  23.117  26.121  1.00  0.00    -0.045 A 
ATOM     17  C   UNL A   1      35.433  21.727  25.926  1.00  0.00     0.004 A 
ATOM     18  C   UNL A   1      36.620  23.831  25.980  1.00  0.00     0.004 A 
ATOM     19  C   UNL A   1      36.607  21.078  25.536  1.00  0.00     0.000 A 
ATOM     20  C   UNL A   1      37.794  23.178  25.597  1.00  0.00     0.000 A 
ATOM     21  C   UNL A   1      37.784  21.805  25.359  1.00  0.00     0.000 A 
ENDBRANCH  15  16
ENDBRANCH   6  15
ENDBRANCH   3   6
ENDBRANCH   1   2
BRANCH   1  22
ATOM     22  C   UNL A   1      31.433  27.469  26.989  1.00  0.00     0.023 C 
BRANCH  22  23
ATOM     23  C   UNL A   1      32.206  28.704  26.537  1.00  0.00     0.023 C 
BRANCH  23  24
ATOM     24  C   UNL A   1      33.517  28.971  27.270  1.00  0.00     0.116 C 
BRANCH  24  25
ATOM     25  N   UNL A   1      33.641  30.330  27.786  1.00  0.00    -0.352 N 
ATOM     26  C   UNL A   1      34.738  30.918  28.377  1.00  0.00     0.251 C 
ATOM     27  H   UNL A   1      32.841  30.898  27.702  1.00  0.00     0.163 HD
ATOM     28  O   UNL A   1      34.683  32.048  28.846  1.00  0.00    -0.269 OA
BRANCH  26  29
ATOM     29  C   UNL A   1      35.985  30.134  28.458  1.00  0.00     0.039 A 
ATOM     30  C   UNL A   1      36.854  30.111  27.367  1.00  0.00     0.014 A 
ATOM     31  C   UNL A   1      36.335  29.530  29.668  1.00  0.00     0.014 A 
ATOM     32  C   UNL A   1      38.126  29.553  27.518  1.00  0.00     0.010 A 
ATOM     33  C   UNL A   1      37.627  29.051  29.837  1.00  0.00     0.010 A 
ATOM     34  C   UNL A   1      38.539  29.063  28.767  1.00  0.00    -0.014 A 
BRANCH  34  35
ATOM     35  C   UNL A   1      39.909  28.539  29.001  1.00  0.00     0.031 A 
ATOM     36  C   UNL A   1      40.978  29.475  29.491  1.00  0.00     0.074 A 
ATOM     37  C   UNL A   1      40.220  27.269  28.673  1.00  0.00     0.049 A 
ATOM     38  N   UNL A   1      42.267  29.276  29.596  1.00  0.00    -0.248 NA
ATOM     39  C   UNL A   1      40.541  30.824  29.886  1.00  0.00     0.031 C 
ATOM     40  C   UNL A   1      39.281  26.264  28.172  1.00  0.00     0.029 A 
ATOM     41  N   UNL A   1      41.428  26.614  28.694  1.00  0.00    -0.354 N 
ATOM     42  C   UNL A   1      42.795  30.484  30.037  1.00  0.00     0.074 A 
ATOM     43  C   UNL A   1      41.697  31.420  30.133  1.00  0.00     0.031 C 
ATOM     44  C   UNL A   1      39.945  25.117  27.946  1.00  0.00     0.029 A 
ATOM     45  C   UNL A   1      41.362  25.321  28.230  1.00  0.00     0.049 A 
ATOM     46  H   UNL A   1      42.260  27.031  29.010  1.00  0.00     0.167 HD
ATOM     47  C   UNL A   1      44.078  30.782  30.348  1.00  0.00     0.031 A 
ATOM     48  C   UNL A   1      42.337  24.412  28.035  1.00  0.00     0.031 A 
ATOM     49  C   UNL A   1      45.166  29.847  30.262  1.00  0.00     0.049 A 
ATOM     50  C   UNL A   1      43.763  24.779  28.350  1.00  0.00     0.074 A 
ATOM     51  C   UNL A   1      46.493  30.039  30.602  1.00  0.00     0.029 A 
ATOM     52  N   UNL A   1      45.051  28.545  29.802  1.00  0.00    -0.354 N 
ATOM     53  N   UNL A   1      44.241  25.908  28.813  1.00  0.00    -0.248 NA
ATOM     54  C   UNL A   1      44.784  23.746  28.119  1.00  0.00     0.031 C 
ATOM     55  C   UNL A   1      47.194  28.872  30.290  1.00  0.00     0.029 A 
ATOM     56  C   UNL A   1      46.291  27.930  29.826  1.00  0.00     0.049 A 
ATOM     57  H   UNL A   1      44.215  28.122  29.503  1.00  0.00     0.167 HD
ATOM     58  C   UNL A   1      45.607  25.706  28.972  1.00  0.00     0.074 A 
ATOM     59  C   UNL A   1      45.882  24.348  28.555  1.00  0.00     0.031 C 
ATOM     60  C   UNL A   1      46.546  26.568  29.430  1.00  0.00     0.031 A 
BRANCH  47  61
ATOM     61  C   UNL A   1      44.374  32.186  30.795  1.00  0.00    -0.014 A 
ATOM     62  C   UNL A   1      44.678  33.200  29.871  1.00  0.00     0.009 A 
ATOM     63  C   UNL A   1      44.315  32.509  32.159  1.00  0.00     0.009 A 
ATOM     64  C   UNL A   1      44.958  34.495  30.308  1.00  0.00     0.001 A 
ATOM     65  C   UNL A   1      44.560  33.814  32.591  1.00  0.00     0.001 A 
ATOM     66  C   UNL A   1      44.893  34.802  31.667  1.00  0.00     0.000 A 
ENDBRANCH  47  61
BRANCH  48  67
ATOM     67  C   UNL A   1      42.004  23.058  27.511  1.00  0.00    -0.014 A 
ATOM     68  C   UNL A   1      42.116  22.776  26.141  1.00  0.00     0.009 A 
ATOM     69  C   UNL A   1      41.555  22.045  28.374  1.00  0.00     0.009 A 
ATOM     70  C   UNL A   1      41.757  21.522  25.642  1.00  0.00     0.001 A 
ATOM     71  C   UNL A   1      41.228  20.781  27.876  1.00  0.00     0.001 A 
ATOM     72  C   UNL A   1      41.319  20.524  26.510  1.00  0.00     0.000 A 
ENDBRANCH  48  67
BRANCH  60  73
ATOM     73  C   UNL A   1      47.953  26.063  29.579  1.00  0.00    -0.014 A 
ATOM     74  C   UNL A   1      48.822  25.967  28.482  1.00  0.00     0.009 A 
ATOM     75  C   UNL A   1      48.443  25.775  30.864  1.00  0.00     0.009 A 
ATOM     76  C   UNL A   1      50.150  25.578  28.669  1.00  0.00     0.001 A 
ATOM     77  C   UNL A   1      49.779  25.417  31.051  1.00  0.00     0.001 A 
ATOM     78  C   UNL A   1      50.630  25.315  29.952  1.00  0.00     0.000 A 
ENDBRANCH  60  73
ENDBRANCH  34  35
ENDBRANCH  26  29
ENDBRANCH  24  25
ENDBRANCH  23  24
ENDBRANCH  22  23
ENDBRANCH   1  22
TORSDOF 17
ENDMDL
