MODEL 1
REMARK VINA RESULT:     -10.8      0.000      0.000
REMARK SMILES CSCc1ccc(C(=O)N[C@H]2C=C[C@@H](C(=O)NCCCCNC(=O)c3ccc(-c4c5nc(c(-c6ccccc6)c6ccc([nH]6)c(-c6ccccc6)c6nc(c(-c7ccccc7)c7ccc4[nH]7)C=C6)C=C5)cc3)C2)o1
REMARK SMILES IDX 18 1 17 2 15 3 16 4 14 6 11 7 12 8 73 9 13 10 10 11 8 12
REMARK SMILES IDX 9 13 7 15 4 16 5 17 74 18 6 19 3 20 2 21 1 22 19 23 20 24
REMARK SMILES IDX 21 25 22 26 23 27 24 29 25 30 26 31 72 32 27 33 71 34 28 35
REMARK SMILES IDX 29 36 30 37 65 38 31 39 70 40 64 41 66 42 32 43 69 44 63 45
REMARK SMILES IDX 62 46 33 48 55 49 40 50 54 51 41 52 44 53 53 54 67 55 42 56
REMARK SMILES IDX 43 57 52 59 68 60 45 61 34 62 35 63 39 64 36 65 38 66 37 67
REMARK SMILES IDX 56 68 57 69 61 70 58 71 60 72 59 73 46 74 47 75 51 76 48 77
REMARK SMILES IDX 50 78 49 79
REMARK H PARENT 17 5 10 14 22 28 66 47 44 58
REMARK Flexibility Score: inf
ROOT
ATOM      1  C   UNL A   1      33.360  29.635  26.899  1.00  0.00     0.116 C 
ENDROOT
BRANCH   1   2
ATOM      2  N   UNL A   1      33.568  28.267  26.497  1.00  0.00    -0.356 N 
ATOM      3  C   UNL A   1      33.111  27.616  25.392  1.00  0.00     0.227 C 
ATOM      4  O   UNL A   1      33.785  26.648  25.016  1.00  0.00    -0.274 OA
ATOM      5  H   UNL A   1      34.117  27.725  27.109  1.00  0.00     0.163 HD
BRANCH   3   6
ATOM      6  C   UNL A   1      31.837  27.993  24.605  1.00  0.00     0.103 C 
ATOM      7  C   UNL A   1      31.032  27.415  22.343  1.00  0.00     0.106 C 
ATOM      8  C   UNL A   1      30.351  26.615  23.379  1.00  0.00    -0.006 C 
ATOM      9  C   UNL A   1      31.884  28.427  23.136  1.00  0.00     0.047 C 
ATOM     10  C   UNL A   1      30.787  26.919  24.610  1.00  0.00    -0.016 C 
BRANCH   7  11
ATOM     11  N   UNL A   1      31.708  26.640  21.310  1.00  0.00    -0.343 N 
ATOM     12  C   UNL A   1      32.575  25.583  21.146  1.00  0.00     0.287 C 
ATOM     13  O   UNL A   1      33.001  25.494  19.989  1.00  0.00    -0.266 OA
ATOM     14  H   UNL A   1      31.459  26.995  20.426  1.00  0.00     0.164 HD
BRANCH  12  15
ATOM     15  C   UNL A   1      33.017  24.659  22.184  1.00  0.00     0.191 A 
ATOM     16  C   UNL A   1      34.628  23.702  23.403  1.00  0.00     0.114 A 
ATOM     17  C   UNL A   1      33.436  23.230  23.894  1.00  0.00     0.047 A 
ATOM     18  O   UNL A   1      34.389  24.577  22.384  1.00  0.00    -0.455 OA
ATOM     19  C   UNL A   1      32.427  23.789  23.080  1.00  0.00     0.056 A 
BRANCH  16  20
ATOM     20  C   UNL A   1      36.028  23.336  23.727  1.00  0.00     0.144 C 
BRANCH  20  21
ATOM     21  S   UNL A   1      36.428  23.391  25.486  1.00  0.00    -0.157 SA
ATOM     22  C   UNL A   1      36.043  21.673  25.910  1.00  0.00     0.085 C 
ENDBRANCH  20  21
ENDBRANCH  16  20
ENDBRANCH  12  15
ENDBRANCH   7  11
ENDBRANCH   3   6
ENDBRANCH   1   2
BRANCH   1  23
ATOM     23  C   UNL A   1      31.902  30.070  26.985  1.00  0.00     0.023 C 
BRANCH  23  24
ATOM     24  C   UNL A   1      31.669  31.565  26.788  1.00  0.00     0.023 C 
BRANCH  24  25
ATOM     25  C   UNL A   1      32.851  32.472  27.130  1.00  0.00     0.116 C 
BRANCH  25  26
ATOM     26  N   UNL A   1      32.477  33.816  27.535  1.00  0.00    -0.352 N 
ATOM     27  C   UNL A   1      33.071  34.653  28.454  1.00  0.00     0.251 C 
ATOM     28  H   UNL A   1      31.682  34.183  27.087  1.00  0.00     0.163 HD
ATOM     29  O   UNL A   1      32.549  35.739  28.700  1.00  0.00    -0.269 OA
BRANCH  27  30
ATOM     30  C   UNL A   1      34.312  34.270  29.177  1.00  0.00     0.039 A 
ATOM     31  C   UNL A   1      34.190  33.760  30.475  1.00  0.00     0.014 A 
ATOM     32  C   UNL A   1      35.586  34.422  28.623  1.00  0.00     0.014 A 
ATOM     33  C   UNL A   1      35.321  33.316  31.164  1.00  0.00     0.010 A 
ATOM     34  C   UNL A   1      36.707  33.925  29.278  1.00  0.00     0.010 A 
ATOM     35  C   UNL A   1      36.580  33.344  30.544  1.00  0.00    -0.014 A 
BRANCH  35  36
ATOM     36  C   UNL A   1      37.744  32.656  31.146  1.00  0.00     0.031 A 
ATOM     37  C   UNL A   1      38.321  31.413  30.537  1.00  0.00     0.074 A 
ATOM     38  C   UNL A   1      38.210  33.120  32.321  1.00  0.00     0.049 A 
ATOM     39  N   UNL A   1      39.348  30.707  30.933  1.00  0.00    -0.248 NA
ATOM     40  C   UNL A   1      37.644  30.878  29.345  1.00  0.00     0.031 C 
ATOM     41  C   UNL A   1      37.662  34.267  33.053  1.00  0.00     0.029 A 
ATOM     42  N   UNL A   1      39.242  32.685  33.111  1.00  0.00    -0.354 N 
ATOM     43  C   UNL A   1      39.445  29.647  30.042  1.00  0.00     0.074 A 
ATOM     44  C   UNL A   1      38.340  29.773  29.116  1.00  0.00     0.031 C 
ATOM     45  C   UNL A   1      38.383  34.463  34.167  1.00  0.00     0.029 A 
ATOM     46  C   UNL A   1      39.424  33.446  34.240  1.00  0.00     0.049 A 
ATOM     47  H   UNL A   1      39.799  31.904  32.890  1.00  0.00     0.167 HD
ATOM     48  C   UNL A   1      40.381  28.668  29.993  1.00  0.00     0.031 A 
ATOM     49  C   UNL A   1      40.335  33.341  35.223  1.00  0.00     0.031 A 
ATOM     50  C   UNL A   1      41.464  28.542  30.936  1.00  0.00     0.049 A 
ATOM     51  C   UNL A   1      41.376  32.264  35.133  1.00  0.00     0.074 A 
ATOM     52  C   UNL A   1      42.503  27.628  30.942  1.00  0.00     0.029 A 
ATOM     53  N   UNL A   1      41.637  29.351  32.049  1.00  0.00    -0.354 N 
ATOM     54  N   UNL A   1      41.525  31.335  34.219  1.00  0.00    -0.248 NA
ATOM     55  C   UNL A   1      42.389  32.237  36.195  1.00  0.00     0.031 C 
ATOM     56  C   UNL A   1      43.276  27.851  32.087  1.00  0.00     0.029 A 
ATOM     57  C   UNL A   1      42.753  28.943  32.762  1.00  0.00     0.049 A 
ATOM     58  H   UNL A   1      41.054  30.103  32.297  1.00  0.00     0.167 HD
ATOM     59  C   UNL A   1      42.666  30.632  34.578  1.00  0.00     0.074 A 
ATOM     60  C   UNL A   1      43.179  31.256  35.782  1.00  0.00     0.031 C 
ATOM     61  C   UNL A   1      43.242  29.569  33.964  1.00  0.00     0.031 A 
BRANCH  48  62
ATOM     62  C   UNL A   1      40.274  27.657  28.884  1.00  0.00    -0.014 A 
ATOM     63  C   UNL A   1      39.517  26.484  29.042  1.00  0.00     0.009 A 
ATOM     64  C   UNL A   1      40.898  27.896  27.650  1.00  0.00     0.009 A 
ATOM     65  C   UNL A   1      39.419  25.557  28.002  1.00  0.00     0.001 A 
ATOM     66  C   UNL A   1      40.775  26.980  26.601  1.00  0.00     0.001 A 
ATOM     67  C   UNL A   1      40.043  25.808  26.781  1.00  0.00     0.000 A 
ENDBRANCH  48  62
BRANCH  49  68
ATOM     68  C   UNL A   1      40.334  34.319  36.341  1.00  0.00    -0.014 A 
ATOM     69  C   UNL A   1      39.665  34.027  37.539  1.00  0.00     0.009 A 
ATOM     70  C   UNL A   1      41.019  35.539  36.226  1.00  0.00     0.009 A 
ATOM     71  C   UNL A   1      39.657  34.948  38.588  1.00  0.00     0.001 A 
ATOM     72  C   UNL A   1      41.033  36.446  37.288  1.00  0.00     0.001 A 
ATOM     73  C   UNL A   1      40.344  36.154  38.464  1.00  0.00     0.000 A 
ENDBRANCH  49  68
BRANCH  61  74
ATOM     74  C   UNL A   1      44.508  29.040  34.575  1.00  0.00    -0.014 A 
ATOM     75  C   UNL A   1      45.767  29.531  34.194  1.00  0.00     0.009 A 
ATOM     76  C   UNL A   1      44.436  28.041  35.558  1.00  0.00     0.009 A 
ATOM     77  C   UNL A   1      46.931  28.997  34.751  1.00  0.00     0.001 A 
ATOM     78  C   UNL A   1      45.599  27.533  36.137  1.00  0.00     0.001 A 
ATOM     79  C   UNL A   1      46.845  28.002  35.723  1.00  0.00     0.000 A 
ENDBRANCH  61  74
ENDBRANCH  35  36
ENDBRANCH  27  30
ENDBRANCH  25  26
ENDBRANCH  24  25
ENDBRANCH  23  24
ENDBRANCH   1  23
TORSDOF 15
ENDMDL
MODEL 2
REMARK VINA RESULT:     -10.8      1.002      6.019
REMARK SMILES CSCc1ccc(C(=O)N[C@H]2C=C[C@@H](C(=O)NCCCCNC(=O)c3ccc(-c4c5nc(c(-c6ccccc6)c6ccc([nH]6)c(-c6ccccc6)c6nc(c(-c7ccccc7)c7ccc4[nH]7)C=C6)C=C5)cc3)C2)o1
REMARK SMILES IDX 18 1 17 2 15 3 16 4 14 6 11 7 12 8 73 9 13 10 10 11 8 12
REMARK SMILES IDX 9 13 7 15 4 16 5 17 74 18 6 19 3 20 2 21 1 22 19 23 20 24
REMARK SMILES IDX 21 25 22 26 23 27 24 29 25 30 26 31 72 32 27 33 71 34 28 35
REMARK SMILES IDX 29 36 30 37 65 38 31 39 70 40 64 41 66 42 32 43 69 44 63 45
REMARK SMILES IDX 62 46 33 48 55 49 40 50 54 51 41 52 44 53 53 54 67 55 42 56
REMARK SMILES IDX 43 57 52 59 68 60 45 61 34 62 35 63 39 64 36 65 38 66 37 67
REMARK SMILES IDX 56 68 57 69 61 70 58 71 60 72 59 73 46 74 47 75 51 76 48 77
REMARK SMILES IDX 50 78 49 79
REMARK H PARENT 17 5 10 14 22 28 66 47 44 58
REMARK Flexibility Score: inf
ROOT
ATOM      1  C   UNL A   1      33.165  29.040  26.686  1.00  0.00     0.116 C 
ENDROOT
BRANCH   1   2
ATOM      2  N   UNL A   1      33.142  27.601  26.775  1.00  0.00    -0.356 N 
ATOM      3  C   UNL A   1      32.505  26.700  25.979  1.00  0.00     0.227 C 
ATOM      4  O   UNL A   1      32.999  25.566  25.939  1.00  0.00    -0.274 OA
ATOM      5  H   UNL A   1      33.659  27.215  27.519  1.00  0.00     0.163 HD
BRANCH   3   6
ATOM      6  C   UNL A   1      31.234  26.992  25.152  1.00  0.00     0.103 C 
ATOM      7  C   UNL A   1      30.707  26.763  22.749  1.00  0.00     0.106 C 
ATOM      8  C   UNL A   1      30.137  25.651  23.535  1.00  0.00    -0.006 C 
ATOM      9  C   UNL A   1      31.285  27.726  23.807  1.00  0.00     0.047 C 
ATOM     10  C   UNL A   1      30.424  25.766  24.840  1.00  0.00    -0.016 C 
BRANCH   7  11
ATOM     11  N   UNL A   1      31.590  26.361  21.662  1.00  0.00    -0.343 N 
ATOM     12  C   UNL A   1      32.629  25.504  21.375  1.00  0.00     0.287 C 
ATOM     13  O   UNL A   1      33.166  25.756  20.290  1.00  0.00    -0.266 OA
ATOM     14  H   UNL A   1      31.368  26.880  20.857  1.00  0.00     0.164 HD
BRANCH  12  15
ATOM     15  C   UNL A   1      33.121  24.426  22.225  1.00  0.00     0.191 A 
ATOM     16  C   UNL A   1      34.640  23.566  23.621  1.00  0.00     0.114 A 
ATOM     17  C   UNL A   1      33.618  22.652  23.548  1.00  0.00     0.047 A 
ATOM     18  O   UNL A   1      34.345  24.646  22.843  1.00  0.00    -0.455 OA
ATOM     19  C   UNL A   1      32.693  23.172  22.617  1.00  0.00     0.056 A 
BRANCH  16  20
ATOM     20  C   UNL A   1      35.963  23.496  24.288  1.00  0.00     0.144 C 
BRANCH  20  21
ATOM     21  S   UNL A   1      36.035  22.361  25.691  1.00  0.00    -0.157 SA
ATOM     22  C   UNL A   1      36.818  20.952  24.865  1.00  0.00     0.085 C 
ENDBRANCH  20  21
ENDBRANCH  16  20
ENDBRANCH  12  15
ENDBRANCH   7  11
ENDBRANCH   3   6
ENDBRANCH   1   2
BRANCH   1  23
ATOM     23  C   UNL A   1      31.869  29.733  27.087  1.00  0.00     0.023 C 
BRANCH  23  24
ATOM     24  C   UNL A   1      31.787  31.207  26.699  1.00  0.00     0.023 C 
BRANCH  24  25
ATOM     25  C   UNL A   1      32.968  32.074  27.133  1.00  0.00     0.116 C 
BRANCH  25  26
ATOM     26  N   UNL A   1      32.601  33.409  27.574  1.00  0.00    -0.352 N 
ATOM     27  C   UNL A   1      33.236  34.246  28.464  1.00  0.00     0.251 C 
ATOM     28  H   UNL A   1      31.776  33.769  27.177  1.00  0.00     0.163 HD
ATOM     29  O   UNL A   1      32.716  35.321  28.752  1.00  0.00    -0.269 OA
BRANCH  27  30
ATOM     30  C   UNL A   1      34.523  33.873  29.109  1.00  0.00     0.039 A 
ATOM     31  C   UNL A   1      34.477  33.155  30.310  1.00  0.00     0.014 A 
ATOM     32  C   UNL A   1      35.765  34.232  28.578  1.00  0.00     0.014 A 
ATOM     33  C   UNL A   1      35.659  32.718  30.912  1.00  0.00     0.010 A 
ATOM     34  C   UNL A   1      36.942  33.746  29.139  1.00  0.00     0.010 A 
ATOM     35  C   UNL A   1      36.897  32.963  30.296  1.00  0.00    -0.014 A 
BRANCH  35  36
ATOM     36  C   UNL A   1      38.132  32.302  30.774  1.00  0.00     0.031 A 
ATOM     37  C   UNL A   1      38.972  32.904  31.861  1.00  0.00     0.074 A 
ATOM     38  C   UNL A   1      38.540  31.192  30.131  1.00  0.00     0.049 A 
ATOM     39  N   UNL A   1      40.068  32.438  32.402  1.00  0.00    -0.248 NA
ATOM     40  C   UNL A   1      38.542  34.206  32.393  1.00  0.00     0.031 C 
ATOM     41  C   UNL A   1      37.850  30.573  28.995  1.00  0.00     0.029 A 
ATOM     42  N   UNL A   1      39.633  30.391  30.332  1.00  0.00    -0.354 N 
ATOM     43  C   UNL A   1      40.460  33.386  33.339  1.00  0.00     0.074 A 
ATOM     44  C   UNL A   1      39.513  34.478  33.254  1.00  0.00     0.031 C 
ATOM     45  C   UNL A   1      38.519  29.471  28.621  1.00  0.00     0.029 A 
ATOM     46  C   UNL A   1      39.693  29.321  29.471  1.00  0.00     0.049 A 
ATOM     47  H   UNL A   1      40.310  30.564  31.026  1.00  0.00     0.167 HD
ATOM     48  C   UNL A   1      41.505  33.339  34.199  1.00  0.00     0.031 A 
ATOM     49  C   UNL A   1      40.590  28.324  29.382  1.00  0.00     0.031 A 
ATOM     50  C   UNL A   1      42.454  32.255  34.257  1.00  0.00     0.049 A 
ATOM     51  C   UNL A   1      41.725  28.282  30.364  1.00  0.00     0.074 A 
ATOM     52  C   UNL A   1      43.510  32.077  35.132  1.00  0.00     0.029 A 
ATOM     53  N   UNL A   1      42.464  31.172  33.392  1.00  0.00    -0.354 N 
ATOM     54  N   UNL A   1      42.018  29.128  31.322  1.00  0.00    -0.248 NA
ATOM     55  C   UNL A   1      42.636  27.135  30.267  1.00  0.00     0.031 C 
ATOM     56  C   UNL A   1      44.192  30.911  34.765  1.00  0.00     0.029 A 
ATOM     57  C   UNL A   1      43.522  30.331  33.698  1.00  0.00     0.049 A 
ATOM     58  H   UNL A   1      41.816  31.021  32.667  1.00  0.00     0.167 HD
ATOM     59  C   UNL A   1      43.129  28.600  31.964  1.00  0.00     0.074 A 
ATOM     60  C   UNL A   1      43.443  27.352  31.296  1.00  0.00     0.031 C 
ATOM     61  C   UNL A   1      43.825  29.099  33.015  1.00  0.00     0.031 A 
BRANCH  48  62
ATOM     62  C   UNL A   1      41.676  34.494  35.149  1.00  0.00    -0.014 A 
ATOM     63  C   UNL A   1      42.450  35.613  34.797  1.00  0.00     0.009 A 
ATOM     64  C   UNL A   1      41.024  34.488  36.391  1.00  0.00     0.009 A 
ATOM     65  C   UNL A   1      42.596  36.683  35.684  1.00  0.00     0.001 A 
ATOM     66  C   UNL A   1      41.148  35.572  37.265  1.00  0.00     0.001 A 
ATOM     67  C   UNL A   1      41.941  36.664  36.915  1.00  0.00     0.000 A 
ENDBRANCH  48  62
BRANCH  49  68
ATOM     68  C   UNL A   1      40.414  27.258  28.363  1.00  0.00    -0.014 A 
ATOM     69  C   UNL A   1      39.682  26.100  28.665  1.00  0.00     0.009 A 
ATOM     70  C   UNL A   1      40.957  27.402  27.077  1.00  0.00     0.009 A 
ATOM     71  C   UNL A   1      39.522  25.094  27.710  1.00  0.00     0.001 A 
ATOM     72  C   UNL A   1      40.770  26.407  26.114  1.00  0.00     0.001 A 
ATOM     73  C   UNL A   1      40.062  25.250  26.435  1.00  0.00     0.000 A 
ENDBRANCH  49  68
BRANCH  61  74
ATOM     74  C   UNL A   1      44.973  28.272  33.519  1.00  0.00    -0.014 A 
ATOM     75  C   UNL A   1      46.277  28.455  33.033  1.00  0.00     0.009 A 
ATOM     76  C   UNL A   1      44.745  27.301  34.506  1.00  0.00     0.009 A 
ATOM     77  C   UNL A   1      47.321  27.649  33.492  1.00  0.00     0.001 A 
ATOM     78  C   UNL A   1      45.795  26.520  34.987  1.00  0.00     0.001 A 
ATOM     79  C   UNL A   1      47.079  26.685  34.470  1.00  0.00     0.000 A 
ENDBRANCH  61  74
ENDBRANCH  35  36
ENDBRANCH  27  30
ENDBRANCH  25  26
ENDBRANCH  24  25
ENDBRANCH  23  24
ENDBRANCH   1  23
TORSDOF 15
ENDMDL
MODEL 3
REMARK VINA RESULT:     -10.7      2.419      3.690
REMARK SMILES CSCc1ccc(C(=O)N[C@H]2C=C[C@@H](C(=O)NCCCCNC(=O)c3ccc(-c4c5nc(c(-c6ccccc6)c6ccc([nH]6)c(-c6ccccc6)c6nc(c(-c7ccccc7)c7ccc4[nH]7)C=C6)C=C5)cc3)C2)o1
REMARK SMILES IDX 18 1 17 2 15 3 16 4 14 6 11 7 12 8 73 9 13 10 10 11 8 12
REMARK SMILES IDX 9 13 7 15 4 16 5 17 74 18 6 19 3 20 2 21 1 22 19 23 20 24
REMARK SMILES IDX 21 25 22 26 23 27 24 29 25 30 26 31 72 32 27 33 71 34 28 35
REMARK SMILES IDX 29 36 30 37 65 38 31 39 70 40 64 41 66 42 32 43 69 44 63 45
REMARK SMILES IDX 62 46 33 48 55 49 40 50 54 51 41 52 44 53 53 54 67 55 42 56
REMARK SMILES IDX 43 57 52 59 68 60 45 61 34 62 35 63 39 64 36 65 38 66 37 67
REMARK SMILES IDX 56 68 57 69 61 70 58 71 60 72 59 73 46 74 47 75 51 76 48 77
REMARK SMILES IDX 50 78 49 79
REMARK H PARENT 17 5 10 14 22 28 66 47 44 58
REMARK Flexibility Score: inf
ROOT
ATOM      1  C   UNL A   1      32.115  27.372  26.559  1.00  0.00     0.116 C 
ENDROOT
BRANCH   1   2
ATOM      2  N   UNL A   1      31.360  26.192  26.902  1.00  0.00    -0.356 N 
ATOM      3  C   UNL A   1      31.522  24.911  26.472  1.00  0.00     0.227 C 
ATOM      4  O   UNL A   1      31.107  24.027  27.232  1.00  0.00    -0.274 OA
ATOM      5  H   UNL A   1      30.620  26.334  27.536  1.00  0.00     0.163 HD
BRANCH   3   6
ATOM      6  C   UNL A   1      32.164  24.503  25.128  1.00  0.00     0.103 C 
ATOM      7  C   UNL A   1      33.292  25.793  23.348  1.00  0.00     0.106 C 
ATOM      8  C   UNL A   1      34.267  25.097  24.211  1.00  0.00    -0.006 C 
ATOM      9  C   UNL A   1      31.918  25.287  23.834  1.00  0.00     0.047 C 
ATOM     10  C   UNL A   1      33.662  24.399  25.184  1.00  0.00    -0.016 C 
BRANCH   7  11
ATOM     11  N   UNL A   1      33.474  27.235  23.251  1.00  0.00    -0.343 N 
ATOM     12  C   UNL A   1      32.775  28.399  23.025  1.00  0.00     0.287 C 
ATOM     13  O   UNL A   1      33.518  29.369  22.828  1.00  0.00    -0.266 OA
ATOM     14  H   UNL A   1      34.423  27.451  23.396  1.00  0.00     0.164 HD
BRANCH  12  15
ATOM     15  C   UNL A   1      31.325  28.540  22.969  1.00  0.00     0.191 A 
ATOM     16  C   UNL A   1      29.474  29.466  22.125  1.00  0.00     0.114 A 
ATOM     17  C   UNL A   1      29.057  28.503  23.010  1.00  0.00     0.047 A 
ATOM     18  O   UNL A   1      30.837  29.487  22.078  1.00  0.00    -0.455 OA
ATOM     19  C   UNL A   1      30.230  27.966  23.585  1.00  0.00     0.056 A 
BRANCH  16  20
ATOM     20  C   UNL A   1      28.710  30.481  21.358  1.00  0.00     0.144 C 
BRANCH  20  21
ATOM     21  S   UNL A   1      28.611  32.100  22.151  1.00  0.00    -0.157 SA
ATOM     22  C   UNL A   1      27.655  31.631  23.616  1.00  0.00     0.085 C 
ENDBRANCH  20  21
ENDBRANCH  16  20
ENDBRANCH  12  15
ENDBRANCH   7  11
ENDBRANCH   3   6
ENDBRANCH   1   2
BRANCH   1  23
ATOM     23  C   UNL A   1      31.954  28.543  27.519  1.00  0.00     0.023 C 
BRANCH  23  24
ATOM     24  C   UNL A   1      31.699  29.889  26.847  1.00  0.00     0.023 C 
BRANCH  24  25
ATOM     25  C   UNL A   1      32.842  30.901  26.930  1.00  0.00     0.116 C 
BRANCH  25  26
ATOM     26  N   UNL A   1      32.419  32.262  27.210  1.00  0.00    -0.352 N 
ATOM     27  C   UNL A   1      33.054  33.249  27.931  1.00  0.00     0.251 C 
ATOM     28  H   UNL A   1      31.549  32.517  26.828  1.00  0.00     0.163 HD
ATOM     29  O   UNL A   1      32.485  34.324  28.106  1.00  0.00    -0.269 OA
BRANCH  27  30
ATOM     30  C   UNL A   1      34.400  33.041  28.527  1.00  0.00     0.039 A 
ATOM     31  C   UNL A   1      34.480  32.423  29.781  1.00  0.00     0.014 A 
ATOM     32  C   UNL A   1      35.576  33.460  27.900  1.00  0.00     0.014 A 
ATOM     33  C   UNL A   1      35.725  32.138  30.345  1.00  0.00     0.010 A 
ATOM     34  C   UNL A   1      36.819  33.124  28.427  1.00  0.00     0.010 A 
ATOM     35  C   UNL A   1      36.903  32.437  29.642  1.00  0.00    -0.014 A 
BRANCH  35  36
ATOM     36  C   UNL A   1      38.215  31.926  30.097  1.00  0.00     0.031 A 
ATOM     37  C   UNL A   1      38.786  30.646  29.561  1.00  0.00     0.074 A 
ATOM     38  C   UNL A   1      38.841  32.590  31.086  1.00  0.00     0.049 A 
ATOM     39  N   UNL A   1      39.929  30.077  29.844  1.00  0.00    -0.248 NA
ATOM     40  C   UNL A   1      37.958  29.895  28.604  1.00  0.00     0.031 C 
ATOM     41  C   UNL A   1      38.329  33.795  31.749  1.00  0.00     0.029 A 
ATOM     42  N   UNL A   1      40.034  32.348  31.715  1.00  0.00    -0.354 N 
ATOM     43  C   UNL A   1      39.962  28.904  29.102  1.00  0.00     0.074 A 
ATOM     44  C   UNL A   1      38.701  28.817  28.397  1.00  0.00     0.031 C 
ATOM     45  C   UNL A   1      39.218  34.204  32.667  1.00  0.00     0.029 A 
ATOM     46  C   UNL A   1      40.345  33.280  32.675  1.00  0.00     0.049 A 
ATOM     47  H   UNL A   1      40.613  31.581  31.499  1.00  0.00     0.167 HD
ATOM     48  C   UNL A   1      40.961  27.994  29.007  1.00  0.00     0.031 A 
ATOM     49  C   UNL A   1      41.425  33.384  33.470  1.00  0.00     0.031 A 
ATOM     50  C   UNL A   1      42.203  28.082  29.732  1.00  0.00     0.049 A 
ATOM     51  C   UNL A   1      42.528  32.377  33.327  1.00  0.00     0.074 A 
ATOM     52  C   UNL A   1      43.306  27.250  29.662  1.00  0.00     0.029 A 
ATOM     53  N   UNL A   1      42.498  29.058  30.672  1.00  0.00    -0.354 N 
ATOM     54  N   UNL A   1      42.595  31.333  32.535  1.00  0.00    -0.248 NA
ATOM     55  C   UNL A   1      43.714  32.577  34.169  1.00  0.00     0.031 C 
ATOM     56  C   UNL A   1      44.249  27.692  30.596  1.00  0.00     0.029 A 
ATOM     57  C   UNL A   1      43.758  28.837  31.206  1.00  0.00     0.049 A 
ATOM     58  H   UNL A   1      41.902  29.799  30.924  1.00  0.00     0.167 HD
ATOM     59  C   UNL A   1      43.843  30.769  32.760  1.00  0.00     0.074 A 
ATOM     60  C   UNL A   1      44.504  31.599  33.748  1.00  0.00     0.031 C 
ATOM     61  C   UNL A   1      44.394  29.667  32.196  1.00  0.00     0.031 A 
BRANCH  48  62
ATOM     62  C   UNL A   1      40.749  26.823  28.085  1.00  0.00    -0.014 A 
ATOM     63  C   UNL A   1      41.116  26.891  26.730  1.00  0.00     0.009 A 
ATOM     64  C   UNL A   1      40.219  25.622  28.581  1.00  0.00     0.009 A 
ATOM     65  C   UNL A   1      40.921  25.795  25.886  1.00  0.00     0.001 A 
ATOM     66  C   UNL A   1      40.052  24.518  27.741  1.00  0.00     0.001 A 
ATOM     67  C   UNL A   1      40.395  24.608  26.393  1.00  0.00     0.000 A 
ENDBRANCH  48  62
BRANCH  49  68
ATOM     68  C   UNL A   1      41.535  34.516  34.425  1.00  0.00    -0.014 A 
ATOM     69  C   UNL A   1      41.091  34.374  35.749  1.00  0.00     0.009 A 
ATOM     70  C   UNL A   1      42.102  35.737  34.026  1.00  0.00     0.009 A 
ATOM     71  C   UNL A   1      41.186  35.440  36.646  1.00  0.00     0.001 A 
ATOM     72  C   UNL A   1      42.223  36.791  34.934  1.00  0.00     0.001 A 
ATOM     73  C   UNL A   1      41.756  36.645  36.240  1.00  0.00     0.000 A 
ENDBRANCH  49  68
BRANCH  61  74
ATOM     74  C   UNL A   1      45.794  29.321  32.618  1.00  0.00    -0.014 A 
ATOM     75  C   UNL A   1      46.042  28.465  33.703  1.00  0.00     0.009 A 
ATOM     76  C   UNL A   1      46.882  29.853  31.909  1.00  0.00     0.009 A 
ATOM     77  C   UNL A   1      47.352  28.188  34.098  1.00  0.00     0.001 A 
ATOM     78  C   UNL A   1      48.190  29.548  32.284  1.00  0.00     0.001 A 
ATOM     79  C   UNL A   1      48.424  28.726  33.386  1.00  0.00     0.000 A 
ENDBRANCH  61  74
ENDBRANCH  35  36
ENDBRANCH  27  30
ENDBRANCH  25  26
ENDBRANCH  24  25
ENDBRANCH  23  24
ENDBRANCH   1  23
TORSDOF 15
ENDMDL
