MODEL 1
REMARK VINA RESULT:     -10.8      0.000      0.000
REMARK SMILES O=C(NCCCCNC(=O)c1cc(Br)n(Cc2ccn(C3CCCC3)n2)c1)c1ccc(-c2c3nc(c(-c4ccccc4)c4ccc([nH]4)c(-c4ccccc4)c4nc(c(-c5ccccc5)c5ccc2[nH]5)C=C4)C=C3)cc1
REMARK SMILES IDX 6 1 5 2 4 3 3 4 1 5 2 6 28 8 29 9 75 10 30 11 74 12 31 13
REMARK SMILES IDX 32 14 33 15 68 16 34 17 73 18 67 19 69 20 35 21 72 22 66 23
REMARK SMILES IDX 65 24 36 26 58 27 43 28 57 29 44 30 47 31 56 32 70 33 45 34
REMARK SMILES IDX 46 35 55 37 71 38 48 39 37 40 38 41 42 42 39 43 41 44 40 45
REMARK SMILES IDX 59 46 60 47 64 48 61 49 63 50 62 51 49 52 50 53 54 54 51 55
REMARK SMILES IDX 53 56 52 57 7 58 8 59 9 60 10 62 11 63 12 64 27 65 13 66
REMARK SMILES IDX 15 67 14 68 16 69 17 70 18 71 26 72 19 73 20 74 21 75 22 76
REMARK SMILES IDX 25 77 23 78 24 79
REMARK H PARENT 3 7 69 25 47 36 8 61
REMARK Flexibility Score: inf
ROOT
ATOM      1  C   UNL A   1      31.371  29.466  25.675  1.00  0.00     0.023 C 
ENDROOT
BRANCH   1   2
ATOM      2  C   UNL A   1      31.961  28.665  26.844  1.00  0.00     0.023 C 
BRANCH   2   3
ATOM      3  C   UNL A   1      33.373  29.077  27.262  1.00  0.00     0.116 C 
BRANCH   3   4
ATOM      4  N   UNL A   1      33.500  30.481  27.587  1.00  0.00    -0.352 N 
ATOM      5  O   UNL A   1      34.250  32.496  28.081  1.00  0.00    -0.269 OA
ATOM      6  C   UNL A   1      34.531  31.301  27.954  1.00  0.00     0.251 C 
ATOM      7  H   UNL A   1      32.641  30.960  27.531  1.00  0.00     0.163 HD
BRANCH   6   8
ATOM      8  C   UNL A   1      35.930  30.866  28.238  1.00  0.00     0.039 A 
ATOM      9  C   UNL A   1      36.928  31.644  28.823  1.00  0.00     0.014 A 
ATOM     10  C   UNL A   1      36.248  29.541  27.880  1.00  0.00     0.014 A 
ATOM     11  C   UNL A   1      38.216  31.134  29.002  1.00  0.00     0.010 A 
ATOM     12  C   UNL A   1      37.528  29.021  28.069  1.00  0.00     0.010 A 
ATOM     13  C   UNL A   1      38.523  29.828  28.612  1.00  0.00    -0.014 A 
BRANCH  13  14
ATOM     14  C   UNL A   1      39.875  29.333  28.875  1.00  0.00     0.031 A 
ATOM     15  C   UNL A   1      40.223  29.045  30.299  1.00  0.00     0.074 A 
ATOM     16  C   UNL A   1      40.758  28.992  27.915  1.00  0.00     0.049 A 
ATOM     17  N   UNL A   1      41.201  29.520  31.004  1.00  0.00    -0.248 NA
ATOM     18  C   UNL A   1      39.354  28.112  31.032  1.00  0.00     0.031 C 
ATOM     19  C   UNL A   1      40.530  28.868  26.475  1.00  0.00     0.029 A 
ATOM     20  N   UNL A   1      42.050  28.576  28.068  1.00  0.00    -0.354 N 
ATOM     21  C   UNL A   1      41.156  28.862  32.233  1.00  0.00     0.074 A 
ATOM     22  C   UNL A   1      39.960  28.053  32.219  1.00  0.00     0.031 C 
ATOM     23  C   UNL A   1      41.570  28.205  25.920  1.00  0.00     0.029 A 
ATOM     24  C   UNL A   1      42.588  27.990  26.935  1.00  0.00     0.049 A 
ATOM     25  H   UNL A   1      42.552  28.683  28.907  1.00  0.00     0.167 HD
ATOM     26  C   UNL A   1      42.164  28.912  33.146  1.00  0.00     0.031 A 
ATOM     27  C   UNL A   1      43.764  27.326  26.847  1.00  0.00     0.031 A 
ATOM     28  C   UNL A   1      43.080  29.990  32.907  1.00  0.00     0.049 A 
ATOM     29  C   UNL A   1      44.605  27.702  28.003  1.00  0.00     0.074 A 
ATOM     30  C   UNL A   1      42.987  31.367  32.890  1.00  0.00     0.029 A 
ATOM     31  N   UNL A   1      44.290  29.695  32.332  1.00  0.00    -0.354 N 
ATOM     32  N   UNL A   1      45.139  28.878  28.160  1.00  0.00    -0.248 NA
ATOM     33  C   UNL A   1      44.585  26.863  29.189  1.00  0.00     0.031 C 
ATOM     34  C   UNL A   1      43.900  31.786  31.879  1.00  0.00     0.029 A 
ATOM     35  C   UNL A   1      44.501  30.638  31.360  1.00  0.00     0.049 A 
ATOM     36  H   UNL A   1      44.889  28.951  32.570  1.00  0.00     0.167 HD
ATOM     37  C   UNL A   1      45.140  29.087  29.530  1.00  0.00     0.074 A 
ATOM     38  C   UNL A   1      44.918  27.768  30.112  1.00  0.00     0.031 C 
ATOM     39  C   UNL A   1      45.045  30.346  30.052  1.00  0.00     0.031 A 
BRANCH  26  40
ATOM     40  C   UNL A   1      42.477  27.808  34.121  1.00  0.00    -0.014 A 
ATOM     41  C   UNL A   1      43.216  26.690  33.692  1.00  0.00     0.009 A 
ATOM     42  C   UNL A   1      41.854  27.712  35.380  1.00  0.00     0.009 A 
ATOM     43  C   UNL A   1      43.300  25.527  34.470  1.00  0.00     0.001 A 
ATOM     44  C   UNL A   1      41.969  26.568  36.176  1.00  0.00     0.001 A 
ATOM     45  C   UNL A   1      42.676  25.467  35.713  1.00  0.00     0.000 A 
ENDBRANCH  26  40
BRANCH  27  46
ATOM     46  C   UNL A   1      44.122  26.211  25.950  1.00  0.00    -0.014 A 
ATOM     47  C   UNL A   1      45.461  25.935  25.639  1.00  0.00     0.009 A 
ATOM     48  C   UNL A   1      43.152  25.252  25.603  1.00  0.00     0.009 A 
ATOM     49  C   UNL A   1      45.819  24.726  25.027  1.00  0.00     0.001 A 
ATOM     50  C   UNL A   1      43.509  24.048  24.990  1.00  0.00     0.001 A 
ATOM     51  C   UNL A   1      44.845  23.780  24.713  1.00  0.00     0.000 A 
ENDBRANCH  27  46
BRANCH  39  52
ATOM     52  C   UNL A   1      45.194  31.513  29.105  1.00  0.00    -0.014 A 
ATOM     53  C   UNL A   1      46.432  32.140  28.870  1.00  0.00     0.009 A 
ATOM     54  C   UNL A   1      44.097  31.900  28.321  1.00  0.00     0.009 A 
ATOM     55  C   UNL A   1      46.557  33.152  27.913  1.00  0.00     0.001 A 
ATOM     56  C   UNL A   1      44.227  32.895  27.348  1.00  0.00     0.001 A 
ATOM     57  C   UNL A   1      45.455  33.525  27.150  1.00  0.00     0.000 A 
ENDBRANCH  39  52
ENDBRANCH  13  14
ENDBRANCH   6   8
ENDBRANCH   3   4
ENDBRANCH   2   3
ENDBRANCH   1   2
BRANCH   1  58
ATOM     58  C   UNL A   1      31.376  28.761  24.318  1.00  0.00     0.116 C 
BRANCH  58  59
ATOM     59  N   UNL A   1      32.566  29.081  23.551  1.00  0.00    -0.352 N 
ATOM     60  C   UNL A   1      33.667  28.303  23.303  1.00  0.00     0.252 C 
ATOM     61  H   UNL A   1      32.586  29.982  23.154  1.00  0.00     0.163 HD
ATOM     62  O   UNL A   1      34.679  28.832  22.848  1.00  0.00    -0.269 OA
BRANCH  60  63
ATOM     63  C   UNL A   1      33.593  26.875  23.568  1.00  0.00     0.058 A 
ATOM     64  C   UNL A   1      33.213  25.825  22.683  1.00  0.00     0.049 A 
ATOM     65  C   UNL A   1      33.993  26.262  24.744  1.00  0.00     0.101 A 
ATOM     66  C   UNL A   1      33.415  24.631  23.337  1.00  0.00     0.086 A 
ATOM     67  N   UNL A   1      33.828  24.900  24.617  1.00  0.00    -0.335 N 
ATOM     68  Br  UNL A   1      33.198  22.970  22.510  1.00  0.00    -0.031 Br
BRANCH  67  69
ATOM     69  C   UNL A   1      34.198  23.932  25.647  1.00  0.00     0.180 C 
BRANCH  69  70
ATOM     70  C   UNL A   1      35.633  23.517  25.553  1.00  0.00     0.082 A 
ATOM     71  C   UNL A   1      36.202  22.528  24.714  1.00  0.00     0.047 A 
ATOM     72  N   UNL A   1      36.585  24.158  26.253  1.00  0.00    -0.176 NA
ATOM     73  C   UNL A   1      37.554  22.582  24.947  1.00  0.00     0.109 A 
ATOM     74  N   UNL A   1      37.738  23.573  25.866  1.00  0.00    -0.269 N 
BRANCH  74  75
ATOM     75  C   UNL A   1      39.017  24.028  26.366  1.00  0.00     0.107 C 
ATOM     76  C   UNL A   1      38.940  25.225  27.310  1.00  0.00     0.027 C 
ATOM     77  C   UNL A   1      39.793  22.996  27.180  1.00  0.00     0.027 C 
ATOM     78  C   UNL A   1      40.333  25.269  27.926  1.00  0.00     0.002 C 
ATOM     79  C   UNL A   1      40.813  23.817  27.970  1.00  0.00     0.002 C 
ENDBRANCH  74  75
ENDBRANCH  69  70
ENDBRANCH  67  69
ENDBRANCH  60  63
ENDBRANCH  58  59
ENDBRANCH   1  58
TORSDOF 14
ENDMDL
MODEL 2
REMARK VINA RESULT:     -10.6      2.121      2.887
REMARK SMILES O=C(NCCCCNC(=O)c1cc(Br)n(Cc2ccn(C3CCCC3)n2)c1)c1ccc(-c2c3nc(c(-c4ccccc4)c4ccc([nH]4)c(-c4ccccc4)c4nc(c(-c5ccccc5)c5ccc2[nH]5)C=C4)C=C3)cc1
REMARK SMILES IDX 6 1 5 2 4 3 3 4 1 5 2 6 28 8 29 9 75 10 30 11 74 12 31 13
REMARK SMILES IDX 32 14 33 15 68 16 34 17 73 18 67 19 69 20 35 21 72 22 66 23
REMARK SMILES IDX 65 24 36 26 58 27 43 28 57 29 44 30 47 31 56 32 70 33 45 34
REMARK SMILES IDX 46 35 55 37 71 38 48 39 37 40 38 41 42 42 39 43 41 44 40 45
REMARK SMILES IDX 59 46 60 47 64 48 61 49 63 50 62 51 49 52 50 53 54 54 51 55
REMARK SMILES IDX 53 56 52 57 7 58 8 59 9 60 10 62 11 63 12 64 27 65 13 66
REMARK SMILES IDX 15 67 14 68 16 69 17 70 18 71 26 72 19 73 20 74 21 75 22 76
REMARK SMILES IDX 25 77 23 78 24 79
REMARK H PARENT 3 7 69 25 47 36 8 61
REMARK Flexibility Score: inf
ROOT
ATOM      1  C   UNL A   1      32.122  28.912  26.311  1.00  0.00     0.023 C 
ENDROOT
BRANCH   1   2
ATOM      2  C   UNL A   1      32.550  30.268  26.889  1.00  0.00     0.023 C 
BRANCH   2   3
ATOM      3  C   UNL A   1      34.062  30.488  26.969  1.00  0.00     0.116 C 
BRANCH   3   4
ATOM      4  N   UNL A   1      34.442  31.649  27.745  1.00  0.00    -0.352 N 
ATOM      5  O   UNL A   1      35.526  33.148  28.947  1.00  0.00    -0.269 OA
ATOM      6  C   UNL A   1      35.543  32.009  28.472  1.00  0.00     0.251 C 
ATOM      7  H   UNL A   1      33.745  32.343  27.751  1.00  0.00     0.163 HD
BRANCH   6   8
ATOM      8  C   UNL A   1      36.722  31.139  28.756  1.00  0.00     0.039 A 
ATOM      9  C   UNL A   1      37.993  31.575  29.128  1.00  0.00     0.014 A 
ATOM     10  C   UNL A   1      36.506  29.752  28.638  1.00  0.00     0.014 A 
ATOM     11  C   UNL A   1      39.029  30.661  29.328  1.00  0.00     0.010 A 
ATOM     12  C   UNL A   1      37.533  28.833  28.851  1.00  0.00     0.010 A 
ATOM     13  C   UNL A   1      38.806  29.290  29.176  1.00  0.00    -0.014 A 
BRANCH  13  14
ATOM     14  C   UNL A   1      39.917  28.378  29.453  1.00  0.00     0.031 A 
ATOM     15  C   UNL A   1      40.401  28.314  30.865  1.00  0.00     0.074 A 
ATOM     16  C   UNL A   1      40.424  27.507  28.559  1.00  0.00     0.049 A 
ATOM     17  N   UNL A   1      41.599  28.516  31.319  1.00  0.00    -0.248 NA
ATOM     18  C   UNL A   1      39.412  27.995  31.906  1.00  0.00     0.031 C 
ATOM     19  C   UNL A   1      39.901  27.153  27.239  1.00  0.00     0.029 A 
ATOM     20  N   UNL A   1      41.488  26.664  28.713  1.00  0.00    -0.354 N 
ATOM     21  C   UNL A   1      41.554  28.232  32.684  1.00  0.00     0.074 A 
ATOM     22  C   UNL A   1      40.169  27.978  33.003  1.00  0.00     0.031 C 
ATOM     23  C   UNL A   1      40.513  26.025  26.810  1.00  0.00     0.029 A 
ATOM     24  C   UNL A   1      41.559  25.669  27.754  1.00  0.00     0.049 A 
ATOM     25  H   UNL A   1      42.143  26.756  29.441  1.00  0.00     0.167 HD
ATOM     26  C   UNL A   1      42.666  28.091  33.456  1.00  0.00     0.031 A 
ATOM     27  C   UNL A   1      42.383  24.595  27.759  1.00  0.00     0.031 A 
ATOM     28  C   UNL A   1      43.844  28.635  32.842  1.00  0.00     0.049 A 
ATOM     29  C   UNL A   1      43.504  24.866  28.683  1.00  0.00     0.074 A 
ATOM     30  C   UNL A   1      44.245  29.893  32.441  1.00  0.00     0.029 A 
ATOM     31  N   UNL A   1      44.738  27.764  32.274  1.00  0.00    -0.354 N 
ATOM     32  N   UNL A   1      44.441  25.739  28.452  1.00  0.00    -0.248 NA
ATOM     33  C   UNL A   1      43.411  24.402  30.057  1.00  0.00     0.031 C 
ATOM     34  C   UNL A   1      45.040  29.674  31.278  1.00  0.00     0.029 A 
ATOM     35  C   UNL A   1      45.084  28.296  31.059  1.00  0.00     0.049 A 
ATOM     36  H   UNL A   1      45.067  26.921  32.663  1.00  0.00     0.167 HD
ATOM     37  C   UNL A   1      44.774  26.241  29.700  1.00  0.00     0.074 A 
ATOM     38  C   UNL A   1      44.211  25.289  30.652  1.00  0.00     0.031 C 
ATOM     39  C   UNL A   1      45.232  27.520  29.847  1.00  0.00     0.031 A 
BRANCH  26  40
ATOM     40  C   UNL A   1      42.743  27.210  34.674  1.00  0.00    -0.014 A 
ATOM     41  C   UNL A   1      42.931  25.824  34.521  1.00  0.00     0.009 A 
ATOM     42  C   UNL A   1      42.386  27.664  35.959  1.00  0.00     0.009 A 
ATOM     43  C   UNL A   1      42.740  24.938  35.590  1.00  0.00     0.001 A 
ATOM     44  C   UNL A   1      42.234  26.786  37.037  1.00  0.00     0.001 A 
ATOM     45  C   UNL A   1      42.391  25.420  36.848  1.00  0.00     0.000 A 
ENDBRANCH  26  40
BRANCH  27  46
ATOM     46  C   UNL A   1      42.145  23.255  27.190  1.00  0.00    -0.014 A 
ATOM     47  C   UNL A   1      42.944  22.760  26.149  1.00  0.00     0.009 A 
ATOM     48  C   UNL A   1      41.290  22.354  27.852  1.00  0.00     0.009 A 
ATOM     49  C   UNL A   1      42.907  21.403  25.802  1.00  0.00     0.001 A 
ATOM     50  C   UNL A   1      41.251  21.002  27.503  1.00  0.00     0.001 A 
ATOM     51  C   UNL A   1      42.070  20.524  26.487  1.00  0.00     0.000 A 
ENDBRANCH  27  46
BRANCH  39  52
ATOM     52  C   UNL A   1      45.606  28.281  28.597  1.00  0.00    -0.014 A 
ATOM     53  C   UNL A   1      44.692  29.103  27.914  1.00  0.00     0.009 A 
ATOM     54  C   UNL A   1      46.945  28.288  28.178  1.00  0.00     0.009 A 
ATOM     55  C   UNL A   1      45.095  29.874  26.819  1.00  0.00     0.001 A 
ATOM     56  C   UNL A   1      47.353  29.076  27.099  1.00  0.00     0.001 A 
ATOM     57  C   UNL A   1      46.427  29.862  26.414  1.00  0.00     0.000 A 
ENDBRANCH  39  52
ENDBRANCH  13  14
ENDBRANCH   6   8
ENDBRANCH   3   4
ENDBRANCH   2   3
ENDBRANCH   1   2
BRANCH   1  58
ATOM     58  C   UNL A   1      32.135  28.807  24.785  1.00  0.00     0.116 C 
BRANCH  58  59
ATOM     59  N   UNL A   1      30.794  28.835  24.232  1.00  0.00    -0.352 N 
ATOM     60  C   UNL A   1      30.025  27.793  23.781  1.00  0.00     0.252 C 
ATOM     61  H   UNL A   1      30.378  29.726  24.172  1.00  0.00     0.163 HD
ATOM     62  O   UNL A   1      29.020  28.040  23.119  1.00  0.00    -0.269 OA
BRANCH  60  63
ATOM     63  C   UNL A   1      30.415  26.434  24.119  1.00  0.00     0.058 A 
ATOM     64  C   UNL A   1      30.344  25.777  25.382  1.00  0.00     0.049 A 
ATOM     65  C   UNL A   1      30.843  25.479  23.211  1.00  0.00     0.101 A 
ATOM     66  C   UNL A   1      30.705  24.463  25.191  1.00  0.00     0.086 A 
ATOM     67  N   UNL A   1      31.074  24.297  23.880  1.00  0.00    -0.335 N 
ATOM     68  Br  UNL A   1      30.613  23.177  26.544  1.00  0.00    -0.031 Br
BRANCH  67  69
ATOM     69  C   UNL A   1      31.486  23.057  23.229  1.00  0.00     0.180 C 
BRANCH  69  70
ATOM     70  C   UNL A   1      32.717  22.468  23.844  1.00  0.00     0.082 A 
ATOM     71  C   UNL A   1      32.920  21.140  24.291  1.00  0.00     0.047 A 
ATOM     72  N   UNL A   1      33.847  23.189  23.955  1.00  0.00    -0.176 NA
ATOM     73  C   UNL A   1      34.229  21.085  24.698  1.00  0.00     0.109 A 
ATOM     74  N   UNL A   1      34.747  22.327  24.473  1.00  0.00    -0.269 N 
BRANCH  74  75
ATOM     75  C   UNL A   1      36.121  22.718  24.695  1.00  0.00     0.107 C 
ATOM     76  C   UNL A   1      36.316  23.760  25.793  1.00  0.00     0.027 C 
ATOM     77  C   UNL A   1      37.050  21.585  25.126  1.00  0.00     0.027 C 
ATOM     78  C   UNL A   1      37.819  23.728  26.037  1.00  0.00     0.002 C 
ATOM     79  C   UNL A   1      38.257  22.292  25.744  1.00  0.00     0.002 C 
ENDBRANCH  74  75
ENDBRANCH  69  70
ENDBRANCH  67  69
ENDBRANCH  60  63
ENDBRANCH  58  59
ENDBRANCH   1  58
TORSDOF 14
ENDMDL
MODEL 3
REMARK VINA RESULT:     -10.6      2.455      8.386
REMARK SMILES O=C(NCCCCNC(=O)c1cc(Br)n(Cc2ccn(C3CCCC3)n2)c1)c1ccc(-c2c3nc(c(-c4ccccc4)c4ccc([nH]4)c(-c4ccccc4)c4nc(c(-c5ccccc5)c5ccc2[nH]5)C=C4)C=C3)cc1
REMARK SMILES IDX 6 1 5 2 4 3 3 4 1 5 2 6 28 8 29 9 75 10 30 11 74 12 31 13
REMARK SMILES IDX 32 14 33 15 68 16 34 17 73 18 67 19 69 20 35 21 72 22 66 23
REMARK SMILES IDX 65 24 36 26 58 27 43 28 57 29 44 30 47 31 56 32 70 33 45 34
REMARK SMILES IDX 46 35 55 37 71 38 48 39 37 40 38 41 42 42 39 43 41 44 40 45
REMARK SMILES IDX 59 46 60 47 64 48 61 49 63 50 62 51 49 52 50 53 54 54 51 55
REMARK SMILES IDX 53 56 52 57 7 58 8 59 9 60 10 62 11 63 12 64 27 65 13 66
REMARK SMILES IDX 15 67 14 68 16 69 17 70 18 71 26 72 19 73 20 74 21 75 22 76
REMARK SMILES IDX 25 77 23 78 24 79
REMARK H PARENT 3 7 69 25 47 36 8 61
REMARK Flexibility Score: inf
ROOT
ATOM      1  C   UNL A   1      37.987  23.333  26.035  1.00  0.00     0.023 C 
ENDROOT
BRANCH   1   2
ATOM      2  C   UNL A   1      38.583  21.944  25.767  1.00  0.00     0.023 C 
BRANCH   2   3
ATOM      3  C   UNL A   1      39.865  21.631  26.540  1.00  0.00     0.116 C 
BRANCH   3   4
ATOM      4  N   UNL A   1      41.077  21.901  25.795  1.00  0.00    -0.352 N 
ATOM      5  O   UNL A   1      42.952  22.760  25.014  1.00  0.00    -0.269 OA
ATOM      6  C   UNL A   1      41.974  22.931  25.747  1.00  0.00     0.251 C 
ATOM      7  H   UNL A   1      41.309  21.170  25.178  1.00  0.00     0.163 HD
BRANCH   6   8
ATOM      8  C   UNL A   1      41.848  24.231  26.470  1.00  0.00     0.039 A 
ATOM      9  C   UNL A   1      42.414  24.541  27.705  1.00  0.00     0.014 A 
ATOM     10  C   UNL A   1      41.086  25.224  25.822  1.00  0.00     0.014 A 
ATOM     11  C   UNL A   1      42.190  25.784  28.300  1.00  0.00     0.010 A 
ATOM     12  C   UNL A   1      40.870  26.473  26.404  1.00  0.00     0.010 A 
ATOM     13  C   UNL A   1      41.405  26.747  27.659  1.00  0.00    -0.014 A 
BRANCH  13  14
ATOM     14  C   UNL A   1      41.251  28.050  28.307  1.00  0.00     0.031 A 
ATOM     15  C   UNL A   1      42.319  29.062  28.050  1.00  0.00     0.074 A 
ATOM     16  C   UNL A   1      40.155  28.431  28.992  1.00  0.00     0.049 A 
ATOM     17  N   UNL A   1      43.053  29.699  28.908  1.00  0.00    -0.248 NA
ATOM     18  C   UNL A   1      42.612  29.396  26.648  1.00  0.00     0.031 C 
ATOM     19  C   UNL A   1      38.864  27.751  29.090  1.00  0.00     0.029 A 
ATOM     20  N   UNL A   1      39.948  29.599  29.670  1.00  0.00    -0.354 N 
ATOM     21  C   UNL A   1      43.818  30.605  28.174  1.00  0.00     0.074 A 
ATOM     22  C   UNL A   1      43.553  30.331  26.782  1.00  0.00     0.031 C 
ATOM     23  C   UNL A   1      37.950  28.609  29.598  1.00  0.00     0.029 A 
ATOM     24  C   UNL A   1      38.622  29.838  29.986  1.00  0.00     0.049 A 
ATOM     25  H   UNL A   1      40.677  30.215  29.912  1.00  0.00     0.167 HD
ATOM     26  C   UNL A   1      44.529  31.617  28.743  1.00  0.00     0.031 A 
ATOM     27  C   UNL A   1      38.101  30.984  30.483  1.00  0.00     0.031 A 
ATOM     28  C   UNL A   1      44.732  31.433  30.151  1.00  0.00     0.049 A 
ATOM     29  C   UNL A   1      39.196  31.785  31.069  1.00  0.00     0.074 A 
ATOM     30  C   UNL A   1      45.382  30.499  30.931  1.00  0.00     0.029 A 
ATOM     31  N   UNL A   1      43.957  32.162  31.017  1.00  0.00    -0.354 N 
ATOM     32  N   UNL A   1      39.834  31.458  32.155  1.00  0.00    -0.248 NA
ATOM     33  C   UNL A   1      39.836  32.803  30.253  1.00  0.00     0.031 C 
ATOM     34  C   UNL A   1      44.598  30.400  32.118  1.00  0.00     0.029 A 
ATOM     35  C   UNL A   1      43.534  31.293  31.989  1.00  0.00     0.049 A 
ATOM     36  H   UNL A   1      43.746  33.122  30.953  1.00  0.00     0.167 HD
ATOM     37  C   UNL A   1      41.129  31.909  31.955  1.00  0.00     0.074 A 
ATOM     38  C   UNL A   1      41.035  32.842  30.838  1.00  0.00     0.031 C 
ATOM     39  C   UNL A   1      42.193  31.276  32.532  1.00  0.00     0.031 A 
BRANCH  26  40
ATOM     40  C   UNL A   1      44.820  32.930  28.065  1.00  0.00    -0.014 A 
ATOM     41  C   UNL A   1      46.146  33.261  27.730  1.00  0.00     0.009 A 
ATOM     42  C   UNL A   1      43.866  33.961  27.972  1.00  0.00     0.009 A 
ATOM     43  C   UNL A   1      46.502  34.563  27.353  1.00  0.00     0.001 A 
ATOM     44  C   UNL A   1      44.210  35.251  27.556  1.00  0.00     0.001 A 
ATOM     45  C   UNL A   1      45.533  35.558  27.266  1.00  0.00     0.000 A 
ENDBRANCH  26  40
BRANCH  27  46
ATOM     46  C   UNL A   1      36.748  31.537  30.282  1.00  0.00    -0.014 A 
ATOM     47  C   UNL A   1      35.939  31.881  31.375  1.00  0.00     0.009 A 
ATOM     48  C   UNL A   1      36.352  31.972  29.004  1.00  0.00     0.009 A 
ATOM     49  C   UNL A   1      34.786  32.657  31.195  1.00  0.00     0.001 A 
ATOM     50  C   UNL A   1      35.201  32.743  28.825  1.00  0.00     0.001 A 
ATOM     51  C   UNL A   1      34.425  33.097  29.923  1.00  0.00     0.000 A 
ENDBRANCH  27  46
BRANCH  39  52
ATOM     52  C   UNL A   1      41.905  30.236  33.589  1.00  0.00    -0.014 A 
ATOM     53  C   UNL A   1      41.621  28.896  33.271  1.00  0.00     0.009 A 
ATOM     54  C   UNL A   1      42.064  30.576  34.941  1.00  0.00     0.009 A 
ATOM     55  C   UNL A   1      41.457  27.936  34.274  1.00  0.00     0.001 A 
ATOM     56  C   UNL A   1      41.925  29.612  35.943  1.00  0.00     0.001 A 
ATOM     57  C   UNL A   1      41.613  28.295  35.610  1.00  0.00     0.000 A 
ENDBRANCH  39  52
ENDBRANCH  13  14
ENDBRANCH   6   8
ENDBRANCH   3   4
ENDBRANCH   2   3
ENDBRANCH   1   2
BRANCH   1  58
ATOM     58  C   UNL A   1      36.766  23.706  25.192  1.00  0.00     0.116 C 
BRANCH  58  59
ATOM     59  N   UNL A   1      35.527  23.319  25.840  1.00  0.00    -0.352 N 
ATOM     60  C   UNL A   1      34.271  23.846  25.682  1.00  0.00     0.252 C 
ATOM     61  H   UNL A   1      35.598  22.577  26.483  1.00  0.00     0.163 HD
ATOM     62  O   UNL A   1      33.399  23.557  26.499  1.00  0.00    -0.269 OA
BRANCH  60  63
ATOM     63  C   UNL A   1      34.009  24.711  24.543  1.00  0.00     0.058 A 
ATOM     64  C   UNL A   1      33.516  24.358  23.254  1.00  0.00     0.049 A 
ATOM     65  C   UNL A   1      34.103  26.093  24.556  1.00  0.00     0.101 A 
ATOM     66  C   UNL A   1      33.311  25.523  22.551  1.00  0.00     0.086 A 
ATOM     67  N   UNL A   1      33.733  26.578  23.320  1.00  0.00    -0.335 N 
ATOM     68  Br  UNL A   1      32.523  25.562  20.857  1.00  0.00    -0.031 Br
BRANCH  67  69
ATOM     69  C   UNL A   1      33.661  27.998  22.988  1.00  0.00     0.180 C 
BRANCH  69  70
ATOM     70  C   UNL A   1      32.450  28.661  23.565  1.00  0.00     0.082 A 
ATOM     71  C   UNL A   1      32.275  29.171  24.875  1.00  0.00     0.047 A 
ATOM     72  N   UNL A   1      31.375  28.922  22.801  1.00  0.00    -0.176 NA
ATOM     73  C   UNL A   1      31.028  29.745  24.882  1.00  0.00     0.109 A 
ATOM     74  N   UNL A   1      30.530  29.581  23.623  1.00  0.00    -0.269 N 
BRANCH  74  75
ATOM     75  C   UNL A   1      29.261  30.086  23.149  1.00  0.00     0.107 C 
ATOM     76  C   UNL A   1      28.792  31.369  23.832  1.00  0.00     0.027 C 
ATOM     77  C   UNL A   1      29.228  30.453  21.667  1.00  0.00     0.027 C 
ATOM     78  C   UNL A   1      27.654  31.841  22.936  1.00  0.00     0.002 C 
ATOM     79  C   UNL A   1      28.014  31.373  21.525  1.00  0.00     0.002 C 
ENDBRANCH  74  75
ENDBRANCH  69  70
ENDBRANCH  67  69
ENDBRANCH  60  63
ENDBRANCH  58  59
ENDBRANCH   1  58
TORSDOF 14
ENDMDL
