MODEL 1
REMARK VINA RESULT:     -11.7      0.000      0.000
REMARK SMILES O=C(NCCCCNC(=O)[C@@H]1CCC(=O)N1C(=O)/C=C/c1ccccc1)c1ccc(-c2c3nc(c(-c4ccccc4)c4ccc([nH]4)c(-c4ccccc4)c4nc(c(-c5ccccc5)c5ccc2[nH]5)C=C4)C=C3)cc1
REMARK SMILES IDX 6 1 5 2 4 3 3 4 1 5 2 6 27 8 28 9 74 10 29 11 73 12 30 13
REMARK SMILES IDX 31 14 32 15 67 16 33 17 72 18 66 19 68 20 34 21 71 22 65 23
REMARK SMILES IDX 64 24 35 26 57 27 42 28 56 29 43 30 46 31 55 32 69 33 44 34
REMARK SMILES IDX 45 35 54 37 70 38 47 39 36 40 37 41 41 42 38 43 40 44 39 45
REMARK SMILES IDX 58 46 59 47 63 48 60 49 62 50 61 51 48 52 49 53 53 54 50 55
REMARK SMILES IDX 52 56 51 57 7 58 8 59 9 60 10 62 11 63 12 64 16 65 13 66
REMARK SMILES IDX 14 67 15 68 17 69 18 70 19 71 20 72 21 73 22 74 26 75 23 76
REMARK SMILES IDX 25 77 24 78
REMARK H PARENT 3 7 68 25 46 36 8 61
REMARK Flexibility Score: inf
ROOT
ATOM      1  C   UNL A   1      37.082  21.342  24.506  1.00  0.00     0.023 C 
ENDROOT
BRANCH   1   2
ATOM      2  C   UNL A   1      37.775  20.075  25.000  1.00  0.00     0.023 C 
BRANCH   2   3
ATOM      3  C   UNL A   1      39.060  20.327  25.775  1.00  0.00     0.116 C 
BRANCH   3   4
ATOM      4  N   UNL A   1      39.987  19.203  25.751  1.00  0.00    -0.352 N 
ATOM      5  O   UNL A   1      42.014  18.201  25.846  1.00  0.00    -0.269 OA
ATOM      6  C   UNL A   1      41.340  19.214  25.986  1.00  0.00     0.251 C 
ATOM      7  H   UNL A   1      39.594  18.325  25.543  1.00  0.00     0.163 HD
BRANCH   6   8
ATOM      8  C   UNL A   1      41.967  20.490  26.374  1.00  0.00     0.039 A 
ATOM      9  C   UNL A   1      42.068  20.833  27.725  1.00  0.00     0.014 A 
ATOM     10  C   UNL A   1      42.373  21.376  25.375  1.00  0.00     0.014 A 
ATOM     11  C   UNL A   1      42.444  22.121  28.075  1.00  0.00     0.010 A 
ATOM     12  C   UNL A   1      42.829  22.642  25.735  1.00  0.00     0.010 A 
ATOM     13  C   UNL A   1      42.836  23.033  27.084  1.00  0.00    -0.014 A 
BRANCH  13  14
ATOM     14  C   UNL A   1      43.302  24.384  27.469  1.00  0.00     0.031 A 
ATOM     15  C   UNL A   1      42.330  25.436  27.914  1.00  0.00     0.074 A 
ATOM     16  C   UNL A   1      44.617  24.657  27.388  1.00  0.00     0.049 A 
ATOM     17  N   UNL A   1      42.552  26.696  28.192  1.00  0.00    -0.248 NA
ATOM     18  C   UNL A   1      40.925  25.025  28.060  1.00  0.00     0.031 C 
ATOM     19  C   UNL A   1      45.653  23.705  26.983  1.00  0.00     0.029 A 
ATOM     20  N   UNL A   1      45.305  25.816  27.635  1.00  0.00    -0.354 N 
ATOM     21  C   UNL A   1      41.313  27.237  28.511  1.00  0.00     0.074 A 
ATOM     22  C   UNL A   1      40.341  26.172  28.382  1.00  0.00     0.031 C 
ATOM     23  C   UNL A   1      46.846  24.313  27.025  1.00  0.00     0.029 A 
ATOM     24  C   UNL A   1      46.649  25.711  27.387  1.00  0.00     0.049 A 
ATOM     25  H   UNL A   1      44.877  26.641  27.960  1.00  0.00     0.167 HD
ATOM     26  C   UNL A   1      41.016  28.509  28.872  1.00  0.00     0.031 A 
ATOM     27  C   UNL A   1      47.616  26.645  27.404  1.00  0.00     0.031 A 
ATOM     28  C   UNL A   1      41.993  29.560  28.991  1.00  0.00     0.049 A 
ATOM     29  C   UNL A   1      47.259  28.055  27.761  1.00  0.00     0.074 A 
ATOM     30  C   UNL A   1      41.802  30.875  29.378  1.00  0.00     0.029 A 
ATOM     31  N   UNL A   1      43.345  29.416  28.715  1.00  0.00    -0.354 N 
ATOM     32  N   UNL A   1      46.086  28.550  28.076  1.00  0.00    -0.248 NA
ATOM     33  C   UNL A   1      48.352  29.033  27.764  1.00  0.00     0.031 C 
ATOM     34  C   UNL A   1      43.029  31.540  29.285  1.00  0.00     0.029 A 
ATOM     35  C   UNL A   1      43.997  30.625  28.899  1.00  0.00     0.049 A 
ATOM     36  H   UNL A   1      43.778  28.578  28.432  1.00  0.00     0.167 HD
ATOM     37  C   UNL A   1      46.303  29.895  28.339  1.00  0.00     0.074 A 
ATOM     38  C   UNL A   1      47.721  30.133  28.154  1.00  0.00     0.031 C 
ATOM     39  C   UNL A   1      45.408  30.843  28.709  1.00  0.00     0.031 A 
BRANCH  26  40
ATOM     40  C   UNL A   1      39.570  28.840  29.114  1.00  0.00    -0.014 A 
ATOM     41  C   UNL A   1      38.738  29.309  28.084  1.00  0.00     0.009 A 
ATOM     42  C   UNL A   1      39.024  28.660  30.395  1.00  0.00     0.009 A 
ATOM     43  C   UNL A   1      37.403  29.630  28.343  1.00  0.00     0.001 A 
ATOM     44  C   UNL A   1      37.682  28.955  30.645  1.00  0.00     0.001 A 
ATOM     45  C   UNL A   1      36.875  29.451  29.621  1.00  0.00     0.000 A 
ENDBRANCH  26  40
BRANCH  27  46
ATOM     46  C   UNL A   1      49.003  26.255  27.046  1.00  0.00    -0.014 A 
ATOM     47  C   UNL A   1      49.449  26.347  25.721  1.00  0.00     0.009 A 
ATOM     48  C   UNL A   1      49.907  25.857  28.045  1.00  0.00     0.009 A 
ATOM     49  C   UNL A   1      50.774  26.040  25.402  1.00  0.00     0.001 A 
ATOM     50  C   UNL A   1      51.237  25.578  27.727  1.00  0.00     0.001 A 
ATOM     51  C   UNL A   1      51.668  25.665  26.405  1.00  0.00     0.000 A 
ENDBRANCH  27  46
BRANCH  39  52
ATOM     52  C   UNL A   1      45.943  32.219  28.980  1.00  0.00    -0.014 A 
ATOM     53  C   UNL A   1      45.984  33.198  27.976  1.00  0.00     0.009 A 
ATOM     54  C   UNL A   1      46.358  32.553  30.278  1.00  0.00     0.009 A 
ATOM     55  C   UNL A   1      46.454  34.480  28.264  1.00  0.00     0.001 A 
ATOM     56  C   UNL A   1      46.802  33.843  30.569  1.00  0.00     0.001 A 
ATOM     57  C   UNL A   1      46.856  34.804  29.561  1.00  0.00     0.000 A 
ENDBRANCH  39  52
ENDBRANCH  13  14
ENDBRANCH   6   8
ENDBRANCH   3   4
ENDBRANCH   2   3
ENDBRANCH   1   2
BRANCH   1  58
ATOM     58  C   UNL A   1      37.035  22.478  25.529  1.00  0.00     0.116 C 
BRANCH  58  59
ATOM     59  N   UNL A   1      35.926  22.285  26.440  1.00  0.00    -0.354 N 
ATOM     60  C   UNL A   1      34.741  22.941  26.570  1.00  0.00     0.243 C 
ATOM     61  H   UNL A   1      36.051  21.546  27.078  1.00  0.00     0.163 HD
ATOM     62  O   UNL A   1      34.104  22.694  27.603  1.00  0.00    -0.273 OA
BRANCH  60  63
ATOM     63  C   UNL A   1      34.071  23.785  25.458  1.00  0.00     0.183 C 
ATOM     64  C   UNL A   1      33.480  25.006  26.166  1.00  0.00     0.046 C 
ATOM     65  N   UNL A   1      32.970  23.223  24.690  1.00  0.00    -0.266 N 
ATOM     66  C   UNL A   1      32.271  25.364  25.342  1.00  0.00     0.103 C 
ATOM     67  C   UNL A   1      31.822  24.017  24.854  1.00  0.00     0.230 C 
ATOM     68  O   UNL A   1      30.653  23.721  24.692  1.00  0.00    -0.274 OA
BRANCH  65  69
ATOM     69  C   UNL A   1      33.263  22.347  23.649  1.00  0.00     0.253 C 
ATOM     70  O   UNL A   1      33.838  22.725  22.626  1.00  0.00    -0.269 OA
BRANCH  69  71
ATOM     71  C   UNL A   1      33.060  20.881  23.817  1.00  0.00     0.072 C 
ATOM     72  C   UNL A   1      33.717  20.036  24.620  1.00  0.00     0.014 C 
BRANCH  72  73
ATOM     73  C   UNL A   1      33.505  18.578  24.637  1.00  0.00    -0.025 A 
ATOM     74  C   UNL A   1      32.684  18.034  25.631  1.00  0.00     0.008 A 
ATOM     75  C   UNL A   1      34.184  17.704  23.774  1.00  0.00     0.008 A 
ATOM     76  C   UNL A   1      32.528  16.651  25.752  1.00  0.00     0.001 A 
ATOM     77  C   UNL A   1      34.028  16.319  23.894  1.00  0.00     0.001 A 
ATOM     78  C   UNL A   1      33.200  15.794  24.883  1.00  0.00     0.000 A 
ENDBRANCH  72  73
ENDBRANCH  69  71
ENDBRANCH  65  69
ENDBRANCH  60  63
ENDBRANCH  58  59
ENDBRANCH   1  58
TORSDOF 14
ENDMDL
MODEL 2
REMARK VINA RESULT:     -11.5      0.566      5.968
REMARK SMILES O=C(NCCCCNC(=O)[C@@H]1CCC(=O)N1C(=O)/C=C/c1ccccc1)c1ccc(-c2c3nc(c(-c4ccccc4)c4ccc([nH]4)c(-c4ccccc4)c4nc(c(-c5ccccc5)c5ccc2[nH]5)C=C4)C=C3)cc1
REMARK SMILES IDX 6 1 5 2 4 3 3 4 1 5 2 6 27 8 28 9 74 10 29 11 73 12 30 13
REMARK SMILES IDX 31 14 32 15 67 16 33 17 72 18 66 19 68 20 34 21 71 22 65 23
REMARK SMILES IDX 64 24 35 26 57 27 42 28 56 29 43 30 46 31 55 32 69 33 44 34
REMARK SMILES IDX 45 35 54 37 70 38 47 39 36 40 37 41 41 42 38 43 40 44 39 45
REMARK SMILES IDX 58 46 59 47 63 48 60 49 62 50 61 51 48 52 49 53 53 54 50 55
REMARK SMILES IDX 52 56 51 57 7 58 8 59 9 60 10 62 11 63 12 64 16 65 13 66
REMARK SMILES IDX 14 67 15 68 17 69 18 70 19 71 20 72 21 73 22 74 26 75 23 76
REMARK SMILES IDX 25 77 24 78
REMARK H PARENT 3 7 68 25 46 36 8 61
REMARK Flexibility Score: inf
ROOT
ATOM      1  C   UNL A   1      36.968  21.231  24.530  1.00  0.00     0.023 C 
ENDROOT
BRANCH   1   2
ATOM      2  C   UNL A   1      37.777  20.017  24.978  1.00  0.00     0.023 C 
BRANCH   2   3
ATOM      3  C   UNL A   1      39.027  20.359  25.775  1.00  0.00     0.116 C 
BRANCH   3   4
ATOM      4  N   UNL A   1      39.998  19.273  25.835  1.00  0.00    -0.352 N 
ATOM      5  O   UNL A   1      42.059  18.361  26.034  1.00  0.00    -0.269 OA
ATOM      6  C   UNL A   1      41.342  19.352  26.102  1.00  0.00     0.251 C 
ATOM      7  H   UNL A   1      39.645  18.370  25.665  1.00  0.00     0.163 HD
BRANCH   6   8
ATOM      8  C   UNL A   1      41.909  20.671  26.436  1.00  0.00     0.039 A 
ATOM      9  C   UNL A   1      41.950  21.092  27.767  1.00  0.00     0.014 A 
ATOM     10  C   UNL A   1      42.316  21.513  25.401  1.00  0.00     0.014 A 
ATOM     11  C   UNL A   1      42.267  22.412  28.055  1.00  0.00     0.010 A 
ATOM     12  C   UNL A   1      42.713  22.814  25.702  1.00  0.00     0.010 A 
ATOM     13  C   UNL A   1      42.659  23.281  27.026  1.00  0.00    -0.014 A 
BRANCH  13  14
ATOM     14  C   UNL A   1      43.062  24.668  27.347  1.00  0.00     0.031 A 
ATOM     15  C   UNL A   1      44.508  25.069  27.350  1.00  0.00     0.074 A 
ATOM     16  C   UNL A   1      42.104  25.559  27.662  1.00  0.00     0.049 A 
ATOM     17  N   UNL A   1      45.044  26.210  27.703  1.00  0.00    -0.248 NA
ATOM     18  C   UNL A   1      45.479  24.057  26.907  1.00  0.00     0.031 C 
ATOM     19  C   UNL A   1      40.666  25.283  27.676  1.00  0.00     0.029 A 
ATOM     20  N   UNL A   1      42.196  26.874  28.037  1.00  0.00    -0.354 N 
ATOM     21  C   UNL A   1      46.415  26.043  27.558  1.00  0.00     0.074 A 
ATOM     22  C   UNL A   1      46.630  24.688  27.097  1.00  0.00     0.031 C 
ATOM     23  C   UNL A   1      40.009  26.397  28.025  1.00  0.00     0.029 A 
ATOM     24  C   UNL A   1      40.981  27.440  28.329  1.00  0.00     0.049 A 
ATOM     25  H   UNL A   1      43.049  27.363  28.091  1.00  0.00     0.167 HD
ATOM     26  C   UNL A   1      47.403  26.940  27.797  1.00  0.00     0.031 A 
ATOM     27  C   UNL A   1      40.680  28.651  28.829  1.00  0.00     0.031 A 
ATOM     28  C   UNL A   1      47.175  28.284  28.261  1.00  0.00     0.049 A 
ATOM     29  C   UNL A   1      41.790  29.611  29.129  1.00  0.00     0.074 A 
ATOM     30  C   UNL A   1      48.103  29.281  28.505  1.00  0.00     0.029 A 
ATOM     31  N   UNL A   1      45.929  28.815  28.560  1.00  0.00    -0.354 N 
ATOM     32  N   UNL A   1      43.082  29.447  28.973  1.00  0.00    -0.248 NA
ATOM     33  C   UNL A   1      41.405  30.918  29.673  1.00  0.00     0.031 C 
ATOM     34  C   UNL A   1      47.422  30.398  29.003  1.00  0.00     0.029 A 
ATOM     35  C   UNL A   1      46.065  30.118  29.010  1.00  0.00     0.049 A 
ATOM     36  H   UNL A   1      45.073  28.336  28.464  1.00  0.00     0.167 HD
ATOM     37  C   UNL A   1      43.664  30.639  29.377  1.00  0.00     0.074 A 
ATOM     38  C   UNL A   1      42.583  31.519  29.777  1.00  0.00     0.031 C 
ATOM     39  C   UNL A   1      44.977  30.976  29.405  1.00  0.00     0.031 A 
BRANCH  26  40
ATOM     40  C   UNL A   1      48.821  26.476  27.605  1.00  0.00    -0.014 A 
ATOM     41  C   UNL A   1      49.443  26.511  26.347  1.00  0.00     0.009 A 
ATOM     42  C   UNL A   1      49.553  26.015  28.710  1.00  0.00     0.009 A 
ATOM     43  C   UNL A   1      50.755  26.053  26.193  1.00  0.00     0.001 A 
ATOM     44  C   UNL A   1      50.872  25.585  28.560  1.00  0.00     0.001 A 
ATOM     45  C   UNL A   1      51.469  25.593  27.299  1.00  0.00     0.000 A 
ENDBRANCH  26  40
BRANCH  27  46
ATOM     46  C   UNL A   1      39.259  28.991  29.091  1.00  0.00    -0.014 A 
ATOM     47  C   UNL A   1      38.445  29.492  28.067  1.00  0.00     0.009 A 
ATOM     48  C   UNL A   1      38.695  28.748  30.354  1.00  0.00     0.009 A 
ATOM     49  C   UNL A   1      37.093  29.749  28.304  1.00  0.00     0.001 A 
ATOM     50  C   UNL A   1      37.338  28.980  30.581  1.00  0.00     0.001 A 
ATOM     51  C   UNL A   1      36.539  29.485  29.557  1.00  0.00     0.000 A 
ENDBRANCH  27  46
BRANCH  39  52
ATOM     52  C   UNL A   1      45.315  32.371  29.844  1.00  0.00    -0.014 A 
ATOM     53  C   UNL A   1      45.461  33.414  28.917  1.00  0.00     0.009 A 
ATOM     54  C   UNL A   1      45.433  32.653  31.214  1.00  0.00     0.009 A 
ATOM     55  C   UNL A   1      45.742  34.710  29.355  1.00  0.00     0.001 A 
ATOM     56  C   UNL A   1      45.687  33.953  31.650  1.00  0.00     0.001 A 
ATOM     57  C   UNL A   1      45.847  34.979  30.721  1.00  0.00     0.000 A 
ENDBRANCH  39  52
ENDBRANCH  13  14
ENDBRANCH   6   8
ENDBRANCH   3   4
ENDBRANCH   2   3
ENDBRANCH   1   2
BRANCH   1  58
ATOM     58  C   UNL A   1      36.998  22.407  25.507  1.00  0.00     0.116 C 
BRANCH  58  59
ATOM     59  N   UNL A   1      35.947  22.265  26.493  1.00  0.00    -0.354 N 
ATOM     60  C   UNL A   1      34.786  22.950  26.678  1.00  0.00     0.243 C 
ATOM     61  H   UNL A   1      36.098  21.543  27.145  1.00  0.00     0.163 HD
ATOM     62  O   UNL A   1      34.213  22.749  27.757  1.00  0.00    -0.273 OA
BRANCH  60  63
ATOM     63  C   UNL A   1      34.062  23.775  25.586  1.00  0.00     0.183 C 
ATOM     64  C   UNL A   1      33.357  24.914  26.327  1.00  0.00     0.046 C 
ATOM     65  N   UNL A   1      33.025  23.150  24.778  1.00  0.00    -0.266 N 
ATOM     66  C   UNL A   1      32.135  25.197  25.494  1.00  0.00     0.103 C 
ATOM     67  C   UNL A   1      31.810  23.836  24.951  1.00  0.00     0.230 C 
ATOM     68  O   UNL A   1      30.674  23.447  24.757  1.00  0.00    -0.274 OA
BRANCH  65  69
ATOM     69  C   UNL A   1      33.407  22.342  23.712  1.00  0.00     0.253 C 
ATOM     70  O   UNL A   1      33.890  22.813  22.682  1.00  0.00    -0.269 OA
BRANCH  69  71
ATOM     71  C   UNL A   1      33.421  20.859  23.856  1.00  0.00     0.072 C 
ATOM     72  C   UNL A   1      33.297  20.129  24.972  1.00  0.00     0.014 C 
BRANCH  72  73
ATOM     73  C   UNL A   1      33.426  18.663  25.019  1.00  0.00    -0.025 A 
ATOM     74  C   UNL A   1      34.401  18.052  24.221  1.00  0.00     0.008 A 
ATOM     75  C   UNL A   1      32.537  17.846  25.735  1.00  0.00     0.008 A 
ATOM     76  C   UNL A   1      34.501  16.660  24.153  1.00  0.00     0.001 A 
ATOM     77  C   UNL A   1      32.637  16.452  25.668  1.00  0.00     0.001 A 
ATOM     78  C   UNL A   1      33.619  15.861  24.877  1.00  0.00     0.000 A 
ENDBRANCH  72  73
ENDBRANCH  69  71
ENDBRANCH  65  69
ENDBRANCH  60  63
ENDBRANCH  58  59
ENDBRANCH   1  58
TORSDOF 14
ENDMDL
MODEL 3
REMARK VINA RESULT:     -11.4      5.727     10.370
REMARK SMILES O=C(NCCCCNC(=O)[C@@H]1CCC(=O)N1C(=O)/C=C/c1ccccc1)c1ccc(-c2c3nc(c(-c4ccccc4)c4ccc([nH]4)c(-c4ccccc4)c4nc(c(-c5ccccc5)c5ccc2[nH]5)C=C4)C=C3)cc1
REMARK SMILES IDX 6 1 5 2 4 3 3 4 1 5 2 6 27 8 28 9 74 10 29 11 73 12 30 13
REMARK SMILES IDX 31 14 32 15 67 16 33 17 72 18 66 19 68 20 34 21 71 22 65 23
REMARK SMILES IDX 64 24 35 26 57 27 42 28 56 29 43 30 46 31 55 32 69 33 44 34
REMARK SMILES IDX 45 35 54 37 70 38 47 39 36 40 37 41 41 42 38 43 40 44 39 45
REMARK SMILES IDX 58 46 59 47 63 48 60 49 62 50 61 51 48 52 49 53 53 54 50 55
REMARK SMILES IDX 52 56 51 57 7 58 8 59 9 60 10 62 11 63 12 64 16 65 13 66
REMARK SMILES IDX 14 67 15 68 17 69 18 70 19 71 20 72 21 73 22 74 26 75 23 76
REMARK SMILES IDX 25 77 24 78
REMARK H PARENT 3 7 68 25 46 36 8 61
REMARK Flexibility Score: inf
ROOT
ATOM      1  C   UNL A   1      31.649  30.583  26.411  1.00  0.00     0.023 C 
ENDROOT
BRANCH   1   2
ATOM      2  C   UNL A   1      31.398  32.066  26.669  1.00  0.00     0.023 C 
BRANCH   2   3
ATOM      3  C   UNL A   1      32.591  32.809  27.252  1.00  0.00     0.116 C 
BRANCH   3   4
ATOM      4  N   UNL A   1      32.308  34.199  27.586  1.00  0.00    -0.352 N 
ATOM      5  O   UNL A   1      32.528  36.122  28.759  1.00  0.00    -0.269 OA
ATOM      6  C   UNL A   1      32.930  34.989  28.521  1.00  0.00     0.251 C 
ATOM      7  H   UNL A   1      31.581  34.625  27.077  1.00  0.00     0.163 HD
BRANCH   6   8
ATOM      8  C   UNL A   1      34.072  34.424  29.260  1.00  0.00     0.039 A 
ATOM      9  C   UNL A   1      35.367  34.569  28.756  1.00  0.00     0.014 A 
ATOM     10  C   UNL A   1      33.829  33.676  30.412  1.00  0.00     0.014 A 
ATOM     11  C   UNL A   1      36.405  33.847  29.324  1.00  0.00     0.010 A 
ATOM     12  C   UNL A   1      34.889  33.017  31.030  1.00  0.00     0.010 A 
ATOM     13  C   UNL A   1      36.177  33.071  30.471  1.00  0.00    -0.014 A 
BRANCH  13  14
ATOM     14  C   UNL A   1      37.303  32.358  31.114  1.00  0.00     0.031 A 
ATOM     15  C   UNL A   1      37.872  32.834  32.418  1.00  0.00     0.074 A 
ATOM     16  C   UNL A   1      37.823  31.285  30.491  1.00  0.00     0.049 A 
ATOM     17  N   UNL A   1      38.917  32.390  33.069  1.00  0.00    -0.248 NA
ATOM     18  C   UNL A   1      37.186  33.958  33.072  1.00  0.00     0.031 C 
ATOM     19  C   UNL A   1      37.338  30.725  29.228  1.00  0.00     0.029 A 
ATOM     20  N   UNL A   1      38.877  30.479  30.832  1.00  0.00    -0.354 N 
ATOM     21  C   UNL A   1      39.035  33.201  34.191  1.00  0.00     0.074 A 
ATOM     22  C   UNL A   1      37.962  34.171  34.126  1.00  0.00     0.031 C 
ATOM     23  C   UNL A   1      38.083  29.658  28.907  1.00  0.00     0.029 A 
ATOM     24  C   UNL A   1      39.137  29.505  29.902  1.00  0.00     0.049 A 
ATOM     25  H   UNL A   1      39.396  30.587  31.662  1.00  0.00     0.167 HD
ATOM     26  C   UNL A   1      39.960  33.143  35.180  1.00  0.00     0.031 A 
ATOM     27  C   UNL A   1      40.139  28.611  29.830  1.00  0.00     0.031 A 
ATOM     28  C   UNL A   1      41.025  32.175  35.229  1.00  0.00     0.049 A 
ATOM     29  C   UNL A   1      41.178  28.594  30.910  1.00  0.00     0.074 A 
ATOM     30  C   UNL A   1      41.997  32.011  36.201  1.00  0.00     0.029 A 
ATOM     31  N   UNL A   1      41.263  31.213  34.258  1.00  0.00    -0.354 N 
ATOM     32  N   UNL A   1      41.268  29.355  31.973  1.00  0.00    -0.248 NA
ATOM     33  C   UNL A   1      42.248  27.599  30.781  1.00  0.00     0.031 C 
ATOM     34  C   UNL A   1      42.854  30.984  35.791  1.00  0.00     0.029 A 
ATOM     35  C   UNL A   1      42.381  30.468  34.595  1.00  0.00     0.049 A 
ATOM     36  H   UNL A   1      40.717  31.079  33.450  1.00  0.00     0.167 HD
ATOM     37  C   UNL A   1      42.394  28.917  32.655  1.00  0.00     0.074 A 
ATOM     38  C   UNL A   1      42.946  27.818  31.887  1.00  0.00     0.031 C 
ATOM     39  C   UNL A   1      42.916  29.379  33.817  1.00  0.00     0.031 A 
BRANCH  26  40
ATOM     40  C   UNL A   1      39.885  34.186  36.261  1.00  0.00    -0.014 A 
ATOM     41  C   UNL A   1      40.538  35.422  36.138  1.00  0.00     0.009 A 
ATOM     42  C   UNL A   1      39.128  33.932  37.416  1.00  0.00     0.009 A 
ATOM     43  C   UNL A   1      40.470  36.364  37.167  1.00  0.00     0.001 A 
ATOM     44  C   UNL A   1      39.037  34.886  38.431  1.00  0.00     0.001 A 
ATOM     45  C   UNL A   1      39.718  36.097  38.312  1.00  0.00     0.000 A 
ENDBRANCH  26  40
BRANCH  27  46
ATOM     46  C   UNL A   1      40.200  27.686  28.670  1.00  0.00    -0.014 A 
ATOM     47  C   UNL A   1      40.901  28.042  27.511  1.00  0.00     0.009 A 
ATOM     48  C   UNL A   1      39.613  26.413  28.749  1.00  0.00     0.009 A 
ATOM     49  C   UNL A   1      41.008  27.142  26.449  1.00  0.00     0.001 A 
ATOM     50  C   UNL A   1      39.745  25.505  27.698  1.00  0.00     0.001 A 
ATOM     51  C   UNL A   1      40.438  25.872  26.547  1.00  0.00     0.000 A 
ENDBRANCH  27  46
BRANCH  39  52
ATOM     52  C   UNL A   1      44.124  28.668  34.354  1.00  0.00    -0.014 A 
ATOM     53  C   UNL A   1      45.420  29.158  34.128  1.00  0.00     0.009 A 
ATOM     54  C   UNL A   1      43.955  27.522  35.146  1.00  0.00     0.009 A 
ATOM     55  C   UNL A   1      46.525  28.497  34.667  1.00  0.00     0.001 A 
ATOM     56  C   UNL A   1      45.060  26.879  35.705  1.00  0.00     0.001 A 
ATOM     57  C   UNL A   1      46.343  27.363  35.461  1.00  0.00     0.000 A 
ENDBRANCH  39  52
ENDBRANCH  13  14
ENDBRANCH   6   8
ENDBRANCH   3   4
ENDBRANCH   2   3
ENDBRANCH   1   2
BRANCH   1  58
ATOM     58  C   UNL A   1      33.118  30.217  26.195  1.00  0.00     0.116 C 
BRANCH  58  59
ATOM     59  N   UNL A   1      33.314  29.707  24.853  1.00  0.00    -0.354 N 
ATOM     60  C   UNL A   1      33.291  28.440  24.358  1.00  0.00     0.243 C 
ATOM     61  H   UNL A   1      33.494  30.402  24.179  1.00  0.00     0.163 HD
ATOM     62  O   UNL A   1      33.736  28.307  23.210  1.00  0.00    -0.273 OA
BRANCH  60  63
ATOM     63  C   UNL A   1      32.587  27.239  25.035  1.00  0.00     0.183 C 
ATOM     64  C   UNL A   1      33.693  26.459  25.749  1.00  0.00     0.046 C 
ATOM     65  N   UNL A   1      31.896  26.253  24.216  1.00  0.00    -0.266 N 
ATOM     66  C   UNL A   1      33.221  25.030  25.715  1.00  0.00     0.103 C 
ATOM     67  C   UNL A   1      32.468  24.985  24.417  1.00  0.00     0.230 C 
ATOM     68  O   UNL A   1      32.435  24.005  23.697  1.00  0.00    -0.274 OA
BRANCH  65  69
ATOM     69  C   UNL A   1      30.621  26.552  23.746  1.00  0.00     0.253 C 
ATOM     70  O   UNL A   1      29.745  25.691  23.656  1.00  0.00    -0.269 OA
BRANCH  69  71
ATOM     71  C   UNL A   1      30.215  27.967  23.515  1.00  0.00     0.072 C 
ATOM     72  C   UNL A   1      29.024  28.438  23.127  1.00  0.00     0.014 C 
BRANCH  72  73
ATOM     73  C   UNL A   1      28.753  29.854  22.827  1.00  0.00    -0.025 A 
ATOM     74  C   UNL A   1      28.295  30.191  21.549  1.00  0.00     0.008 A 
ATOM     75  C   UNL A   1      29.047  30.889  23.729  1.00  0.00     0.008 A 
ATOM     76  C   UNL A   1      28.116  31.528  21.181  1.00  0.00     0.001 A 
ATOM     77  C   UNL A   1      28.868  32.227  23.362  1.00  0.00     0.001 A 
ATOM     78  C   UNL A   1      28.403  32.545  22.088  1.00  0.00     0.000 A 
ENDBRANCH  72  73
ENDBRANCH  69  71
ENDBRANCH  65  69
ENDBRANCH  60  63
ENDBRANCH  58  59
ENDBRANCH   1  58
TORSDOF 14
ENDMDL
