MODEL 1
REMARK VINA RESULT:     -13.0      0.000      0.000
REMARK SMILES CC(=O)Nc1ccc(/C=C2/CCc3oc(C(=O)NCCCCNC(=O)c4ccc(-c5c6nc(c(-c7ccccc7)c7ccc([nH]7)c(-c7ccccc7)c7nc(c(-c8ccccc8)c8ccc5[nH]8)C=C7)C=C6)cc4)c(C)c3C2=O)cc1
REMARK SMILES IDX 20 1 19 2 18 3 16 4 17 5 15 7 9 8 10 9 11 10 77 11 12 12
REMARK SMILES IDX 76 13 78 14 13 15 74 16 14 17 75 18 8 19 5 20 6 21 80 22
REMARK SMILES IDX 7 23 79 24 4 25 1 26 2 27 3 28 21 30 22 31 23 32 24 33 25 35
REMARK SMILES IDX 26 36 27 37 73 38 28 39 72 40 29 41 30 42 31 43 66 44 32 45
REMARK SMILES IDX 71 46 65 47 67 48 33 49 70 50 64 51 63 52 34 54 56 55 41 56
REMARK SMILES IDX 55 57 42 58 45 59 54 60 68 61 43 62 44 63 53 65 69 66 46 67
REMARK SMILES IDX 35 68 36 69 40 70 37 71 39 72 38 73 57 74 58 75 62 76 59 77
REMARK SMILES IDX 61 78 60 79 47 80 48 81 52 82 49 83 51 84 50 85
REMARK H PARENT 18 6 4 29 23 34 67 53 45 64
REMARK Flexibility Score: inf
ROOT
ATOM      1  C   UNL A   1      39.246  23.709  26.925  1.00  0.00     0.023 C 
ENDROOT
BRANCH   1   2
ATOM      2  C   UNL A   1      37.877  23.525  26.263  1.00  0.00     0.116 C 
BRANCH   2   3
ATOM      3  N   UNL A   1      37.616  22.148  25.867  1.00  0.00    -0.349 N 
ATOM      4  C   UNL A   1      36.461  21.493  25.476  1.00  0.00     0.287 C 
ATOM      5  O   UNL A   1      36.607  20.309  25.164  1.00  0.00    -0.266 OA
ATOM      6  H   UNL A   1      38.414  21.572  25.879  1.00  0.00     0.163 HD
BRANCH   4   7
ATOM      7  C   UNL A   1      35.169  22.166  25.440  1.00  0.00     0.195 A 
ATOM      8  C   UNL A   1      30.407  25.530  25.623  1.00  0.00     0.016 C 
ATOM      9  C   UNL A   1      31.104  24.379  25.540  1.00  0.00     0.001 C 
ATOM     10  C   UNL A   1      30.934  23.321  26.628  1.00  0.00     0.048 C 
ATOM     11  C   UNL A   1      32.105  24.019  24.455  1.00  0.00     0.192 C 
ATOM     12  C   UNL A   1      32.263  23.044  27.341  1.00  0.00     0.081 C 
ATOM     13  C   UNL A   1      33.251  23.292  24.991  1.00  0.00     0.067 A 
ATOM     14  O   UNL A   1      31.950  24.266  23.276  1.00  0.00    -0.289 OA
ATOM     15  C   UNL A   1      33.283  22.866  26.293  1.00  0.00     0.116 A 
ATOM     16  C   UNL A   1      34.492  22.851  24.420  1.00  0.00     0.012 A 
ATOM     17  O   UNL A   1      34.401  22.184  26.570  1.00  0.00    -0.455 OA
ATOM     18  C   UNL A   1      34.931  23.097  23.019  1.00  0.00     0.049 C 
BRANCH   8  19
ATOM     19  C   UNL A   1      30.399  26.775  24.834  1.00  0.00    -0.025 A 
ATOM     20  C   UNL A   1      30.062  29.171  23.364  1.00  0.00     0.041 A 
ATOM     21  C   UNL A   1      31.057  29.065  24.334  1.00  0.00     0.027 A 
ATOM     22  C   UNL A   1      29.272  28.062  23.085  1.00  0.00     0.027 A 
ATOM     23  C   UNL A   1      31.192  27.893  25.090  1.00  0.00     0.010 A 
ATOM     24  C   UNL A   1      29.446  26.875  23.806  1.00  0.00     0.010 A 
BRANCH  20  25
ATOM     25  N   UNL A   1      29.937  30.397  22.696  1.00  0.00    -0.326 N 
ATOM     26  C   UNL A   1      27.750  31.129  23.622  1.00  0.00     0.114 C 
ATOM     27  C   UNL A   1      28.888  31.271  22.646  1.00  0.00     0.221 C 
ATOM     28  O   UNL A   1      28.930  32.217  21.857  1.00  0.00    -0.275 OA
ATOM     29  H   UNL A   1      30.730  30.670  22.181  1.00  0.00     0.169 HD
ENDBRANCH  20  25
ENDBRANCH   8  19
ENDBRANCH   4   7
ENDBRANCH   2   3
ENDBRANCH   1   2
BRANCH   1  30
ATOM     30  C   UNL A   1      40.044  22.420  27.182  1.00  0.00     0.023 C 
BRANCH  30  31
ATOM     31  C   UNL A   1      41.469  22.628  27.683  1.00  0.00     0.116 C 
BRANCH  31  32
ATOM     32  N   UNL A   1      42.494  22.548  26.634  1.00  0.00    -0.352 N 
ATOM     33  C   UNL A   1      42.922  23.557  25.781  1.00  0.00     0.251 C 
ATOM     34  H   UNL A   1      42.931  21.672  26.522  1.00  0.00     0.163 HD
ATOM     35  O   UNL A   1      43.486  23.311  24.724  1.00  0.00    -0.269 OA
BRANCH  33  36
ATOM     36  C   UNL A   1      42.701  24.952  26.200  1.00  0.00     0.039 A 
ATOM     37  C   UNL A   1      41.810  25.817  25.559  1.00  0.00     0.014 A 
ATOM     38  C   UNL A   1      43.381  25.349  27.342  1.00  0.00     0.014 A 
ATOM     39  C   UNL A   1      41.551  27.059  26.144  1.00  0.00     0.010 A 
ATOM     40  C   UNL A   1      42.936  26.436  28.032  1.00  0.00     0.010 A 
ATOM     41  C   UNL A   1      42.112  27.352  27.397  1.00  0.00    -0.014 A 
BRANCH  41  42
ATOM     42  C   UNL A   1      41.822  28.580  28.124  1.00  0.00     0.031 A 
ATOM     43  C   UNL A   1      42.811  29.667  27.926  1.00  0.00     0.074 A 
ATOM     44  C   UNL A   1      40.617  28.802  28.701  1.00  0.00     0.049 A 
ATOM     45  N   UNL A   1      43.658  30.127  28.784  1.00  0.00    -0.248 NA
ATOM     46  C   UNL A   1      42.970  30.225  26.571  1.00  0.00     0.031 C 
ATOM     47  C   UNL A   1      39.415  27.951  28.640  1.00  0.00     0.029 A 
ATOM     48  N   UNL A   1      40.160  29.904  29.355  1.00  0.00    -0.354 N 
ATOM     49  C   UNL A   1      44.295  31.191  28.149  1.00  0.00     0.074 A 
ATOM     50  C   UNL A   1      43.990  31.068  26.747  1.00  0.00     0.031 C 
ATOM     51  C   UNL A   1      38.326  28.669  28.991  1.00  0.00     0.029 A 
ATOM     52  C   UNL A   1      38.778  29.944  29.509  1.00  0.00     0.049 A 
ATOM     53  H   UNL A   1      40.755  30.612  29.690  1.00  0.00     0.167 HD
ATOM     54  C   UNL A   1      44.750  32.257  28.866  1.00  0.00     0.031 A 
ATOM     55  C   UNL A   1      38.048  30.953  30.036  1.00  0.00     0.031 A 
ATOM     56  C   UNL A   1      44.693  31.990  30.280  1.00  0.00     0.049 A 
ATOM     57  C   UNL A   1      38.960  31.763  30.867  1.00  0.00     0.074 A 
ATOM     58  C   UNL A   1      45.393  31.236  31.194  1.00  0.00     0.029 A 
ATOM     59  N   UNL A   1      43.477  32.292  30.839  1.00  0.00    -0.354 N 
ATOM     60  N   UNL A   1      39.544  31.304  31.937  1.00  0.00    -0.248 NA
ATOM     61  C   UNL A   1      39.523  32.991  30.324  1.00  0.00     0.031 C 
ATOM     62  C   UNL A   1      44.460  30.907  32.224  1.00  0.00     0.029 A 
ATOM     63  C   UNL A   1      43.236  31.510  31.935  1.00  0.00     0.049 A 
ATOM     64  H   UNL A   1      42.862  32.979  30.497  1.00  0.00     0.167 HD
ATOM     65  C   UNL A   1      40.782  31.916  31.938  1.00  0.00     0.074 A 
ATOM     66  C   UNL A   1      40.642  33.063  31.050  1.00  0.00     0.031 C 
ATOM     67  C   UNL A   1      41.887  31.262  32.400  1.00  0.00     0.031 A 
BRANCH  54  68
ATOM     68  C   UNL A   1      44.734  33.688  28.369  1.00  0.00    -0.014 A 
ATOM     69  C   UNL A   1      43.488  34.326  28.210  1.00  0.00     0.009 A 
ATOM     70  C   UNL A   1      45.840  34.316  27.768  1.00  0.00     0.009 A 
ATOM     71  C   UNL A   1      43.353  35.490  27.444  1.00  0.00     0.001 A 
ATOM     72  C   UNL A   1      45.715  35.499  27.032  1.00  0.00     0.001 A 
ATOM     73  C   UNL A   1      44.467  36.073  26.849  1.00  0.00     0.000 A 
ENDBRANCH  54  68
BRANCH  55  74
ATOM     74  C   UNL A   1      36.685  31.402  29.695  1.00  0.00    -0.014 A 
ATOM     75  C   UNL A   1      35.867  32.006  30.663  1.00  0.00     0.009 A 
ATOM     76  C   UNL A   1      36.305  31.516  28.345  1.00  0.00     0.009 A 
ATOM     77  C   UNL A   1      34.740  32.748  30.287  1.00  0.00     0.001 A 
ATOM     78  C   UNL A   1      35.181  32.261  27.972  1.00  0.00     0.001 A 
ATOM     79  C   UNL A   1      34.411  32.893  28.941  1.00  0.00     0.000 A 
ENDBRANCH  55  74
BRANCH  67  80
ATOM     80  C   UNL A   1      41.669  30.087  33.311  1.00  0.00    -0.014 A 
ATOM     81  C   UNL A   1      41.557  28.759  32.864  1.00  0.00     0.009 A 
ATOM     82  C   UNL A   1      41.661  30.332  34.692  1.00  0.00     0.009 A 
ATOM     83  C   UNL A   1      41.422  27.710  33.781  1.00  0.00     0.001 A 
ATOM     84  C   UNL A   1      41.544  29.285  35.605  1.00  0.00     0.001 A 
ATOM     85  C   UNL A   1      41.419  27.974  35.150  1.00  0.00     0.000 A 
ENDBRANCH  67  80
ENDBRANCH  41  42
ENDBRANCH  33  36
ENDBRANCH  31  32
ENDBRANCH  30  31
ENDBRANCH   1  30
TORSDOF 13
ENDMDL
MODEL 2
REMARK VINA RESULT:     -13.0      2.949      8.708
REMARK SMILES CC(=O)Nc1ccc(/C=C2/CCc3oc(C(=O)NCCCCNC(=O)c4ccc(-c5c6nc(c(-c7ccccc7)c7ccc([nH]7)c(-c7ccccc7)c7nc(c(-c8ccccc8)c8ccc5[nH]8)C=C7)C=C6)cc4)c(C)c3C2=O)cc1
REMARK SMILES IDX 20 1 19 2 18 3 16 4 17 5 15 7 9 8 10 9 11 10 77 11 12 12
REMARK SMILES IDX 76 13 78 14 13 15 74 16 14 17 75 18 8 19 5 20 6 21 80 22
REMARK SMILES IDX 7 23 79 24 4 25 1 26 2 27 3 28 21 30 22 31 23 32 24 33 25 35
REMARK SMILES IDX 26 36 27 37 73 38 28 39 72 40 29 41 30 42 31 43 66 44 32 45
REMARK SMILES IDX 71 46 65 47 67 48 33 49 70 50 64 51 63 52 34 54 56 55 41 56
REMARK SMILES IDX 55 57 42 58 45 59 54 60 68 61 43 62 44 63 53 65 69 66 46 67
REMARK SMILES IDX 35 68 36 69 40 70 37 71 39 72 38 73 57 74 58 75 62 76 59 77
REMARK SMILES IDX 61 78 60 79 47 80 48 81 52 82 49 83 51 84 50 85
REMARK H PARENT 18 6 4 29 23 34 67 53 45 64
REMARK Flexibility Score: inf
ROOT
ATOM      1  C   UNL A   1      35.601  30.295  27.637  1.00  0.00     0.023 C 
ENDROOT
BRANCH   1   2
ATOM      2  C   UNL A   1      34.532  29.378  27.034  1.00  0.00     0.116 C 
BRANCH   2   3
ATOM      3  N   UNL A   1      33.347  30.100  26.589  1.00  0.00    -0.349 N 
ATOM      4  C   UNL A   1      32.332  29.772  25.708  1.00  0.00     0.287 C 
ATOM      5  O   UNL A   1      31.442  30.618  25.591  1.00  0.00    -0.266 OA
ATOM      6  H   UNL A   1      33.250  30.991  26.993  1.00  0.00     0.163 HD
BRANCH   4   7
ATOM      7  C   UNL A   1      32.325  28.512  24.975  1.00  0.00     0.195 A 
ATOM      8  C   UNL A   1      33.061  23.332  22.396  1.00  0.00     0.016 C 
ATOM      9  C   UNL A   1      32.522  24.553  22.582  1.00  0.00     0.001 C 
ATOM     10  C   UNL A   1      32.666  25.610  21.489  1.00  0.00     0.048 C 
ATOM     11  C   UNL A   1      31.785  25.022  23.826  1.00  0.00     0.192 C 
ATOM     12  C   UNL A   1      33.426  26.838  22.006  1.00  0.00     0.081 C 
ATOM     13  C   UNL A   1      32.094  26.411  24.151  1.00  0.00     0.067 A 
ATOM     14  O   UNL A   1      30.999  24.338  24.450  1.00  0.00    -0.289 OA
ATOM     15  C   UNL A   1      32.831  27.197  23.304  1.00  0.00     0.116 A 
ATOM     16  C   UNL A   1      31.765  27.258  25.261  1.00  0.00     0.012 A 
ATOM     17  O   UNL A   1      32.962  28.446  23.768  1.00  0.00    -0.455 OA
ATOM     18  C   UNL A   1      30.984  26.844  26.460  1.00  0.00     0.049 C 
BRANCH   8  19
ATOM     19  C   UNL A   1      33.200  22.139  23.249  1.00  0.00    -0.025 A 
ATOM     20  C   UNL A   1      33.448  19.672  24.616  1.00  0.00     0.041 A 
ATOM     21  C   UNL A   1      34.318  20.727  24.888  1.00  0.00     0.027 A 
ATOM     22  C   UNL A   1      32.417  19.867  23.704  1.00  0.00     0.027 A 
ATOM     23  C   UNL A   1      34.220  21.931  24.178  1.00  0.00     0.010 A 
ATOM     24  C   UNL A   1      32.290  21.090  23.036  1.00  0.00     0.010 A 
BRANCH  20  25
ATOM     25  N   UNL A   1      33.648  18.472  25.311  1.00  0.00    -0.326 N 
ATOM     26  C   UNL A   1      34.104  16.970  23.384  1.00  0.00     0.114 C 
ATOM     27  C   UNL A   1      33.814  17.198  24.845  1.00  0.00     0.221 C 
ATOM     28  O   UNL A   1      33.809  16.259  25.642  1.00  0.00    -0.275 OA
ATOM     29  H   UNL A   1      33.672  18.561  26.292  1.00  0.00     0.169 HD
ENDBRANCH  20  25
ENDBRANCH   8  19
ENDBRANCH   4   7
ENDBRANCH   2   3
ENDBRANCH   1   2
BRANCH   1  30
ATOM     30  C   UNL A   1      35.216  31.779  27.763  1.00  0.00     0.023 C 
BRANCH  30  31
ATOM     31  C   UNL A   1      36.188  32.634  28.568  1.00  0.00     0.116 C 
BRANCH  31  32
ATOM     32  N   UNL A   1      35.696  33.012  29.900  1.00  0.00    -0.352 N 
ATOM     33  C   UNL A   1      35.796  32.292  31.082  1.00  0.00     0.251 C 
ATOM     34  H   UNL A   1      35.240  33.884  29.961  1.00  0.00     0.163 HD
ATOM     35  O   UNL A   1      35.051  32.502  32.030  1.00  0.00    -0.269 OA
BRANCH  33  36
ATOM     36  C   UNL A   1      36.855  31.272  31.179  1.00  0.00     0.039 A 
ATOM     37  C   UNL A   1      36.612  29.898  31.089  1.00  0.00     0.014 A 
ATOM     38  C   UNL A   1      38.148  31.760  31.288  1.00  0.00     0.014 A 
ATOM     39  C   UNL A   1      37.706  29.033  31.021  1.00  0.00     0.010 A 
ATOM     40  C   UNL A   1      39.193  30.947  30.966  1.00  0.00     0.010 A 
ATOM     41  C   UNL A   1      38.999  29.574  30.944  1.00  0.00    -0.014 A 
BRANCH  41  42
ATOM     42  C   UNL A   1      40.191  28.753  30.774  1.00  0.00     0.031 A 
ATOM     43  C   UNL A   1      40.940  28.481  32.025  1.00  0.00     0.074 A 
ATOM     44  C   UNL A   1      40.433  28.071  29.630  1.00  0.00     0.049 A 
ATOM     45  N   UNL A   1      42.096  28.939  32.366  1.00  0.00    -0.248 NA
ATOM     46  C   UNL A   1      40.267  27.708  33.085  1.00  0.00     0.031 C 
ATOM     47  C   UNL A   1      39.564  27.957  28.445  1.00  0.00     0.029 A 
ATOM     48  N   UNL A   1      41.448  27.217  29.328  1.00  0.00    -0.354 N 
ATOM     49  C   UNL A   1      42.400  28.327  33.580  1.00  0.00     0.074 A 
ATOM     50  C   UNL A   1      41.169  27.759  34.067  1.00  0.00     0.031 C 
ATOM     51  C   UNL A   1      39.951  26.905  27.691  1.00  0.00     0.029 A 
ATOM     52  C   UNL A   1      41.211  26.419  28.213  1.00  0.00     0.049 A 
ATOM     53  H   UNL A   1      42.279  27.168  29.853  1.00  0.00     0.167 HD
ATOM     54  C   UNL A   1      43.693  28.063  33.921  1.00  0.00     0.031 A 
ATOM     55  C   UNL A   1      42.001  25.429  27.741  1.00  0.00     0.031 A 
ATOM     56  C   UNL A   1      44.608  28.703  33.012  1.00  0.00     0.049 A 
ATOM     57  C   UNL A   1      43.358  25.661  28.273  1.00  0.00     0.074 A 
ATOM     58  C   UNL A   1      45.063  29.979  32.770  1.00  0.00     0.029 A 
ATOM     59  N   UNL A   1      44.879  27.950  31.898  1.00  0.00    -0.354 N 
ATOM     60  N   UNL A   1      44.073  26.706  27.966  1.00  0.00    -0.248 NA
ATOM     61  C   UNL A   1      43.808  24.916  29.441  1.00  0.00     0.031 C 
ATOM     62  C   UNL A   1      45.408  30.014  31.385  1.00  0.00     0.029 A 
ATOM     63  C   UNL A   1      45.201  28.749  30.835  1.00  0.00     0.049 A 
ATOM     64  H   UNL A   1      44.847  26.967  31.868  1.00  0.00     0.167 HD
ATOM     65  C   UNL A   1      44.768  26.996  29.125  1.00  0.00     0.074 A 
ATOM     66  C   UNL A   1      44.713  25.775  29.918  1.00  0.00     0.031 C 
ATOM     67  C   UNL A   1      45.045  28.286  29.472  1.00  0.00     0.031 A 
BRANCH  54  68
ATOM     68  C   UNL A   1      44.136  26.840  34.699  1.00  0.00    -0.014 A 
ATOM     69  C   UNL A   1      43.861  25.569  34.160  1.00  0.00     0.009 A 
ATOM     70  C   UNL A   1      44.525  26.877  36.051  1.00  0.00     0.009 A 
ATOM     71  C   UNL A   1      43.912  24.412  34.947  1.00  0.00     0.001 A 
ATOM     72  C   UNL A   1      44.613  25.719  36.831  1.00  0.00     0.001 A 
ATOM     73  C   UNL A   1      44.282  24.488  36.285  1.00  0.00     0.000 A 
ENDBRANCH  54  68
BRANCH  55  74
ATOM     74  C   UNL A   1      41.627  24.175  27.059  1.00  0.00    -0.014 A 
ATOM     75  C   UNL A   1      42.454  23.626  26.067  1.00  0.00     0.009 A 
ATOM     76  C   UNL A   1      40.615  23.362  27.600  1.00  0.00     0.009 A 
ATOM     77  C   UNL A   1      42.310  22.289  25.673  1.00  0.00     0.001 A 
ATOM     78  C   UNL A   1      40.474  22.027  27.207  1.00  0.00     0.001 A 
ATOM     79  C   UNL A   1      41.335  21.485  26.259  1.00  0.00     0.000 A 
ENDBRANCH  55  74
BRANCH  67  80
ATOM     80  C   UNL A   1      45.003  29.323  28.384  1.00  0.00    -0.014 A 
ATOM     81  C   UNL A   1      43.859  30.070  28.058  1.00  0.00     0.009 A 
ATOM     82  C   UNL A   1      46.203  29.611  27.719  1.00  0.00     0.009 A 
ATOM     83  C   UNL A   1      43.916  31.066  27.076  1.00  0.00     0.001 A 
ATOM     84  C   UNL A   1      46.265  30.615  26.754  1.00  0.00     0.001 A 
ATOM     85  C   UNL A   1      45.120  31.339  26.428  1.00  0.00     0.000 A 
ENDBRANCH  67  80
ENDBRANCH  41  42
ENDBRANCH  33  36
ENDBRANCH  31  32
ENDBRANCH  30  31
ENDBRANCH   1  30
TORSDOF 13
ENDMDL
MODEL 3
REMARK VINA RESULT:     -12.6      3.873      9.204
REMARK SMILES CC(=O)Nc1ccc(/C=C2/CCc3oc(C(=O)NCCCCNC(=O)c4ccc(-c5c6nc(c(-c7ccccc7)c7ccc([nH]7)c(-c7ccccc7)c7nc(c(-c8ccccc8)c8ccc5[nH]8)C=C7)C=C6)cc4)c(C)c3C2=O)cc1
REMARK SMILES IDX 20 1 19 2 18 3 16 4 17 5 15 7 9 8 10 9 11 10 77 11 12 12
REMARK SMILES IDX 76 13 78 14 13 15 74 16 14 17 75 18 8 19 5 20 6 21 80 22
REMARK SMILES IDX 7 23 79 24 4 25 1 26 2 27 3 28 21 30 22 31 23 32 24 33 25 35
REMARK SMILES IDX 26 36 27 37 73 38 28 39 72 40 29 41 30 42 31 43 66 44 32 45
REMARK SMILES IDX 71 46 65 47 67 48 33 49 70 50 64 51 63 52 34 54 56 55 41 56
REMARK SMILES IDX 55 57 42 58 45 59 54 60 68 61 43 62 44 63 53 65 69 66 46 67
REMARK SMILES IDX 35 68 36 69 40 70 37 71 39 72 38 73 57 74 58 75 62 76 59 77
REMARK SMILES IDX 61 78 60 79 47 80 48 81 52 82 49 83 51 84 50 85
REMARK H PARENT 18 6 4 29 23 34 67 53 45 64
REMARK Flexibility Score: inf
ROOT
ATOM      1  C   UNL A   1      38.708  33.539  34.535  1.00  0.00     0.023 C 
ENDROOT
BRANCH   1   2
ATOM      2  C   UNL A   1      37.537  32.551  34.570  1.00  0.00     0.116 C 
BRANCH   2   3
ATOM      3  N   UNL A   1      36.237  33.206  34.508  1.00  0.00    -0.349 N 
ATOM      4  C   UNL A   1      35.241  33.210  33.548  1.00  0.00     0.287 C 
ATOM      5  O   UNL A   1      34.229  33.852  33.841  1.00  0.00    -0.266 OA
ATOM      6  H   UNL A   1      36.027  33.748  35.301  1.00  0.00     0.163 HD
BRANCH   4   7
ATOM      7  C   UNL A   1      35.387  32.502  32.283  1.00  0.00     0.195 A 
ATOM      8  C   UNL A   1      35.253  29.256  27.437  1.00  0.00     0.016 C 
ATOM      9  C   UNL A   1      35.802  30.052  28.376  1.00  0.00     0.001 C 
ATOM     10  C   UNL A   1      36.956  29.522  29.225  1.00  0.00     0.048 C 
ATOM     11  C   UNL A   1      35.360  31.466  28.716  1.00  0.00     0.192 C 
ATOM     12  C   UNL A   1      36.586  29.513  30.713  1.00  0.00     0.081 C 
ATOM     13  C   UNL A   1      35.427  31.727  30.150  1.00  0.00     0.067 A 
ATOM     14  O   UNL A   1      35.032  32.294  27.891  1.00  0.00    -0.289 OA
ATOM     15  C   UNL A   1      35.990  30.826  31.016  1.00  0.00     0.116 A 
ATOM     16  C   UNL A   1      35.012  32.828  30.971  1.00  0.00     0.012 A 
ATOM     17  O   UNL A   1      35.991  31.275  32.277  1.00  0.00    -0.455 OA
ATOM     18  C   UNL A   1      34.323  34.055  30.482  1.00  0.00     0.049 C 
BRANCH   8  19
ATOM     19  C   UNL A   1      34.096  29.395  26.534  1.00  0.00    -0.025 A 
ATOM     20  C   UNL A   1      31.933  29.355  24.708  1.00  0.00     0.041 A 
ATOM     21  C   UNL A   1      31.762  29.836  26.004  1.00  0.00     0.027 A 
ATOM     22  C   UNL A   1      33.200  28.947  24.302  1.00  0.00     0.027 A 
ATOM     23  C   UNL A   1      32.823  29.814  26.919  1.00  0.00     0.010 A 
ATOM     24  C   UNL A   1      34.270  28.976  25.204  1.00  0.00     0.010 A 
BRANCH  20  25
ATOM     25  N   UNL A   1      30.812  29.340  23.867  1.00  0.00    -0.326 N 
ATOM     26  C   UNL A   1      30.115  26.975  24.181  1.00  0.00     0.114 C 
ATOM     27  C   UNL A   1      30.021  28.299  23.469  1.00  0.00     0.221 C 
ATOM     28  O   UNL A   1      29.180  28.485  22.588  1.00  0.00    -0.275 OA
ATOM     29  H   UNL A   1      30.553  30.219  23.507  1.00  0.00     0.169 HD
ENDBRANCH  20  25
ENDBRANCH   8  19
ENDBRANCH   4   7
ENDBRANCH   2   3
ENDBRANCH   1   2
BRANCH   1  30
ATOM     30  C   UNL A   1      40.111  32.912  34.474  1.00  0.00     0.023 C 
BRANCH  30  31
ATOM     31  C   UNL A   1      40.985  33.391  33.320  1.00  0.00     0.116 C 
BRANCH  31  32
ATOM     32  N   UNL A   1      40.243  34.042  32.232  1.00  0.00    -0.352 N 
ATOM     33  C   UNL A   1      40.344  33.801  30.869  1.00  0.00     0.251 C 
ATOM     34  H   UNL A   1      39.595  34.733  32.504  1.00  0.00     0.163 HD
ATOM     35  O   UNL A   1      39.980  34.626  30.041  1.00  0.00    -0.269 OA
BRANCH  33  36
ATOM     36  C   UNL A   1      40.883  32.501  30.437  1.00  0.00     0.039 A 
ATOM     37  C   UNL A   1      42.222  32.297  30.092  1.00  0.00     0.014 A 
ATOM     38  C   UNL A   1      39.987  31.442  30.467  1.00  0.00     0.014 A 
ATOM     39  C   UNL A   1      42.659  30.990  29.865  1.00  0.00     0.010 A 
ATOM     40  C   UNL A   1      40.469  30.168  30.498  1.00  0.00     0.010 A 
ATOM     41  C   UNL A   1      41.771  29.926  30.089  1.00  0.00    -0.014 A 
BRANCH  41  42
ATOM     42  C   UNL A   1      42.166  28.529  29.970  1.00  0.00     0.031 A 
ATOM     43  C   UNL A   1      42.821  27.965  31.175  1.00  0.00     0.074 A 
ATOM     44  C   UNL A   1      41.723  27.744  28.960  1.00  0.00     0.049 A 
ATOM     45  N   UNL A   1      44.058  27.628  31.314  1.00  0.00    -0.248 NA
ATOM     46  C   UNL A   1      42.037  27.885  32.420  1.00  0.00     0.031 C 
ATOM     47  C   UNL A   1      40.754  28.090  27.904  1.00  0.00     0.029 A 
ATOM     48  N   UNL A   1      41.937  26.419  28.734  1.00  0.00    -0.354 N 
ATOM     49  C   UNL A   1      44.157  27.075  32.588  1.00  0.00     0.074 A 
ATOM     50  C   UNL A   1      42.955  27.450  33.287  1.00  0.00     0.031 C 
ATOM     51  C   UNL A   1      40.276  26.963  27.333  1.00  0.00     0.029 A 
ATOM     52  C   UNL A   1      41.059  25.847  27.819  1.00  0.00     0.049 A 
ATOM     53  H   UNL A   1      42.651  25.909  29.179  1.00  0.00     0.167 HD
ATOM     54  C   UNL A   1      45.064  26.093  32.852  1.00  0.00     0.031 A 
ATOM     55  C   UNL A   1      40.984  24.542  27.473  1.00  0.00     0.031 A 
ATOM     56  C   UNL A   1      45.985  25.932  31.757  1.00  0.00     0.049 A 
ATOM     57  C   UNL A   1      42.277  23.922  27.823  1.00  0.00     0.074 A 
ATOM     58  C   UNL A   1      47.061  26.613  31.234  1.00  0.00     0.029 A 
ATOM     59  N   UNL A   1      45.528  25.077  30.787  1.00  0.00    -0.354 N 
ATOM     60  N   UNL A   1      43.401  24.256  27.257  1.00  0.00    -0.248 NA
ATOM     61  C   UNL A   1      42.399  23.171  29.065  1.00  0.00     0.031 C 
ATOM     62  C   UNL A   1      47.084  26.297  29.842  1.00  0.00     0.029 A 
ATOM     63  C   UNL A   1      46.056  25.396  29.565  1.00  0.00     0.049 A 
ATOM     64  H   UNL A   1      44.905  24.333  30.948  1.00  0.00     0.167 HD
ATOM     65  C   UNL A   1      44.336  24.152  28.270  1.00  0.00     0.074 A 
ATOM     66  C   UNL A   1      43.709  23.314  29.283  1.00  0.00     0.031 C 
ATOM     67  C   UNL A   1      45.395  25.010  28.336  1.00  0.00     0.031 A 
BRANCH  54  68
ATOM     68  C   UNL A   1      44.820  24.940  33.805  1.00  0.00    -0.014 A 
ATOM     69  C   UNL A   1      45.906  24.452  34.556  1.00  0.00     0.009 A 
ATOM     70  C   UNL A   1      43.669  24.131  33.768  1.00  0.00     0.009 A 
ATOM     71  C   UNL A   1      45.862  23.200  35.181  1.00  0.00     0.001 A 
ATOM     72  C   UNL A   1      43.608  22.895  34.421  1.00  0.00     0.001 A 
ATOM     73  C   UNL A   1      44.714  22.418  35.108  1.00  0.00     0.000 A 
ENDBRANCH  54  68
BRANCH  55  74
ATOM     74  C   UNL A   1      39.808  23.742  27.081  1.00  0.00    -0.014 A 
ATOM     75  C   UNL A   1      38.577  24.362  26.812  1.00  0.00     0.009 A 
ATOM     76  C   UNL A   1      39.977  22.406  26.673  1.00  0.00     0.009 A 
ATOM     77  C   UNL A   1      37.574  23.687  26.106  1.00  0.00     0.001 A 
ATOM     78  C   UNL A   1      38.975  21.734  25.965  1.00  0.00     0.001 A 
ATOM     79  C   UNL A   1      37.781  22.381  25.665  1.00  0.00     0.000 A 
ENDBRANCH  55  74
BRANCH  67  80
ATOM     80  C   UNL A   1      45.779  25.739  27.079  1.00  0.00    -0.014 A 
ATOM     81  C   UNL A   1      46.716  25.257  26.150  1.00  0.00     0.009 A 
ATOM     82  C   UNL A   1      45.096  26.928  26.787  1.00  0.00     0.009 A 
ATOM     83  C   UNL A   1      46.973  25.963  24.968  1.00  0.00     0.001 A 
ATOM     84  C   UNL A   1      45.339  27.622  25.602  1.00  0.00     0.001 A 
ATOM     85  C   UNL A   1      46.281  27.141  24.695  1.00  0.00     0.000 A 
ENDBRANCH  67  80
ENDBRANCH  41  42
ENDBRANCH  33  36
ENDBRANCH  31  32
ENDBRANCH  30  31
ENDBRANCH   1  30
TORSDOF 13
ENDMDL
