MODEL 1
REMARK VINA RESULT:     -10.4      0.000      0.000
REMARK SMILES C/C(=N\Nc1ccncc1[N+](=O)[O-])C(=O)NCCCCNC(=O)c1ccc(-c2c3nc(c(-c4ccccc4)c4ccc([nH]4)c(-c4ccccc4)c4nc(c(-c5ccccc5)c5ccc2[nH]5)C=C4)C=C3)cc1
REMARK SMILES IDX 18 1 17 2 16 3 14 4 15 5 2 7 1 8 3 9 4 10 5 12 6 13 10 14
REMARK SMILES IDX 7 15 9 16 8 17 11 18 12 19 13 20 19 21 20 22 21 23 22 24
REMARK SMILES IDX 23 26 24 27 25 28 71 29 26 30 70 31 27 32 28 33 29 34 64 35
REMARK SMILES IDX 30 36 69 37 63 38 65 39 31 40 68 41 62 42 61 43 32 45 54 46
REMARK SMILES IDX 39 47 53 48 40 49 43 50 52 51 66 52 41 53 42 54 51 56 67 57
REMARK SMILES IDX 44 58 33 59 34 60 38 61 35 62 37 63 36 64 55 65 56 66 60 67
REMARK SMILES IDX 57 68 59 69 58 70 45 71 46 72 50 73 47 74 49 75 48 76
REMARK H PARENT 16 6 4 11 21 25 65 44 43 55
REMARK Flexibility Score: inf
ROOT
ATOM      1  C   UNL A   1      36.496  20.244  24.862  1.00  0.00     0.023 C 
ENDROOT
BRANCH   1   2
ATOM      2  C   UNL A   1      36.624  21.643  25.467  1.00  0.00     0.116 C 
BRANCH   2   3
ATOM      3  N   UNL A   1      35.671  21.805  26.551  1.00  0.00    -0.351 N 
ATOM      4  C   UNL A   1      34.605  22.668  26.649  1.00  0.00     0.267 C 
ATOM      5  O   UNL A   1      34.010  22.817  27.704  1.00  0.00    -0.268 OA
ATOM      6  H   UNL A   1      35.808  21.212  27.325  1.00  0.00     0.163 HD
BRANCH   4   7
ATOM      7  C   UNL A   1      34.057  23.333  25.394  1.00  0.00     0.122 C 
ATOM      8  C   UNL A   1      33.134  22.447  24.597  1.00  0.00     0.075 C 
ATOM      9  N   UNL A   1      34.400  24.564  25.131  1.00  0.00    -0.175 NA
BRANCH   9  10
ATOM     10  N   UNL A   1      34.144  25.082  23.907  1.00  0.00    -0.271 N 
ATOM     11  H   UNL A   1      34.744  24.810  23.175  1.00  0.00     0.190 HD
BRANCH  10  12
ATOM     12  C   UNL A   1      33.103  25.970  23.579  1.00  0.00     0.137 A 
ATOM     13  C   UNL A   1      32.549  26.816  24.546  1.00  0.00     0.055 A 
ATOM     14  C   UNL A   1      32.468  25.921  22.325  1.00  0.00     0.312 A 
ATOM     15  C   UNL A   1      31.396  27.525  24.248  1.00  0.00     0.113 A 
ATOM     16  C   UNL A   1      31.307  26.651  22.117  1.00  0.00     0.198 A 
ATOM     17  N   UNL A   1      30.756  27.450  23.061  1.00  0.00    -0.257 NA
BRANCH  14  18
ATOM     18  N   UNL A   1      32.966  25.090  21.237  1.00  0.00     0.066 N 
ATOM     19  O   UNL A   1      33.069  25.607  20.116  1.00  0.00    -0.258 OA
ATOM     20  O   UNL A   1      33.273  23.915  21.495  1.00  0.00    -0.258 OA
ENDBRANCH  14  18
ENDBRANCH  10  12
ENDBRANCH   9  10
ENDBRANCH   4   7
ENDBRANCH   2   3
ENDBRANCH   1   2
BRANCH   1  21
ATOM     21  C   UNL A   1      37.810  19.454  24.847  1.00  0.00     0.023 C 
BRANCH  21  22
ATOM     22  C   UNL A   1      38.930  20.053  25.690  1.00  0.00     0.116 C 
BRANCH  22  23
ATOM     23  N   UNL A   1      40.118  19.217  25.719  1.00  0.00    -0.352 N 
ATOM     24  C   UNL A   1      41.410  19.555  26.033  1.00  0.00     0.251 C 
ATOM     25  H   UNL A   1      39.975  18.273  25.480  1.00  0.00     0.163 HD
ATOM     26  O   UNL A   1      42.314  18.747  25.855  1.00  0.00    -0.269 OA
BRANCH  24  27
ATOM     27  C   UNL A   1      41.719  20.901  26.564  1.00  0.00     0.039 A 
ATOM     28  C   UNL A   1      41.594  21.120  27.938  1.00  0.00     0.014 A 
ATOM     29  C   UNL A   1      42.093  21.950  25.719  1.00  0.00     0.014 A 
ATOM     30  C   UNL A   1      41.871  22.382  28.466  1.00  0.00     0.010 A 
ATOM     31  C   UNL A   1      42.450  23.184  26.258  1.00  0.00     0.010 A 
ATOM     32  C   UNL A   1      42.315  23.422  27.632  1.00  0.00    -0.014 A 
BRANCH  32  33
ATOM     33  C   UNL A   1      42.594  24.771  28.188  1.00  0.00     0.031 A 
ATOM     34  C   UNL A   1      43.995  25.151  28.583  1.00  0.00     0.074 A 
ATOM     35  C   UNL A   1      41.586  25.649  28.351  1.00  0.00     0.049 A 
ATOM     36  N   UNL A   1      44.440  26.288  29.062  1.00  0.00    -0.248 NA
ATOM     37  C   UNL A   1      45.032  24.114  28.448  1.00  0.00     0.031 C 
ATOM     38  C   UNL A   1      40.176  25.391  28.048  1.00  0.00     0.029 A 
ATOM     39  N   UNL A   1      41.596  26.944  28.805  1.00  0.00    -0.354 N 
ATOM     40  C   UNL A   1      45.796  26.095  29.293  1.00  0.00     0.074 A 
ATOM     41  C   UNL A   1      46.092  24.719  28.963  1.00  0.00     0.031 C 
ATOM     42  C   UNL A   1      39.464  26.504  28.286  1.00  0.00     0.029 A 
ATOM     43  C   UNL A   1      40.359  27.543  28.788  1.00  0.00     0.049 A 
ATOM     44  H   UNL A   1      42.412  27.401  29.113  1.00  0.00     0.167 HD
ATOM     45  C   UNL A   1      46.722  26.989  29.715  1.00  0.00     0.031 A 
ATOM     46  C   UNL A   1      39.989  28.790  29.130  1.00  0.00     0.031 A 
ATOM     47  C   UNL A   1      46.434  28.362  30.032  1.00  0.00     0.049 A 
ATOM     48  C   UNL A   1      41.037  29.765  29.596  1.00  0.00     0.074 A 
ATOM     49  C   UNL A   1      47.310  29.361  30.421  1.00  0.00     0.029 A 
ATOM     50  N   UNL A   1      45.170  28.929  29.998  1.00  0.00    -0.354 N 
ATOM     51  N   UNL A   1      42.329  29.588  29.738  1.00  0.00    -0.248 NA
ATOM     52  C   UNL A   1      40.574  31.119  29.927  1.00  0.00     0.031 C 
ATOM     53  C   UNL A   1      46.568  30.518  30.673  1.00  0.00     0.029 A 
ATOM     54  C   UNL A   1      45.239  30.259  30.377  1.00  0.00     0.049 A 
ATOM     55  H   UNL A   1      44.345  28.457  29.742  1.00  0.00     0.167 HD
ATOM     56  C   UNL A   1      42.836  30.817  30.139  1.00  0.00     0.074 A 
ATOM     57  C   UNL A   1      41.717  31.734  30.197  1.00  0.00     0.031 C 
ATOM     58  C   UNL A   1      44.115  31.158  30.432  1.00  0.00     0.031 A 
BRANCH  45  59
ATOM     59  C   UNL A   1      48.139  26.502  29.862  1.00  0.00    -0.014 A 
ATOM     60  C   UNL A   1      48.593  25.930  31.062  1.00  0.00     0.009 A 
ATOM     61  C   UNL A   1      49.025  26.587  28.777  1.00  0.00     0.009 A 
ATOM     62  C   UNL A   1      49.913  25.492  31.184  1.00  0.00     0.001 A 
ATOM     63  C   UNL A   1      50.334  26.119  28.892  1.00  0.00     0.001 A 
ATOM     64  C   UNL A   1      50.780  25.580  30.098  1.00  0.00     0.000 A 
ENDBRANCH  45  59
BRANCH  46  65
ATOM     65  C   UNL A   1      38.566  29.207  29.021  1.00  0.00    -0.014 A 
ATOM     66  C   UNL A   1      38.061  29.721  27.816  1.00  0.00     0.009 A 
ATOM     67  C   UNL A   1      37.709  29.116  30.129  1.00  0.00     0.009 A 
ATOM     68  C   UNL A   1      36.741  30.170  27.733  1.00  0.00     0.001 A 
ATOM     69  C   UNL A   1      36.381  29.535  30.034  1.00  0.00     0.001 A 
ATOM     70  C   UNL A   1      35.901  30.073  28.842  1.00  0.00     0.000 A 
ENDBRANCH  46  65
BRANCH  58  71
ATOM     71  C   UNL A   1      44.374  32.595  30.795  1.00  0.00    -0.014 A 
ATOM     72  C   UNL A   1      44.337  33.036  32.127  1.00  0.00     0.009 A 
ATOM     73  C   UNL A   1      44.671  33.521  29.782  1.00  0.00     0.009 A 
ATOM     74  C   UNL A   1      44.542  34.383  32.431  1.00  0.00     0.001 A 
ATOM     75  C   UNL A   1      44.910  34.860  30.092  1.00  0.00     0.001 A 
ATOM     76  C   UNL A   1      44.830  35.293  31.415  1.00  0.00     0.000 A 
ENDBRANCH  58  71
ENDBRANCH  32  33
ENDBRANCH  24  27
ENDBRANCH  22  23
ENDBRANCH  21  22
ENDBRANCH   1  21
TORSDOF 14
ENDMDL
MODEL 2
REMARK VINA RESULT:     -10.1      2.460      7.733
REMARK SMILES C/C(=N\Nc1ccncc1[N+](=O)[O-])C(=O)NCCCCNC(=O)c1ccc(-c2c3nc(c(-c4ccccc4)c4ccc([nH]4)c(-c4ccccc4)c4nc(c(-c5ccccc5)c5ccc2[nH]5)C=C4)C=C3)cc1
REMARK SMILES IDX 18 1 17 2 16 3 14 4 15 5 2 7 1 8 3 9 4 10 5 12 6 13 10 14
REMARK SMILES IDX 7 15 9 16 8 17 11 18 12 19 13 20 19 21 20 22 21 23 22 24
REMARK SMILES IDX 23 26 24 27 25 28 71 29 26 30 70 31 27 32 28 33 29 34 64 35
REMARK SMILES IDX 30 36 69 37 63 38 65 39 31 40 68 41 62 42 61 43 32 45 54 46
REMARK SMILES IDX 39 47 53 48 40 49 43 50 52 51 66 52 41 53 42 54 51 56 67 57
REMARK SMILES IDX 44 58 33 59 34 60 38 61 35 62 37 63 36 64 55 65 56 66 60 67
REMARK SMILES IDX 57 68 59 69 58 70 45 71 46 72 50 73 47 74 49 75 48 76
REMARK H PARENT 16 6 4 11 21 25 65 44 43 55
REMARK Flexibility Score: inf
ROOT
ATOM      1  C   UNL A   1      31.986  27.541  26.837  1.00  0.00     0.023 C 
ENDROOT
BRANCH   1   2
ATOM      2  C   UNL A   1      31.613  26.326  25.985  1.00  0.00     0.116 C 
BRANCH   2   3
ATOM      3  N   UNL A   1      30.955  25.326  26.806  1.00  0.00    -0.351 N 
ATOM      4  C   UNL A   1      30.727  23.996  26.540  1.00  0.00     0.267 C 
ATOM      5  O   UNL A   1      29.992  23.328  27.250  1.00  0.00    -0.268 OA
ATOM      6  H   UNL A   1      30.627  25.645  27.678  1.00  0.00     0.163 HD
BRANCH   4   7
ATOM      7  C   UNL A   1      31.515  23.303  25.438  1.00  0.00     0.122 C 
ATOM      8  C   UNL A   1      30.950  23.530  24.059  1.00  0.00     0.075 C 
ATOM      9  N   UNL A   1      32.577  22.615  25.758  1.00  0.00    -0.175 NA
BRANCH   9  10
ATOM     10  N   UNL A   1      33.135  21.786  24.846  1.00  0.00    -0.271 N 
ATOM     11  H   UNL A   1      32.525  21.191  24.353  1.00  0.00     0.190 HD
BRANCH  10  12
ATOM     12  C   UNL A   1      34.504  21.692  24.533  1.00  0.00     0.137 A 
ATOM     13  C   UNL A   1      35.308  20.706  25.114  1.00  0.00     0.055 A 
ATOM     14  C   UNL A   1      35.149  22.680  23.766  1.00  0.00     0.312 A 
ATOM     15  C   UNL A   1      36.683  20.766  24.950  1.00  0.00     0.113 A 
ATOM     16  C   UNL A   1      36.532  22.675  23.668  1.00  0.00     0.198 A 
ATOM     17  N   UNL A   1      37.312  21.735  24.252  1.00  0.00    -0.257 NA
BRANCH  14  18
ATOM     18  N   UNL A   1      34.412  23.745  23.099  1.00  0.00     0.066 N 
ATOM     19  O   UNL A   1      34.296  24.826  23.693  1.00  0.00    -0.258 OA
ATOM     20  O   UNL A   1      33.954  23.516  21.968  1.00  0.00    -0.258 OA
ENDBRANCH  14  18
ENDBRANCH  10  12
ENDBRANCH   9  10
ENDBRANCH   4   7
ENDBRANCH   2   3
ENDBRANCH   1   2
BRANCH   1  21
ATOM     21  C   UNL A   1      33.493  27.816  26.896  1.00  0.00     0.023 C 
BRANCH  21  22
ATOM     22  C   UNL A   1      33.967  28.983  26.038  1.00  0.00     0.116 C 
BRANCH  22  23
ATOM     23  N   UNL A   1      33.717  30.273  26.657  1.00  0.00    -0.352 N 
ATOM     24  C   UNL A   1      34.444  30.929  27.618  1.00  0.00     0.251 C 
ATOM     25  H   UNL A   1      32.913  30.743  26.343  1.00  0.00     0.163 HD
ATOM     26  O   UNL A   1      33.996  31.947  28.135  1.00  0.00    -0.269 OA
BRANCH  24  27
ATOM     27  C   UNL A   1      35.756  30.400  28.051  1.00  0.00     0.039 A 
ATOM     28  C   UNL A   1      35.836  29.736  29.277  1.00  0.00     0.014 A 
ATOM     29  C   UNL A   1      36.906  30.583  27.278  1.00  0.00     0.014 A 
ATOM     30  C   UNL A   1      37.062  29.233  29.713  1.00  0.00     0.010 A 
ATOM     31  C   UNL A   1      38.111  30.009  27.675  1.00  0.00     0.010 A 
ATOM     32  C   UNL A   1      38.208  29.352  28.910  1.00  0.00    -0.014 A 
BRANCH  32  33
ATOM     33  C   UNL A   1      39.519  28.835  29.379  1.00  0.00     0.031 A 
ATOM     34  C   UNL A   1      40.325  29.616  30.383  1.00  0.00     0.074 A 
ATOM     35  C   UNL A   1      39.993  27.671  28.895  1.00  0.00     0.049 A 
ATOM     36  N   UNL A   1      41.477  29.316  30.931  1.00  0.00    -0.248 NA
ATOM     37  C   UNL A   1      39.780  30.915  30.810  1.00  0.00     0.031 C 
ATOM     38  C   UNL A   1      39.332  26.838  27.886  1.00  0.00     0.029 A 
ATOM     39  N   UNL A   1      41.141  26.981  29.193  1.00  0.00    -0.354 N 
ATOM     40  C   UNL A   1      41.795  30.391  31.753  1.00  0.00     0.074 A 
ATOM     41  C   UNL A   1      40.750  31.376  31.586  1.00  0.00     0.031 C 
ATOM     42  C   UNL A   1      40.064  25.732  27.680  1.00  0.00     0.029 A 
ATOM     43  C   UNL A   1      41.260  25.792  28.515  1.00  0.00     0.049 A 
ATOM     44  H   UNL A   1      41.814  27.308  29.832  1.00  0.00     0.167 HD
ATOM     45  C   UNL A   1      42.847  30.536  32.593  1.00  0.00     0.031 A 
ATOM     46  C   UNL A   1      42.222  24.852  28.567  1.00  0.00     0.031 A 
ATOM     47  C   UNL A   1      43.882  29.553  32.770  1.00  0.00     0.049 A 
ATOM     48  C   UNL A   1      43.380  25.037  29.509  1.00  0.00     0.074 A 
ATOM     49  C   UNL A   1      44.964  29.585  33.634  1.00  0.00     0.029 A 
ATOM     50  N   UNL A   1      43.964  28.361  32.068  1.00  0.00    -0.354 N 
ATOM     51  N   UNL A   1      43.627  26.025  30.335  1.00  0.00    -0.248 NA
ATOM     52  C   UNL A   1      44.381  23.961  29.541  1.00  0.00     0.031 C 
ATOM     53  C   UNL A   1      45.729  28.435  33.415  1.00  0.00     0.029 A 
ATOM     54  C   UNL A   1      45.088  27.657  32.464  1.00  0.00     0.049 A 
ATOM     55  H   UNL A   1      43.318  28.059  31.388  1.00  0.00     0.167 HD
ATOM     56  C   UNL A   1      44.790  25.674  31.008  1.00  0.00     0.074 A 
ATOM     57  C   UNL A   1      45.186  24.373  30.509  1.00  0.00     0.031 C 
ATOM     58  C   UNL A   1      45.470  26.364  31.957  1.00  0.00     0.031 A 
BRANCH  45  59
ATOM     59  C   UNL A   1      42.930  31.814  33.384  1.00  0.00    -0.014 A 
ATOM     60  C   UNL A   1      42.332  31.929  34.650  1.00  0.00     0.009 A 
ATOM     61  C   UNL A   1      43.641  32.910  32.871  1.00  0.00     0.009 A 
ATOM     62  C   UNL A   1      42.410  33.125  35.366  1.00  0.00     0.001 A 
ATOM     63  C   UNL A   1      43.745  34.094  33.604  1.00  0.00     0.001 A 
ATOM     64  C   UNL A   1      43.122  34.204  34.846  1.00  0.00     0.000 A 
ENDBRANCH  45  59
BRANCH  46  65
ATOM     65  C   UNL A   1      42.123  23.631  27.723  1.00  0.00    -0.014 A 
ATOM     66  C   UNL A   1      41.484  22.477  28.205  1.00  0.00     0.009 A 
ATOM     67  C   UNL A   1      42.688  23.604  26.438  1.00  0.00     0.009 A 
ATOM     68  C   UNL A   1      41.447  21.312  27.435  1.00  0.00     0.001 A 
ATOM     69  C   UNL A   1      42.621  22.448  25.658  1.00  0.00     0.001 A 
ATOM     70  C   UNL A   1      42.012  21.300  26.161  1.00  0.00     0.000 A 
ENDBRANCH  46  65
BRANCH  58  71
ATOM     71  C   UNL A   1      46.684  25.701  32.548  1.00  0.00    -0.014 A 
ATOM     72  C   UNL A   1      46.590  24.854  33.664  1.00  0.00     0.009 A 
ATOM     73  C   UNL A   1      47.943  25.921  31.967  1.00  0.00     0.009 A 
ATOM     74  C   UNL A   1      47.739  24.284  34.216  1.00  0.00     0.001 A 
ATOM     75  C   UNL A   1      49.085  25.321  32.499  1.00  0.00     0.001 A 
ATOM     76  C   UNL A   1      48.983  24.516  33.632  1.00  0.00     0.000 A 
ENDBRANCH  58  71
ENDBRANCH  32  33
ENDBRANCH  24  27
ENDBRANCH  22  23
ENDBRANCH  21  22
ENDBRANCH   1  21
TORSDOF 14
ENDMDL
MODEL 3
REMARK VINA RESULT:     -10.1      3.608      8.981
REMARK SMILES C/C(=N\Nc1ccncc1[N+](=O)[O-])C(=O)NCCCCNC(=O)c1ccc(-c2c3nc(c(-c4ccccc4)c4ccc([nH]4)c(-c4ccccc4)c4nc(c(-c5ccccc5)c5ccc2[nH]5)C=C4)C=C3)cc1
REMARK SMILES IDX 18 1 17 2 16 3 14 4 15 5 2 7 1 8 3 9 4 10 5 12 6 13 10 14
REMARK SMILES IDX 7 15 9 16 8 17 11 18 12 19 13 20 19 21 20 22 21 23 22 24
REMARK SMILES IDX 23 26 24 27 25 28 71 29 26 30 70 31 27 32 28 33 29 34 64 35
REMARK SMILES IDX 30 36 69 37 63 38 65 39 31 40 68 41 62 42 61 43 32 45 54 46
REMARK SMILES IDX 39 47 53 48 40 49 43 50 52 51 66 52 41 53 42 54 51 56 67 57
REMARK SMILES IDX 44 58 33 59 34 60 38 61 35 62 37 63 36 64 55 65 56 66 60 67
REMARK SMILES IDX 57 68 59 69 58 70 45 71 46 72 50 73 47 74 49 75 48 76
REMARK H PARENT 16 6 4 11 21 25 65 44 43 55
REMARK Flexibility Score: inf
ROOT
ATOM      1  C   UNL A   1      31.209  30.559  25.381  1.00  0.00     0.023 C 
ENDROOT
BRANCH   1   2
ATOM      2  C   UNL A   1      32.446  29.676  25.552  1.00  0.00     0.116 C 
BRANCH   2   3
ATOM      3  N   UNL A   1      33.190  29.615  24.306  1.00  0.00    -0.351 N 
ATOM      4  C   UNL A   1      33.372  28.551  23.455  1.00  0.00     0.267 C 
ATOM      5  O   UNL A   1      34.181  28.606  22.542  1.00  0.00    -0.268 OA
ATOM      6  H   UNL A   1      33.623  30.455  24.031  1.00  0.00     0.163 HD
BRANCH   4   7
ATOM      7  C   UNL A   1      32.451  27.343  23.551  1.00  0.00     0.122 C 
ATOM      8  C   UNL A   1      31.196  27.476  22.725  1.00  0.00     0.075 C 
ATOM      9  N   UNL A   1      32.812  26.331  24.291  1.00  0.00    -0.175 NA
BRANCH   9  10
ATOM     10  N   UNL A   1      31.906  25.373  24.599  1.00  0.00    -0.271 N 
ATOM     11  H   UNL A   1      31.011  25.679  24.872  1.00  0.00     0.190 HD
BRANCH  10  12
ATOM     12  C   UNL A   1      32.121  23.983  24.568  1.00  0.00     0.137 A 
ATOM     13  C   UNL A   1      32.677  23.367  23.441  1.00  0.00     0.055 A 
ATOM     14  C   UNL A   1      31.633  23.144  25.587  1.00  0.00     0.312 A 
ATOM     15  C   UNL A   1      32.685  21.984  23.358  1.00  0.00     0.113 A 
ATOM     16  C   UNL A   1      31.665  21.768  25.414  1.00  0.00     0.198 A 
ATOM     17  N   UNL A   1      32.179  21.172  24.312  1.00  0.00    -0.257 NA
BRANCH  14  18
ATOM     18  N   UNL A   1      31.051  23.673  26.813  1.00  0.00     0.066 N 
ATOM     19  O   UNL A   1      30.168  23.006  27.367  1.00  0.00    -0.258 OA
ATOM     20  O   UNL A   1      31.482  24.756  27.241  1.00  0.00    -0.258 OA
ENDBRANCH  14  18
ENDBRANCH  10  12
ENDBRANCH   9  10
ENDBRANCH   4   7
ENDBRANCH   2   3
ENDBRANCH   1   2
BRANCH   1  21
ATOM     21  C   UNL A   1      31.109  31.692  26.410  1.00  0.00     0.023 C 
BRANCH  21  22
ATOM     22  C   UNL A   1      32.445  32.292  26.836  1.00  0.00     0.116 C 
BRANCH  22  23
ATOM     23  N   UNL A   1      32.314  33.649  27.339  1.00  0.00    -0.352 N 
ATOM     24  C   UNL A   1      33.097  34.317  28.246  1.00  0.00     0.251 C 
ATOM     25  H   UNL A   1      31.557  34.162  26.977  1.00  0.00     0.163 HD
ATOM     26  O   UNL A   1      32.745  35.412  28.668  1.00  0.00    -0.269 OA
BRANCH  24  27
ATOM     27  C   UNL A   1      34.354  33.709  28.735  1.00  0.00     0.039 A 
ATOM     28  C   UNL A   1      35.538  33.980  28.044  1.00  0.00     0.014 A 
ATOM     29  C   UNL A   1      34.369  32.853  29.839  1.00  0.00     0.014 A 
ATOM     30  C   UNL A   1      36.737  33.414  28.477  1.00  0.00     0.010 A 
ATOM     31  C   UNL A   1      35.579  32.357  30.320  1.00  0.00     0.010 A 
ATOM     32  C   UNL A   1      36.771  32.609  29.628  1.00  0.00    -0.014 A 
BRANCH  32  33
ATOM     33  C   UNL A   1      38.043  31.990  30.082  1.00  0.00     0.031 A 
ATOM     34  C   UNL A   1      38.866  32.653  31.153  1.00  0.00     0.074 A 
ATOM     35  C   UNL A   1      38.466  30.840  29.522  1.00  0.00     0.049 A 
ATOM     36  N   UNL A   1      39.990  32.254  31.698  1.00  0.00    -0.248 NA
ATOM     37  C   UNL A   1      38.381  33.946  31.664  1.00  0.00     0.031 C 
ATOM     38  C   UNL A   1      37.784  30.118  28.445  1.00  0.00     0.029 A 
ATOM     39  N   UNL A   1      39.570  30.070  29.790  1.00  0.00    -0.354 N 
ATOM     40  C   UNL A   1      40.345  33.249  32.601  1.00  0.00     0.074 A 
ATOM     41  C   UNL A   1      39.357  34.298  32.488  1.00  0.00     0.031 C 
ATOM     42  C   UNL A   1      38.462  28.992  28.173  1.00  0.00     0.029 A 
ATOM     43  C   UNL A   1      39.642  28.928  29.030  1.00  0.00     0.049 A 
ATOM     44  H   UNL A   1      40.245  30.314  30.463  1.00  0.00     0.167 HD
ATOM     45  C   UNL A   1      41.385  33.278  33.468  1.00  0.00     0.031 A 
ATOM     46  C   UNL A   1      40.551  27.936  29.030  1.00  0.00     0.031 A 
ATOM     47  C   UNL A   1      42.363  32.231  33.592  1.00  0.00     0.049 A 
ATOM     48  C   UNL A   1      41.697  27.992  30.004  1.00  0.00     0.074 A 
ATOM     49  C   UNL A   1      43.427  32.143  34.474  1.00  0.00     0.029 A 
ATOM     50  N   UNL A   1      42.399  31.089  32.807  1.00  0.00    -0.354 N 
ATOM     51  N   UNL A   1      41.978  28.904  30.903  1.00  0.00    -0.248 NA
ATOM     52  C   UNL A   1      42.640  26.865  29.975  1.00  0.00     0.031 C 
ATOM     53  C   UNL A   1      44.136  30.972  34.187  1.00  0.00     0.029 A 
ATOM     54  C   UNL A   1      43.476  30.299  33.171  1.00  0.00     0.049 A 
ATOM     55  H   UNL A   1      41.753  30.872  32.096  1.00  0.00     0.167 HD
ATOM     56  C   UNL A   1      43.106  28.444  31.570  1.00  0.00     0.074 A 
ATOM     57  C   UNL A   1      43.444  27.163  30.985  1.00  0.00     0.031 C 
ATOM     58  C   UNL A   1      43.800  29.028  32.578  1.00  0.00     0.031 A 
BRANCH  45  59
ATOM     59  C   UNL A   1      41.518  34.490  34.351  1.00  0.00    -0.014 A 
ATOM     60  C   UNL A   1      40.904  34.543  35.613  1.00  0.00     0.009 A 
ATOM     61  C   UNL A   1      42.291  35.582  33.929  1.00  0.00     0.009 A 
ATOM     62  C   UNL A   1      41.029  35.679  36.416  1.00  0.00     0.001 A 
ATOM     63  C   UNL A   1      42.441  36.703  34.747  1.00  0.00     0.001 A 
ATOM     64  C   UNL A   1      41.802  36.755  35.985  1.00  0.00     0.000 A 
ENDBRANCH  45  59
BRANCH  46  65
ATOM     65  C   UNL A   1      40.407  26.786  28.099  1.00  0.00    -0.014 A 
ATOM     66  C   UNL A   1      39.698  25.637  28.485  1.00  0.00     0.009 A 
ATOM     67  C   UNL A   1      40.999  26.821  26.826  1.00  0.00     0.009 A 
ATOM     68  C   UNL A   1      39.617  24.534  27.632  1.00  0.00     0.001 A 
ATOM     69  C   UNL A   1      40.888  25.729  25.964  1.00  0.00     0.001 A 
ATOM     70  C   UNL A   1      40.209  24.582  26.371  1.00  0.00     0.000 A 
ENDBRANCH  46  65
BRANCH  58  71
ATOM     71  C   UNL A   1      44.966  28.260  33.140  1.00  0.00    -0.014 A 
ATOM     72  C   UNL A   1      44.806  27.355  34.201  1.00  0.00     0.009 A 
ATOM     73  C   UNL A   1      46.244  28.441  32.588  1.00  0.00     0.009 A 
ATOM     74  C   UNL A   1      45.913  26.686  34.730  1.00  0.00     0.001 A 
ATOM     75  C   UNL A   1      47.341  27.744  33.095  1.00  0.00     0.001 A 
ATOM     76  C   UNL A   1      47.177  26.879  34.176  1.00  0.00     0.000 A 
ENDBRANCH  58  71
ENDBRANCH  32  33
ENDBRANCH  24  27
ENDBRANCH  22  23
ENDBRANCH  21  22
ENDBRANCH   1  21
TORSDOF 14
ENDMDL
