MODEL 1
REMARK VINA RESULT:     -12.0      0.000      0.000
REMARK SMILES CC(C)OC(=O)c1c(NC(=O)[C@H]2[C@@H](C(=O)NCCCCNC(=O)c3ccc(-c4c5nc(c(-c6ccccc6)c6ccc([nH]6)c(-c6ccccc6)c6nc(c(-c7ccccc7)c7ccc4[nH]7)C=C6)C=C5)cc3)[C@@H]3C=C[C@H]2CC3)sc2c1CCC2
REMARK SMILES IDX 17 1 16 2 14 3 15 4 13 6 12 7 75 8 72 9 74 10 76 11 73 12
REMARK SMILES IDX 77 13 10 14 9 15 11 17 8 18 7 19 80 20 78 21 79 22 81 23
REMARK SMILES IDX 83 24 82 25 5 26 6 27 4 28 2 29 1 30 3 31 18 32 19 33 20 34
REMARK SMILES IDX 21 35 22 36 23 38 24 39 25 40 71 41 26 42 70 43 27 44 28 45
REMARK SMILES IDX 29 46 64 47 30 48 69 49 63 50 65 51 31 52 68 53 62 54 61 55
REMARK SMILES IDX 32 57 54 58 39 59 53 60 40 61 43 62 52 63 66 64 41 65 42 66
REMARK SMILES IDX 51 68 67 69 44 70 33 71 34 72 38 73 35 74 37 75 36 76 55 77
REMARK SMILES IDX 56 78 60 79 57 80 59 81 58 82 45 83 46 84 50 85 47 86 49 87
REMARK SMILES IDX 48 88
REMARK H PARENT 16 5 9 16 21 37 65 56 43 67
REMARK Flexibility Score: inf
ROOT
ATOM      1  C   UNL A   1      36.902  23.816  25.852  1.00  0.00     0.116 C 
ENDROOT
BRANCH   1   2
ATOM      2  N   UNL A   1      35.927  23.336  26.815  1.00  0.00    -0.356 N 
ATOM      3  C   UNL A   1      34.657  22.869  26.608  1.00  0.00     0.224 C 
ATOM      4  O   UNL A   1      34.122  22.273  27.542  1.00  0.00    -0.275 OA
ATOM      5  H   UNL A   1      36.222  23.349  27.754  1.00  0.00     0.163 HD
BRANCH   3   6
ATOM      6  C   UNL A   1      33.988  23.061  25.248  1.00  0.00     0.098 C 
ATOM      7  C   UNL A   1      32.443  23.379  25.260  1.00  0.00     0.099 C 
ATOM      8  C   UNL A   1      31.692  22.238  24.504  1.00  0.00     0.025 C 
ATOM      9  C   UNL A   1      34.251  21.830  24.335  1.00  0.00     0.025 C 
ATOM     10  C   UNL A   1      32.245  22.277  23.083  1.00  0.00    -0.027 C 
ATOM     11  C   UNL A   1      32.055  20.859  25.094  1.00  0.00     0.009 C 
ATOM     12  C   UNL A   1      33.574  22.098  23.002  1.00  0.00    -0.027 C 
ATOM     13  C   UNL A   1      33.564  20.592  24.943  1.00  0.00     0.009 C 
BRANCH   7  14
ATOM     14  C   UNL A   1      31.787  23.750  26.595  1.00  0.00     0.229 C 
ATOM     15  N   UNL A   1      31.188  24.965  26.811  1.00  0.00    -0.317 N 
ATOM     16  H   UNL A   1      30.906  25.114  27.743  1.00  0.00     0.170 HD
ATOM     17  O   UNL A   1      31.773  22.941  27.531  1.00  0.00    -0.274 OA
BRANCH  15  18
ATOM     18  C   UNL A   1      30.904  26.019  25.960  1.00  0.00     0.110 A 
ATOM     19  C   UNL A   1      31.357  27.339  26.056  1.00  0.00     0.098 A 
ATOM     20  C   UNL A   1      31.028  28.029  24.849  1.00  0.00    -0.017 A 
ATOM     21  S   UNL A   1      29.758  25.850  24.694  1.00  0.00    -0.122 S 
ATOM     22  C   UNL A   1      30.272  27.265  24.008  1.00  0.00     0.011 A 
ATOM     23  C   UNL A   1      31.341  29.336  24.215  1.00  0.00     0.038 C 
ATOM     24  C   UNL A   1      30.010  27.861  22.685  1.00  0.00     0.047 C 
ATOM     25  C   UNL A   1      30.390  29.341  22.968  1.00  0.00     0.010 C 
BRANCH  19  26
ATOM     26  C   UNL A   1      32.116  27.855  27.183  1.00  0.00     0.341 C 
ATOM     27  O   UNL A   1      31.653  27.923  28.325  1.00  0.00    -0.246 OA
BRANCH  26  28
ATOM     28  O   UNL A   1      33.330  28.331  26.805  1.00  0.00    -0.459 OA
BRANCH  28  29
ATOM     29  C   UNL A   1      33.959  29.403  27.544  1.00  0.00     0.170 C 
ATOM     30  C   UNL A   1      35.484  29.415  27.439  1.00  0.00     0.052 C 
ATOM     31  C   UNL A   1      33.327  30.746  27.204  1.00  0.00     0.052 C 
ENDBRANCH  28  29
ENDBRANCH  26  28
ENDBRANCH  19  26
ENDBRANCH  15  18
ENDBRANCH   7  14
ENDBRANCH   3   6
ENDBRANCH   1   2
BRANCH   1  32
ATOM     32  C   UNL A   1      38.341  23.838  26.372  1.00  0.00     0.023 C 
BRANCH  32  33
ATOM     33  C   UNL A   1      39.111  22.512  26.385  1.00  0.00     0.023 C 
BRANCH  33  34
ATOM     34  C   UNL A   1      40.408  22.535  27.175  1.00  0.00     0.116 C 
BRANCH  34  35
ATOM     35  N   UNL A   1      41.601  22.342  26.353  1.00  0.00    -0.352 N 
ATOM     36  C   UNL A   1      42.378  23.323  25.761  1.00  0.00     0.251 C 
ATOM     37  H   UNL A   1      41.884  21.411  26.203  1.00  0.00     0.163 HD
ATOM     38  O   UNL A   1      43.116  23.065  24.819  1.00  0.00    -0.269 OA
BRANCH  36  39
ATOM     39  C   UNL A   1      42.307  24.696  26.298  1.00  0.00     0.039 A 
ATOM     40  C   UNL A   1      41.483  25.672  25.730  1.00  0.00     0.014 A 
ATOM     41  C   UNL A   1      43.078  24.984  27.422  1.00  0.00     0.014 A 
ATOM     42  C   UNL A   1      41.389  26.915  26.354  1.00  0.00     0.010 A 
ATOM     43  C   UNL A   1      42.857  26.137  28.127  1.00  0.00     0.010 A 
ATOM     44  C   UNL A   1      42.068  27.131  27.566  1.00  0.00    -0.014 A 
BRANCH  44  45
ATOM     45  C   UNL A   1      41.865  28.345  28.345  1.00  0.00     0.031 A 
ATOM     46  C   UNL A   1      42.907  29.381  28.119  1.00  0.00     0.074 A 
ATOM     47  C   UNL A   1      40.721  28.609  29.014  1.00  0.00     0.049 A 
ATOM     48  N   UNL A   1      43.812  29.771  28.952  1.00  0.00    -0.248 NA
ATOM     49  C   UNL A   1      43.067  29.937  26.763  1.00  0.00     0.031 C 
ATOM     50  C   UNL A   1      39.480  27.823  29.044  1.00  0.00     0.029 A 
ATOM     51  N   UNL A   1      40.377  29.719  29.722  1.00  0.00    -0.354 N 
ATOM     52  C   UNL A   1      44.513  30.785  28.308  1.00  0.00     0.074 A 
ATOM     53  C   UNL A   1      44.153  30.698  26.916  1.00  0.00     0.031 C 
ATOM     54  C   UNL A   1      38.467  28.590  29.507  1.00  0.00     0.029 A 
ATOM     55  C   UNL A   1      39.013  29.856  29.964  1.00  0.00     0.049 A 
ATOM     56  H   UNL A   1      41.040  30.374  30.038  1.00  0.00     0.167 HD
ATOM     57  C   UNL A   1      45.107  31.783  29.020  1.00  0.00     0.031 A 
ATOM     58  C   UNL A   1      38.379  30.945  30.471  1.00  0.00     0.031 A 
ATOM     59  C   UNL A   1      45.176  31.454  30.424  1.00  0.00     0.049 A 
ATOM     60  C   UNL A   1      39.408  31.778  31.135  1.00  0.00     0.074 A 
ATOM     61  C   UNL A   1      45.732  30.426  31.160  1.00  0.00     0.029 A 
ATOM     62  N   UNL A   1      44.238  32.039  31.242  1.00  0.00    -0.354 N 
ATOM     63  N   UNL A   1      40.027  31.418  32.221  1.00  0.00    -0.248 NA
ATOM     64  C   UNL A   1      40.080  32.790  30.335  1.00  0.00     0.031 C 
ATOM     65  C   UNL A   1      44.767  30.140  32.172  1.00  0.00     0.029 A 
ATOM     66  C   UNL A   1      43.729  31.066  32.059  1.00  0.00     0.049 A 
ATOM     67  H   UNL A   1      43.979  32.989  31.240  1.00  0.00     0.167 HD
ATOM     68  C   UNL A   1      41.347  31.780  32.002  1.00  0.00     0.074 A 
ATOM     69  C   UNL A   1      41.302  32.710  30.870  1.00  0.00     0.031 C 
ATOM     70  C   UNL A   1      42.372  31.067  32.555  1.00  0.00     0.031 A 
BRANCH  57  71
ATOM     71  C   UNL A   1      45.193  33.215  28.545  1.00  0.00    -0.014 A 
ATOM     72  C   UNL A   1      43.991  33.895  28.265  1.00  0.00     0.009 A 
ATOM     73  C   UNL A   1      46.377  33.814  28.078  1.00  0.00     0.009 A 
ATOM     74  C   UNL A   1      43.971  35.049  27.473  1.00  0.00     0.001 A 
ATOM     75  C   UNL A   1      46.365  34.991  27.323  1.00  0.00     0.001 A 
ATOM     76  C   UNL A   1      45.159  35.589  26.992  1.00  0.00     0.000 A 
ENDBRANCH  57  71
BRANCH  58  77
ATOM     77  C   UNL A   1      37.017  31.469  30.216  1.00  0.00    -0.014 A 
ATOM     78  C   UNL A   1      36.052  31.470  31.239  1.00  0.00     0.009 A 
ATOM     79  C   UNL A   1      36.755  32.244  29.073  1.00  0.00     0.009 A 
ATOM     80  C   UNL A   1      34.899  32.263  31.147  1.00  0.00     0.001 A 
ATOM     81  C   UNL A   1      35.601  33.033  28.980  1.00  0.00     0.001 A 
ATOM     82  C   UNL A   1      34.684  33.059  30.025  1.00  0.00     0.000 A 
ENDBRANCH  58  77
BRANCH  70  83
ATOM     83  C   UNL A   1      42.035  30.038  33.609  1.00  0.00    -0.014 A 
ATOM     84  C   UNL A   1      41.721  28.697  33.322  1.00  0.00     0.009 A 
ATOM     85  C   UNL A   1      42.172  30.412  34.953  1.00  0.00     0.009 A 
ATOM     86  C   UNL A   1      41.511  27.774  34.354  1.00  0.00     0.001 A 
ATOM     87  C   UNL A   1      41.987  29.487  35.980  1.00  0.00     0.001 A 
ATOM     88  C   UNL A   1      41.647  28.170  35.683  1.00  0.00     0.000 A 
ENDBRANCH  70  83
ENDBRANCH  44  45
ENDBRANCH  36  39
ENDBRANCH  34  35
ENDBRANCH  33  34
ENDBRANCH  32  33
ENDBRANCH   1  32
TORSDOF 16
ENDMDL
MODEL 2
REMARK VINA RESULT:     -11.9      2.436      7.070
REMARK SMILES CC(C)OC(=O)c1c(NC(=O)[C@H]2[C@@H](C(=O)NCCCCNC(=O)c3ccc(-c4c5nc(c(-c6ccccc6)c6ccc([nH]6)c(-c6ccccc6)c6nc(c(-c7ccccc7)c7ccc4[nH]7)C=C6)C=C5)cc3)[C@@H]3C=C[C@H]2CC3)sc2c1CCC2
REMARK SMILES IDX 17 1 16 2 14 3 15 4 13 6 12 7 75 8 72 9 74 10 76 11 73 12
REMARK SMILES IDX 77 13 10 14 9 15 11 17 8 18 7 19 80 20 78 21 79 22 81 23
REMARK SMILES IDX 83 24 82 25 5 26 6 27 4 28 2 29 1 30 3 31 18 32 19 33 20 34
REMARK SMILES IDX 21 35 22 36 23 38 24 39 25 40 71 41 26 42 70 43 27 44 28 45
REMARK SMILES IDX 29 46 64 47 30 48 69 49 63 50 65 51 31 52 68 53 62 54 61 55
REMARK SMILES IDX 32 57 54 58 39 59 53 60 40 61 43 62 52 63 66 64 41 65 42 66
REMARK SMILES IDX 51 68 67 69 44 70 33 71 34 72 38 73 35 74 37 75 36 76 55 77
REMARK SMILES IDX 56 78 60 79 57 80 59 81 58 82 45 83 46 84 50 85 47 86 49 87
REMARK SMILES IDX 48 88
REMARK H PARENT 16 5 9 16 21 37 65 56 43 67
REMARK Flexibility Score: inf
ROOT
ATOM      1  C   UNL A   1      32.527  26.532  26.672  1.00  0.00     0.116 C 
ENDROOT
BRANCH   1   2
ATOM      2  N   UNL A   1      31.765  25.311  26.867  1.00  0.00    -0.356 N 
ATOM      3  C   UNL A   1      32.152  24.009  26.704  1.00  0.00     0.224 C 
ATOM      4  O   UNL A   1      31.420  23.144  27.183  1.00  0.00    -0.275 OA
ATOM      5  H   UNL A   1      30.833  25.439  27.159  1.00  0.00     0.163 HD
BRANCH   3   6
ATOM      6  C   UNL A   1      33.466  23.690  25.991  1.00  0.00     0.098 C 
ATOM      7  C   UNL A   1      33.355  22.919  24.619  1.00  0.00     0.099 C 
ATOM      8  C   UNL A   1      34.095  21.550  24.754  1.00  0.00     0.025 C 
ATOM      9  C   UNL A   1      34.423  22.914  26.940  1.00  0.00     0.025 C 
ATOM     10  C   UNL A   1      35.544  21.914  25.059  1.00  0.00    -0.027 C 
ATOM     11  C   UNL A   1      33.562  20.757  25.966  1.00  0.00     0.009 C 
ATOM     12  C   UNL A   1      35.707  22.647  26.173  1.00  0.00    -0.027 C 
ATOM     13  C   UNL A   1      33.807  21.541  27.270  1.00  0.00     0.009 C 
BRANCH   7  14
ATOM     14  C   UNL A   1      31.975  22.796  23.964  1.00  0.00     0.229 C 
ATOM     15  N   UNL A   1      31.346  23.856  23.363  1.00  0.00    -0.317 N 
ATOM     16  H   UNL A   1      30.421  23.668  23.081  1.00  0.00     0.170 HD
ATOM     17  O   UNL A   1      31.383  21.709  23.950  1.00  0.00    -0.274 OA
BRANCH  15  18
ATOM     18  C   UNL A   1      31.772  25.142  23.078  1.00  0.00     0.110 A 
ATOM     19  C   UNL A   1      31.131  26.344  23.396  1.00  0.00     0.098 A 
ATOM     20  C   UNL A   1      32.025  27.427  23.137  1.00  0.00    -0.017 A 
ATOM     21  S   UNL A   1      33.151  25.419  22.095  1.00  0.00    -0.122 S 
ATOM     22  C   UNL A   1      33.184  27.010  22.548  1.00  0.00     0.011 A 
ATOM     23  C   UNL A   1      32.079  28.890  23.397  1.00  0.00     0.038 C 
ATOM     24  C   UNL A   1      34.211  28.054  22.377  1.00  0.00     0.047 C 
ATOM     25  C   UNL A   1      33.349  29.328  22.589  1.00  0.00     0.010 C 
BRANCH  19  26
ATOM     26  C   UNL A   1      29.802  26.424  23.979  1.00  0.00     0.341 C 
ATOM     27  O   UNL A   1      29.528  25.949  25.084  1.00  0.00    -0.246 OA
BRANCH  26  28
ATOM     28  O   UNL A   1      28.905  26.986  23.129  1.00  0.00    -0.459 OA
BRANCH  28  29
ATOM     29  C   UNL A   1      28.418  28.327  23.359  1.00  0.00     0.170 C 
ATOM     30  C   UNL A   1      28.927  29.353  22.348  1.00  0.00     0.052 C 
ATOM     31  C   UNL A   1      26.903  28.341  23.512  1.00  0.00     0.052 C 
ENDBRANCH  28  29
ENDBRANCH  26  28
ENDBRANCH  19  26
ENDBRANCH  15  18
ENDBRANCH   7  14
ENDBRANCH   3   6
ENDBRANCH   1   2
BRANCH   1  32
ATOM     32  C   UNL A   1      31.990  27.738  27.445  1.00  0.00     0.023 C 
BRANCH  32  33
ATOM     33  C   UNL A   1      32.287  29.132  26.881  1.00  0.00     0.023 C 
BRANCH  33  34
ATOM     34  C   UNL A   1      33.755  29.521  26.880  1.00  0.00     0.116 C 
BRANCH  34  35
ATOM     35  N   UNL A   1      33.982  30.965  26.884  1.00  0.00    -0.352 N 
ATOM     36  C   UNL A   1      34.919  31.663  27.626  1.00  0.00     0.251 C 
ATOM     37  H   UNL A   1      33.405  31.501  26.293  1.00  0.00     0.163 HD
ATOM     38  O   UNL A   1      34.795  32.863  27.837  1.00  0.00    -0.269 OA
BRANCH  36  39
ATOM     39  C   UNL A   1      36.085  30.931  28.155  1.00  0.00     0.039 A 
ATOM     40  C   UNL A   1      36.240  29.554  27.972  1.00  0.00     0.014 A 
ATOM     41  C   UNL A   1      37.055  31.672  28.827  1.00  0.00     0.014 A 
ATOM     42  C   UNL A   1      37.418  28.948  28.408  1.00  0.00     0.010 A 
ATOM     43  C   UNL A   1      38.275  31.114  29.099  1.00  0.00     0.010 A 
ATOM     44  C   UNL A   1      38.440  29.744  28.955  1.00  0.00    -0.014 A 
BRANCH  44  45
ATOM     45  C   UNL A   1      39.751  29.190  29.264  1.00  0.00     0.031 A 
ATOM     46  C   UNL A   1      40.004  29.025  30.719  1.00  0.00     0.074 A 
ATOM     47  C   UNL A   1      40.562  28.647  28.328  1.00  0.00     0.049 A 
ATOM     48  N   UNL A   1      40.831  29.696  31.448  1.00  0.00    -0.248 NA
ATOM     49  C   UNL A   1      39.126  28.125  31.490  1.00  0.00     0.031 C 
ATOM     50  C   UNL A   1      40.291  28.438  26.898  1.00  0.00     0.029 A 
ATOM     51  N   UNL A   1      41.771  28.044  28.484  1.00  0.00    -0.354 N 
ATOM     52  C   UNL A   1      40.747  29.149  32.724  1.00  0.00     0.074 A 
ATOM     53  C   UNL A   1      39.553  28.344  32.736  1.00  0.00     0.031 C 
ATOM     54  C   UNL A   1      41.176  27.548  26.394  1.00  0.00     0.029 A 
ATOM     55  C   UNL A   1      42.172  27.256  27.409  1.00  0.00     0.049 A 
ATOM     56  H   UNL A   1      42.319  28.157  29.293  1.00  0.00     0.167 HD
ATOM     57  C   UNL A   1      41.817  29.180  33.567  1.00  0.00     0.031 A 
ATOM     58  C   UNL A   1      43.227  26.400  27.373  1.00  0.00     0.031 A 
ATOM     59  C   UNL A   1      42.833  30.089  33.092  1.00  0.00     0.049 A 
ATOM     60  C   UNL A   1      44.130  26.775  28.485  1.00  0.00     0.074 A 
ATOM     61  C   UNL A   1      42.872  31.436  32.789  1.00  0.00     0.029 A 
ATOM     62  N   UNL A   1      43.916  29.528  32.459  1.00  0.00    -0.354 N 
ATOM     63  N   UNL A   1      44.809  27.885  28.511  1.00  0.00    -0.248 NA
ATOM     64  C   UNL A   1      43.916  26.140  29.775  1.00  0.00     0.031 C 
ATOM     65  C   UNL A   1      43.671  31.521  31.609  1.00  0.00     0.029 A 
ATOM     66  C   UNL A   1      44.151  30.243  31.315  1.00  0.00     0.049 A 
ATOM     67  H   UNL A   1      44.432  28.750  32.772  1.00  0.00     0.167 HD
ATOM     68  C   UNL A   1      44.691  28.331  29.818  1.00  0.00     0.074 A 
ATOM     69  C   UNL A   1      44.217  27.169  30.574  1.00  0.00     0.031 C 
ATOM     70  C   UNL A   1      44.696  29.666  30.108  1.00  0.00     0.031 A 
BRANCH  57  71
ATOM     71  C   UNL A   1      42.151  28.070  34.538  1.00  0.00    -0.014 A 
ATOM     72  C   UNL A   1      42.684  26.873  34.022  1.00  0.00     0.009 A 
ATOM     73  C   UNL A   1      41.692  28.032  35.868  1.00  0.00     0.009 A 
ATOM     74  C   UNL A   1      42.660  25.684  34.759  1.00  0.00     0.001 A 
ATOM     75  C   UNL A   1      41.707  26.855  36.623  1.00  0.00     0.001 A 
ATOM     76  C   UNL A   1      42.159  25.674  36.057  1.00  0.00     0.000 A 
ENDBRANCH  57  71
BRANCH  58  77
ATOM     77  C   UNL A   1      43.407  25.129  26.636  1.00  0.00    -0.014 A 
ATOM     78  C   UNL A   1      42.484  24.079  26.791  1.00  0.00     0.009 A 
ATOM     79  C   UNL A   1      44.303  25.053  25.556  1.00  0.00     0.009 A 
ATOM     80  C   UNL A   1      42.422  23.026  25.866  1.00  0.00     0.001 A 
ATOM     81  C   UNL A   1      44.243  24.000  24.634  1.00  0.00     0.001 A 
ATOM     82  C   UNL A   1      43.289  22.998  24.778  1.00  0.00     0.000 A 
ENDBRANCH  58  77
BRANCH  70  83
ATOM     83  C   UNL A   1      45.087  30.630  29.012  1.00  0.00    -0.014 A 
ATOM     84  C   UNL A   1      46.400  31.091  28.805  1.00  0.00     0.009 A 
ATOM     85  C   UNL A   1      44.108  30.979  28.072  1.00  0.00     0.009 A 
ATOM     86  C   UNL A   1      46.708  31.909  27.712  1.00  0.00     0.001 A 
ATOM     87  C   UNL A   1      44.420  31.775  26.969  1.00  0.00     0.001 A 
ATOM     88  C   UNL A   1      45.717  32.247  26.793  1.00  0.00     0.000 A 
ENDBRANCH  70  83
ENDBRANCH  44  45
ENDBRANCH  36  39
ENDBRANCH  34  35
ENDBRANCH  33  34
ENDBRANCH  32  33
ENDBRANCH   1  32
TORSDOF 16
ENDMDL
MODEL 3
REMARK VINA RESULT:     -11.8      2.118      4.557
REMARK SMILES CC(C)OC(=O)c1c(NC(=O)[C@H]2[C@@H](C(=O)NCCCCNC(=O)c3ccc(-c4c5nc(c(-c6ccccc6)c6ccc([nH]6)c(-c6ccccc6)c6nc(c(-c7ccccc7)c7ccc4[nH]7)C=C6)C=C5)cc3)[C@@H]3C=C[C@H]2CC3)sc2c1CCC2
REMARK SMILES IDX 17 1 16 2 14 3 15 4 13 6 12 7 75 8 72 9 74 10 76 11 73 12
REMARK SMILES IDX 77 13 10 14 9 15 11 17 8 18 7 19 80 20 78 21 79 22 81 23
REMARK SMILES IDX 83 24 82 25 5 26 6 27 4 28 2 29 1 30 3 31 18 32 19 33 20 34
REMARK SMILES IDX 21 35 22 36 23 38 24 39 25 40 71 41 26 42 70 43 27 44 28 45
REMARK SMILES IDX 29 46 64 47 30 48 69 49 63 50 65 51 31 52 68 53 62 54 61 55
REMARK SMILES IDX 32 57 54 58 39 59 53 60 40 61 43 62 52 63 66 64 41 65 42 66
REMARK SMILES IDX 51 68 67 69 44 70 33 71 34 72 38 73 35 74 37 75 36 76 55 77
REMARK SMILES IDX 56 78 60 79 57 80 59 81 58 82 45 83 46 84 50 85 47 86 49 87
REMARK SMILES IDX 48 88
REMARK H PARENT 16 5 9 16 21 37 65 56 43 67
REMARK Flexibility Score: inf
ROOT
ATOM      1  C   UNL A   1      35.052  24.389  23.894  1.00  0.00     0.116 C 
ENDROOT
BRANCH   1   2
ATOM      2  N   UNL A   1      34.115  24.728  22.838  1.00  0.00    -0.356 N 
ATOM      3  C   UNL A   1      33.200  25.744  22.780  1.00  0.00     0.224 C 
ATOM      4  O   UNL A   1      32.708  25.991  21.680  1.00  0.00    -0.275 OA
ATOM      5  H   UNL A   1      34.143  24.142  22.047  1.00  0.00     0.163 HD
BRANCH   3   6
ATOM      6  C   UNL A   1      32.866  26.539  24.041  1.00  0.00     0.098 C 
ATOM      7  C   UNL A   1      31.359  26.523  24.508  1.00  0.00     0.099 C 
ATOM      8  C   UNL A   1      30.812  27.986  24.481  1.00  0.00     0.025 C 
ATOM      9  C   UNL A   1      33.342  28.013  23.895  1.00  0.00     0.025 C 
ATOM     10  C   UNL A   1      31.682  28.750  25.473  1.00  0.00    -0.027 C 
ATOM     11  C   UNL A   1      31.035  28.629  23.095  1.00  0.00     0.009 C 
ATOM     12  C   UNL A   1      32.993  28.735  25.186  1.00  0.00    -0.027 C 
ATOM     13  C   UNL A   1      32.539  28.696  22.771  1.00  0.00     0.009 C 
BRANCH   7  14
ATOM     14  C   UNL A   1      30.408  25.512  23.858  1.00  0.00     0.229 C 
ATOM     15  N   UNL A   1      30.507  24.161  24.074  1.00  0.00    -0.317 N 
ATOM     16  H   UNL A   1      29.907  23.620  23.511  1.00  0.00     0.170 HD
ATOM     17  O   UNL A   1      29.499  25.898  23.113  1.00  0.00    -0.274 OA
BRANCH  15  18
ATOM     18  C   UNL A   1      31.293  23.419  24.937  1.00  0.00     0.110 A 
ATOM     19  C   UNL A   1      32.121  22.337  24.622  1.00  0.00     0.098 A 
ATOM     20  C   UNL A   1      32.930  22.027  25.758  1.00  0.00    -0.017 A 
ATOM     21  S   UNL A   1      31.212  23.661  26.634  1.00  0.00    -0.122 S 
ATOM     22  C   UNL A   1      32.592  22.772  26.851  1.00  0.00     0.011 A 
ATOM     23  C   UNL A   1      34.096  21.160  26.069  1.00  0.00     0.038 C 
ATOM     24  C   UNL A   1      33.473  22.605  28.021  1.00  0.00     0.047 C 
ATOM     25  C   UNL A   1      34.211  21.297  27.626  1.00  0.00     0.010 C 
BRANCH  19  26
ATOM     26  C   UNL A   1      32.180  21.718  23.309  1.00  0.00     0.341 C 
ATOM     27  O   UNL A   1      32.578  22.317  22.305  1.00  0.00    -0.246 OA
BRANCH  26  28
ATOM     28  O   UNL A   1      31.663  20.463  23.312  1.00  0.00    -0.459 OA
BRANCH  28  29
ATOM     29  C   UNL A   1      32.535  19.311  23.280  1.00  0.00     0.170 C 
ATOM     30  C   UNL A   1      32.470  18.450  24.541  1.00  0.00     0.052 C 
ATOM     31  C   UNL A   1      32.338  18.510  22.000  1.00  0.00     0.052 C 
ENDBRANCH  28  29
ENDBRANCH  26  28
ENDBRANCH  19  26
ENDBRANCH  15  18
ENDBRANCH   7  14
ENDBRANCH   3   6
ENDBRANCH   1   2
BRANCH   1  32
ATOM     32  C   UNL A   1      35.802  23.074  23.672  1.00  0.00     0.023 C 
BRANCH  32  33
ATOM     33  C   UNL A   1      37.243  22.983  24.187  1.00  0.00     0.023 C 
BRANCH  33  34
ATOM     34  C   UNL A   1      37.377  22.918  25.698  1.00  0.00     0.116 C 
BRANCH  34  35
ATOM     35  N   UNL A   1      38.415  21.997  26.158  1.00  0.00    -0.352 N 
ATOM     36  C   UNL A   1      39.691  22.321  26.587  1.00  0.00     0.251 C 
ATOM     37  H   UNL A   1      38.181  21.041  26.164  1.00  0.00     0.163 HD
ATOM     38  O   UNL A   1      40.585  21.484  26.603  1.00  0.00    -0.269 OA
BRANCH  36  39
ATOM     39  C   UNL A   1      39.953  23.700  27.040  1.00  0.00     0.039 A 
ATOM     40  C   UNL A   1      39.061  24.745  26.783  1.00  0.00     0.014 A 
ATOM     41  C   UNL A   1      41.121  23.925  27.764  1.00  0.00     0.014 A 
ATOM     42  C   UNL A   1      39.324  26.000  27.331  1.00  0.00     0.010 A 
ATOM     43  C   UNL A   1      41.291  25.103  28.441  1.00  0.00     0.010 A 
ATOM     44  C   UNL A   1      40.435  26.163  28.177  1.00  0.00    -0.014 A 
BRANCH  44  45
ATOM     45  C   UNL A   1      40.656  27.402  28.911  1.00  0.00     0.031 A 
ATOM     46  C   UNL A   1      41.661  28.299  28.283  1.00  0.00     0.074 A 
ATOM     47  C   UNL A   1      39.858  27.813  29.921  1.00  0.00     0.049 A 
ATOM     48  N   UNL A   1      42.838  28.583  28.727  1.00  0.00    -0.248 NA
ATOM     49  C   UNL A   1      41.396  28.815  26.927  1.00  0.00     0.031 C 
ATOM     50  C   UNL A   1      38.626  27.186  30.422  1.00  0.00     0.029 A 
ATOM     51  N   UNL A   1      39.910  28.965  30.643  1.00  0.00    -0.354 N 
ATOM     52  C   UNL A   1      43.377  29.495  27.826  1.00  0.00     0.074 A 
ATOM     53  C   UNL A   1      42.544  29.438  26.653  1.00  0.00     0.031 C 
ATOM     54  C   UNL A   1      37.933  28.078  31.166  1.00  0.00     0.029 A 
ATOM     55  C   UNL A   1      38.742  29.271  31.336  1.00  0.00     0.049 A 
ATOM     56  H   UNL A   1      40.710  29.536  30.674  1.00  0.00     0.167 HD
ATOM     57  C   UNL A   1      44.292  30.420  28.233  1.00  0.00     0.031 A 
ATOM     58  C   UNL A   1      38.453  30.436  31.972  1.00  0.00     0.031 A 
ATOM     59  C   UNL A   1      44.812  30.101  29.541  1.00  0.00     0.049 A 
ATOM     60  C   UNL A   1      39.735  31.143  32.192  1.00  0.00     0.074 A 
ATOM     61  C   UNL A   1      45.472  29.021  30.092  1.00  0.00     0.029 A 
ATOM     62  N   UNL A   1      44.292  30.807  30.601  1.00  0.00    -0.354 N 
ATOM     63  N   UNL A   1      40.652  30.721  33.014  1.00  0.00    -0.248 NA
ATOM     64  C   UNL A   1      40.192  32.055  31.156  1.00  0.00     0.031 C 
ATOM     65  C   UNL A   1      44.899  28.867  31.390  1.00  0.00     0.029 A 
ATOM     66  C   UNL A   1      43.997  29.913  31.595  1.00  0.00     0.049 A 
ATOM     67  H   UNL A   1      44.157  31.781  30.638  1.00  0.00     0.167 HD
ATOM     68  C   UNL A   1      41.843  30.915  32.330  1.00  0.00     0.074 A 
ATOM     69  C   UNL A   1      41.508  31.830  31.237  1.00  0.00     0.031 C 
ATOM     70  C   UNL A   1      42.910  30.087  32.531  1.00  0.00     0.031 A 
BRANCH  57  71
ATOM     71  C   UNL A   1      44.364  31.826  27.682  1.00  0.00    -0.014 A 
ATOM     72  C   UNL A   1      43.881  32.879  28.482  1.00  0.00     0.009 A 
ATOM     73  C   UNL A   1      44.596  32.122  26.326  1.00  0.00     0.009 A 
ATOM     74  C   UNL A   1      43.549  34.122  27.933  1.00  0.00     0.001 A 
ATOM     75  C   UNL A   1      44.307  33.377  25.782  1.00  0.00     0.001 A 
ATOM     76  C   UNL A   1      43.751  34.367  26.579  1.00  0.00     0.000 A 
ENDBRANCH  57  71
BRANCH  58  77
ATOM     77  C   UNL A   1      37.156  31.121  32.179  1.00  0.00    -0.014 A 
ATOM     78  C   UNL A   1      36.894  31.802  33.382  1.00  0.00     0.009 A 
ATOM     79  C   UNL A   1      36.301  31.369  31.091  1.00  0.00     0.009 A 
ATOM     80  C   UNL A   1      35.854  32.738  33.473  1.00  0.00     0.001 A 
ATOM     81  C   UNL A   1      35.260  32.302  31.183  1.00  0.00     0.001 A 
ATOM     82  C   UNL A   1      35.050  33.001  32.367  1.00  0.00     0.000 A 
ENDBRANCH  58  77
BRANCH  70  83
ATOM     83  C   UNL A   1      42.852  29.119  33.690  1.00  0.00    -0.014 A 
ATOM     84  C   UNL A   1      42.308  27.824  33.603  1.00  0.00     0.009 A 
ATOM     85  C   UNL A   1      43.495  29.488  34.880  1.00  0.00     0.009 A 
ATOM     86  C   UNL A   1      42.373  26.946  34.691  1.00  0.00     0.001 A 
ATOM     87  C   UNL A   1      43.580  28.605  35.956  1.00  0.00     0.001 A 
ATOM     88  C   UNL A   1      43.011  27.337  35.866  1.00  0.00     0.000 A 
ENDBRANCH  70  83
ENDBRANCH  44  45
ENDBRANCH  36  39
ENDBRANCH  34  35
ENDBRANCH  33  34
ENDBRANCH  32  33
ENDBRANCH   1  32
TORSDOF 16
ENDMDL
