MODEL 1
REMARK VINA RESULT:     -11.6      0.000      0.000
REMARK SMILES NC(=O)c1c(-c2ccc(Cl)cc2)csc1NC(=O)[C@H]1[C@@H](C(=O)NCCCCNC(=O)c2ccc(-c3c4nc(c(-c5ccccc5)c5ccc([nH]5)c(-c5ccccc5)c5nc(c(-c6ccccc6)c6ccc3[nH]6)C=C5)C=C4)cc2)[C@@H]2CC[C@H]1O2
REMARK SMILES IDX 25 1 24 2 23 3 21 4 22 5 20 7 19 8 82 9 79 10 81 11 83 12
REMARK SMILES IDX 80 13 17 14 16 15 18 17 15 18 4 19 5 20 13 21 14 22 2 23
REMARK SMILES IDX 1 24 3 27 6 28 7 29 12 30 8 31 11 32 9 33 10 34 26 35 27 36
REMARK SMILES IDX 28 37 29 38 30 40 31 41 32 42 78 43 33 44 77 45 34 46 35 47
REMARK SMILES IDX 36 48 71 49 37 50 76 51 70 52 72 53 38 54 75 55 69 56 68 57
REMARK SMILES IDX 39 59 61 60 46 61 60 62 47 63 50 64 59 65 73 66 48 67 49 68
REMARK SMILES IDX 58 70 74 71 51 72 40 73 41 74 45 75 42 76 44 77 43 78 62 79
REMARK SMILES IDX 63 80 67 81 64 82 66 83 65 84 52 85 53 86 57 87 54 88 56 89
REMARK SMILES IDX 55 90
REMARK H PARENT 23 6 16 16 1 25 1 26 28 39 72 58 50 69
REMARK Flexibility Score: inf
ROOT
ATOM      1  C   UNL A   1      32.128  28.376  27.331  1.00  0.00     0.023 C 
ENDROOT
BRANCH   1   2
ATOM      2  C   UNL A   1      32.177  27.214  26.330  1.00  0.00     0.116 C 
BRANCH   2   3
ATOM      3  N   UNL A   1      31.753  25.965  26.926  1.00  0.00    -0.356 N 
ATOM      4  C   UNL A   1      32.140  24.678  26.739  1.00  0.00     0.226 C 
ATOM      5  O   UNL A   1      31.568  23.845  27.448  1.00  0.00    -0.275 OA
ATOM      6  H   UNL A   1      31.045  26.070  27.601  1.00  0.00     0.163 HD
BRANCH   4   7
ATOM      7  C   UNL A   1      33.332  24.321  25.858  1.00  0.00     0.122 C 
ATOM      8  C   UNL A   1      33.175  23.438  24.600  1.00  0.00     0.123 C 
ATOM      9  C   UNL A   1      33.934  22.156  25.002  1.00  0.00     0.132 C 
ATOM     10  C   UNL A   1      34.325  23.475  26.678  1.00  0.00     0.132 C 
ATOM     11  C   UNL A   1      35.443  22.349  24.900  1.00  0.00     0.035 C 
ATOM     12  O   UNL A   1      33.812  22.145  26.441  1.00  0.00    -0.373 OA
ATOM     13  C   UNL A   1      35.694  23.391  25.990  1.00  0.00     0.035 C 
BRANCH   8  14
ATOM     14  C   UNL A   1      31.796  23.046  24.107  1.00  0.00     0.231 C 
ATOM     15  N   UNL A   1      30.945  23.936  23.502  1.00  0.00    -0.317 N 
ATOM     16  H   UNL A   1      30.045  23.559  23.368  1.00  0.00     0.170 HD
ATOM     17  O   UNL A   1      31.374  21.895  24.246  1.00  0.00    -0.274 OA
BRANCH  15  18
ATOM     18  C   UNL A   1      31.045  25.240  23.031  1.00  0.00     0.108 A 
ATOM     19  C   UNL A   1      30.206  26.305  23.373  1.00  0.00     0.082 A 
ATOM     20  C   UNL A   1      30.612  27.528  22.698  1.00  0.00     0.007 A 
ATOM     21  C   UNL A   1      31.681  27.311  21.855  1.00  0.00     0.076 A 
ATOM     22  S   UNL A   1      32.178  25.696  21.860  1.00  0.00    -0.125 S 
BRANCH  19  23
ATOM     23  C   UNL A   1      29.097  26.128  24.309  1.00  0.00     0.252 C 
ATOM     24  N   UNL A   1      27.841  26.345  23.833  1.00  0.00    -0.365 N 
ATOM     25  H   UNL A   1      27.063  26.238  24.428  1.00  0.00     0.159 HD
ATOM     26  H   UNL A   1      27.709  26.610  22.894  1.00  0.00     0.159 HD
ATOM     27  O   UNL A   1      29.260  25.740  25.466  1.00  0.00    -0.269 OA
ENDBRANCH  19  23
BRANCH  20  28
ATOM     28  C   UNL A   1      30.094  28.884  22.827  1.00  0.00    -0.017 A 
ATOM     29  C   UNL A   1      29.398  29.476  21.763  1.00  0.00     0.010 A 
ATOM     30  C   UNL A   1      30.316  29.618  23.999  1.00  0.00     0.010 A 
ATOM     31  C   UNL A   1      28.929  30.788  21.871  1.00  0.00     0.021 A 
ATOM     32  C   UNL A   1      29.845  30.930  24.105  1.00  0.00     0.021 A 
ATOM     33  C   UNL A   1      29.157  31.509  23.041  1.00  0.00     0.041 A 
ATOM     34  Cl  UNL A   1      28.585  33.126  23.170  1.00  0.00    -0.084 Cl
ENDBRANCH  20  28
ENDBRANCH  15  18
ENDBRANCH   8  14
ENDBRANCH   4   7
ENDBRANCH   2   3
ENDBRANCH   1   2
BRANCH   1  35
ATOM     35  C   UNL A   1      32.627  29.733  26.810  1.00  0.00     0.023 C 
BRANCH  35  36
ATOM     36  C   UNL A   1      33.999  30.170  27.314  1.00  0.00     0.116 C 
BRANCH  36  37
ATOM     37  N   UNL A   1      33.938  31.394  28.095  1.00  0.00    -0.352 N 
ATOM     38  C   UNL A   1      34.753  31.839  29.108  1.00  0.00     0.251 C 
ATOM     39  H   UNL A   1      33.197  31.998  27.863  1.00  0.00     0.163 HD
ATOM     40  O   UNL A   1      34.425  32.833  29.753  1.00  0.00    -0.269 OA
BRANCH  38  41
ATOM     41  C   UNL A   1      36.009  31.131  29.456  1.00  0.00     0.039 A 
ATOM     42  C   UNL A   1      37.214  31.606  28.926  1.00  0.00     0.014 A 
ATOM     43  C   UNL A   1      36.014  29.985  30.256  1.00  0.00     0.014 A 
ATOM     44  C   UNL A   1      38.420  30.974  29.244  1.00  0.00     0.010 A 
ATOM     45  C   UNL A   1      37.225  29.394  30.627  1.00  0.00     0.010 A 
ATOM     46  C   UNL A   1      38.442  29.882  30.125  1.00  0.00    -0.014 A 
BRANCH  46  47
ATOM     47  C   UNL A   1      39.727  29.259  30.543  1.00  0.00     0.031 A 
ATOM     48  C   UNL A   1      40.465  29.756  31.757  1.00  0.00     0.074 A 
ATOM     49  C   UNL A   1      40.265  28.277  29.795  1.00  0.00     0.049 A 
ATOM     50  N   UNL A   1      41.615  29.358  32.245  1.00  0.00    -0.248 NA
ATOM     51  C   UNL A   1      39.843  30.857  32.508  1.00  0.00     0.031 C 
ATOM     52  C   UNL A   1      39.680  27.726  28.571  1.00  0.00     0.029 A 
ATOM     53  N   UNL A   1      41.434  27.572  29.950  1.00  0.00    -0.354 N 
ATOM     54  C   UNL A   1      41.861  30.170  33.345  1.00  0.00     0.074 A 
ATOM     55  C   UNL A   1      40.764  31.110  33.428  1.00  0.00     0.031 C 
ATOM     56  C   UNL A   1      40.479  26.755  28.100  1.00  0.00     0.029 A 
ATOM     57  C   UNL A   1      41.651  26.641  28.963  1.00  0.00     0.049 A 
ATOM     58  H   UNL A   1      42.058  27.719  30.697  1.00  0.00     0.167 HD
ATOM     59  C   UNL A   1      42.899  30.131  34.217  1.00  0.00     0.031 A 
ATOM     60  C   UNL A   1      42.678  25.794  28.765  1.00  0.00     0.031 A 
ATOM     61  C   UNL A   1      43.991  29.196  34.144  1.00  0.00     0.049 A 
ATOM     62  C   UNL A   1      43.821  25.774  29.741  1.00  0.00     0.074 A 
ATOM     63  C   UNL A   1      45.052  29.039  35.019  1.00  0.00     0.029 A 
ATOM     64  N   UNL A   1      44.168  28.265  33.132  1.00  0.00    -0.354 N 
ATOM     65  N   UNL A   1      43.999  26.496  30.820  1.00  0.00    -0.248 NA
ATOM     66  C   UNL A   1      44.899  24.811  29.475  1.00  0.00     0.031 C 
ATOM     67  C   UNL A   1      45.899  28.049  34.509  1.00  0.00     0.029 A 
ATOM     68  C   UNL A   1      45.335  27.549  33.347  1.00  0.00     0.049 A 
ATOM     69  H   UNL A   1      43.555  28.130  32.373  1.00  0.00     0.167 HD
ATOM     70  C   UNL A   1      45.195  26.059  31.375  1.00  0.00     0.074 A 
ATOM     71  C   UNL A   1      45.689  24.996  30.524  1.00  0.00     0.031 C 
ATOM     72  C   UNL A   1      45.824  26.499  32.491  1.00  0.00     0.031 A 
BRANCH  59  73
ATOM     73  C   UNL A   1      42.909  31.149  35.326  1.00  0.00    -0.014 A 
ATOM     74  C   UNL A   1      42.331  30.873  36.574  1.00  0.00     0.009 A 
ATOM     75  C   UNL A   1      43.538  32.389  35.129  1.00  0.00     0.009 A 
ATOM     76  C   UNL A   1      42.345  31.833  37.590  1.00  0.00     0.001 A 
ATOM     77  C   UNL A   1      43.578  33.335  36.155  1.00  0.00     0.001 A 
ATOM     78  C   UNL A   1      42.972  33.060  37.381  1.00  0.00     0.000 A 
ENDBRANCH  59  73
BRANCH  60  79
ATOM     79  C   UNL A   1      42.667  24.878  27.594  1.00  0.00    -0.014 A 
ATOM     80  C   UNL A   1      42.070  23.612  27.685  1.00  0.00     0.009 A 
ATOM     81  C   UNL A   1      43.253  25.267  26.379  1.00  0.00     0.009 A 
ATOM     82  C   UNL A   1      42.080  22.744  26.590  1.00  0.00     0.001 A 
ATOM     83  C   UNL A   1      43.236  24.409  25.277  1.00  0.00     0.001 A 
ATOM     84  C   UNL A   1      42.657  23.146  25.386  1.00  0.00     0.000 A 
ENDBRANCH  60  79
BRANCH  72  85
ATOM     85  C   UNL A   1      47.105  25.810  32.876  1.00  0.00    -0.014 A 
ATOM     86  C   UNL A   1      48.338  26.205  32.335  1.00  0.00     0.009 A 
ATOM     87  C   UNL A   1      47.077  24.766  33.815  1.00  0.00     0.009 A 
ATOM     88  C   UNL A   1      49.514  25.546  32.701  1.00  0.00     0.001 A 
ATOM     89  C   UNL A   1      48.257  24.129  34.202  1.00  0.00     0.001 A 
ATOM     90  C   UNL A   1      49.473  24.512  33.637  1.00  0.00     0.000 A 
ENDBRANCH  72  85
ENDBRANCH  46  47
ENDBRANCH  38  41
ENDBRANCH  36  37
ENDBRANCH  35  36
ENDBRANCH   1  35
TORSDOF 15
ENDMDL
MODEL 2
REMARK VINA RESULT:     -11.6      3.172      5.571
REMARK SMILES NC(=O)c1c(-c2ccc(Cl)cc2)csc1NC(=O)[C@H]1[C@@H](C(=O)NCCCCNC(=O)c2ccc(-c3c4nc(c(-c5ccccc5)c5ccc([nH]5)c(-c5ccccc5)c5nc(c(-c6ccccc6)c6ccc3[nH]6)C=C5)C=C4)cc2)[C@@H]2CC[C@H]1O2
REMARK SMILES IDX 25 1 24 2 23 3 21 4 22 5 20 7 19 8 82 9 79 10 81 11 83 12
REMARK SMILES IDX 80 13 17 14 16 15 18 17 15 18 4 19 5 20 13 21 14 22 2 23
REMARK SMILES IDX 1 24 3 27 6 28 7 29 12 30 8 31 11 32 9 33 10 34 26 35 27 36
REMARK SMILES IDX 28 37 29 38 30 40 31 41 32 42 78 43 33 44 77 45 34 46 35 47
REMARK SMILES IDX 36 48 71 49 37 50 76 51 70 52 72 53 38 54 75 55 69 56 68 57
REMARK SMILES IDX 39 59 61 60 46 61 60 62 47 63 50 64 59 65 73 66 48 67 49 68
REMARK SMILES IDX 58 70 74 71 51 72 40 73 41 74 45 75 42 76 44 77 43 78 62 79
REMARK SMILES IDX 63 80 67 81 64 82 66 83 65 84 52 85 53 86 57 87 54 88 56 89
REMARK SMILES IDX 55 90
REMARK H PARENT 23 6 16 16 1 25 1 26 28 39 72 58 50 69
REMARK Flexibility Score: inf
ROOT
ATOM      1  C   UNL A   1      31.479  30.666  26.873  1.00  0.00     0.023 C 
ENDROOT
BRANCH   1   2
ATOM      2  C   UNL A   1      32.610  30.000  26.077  1.00  0.00     0.116 C 
BRANCH   2   3
ATOM      3  N   UNL A   1      32.357  30.018  24.653  1.00  0.00    -0.356 N 
ATOM      4  C   UNL A   1      31.781  29.125  23.808  1.00  0.00     0.226 C 
ATOM      5  O   UNL A   1      31.709  29.482  22.629  1.00  0.00    -0.275 OA
ATOM      6  H   UNL A   1      32.662  30.841  24.208  1.00  0.00     0.163 HD
BRANCH   4   7
ATOM      7  C   UNL A   1      31.101  27.862  24.324  1.00  0.00     0.122 C 
ATOM      8  C   UNL A   1      31.892  26.559  24.574  1.00  0.00     0.123 C 
ATOM      9  C   UNL A   1      31.331  25.620  23.486  1.00  0.00     0.132 C 
ATOM     10  C   UNL A   1      30.082  27.379  23.274  1.00  0.00     0.132 C 
ATOM     11  C   UNL A   1      29.960  25.075  23.876  1.00  0.00     0.035 C 
ATOM     12  O   UNL A   1      30.917  26.535  22.449  1.00  0.00    -0.373 OA
ATOM     13  C   UNL A   1      29.112  26.347  23.865  1.00  0.00     0.035 C 
BRANCH   8  14
ATOM     14  C   UNL A   1      33.404  26.553  24.483  1.00  0.00     0.231 C 
ATOM     15  N   UNL A   1      34.166  25.477  24.863  1.00  0.00    -0.317 N 
ATOM     16  H   UNL A   1      35.128  25.685  24.870  1.00  0.00     0.170 HD
ATOM     17  O   UNL A   1      34.021  27.538  24.068  1.00  0.00    -0.274 OA
BRANCH  15  18
ATOM     18  C   UNL A   1      33.908  24.164  25.241  1.00  0.00     0.108 A 
ATOM     19  C   UNL A   1      33.993  23.039  24.414  1.00  0.00     0.082 A 
ATOM     20  C   UNL A   1      33.663  21.827  25.146  1.00  0.00     0.007 A 
ATOM     21  C   UNL A   1      33.299  22.102  26.447  1.00  0.00     0.076 A 
ATOM     22  S   UNL A   1      33.338  23.758  26.780  1.00  0.00    -0.125 S 
BRANCH  19  23
ATOM     23  C   UNL A   1      34.387  23.156  23.010  1.00  0.00     0.252 C 
ATOM     24  N   UNL A   1      33.400  23.059  22.078  1.00  0.00    -0.365 N 
ATOM     25  H   UNL A   1      33.619  23.132  21.121  1.00  0.00     0.159 HD
ATOM     26  H   UNL A   1      32.468  22.917  22.360  1.00  0.00     0.159 HD
ATOM     27  O   UNL A   1      35.544  23.392  22.663  1.00  0.00    -0.269 OA
ENDBRANCH  19  23
BRANCH  20  28
ATOM     28  C   UNL A   1      33.711  20.433  24.720  1.00  0.00    -0.017 A 
ATOM     29  C   UNL A   1      32.568  19.820  24.187  1.00  0.00     0.010 A 
ATOM     30  C   UNL A   1      34.888  19.688  24.870  1.00  0.00     0.010 A 
ATOM     31  C   UNL A   1      32.602  18.475  23.809  1.00  0.00     0.021 A 
ATOM     32  C   UNL A   1      34.919  18.343  24.490  1.00  0.00     0.021 A 
ATOM     33  C   UNL A   1      33.777  17.743  23.963  1.00  0.00     0.041 A 
ATOM     34  Cl  UNL A   1      33.815  16.086  23.503  1.00  0.00    -0.084 Cl
ENDBRANCH  20  28
ENDBRANCH  15  18
ENDBRANCH   8  14
ENDBRANCH   4   7
ENDBRANCH   2   3
ENDBRANCH   1   2
BRANCH   1  35
ATOM     35  C   UNL A   1      31.420  32.200  26.803  1.00  0.00     0.023 C 
BRANCH  35  36
ATOM     36  C   UNL A   1      32.730  32.926  27.091  1.00  0.00     0.116 C 
BRANCH  36  37
ATOM     37  N   UNL A   1      32.523  34.190  27.776  1.00  0.00    -0.352 N 
ATOM     38  C   UNL A   1      33.216  34.757  28.819  1.00  0.00     0.251 C 
ATOM     39  H   UNL A   1      31.768  34.725  27.442  1.00  0.00     0.163 HD
ATOM     40  O   UNL A   1      32.770  35.765  29.363  1.00  0.00    -0.269 OA
BRANCH  38  41
ATOM     41  C   UNL A   1      34.480  34.161  29.319  1.00  0.00     0.039 A 
ATOM     42  C   UNL A   1      34.425  33.310  30.428  1.00  0.00     0.014 A 
ATOM     43  C   UNL A   1      35.717  34.463  28.742  1.00  0.00     0.014 A 
ATOM     44  C   UNL A   1      35.593  32.717  30.917  1.00  0.00     0.010 A 
ATOM     45  C   UNL A   1      36.874  33.819  29.190  1.00  0.00     0.010 A 
ATOM     46  C   UNL A   1      36.825  32.939  30.282  1.00  0.00    -0.014 A 
BRANCH  46  47
ATOM     47  C   UNL A   1      38.059  32.243  30.737  1.00  0.00     0.031 A 
ATOM     48  C   UNL A   1      38.913  32.823  31.833  1.00  0.00     0.074 A 
ATOM     49  C   UNL A   1      38.449  31.109  30.122  1.00  0.00     0.049 A 
ATOM     50  N   UNL A   1      40.040  32.373  32.328  1.00  0.00    -0.248 NA
ATOM     51  C   UNL A   1      38.453  34.083  32.436  1.00  0.00     0.031 C 
ATOM     52  C   UNL A   1      37.742  30.458  29.018  1.00  0.00     0.029 A 
ATOM     53  N   UNL A   1      39.545  30.308  30.334  1.00  0.00    -0.354 N 
ATOM     54  C   UNL A   1      40.431  33.302  33.284  1.00  0.00     0.074 A 
ATOM     55  C   UNL A   1      39.445  34.361  33.270  1.00  0.00     0.031 C 
ATOM     56  C   UNL A   1      38.408  29.346  28.665  1.00  0.00     0.029 A 
ATOM     57  C   UNL A   1      39.607  29.226  29.487  1.00  0.00     0.049 A 
ATOM     58  H   UNL A   1      40.221  30.490  31.025  1.00  0.00     0.167 HD
ATOM     59  C   UNL A   1      41.506  33.272  34.110  1.00  0.00     0.031 A 
ATOM     60  C   UNL A   1      40.527  28.251  29.377  1.00  0.00     0.031 A 
ATOM     61  C   UNL A   1      42.488  32.221  34.133  1.00  0.00     0.049 A 
ATOM     62  C   UNL A   1      41.715  28.243  30.298  1.00  0.00     0.074 A 
ATOM     63  C   UNL A   1      43.574  32.073  34.979  1.00  0.00     0.029 A 
ATOM     64  N   UNL A   1      42.510  31.140  33.265  1.00  0.00    -0.354 N 
ATOM     65  N   UNL A   1      42.027  29.088  31.250  1.00  0.00    -0.248 NA
ATOM     66  C   UNL A   1      42.669  27.137  30.135  1.00  0.00     0.031 C 
ATOM     67  C   UNL A   1      44.284  30.932  34.588  1.00  0.00     0.029 A 
ATOM     68  C   UNL A   1      43.606  30.336  33.536  1.00  0.00     0.049 A 
ATOM     69  H   UNL A   1      41.845  30.967  32.560  1.00  0.00     0.167 HD
ATOM     70  C   UNL A   1      43.200  28.604  31.815  1.00  0.00     0.074 A 
ATOM     71  C   UNL A   1      43.532  27.381  31.113  1.00  0.00     0.031 C 
ATOM     72  C   UNL A   1      43.934  29.127  32.828  1.00  0.00     0.031 A 
BRANCH  59  73
ATOM     73  C   UNL A   1      41.685  34.431  35.054  1.00  0.00    -0.014 A 
ATOM     74  C   UNL A   1      41.173  34.394  36.360  1.00  0.00     0.009 A 
ATOM     75  C   UNL A   1      42.408  35.562  34.641  1.00  0.00     0.009 A 
ATOM     76  C   UNL A   1      41.344  35.482  37.219  1.00  0.00     0.001 A 
ATOM     77  C   UNL A   1      42.604  36.636  35.512  1.00  0.00     0.001 A 
ATOM     78  C   UNL A   1      42.063  36.599  36.797  1.00  0.00     0.000 A 
ENDBRANCH  59  73
BRANCH  60  79
ATOM     79  C   UNL A   1      40.355  27.183  28.357  1.00  0.00    -0.014 A 
ATOM     80  C   UNL A   1      39.599  26.037  28.645  1.00  0.00     0.009 A 
ATOM     81  C   UNL A   1      40.944  27.307  27.088  1.00  0.00     0.009 A 
ATOM     82  C   UNL A   1      39.457  25.025  27.692  1.00  0.00     0.001 A 
ATOM     83  C   UNL A   1      40.776  26.308  26.128  1.00  0.00     0.001 A 
ATOM     84  C   UNL A   1      40.040  25.164  26.433  1.00  0.00     0.000 A 
ENDBRANCH  60  79
BRANCH  72  85
ATOM     85  C   UNL A   1      45.155  28.361  33.259  1.00  0.00    -0.014 A 
ATOM     86  C   UNL A   1      45.080  27.355  34.235  1.00  0.00     0.009 A 
ATOM     87  C   UNL A   1      46.393  28.632  32.656  1.00  0.00     0.009 A 
ATOM     88  C   UNL A   1      46.228  26.662  34.625  1.00  0.00     0.001 A 
ATOM     89  C   UNL A   1      47.533  27.917  33.026  1.00  0.00     0.001 A 
ATOM     90  C   UNL A   1      47.452  26.940  34.017  1.00  0.00     0.000 A 
ENDBRANCH  72  85
ENDBRANCH  46  47
ENDBRANCH  38  41
ENDBRANCH  36  37
ENDBRANCH  35  36
ENDBRANCH   1  35
TORSDOF 15
ENDMDL
MODEL 3
REMARK VINA RESULT:     -11.6      3.398      8.158
REMARK SMILES NC(=O)c1c(-c2ccc(Cl)cc2)csc1NC(=O)[C@H]1[C@@H](C(=O)NCCCCNC(=O)c2ccc(-c3c4nc(c(-c5ccccc5)c5ccc([nH]5)c(-c5ccccc5)c5nc(c(-c6ccccc6)c6ccc3[nH]6)C=C5)C=C4)cc2)[C@@H]2CC[C@H]1O2
REMARK SMILES IDX 25 1 24 2 23 3 21 4 22 5 20 7 19 8 82 9 79 10 81 11 83 12
REMARK SMILES IDX 80 13 17 14 16 15 18 17 15 18 4 19 5 20 13 21 14 22 2 23
REMARK SMILES IDX 1 24 3 27 6 28 7 29 12 30 8 31 11 32 9 33 10 34 26 35 27 36
REMARK SMILES IDX 28 37 29 38 30 40 31 41 32 42 78 43 33 44 77 45 34 46 35 47
REMARK SMILES IDX 36 48 71 49 37 50 76 51 70 52 72 53 38 54 75 55 69 56 68 57
REMARK SMILES IDX 39 59 61 60 46 61 60 62 47 63 50 64 59 65 73 66 48 67 49 68
REMARK SMILES IDX 58 70 74 71 51 72 40 73 41 74 45 75 42 76 44 77 43 78 62 79
REMARK SMILES IDX 63 80 67 81 64 82 66 83 65 84 52 85 53 86 57 87 54 88 56 89
REMARK SMILES IDX 55 90
REMARK H PARENT 23 6 16 16 1 25 1 26 28 39 72 58 50 69
REMARK Flexibility Score: inf
ROOT
ATOM      1  C   UNL A   1      31.456  30.617  26.851  1.00  0.00     0.023 C 
ENDROOT
BRANCH   1   2
ATOM      2  C   UNL A   1      32.597  29.989  26.039  1.00  0.00     0.116 C 
BRANCH   2   3
ATOM      3  N   UNL A   1      32.325  30.004  24.618  1.00  0.00    -0.356 N 
ATOM      4  C   UNL A   1      31.742  29.107  23.783  1.00  0.00     0.226 C 
ATOM      5  O   UNL A   1      31.653  29.462  22.604  1.00  0.00    -0.275 OA
ATOM      6  H   UNL A   1      32.622  30.827  24.167  1.00  0.00     0.163 HD
BRANCH   4   7
ATOM      7  C   UNL A   1      31.072  27.843  24.309  1.00  0.00     0.122 C 
ATOM      8  C   UNL A   1      31.870  26.541  24.547  1.00  0.00     0.123 C 
ATOM      9  C   UNL A   1      31.295  25.600  23.469  1.00  0.00     0.132 C 
ATOM     10  C   UNL A   1      30.038  27.357  23.276  1.00  0.00     0.132 C 
ATOM     11  C   UNL A   1      29.931  25.053  23.880  1.00  0.00     0.035 C 
ATOM     12  O   UNL A   1      30.862  26.515  22.438  1.00  0.00    -0.373 OA
ATOM     13  C   UNL A   1      29.080  26.323  23.882  1.00  0.00     0.035 C 
BRANCH   8  14
ATOM     14  C   UNL A   1      33.381  26.539  24.432  1.00  0.00     0.231 C 
ATOM     15  N   UNL A   1      34.152  25.471  24.815  1.00  0.00    -0.317 N 
ATOM     16  H   UNL A   1      35.114  25.681  24.804  1.00  0.00     0.170 HD
ATOM     17  O   UNL A   1      33.988  27.521  23.994  1.00  0.00    -0.274 OA
BRANCH  15  18
ATOM     18  C   UNL A   1      33.905  24.161  25.213  1.00  0.00     0.108 A 
ATOM     19  C   UNL A   1      34.009  23.023  24.407  1.00  0.00     0.082 A 
ATOM     20  C   UNL A   1      33.685  21.821  25.158  1.00  0.00     0.007 A 
ATOM     21  C   UNL A   1      33.306  22.115  26.451  1.00  0.00     0.076 A 
ATOM     22  S   UNL A   1      33.325  23.778  26.755  1.00  0.00    -0.125 S 
BRANCH  19  23
ATOM     23  C   UNL A   1      34.415  23.119  23.006  1.00  0.00     0.252 C 
ATOM     24  N   UNL A   1      33.431  23.050  22.068  1.00  0.00    -0.365 N 
ATOM     25  H   UNL A   1      33.658  23.110  21.112  1.00  0.00     0.159 HD
ATOM     26  H   UNL A   1      32.493  22.940  22.346  1.00  0.00     0.159 HD
ATOM     27  O   UNL A   1      35.582  23.315  22.664  1.00  0.00    -0.269 OA
ENDBRANCH  19  23
BRANCH  20  28
ATOM     28  C   UNL A   1      33.752  20.420  24.758  1.00  0.00    -0.017 A 
ATOM     29  C   UNL A   1      34.959  19.714  24.869  1.00  0.00     0.010 A 
ATOM     30  C   UNL A   1      32.624  19.780  24.230  1.00  0.00     0.010 A 
ATOM     31  C   UNL A   1      35.035  18.382  24.455  1.00  0.00     0.021 A 
ATOM     32  C   UNL A   1      32.703  18.447  23.818  1.00  0.00     0.021 A 
ATOM     33  C   UNL A   1      33.907  17.755  23.930  1.00  0.00     0.041 A 
ATOM     34  Cl  UNL A   1      34.005  16.117  23.415  1.00  0.00    -0.084 Cl
ENDBRANCH  20  28
ENDBRANCH  15  18
ENDBRANCH   8  14
ENDBRANCH   4   7
ENDBRANCH   2   3
ENDBRANCH   1   2
BRANCH   1  35
ATOM     35  C   UNL A   1      31.355  32.150  26.795  1.00  0.00     0.023 C 
BRANCH  35  36
ATOM     36  C   UNL A   1      32.649  32.908  27.077  1.00  0.00     0.116 C 
BRANCH  36  37
ATOM     37  N   UNL A   1      32.404  34.254  27.568  1.00  0.00    -0.352 N 
ATOM     38  C   UNL A   1      33.015  34.950  28.584  1.00  0.00     0.251 C 
ATOM     39  H   UNL A   1      31.690  34.744  27.101  1.00  0.00     0.163 HD
ATOM     40  O   UNL A   1      32.541  36.024  28.949  1.00  0.00    -0.269 OA
BRANCH  38  41
ATOM     41  C   UNL A   1      34.221  34.419  29.267  1.00  0.00     0.039 A 
ATOM     42  C   UNL A   1      34.058  33.746  30.483  1.00  0.00     0.014 A 
ATOM     43  C   UNL A   1      35.506  34.611  28.753  1.00  0.00     0.014 A 
ATOM     44  C   UNL A   1      35.169  33.218  31.148  1.00  0.00     0.010 A 
ATOM     45  C   UNL A   1      36.607  34.026  29.383  1.00  0.00     0.010 A 
ATOM     46  C   UNL A   1      36.452  33.324  30.588  1.00  0.00    -0.014 A 
BRANCH  46  47
ATOM     47  C   UNL A   1      37.628  32.687  31.239  1.00  0.00     0.031 A 
ATOM     48  C   UNL A   1      38.307  31.499  30.613  1.00  0.00     0.074 A 
ATOM     49  C   UNL A   1      38.056  33.143  32.433  1.00  0.00     0.049 A 
ATOM     50  N   UNL A   1      39.318  30.794  31.059  1.00  0.00    -0.248 NA
ATOM     51  C   UNL A   1      37.766  31.025  29.330  1.00  0.00     0.031 C 
ATOM     52  C   UNL A   1      37.467  34.259  33.175  1.00  0.00     0.029 A 
ATOM     53  N   UNL A   1      39.085  32.715  33.238  1.00  0.00    -0.354 N 
ATOM     54  C   UNL A   1      39.522  29.788  30.123  1.00  0.00     0.074 A 
ATOM     55  C   UNL A   1      38.504  29.946  29.108  1.00  0.00     0.031 C 
ATOM     56  C   UNL A   1      38.156  34.443  34.313  1.00  0.00     0.029 A 
ATOM     57  C   UNL A   1      39.208  33.436  34.402  1.00  0.00     0.049 A 
ATOM     58  H   UNL A   1      39.676  31.965  33.004  1.00  0.00     0.167 HD
ATOM     59  C   UNL A   1      40.477  28.826  30.102  1.00  0.00     0.031 A 
ATOM     60  C   UNL A   1      40.066  33.300  35.430  1.00  0.00     0.031 A 
ATOM     61  C   UNL A   1      41.496  28.665  31.106  1.00  0.00     0.049 A 
ATOM     62  C   UNL A   1      41.111  32.221  35.388  1.00  0.00     0.074 A 
ATOM     63  C   UNL A   1      42.544  27.761  31.135  1.00  0.00     0.029 A 
ATOM     64  N   UNL A   1      41.590  29.421  32.265  1.00  0.00    -0.354 N 
ATOM     65  N   UNL A   1      41.338  31.327  34.457  1.00  0.00    -0.248 NA
ATOM     66  C   UNL A   1      42.026  32.143  36.535  1.00  0.00     0.031 C 
ATOM     67  C   UNL A   1      43.240  27.933  32.336  1.00  0.00     0.029 A 
ATOM     68  C   UNL A   1      42.661  28.985  33.028  1.00  0.00     0.049 A 
ATOM     69  H   UNL A   1      40.986  30.159  32.509  1.00  0.00     0.167 HD
ATOM     70  C   UNL A   1      42.435  30.596  34.894  1.00  0.00     0.074 A 
ATOM     71  C   UNL A   1      42.840  31.164  36.164  1.00  0.00     0.031 C 
ATOM     72  C   UNL A   1      43.052  29.549  34.294  1.00  0.00     0.031 A 
BRANCH  59  73
ATOM     73  C   UNL A   1      40.454  27.853  28.953  1.00  0.00    -0.014 A 
ATOM     74  C   UNL A   1      41.176  28.099  27.775  1.00  0.00     0.009 A 
ATOM     75  C   UNL A   1      39.726  26.658  29.066  1.00  0.00     0.009 A 
ATOM     76  C   UNL A   1      41.136  27.187  26.717  1.00  0.00     0.001 A 
ATOM     77  C   UNL A   1      39.713  25.734  28.020  1.00  0.00     0.001 A 
ATOM     78  C   UNL A   1      40.410  26.004  26.842  1.00  0.00     0.000 A 
ENDBRANCH  59  73
BRANCH  60  79
ATOM     79  C   UNL A   1      39.980  34.225  36.591  1.00  0.00    -0.014 A 
ATOM     80  C   UNL A   1      39.246  33.869  37.733  1.00  0.00     0.009 A 
ATOM     81  C   UNL A   1      40.635  35.466  36.564  1.00  0.00     0.009 A 
ATOM     82  C   UNL A   1      39.149  34.749  38.814  1.00  0.00     0.001 A 
ATOM     83  C   UNL A   1      40.560  36.331  37.658  1.00  0.00     0.001 A 
ATOM     84  C   UNL A   1      39.811  35.975  38.778  1.00  0.00     0.000 A 
ENDBRANCH  60  79
BRANCH  72  85
ATOM     85  C   UNL A   1      44.252  28.968  34.990  1.00  0.00    -0.014 A 
ATOM     86  C   UNL A   1      44.126  27.905  35.898  1.00  0.00     0.009 A 
ATOM     87  C   UNL A   1      45.531  29.474  34.709  1.00  0.00     0.009 A 
ATOM     88  C   UNL A   1      45.254  27.386  36.539  1.00  0.00     0.001 A 
ATOM     89  C   UNL A   1      46.660  28.933  35.327  1.00  0.00     0.001 A 
ATOM     90  C   UNL A   1      46.519  27.897  36.248  1.00  0.00     0.000 A 
ENDBRANCH  72  85
ENDBRANCH  46  47
ENDBRANCH  38  41
ENDBRANCH  36  37
ENDBRANCH  35  36
ENDBRANCH   1  35
TORSDOF 15
ENDMDL
