MODEL 1
REMARK VINA RESULT:     -12.0      0.000      0.000
REMARK SMILES Cc1cccc(NC(=O)C[C@H]([NH2+]C(C)C)C(=O)NCCCCNC(=O)c2ccc(-c3c4nc(c(-c5ccccc5)c5ccc([nH]5)c(-c5ccccc5)c5nc(c(-c6ccccc6)c6ccc3[nH]6)C=C5)C=C4)cc2)c1
REMARK SMILES IDX 20 1 19 2 18 3 16 4 17 5 11 7 10 8 8 9 7 10 9 12 6 13 1 14
REMARK SMILES IDX 2 15 3 16 74 17 4 18 5 19 12 20 13 23 14 24 15 25 21 26
REMARK SMILES IDX 22 27 23 28 24 29 25 31 26 32 27 33 73 34 28 35 72 36 29 37
REMARK SMILES IDX 30 38 31 39 66 40 32 41 71 42 65 43 67 44 33 45 70 46 64 47
REMARK SMILES IDX 63 48 34 50 56 51 41 52 55 53 42 54 45 55 54 56 68 57 43 58
REMARK SMILES IDX 44 59 53 61 69 62 46 63 35 64 36 65 40 66 37 67 39 68 38 69
REMARK SMILES IDX 57 70 58 71 62 72 59 73 61 74 60 75 47 76 48 77 52 78 49 79
REMARK SMILES IDX 51 80 50 81
REMARK H PARENT 18 6 7 11 12 21 12 22 23 30 67 49 45 60
REMARK Flexibility Score: inf
ROOT
ATOM      1  C   UNL A   1      39.612  22.690  26.963  1.00  0.00     0.023 C 
ENDROOT
BRANCH   1   2
ATOM      2  C   UNL A   1      38.256  23.587  26.210  1.00  0.00     0.116 C 
BRANCH   2   3
ATOM      3  N   UNL A   1      37.218  23.251  24.440  1.00  0.00    -0.351 N 
ATOM      4  C   UNL A   1      36.132  23.251  23.566  1.00  0.00     0.278 C 
ATOM      5  O   UNL A   1      36.471  22.997  22.392  1.00  0.00    -0.268 OA
ATOM      6  H   UNL A   1      37.919  22.845  23.879  1.00  0.00     0.163 HD
BRANCH   4   7
ATOM      7  C   UNL A   1      34.634  23.470  23.820  1.00  0.00     0.282 C 
BRANCH   7   8
ATOM      8  C   UNL A   1      34.000  24.688  23.093  1.00  0.00     0.175 C 
BRANCH   8   9
ATOM      9  C   UNL A   1      32.977  24.436  21.964  1.00  0.00     0.230 C 
ATOM     10  N   UNL A   1      31.624  24.647  22.096  1.00  0.00    -0.326 N 
ATOM     11  H   UNL A   1      31.048  24.331  21.363  1.00  0.00     0.169 HD
ATOM     12  O   UNL A   1      33.377  24.007  20.876  1.00  0.00    -0.274 OA
BRANCH  10  13
ATOM     13  C   UNL A   1      30.989  25.272  23.182  1.00  0.00     0.041 A 
ATOM     14  C   UNL A   1      31.585  29.376  24.963  1.00  0.00     0.044 C 
ATOM     15  C   UNL A   1      31.267  27.919  24.867  1.00  0.00    -0.049 A 
ATOM     16  C   UNL A   1      31.286  26.918  26.378  1.00  0.00     0.003 A 
ATOM     17  C   UNL A   1      31.166  27.077  23.253  1.00  0.00     0.029 A 
ATOM     18  C   UNL A   1      31.019  25.119  26.292  1.00  0.00     0.002 A 
ATOM     19  C   UNL A   1      30.829  24.304  24.705  1.00  0.00     0.026 A 
ENDBRANCH  10  13
ENDBRANCH   8   9
ENDBRANCH   7   8
BRANCH   7  20
ATOM     20  N   UNL A   1      34.245  23.258  25.266  1.00  0.00    -0.334 N 
ATOM     21  H   UNL A   1      33.387  23.782  25.441  1.00  0.00     0.347 HD
ATOM     22  H   UNL A   1      35.043  23.574  25.818  1.00  0.00     0.347 HD
BRANCH  20  23
ATOM     23  C   UNL A   1      34.008  21.848  25.672  1.00  0.00     0.176 C 
ATOM     24  C   UNL A   1      34.275  21.675  27.177  1.00  0.00     0.075 C 
ATOM     25  C   UNL A   1      32.693  21.192  25.276  1.00  0.00     0.075 C 
ENDBRANCH  20  23
ENDBRANCH   7  20
ENDBRANCH   4   7
ENDBRANCH   2   3
ENDBRANCH   1   2
BRANCH   1  26
ATOM     26  C   UNL A   1      40.518  21.768  26.115  1.00  0.00     0.023 C 
BRANCH  26  27
ATOM     27  C   UNL A   1      41.917  22.309  26.012  1.00  0.00     0.116 C 
BRANCH  27  28
ATOM     28  N   UNL A   1      42.847  21.515  25.252  1.00  0.00    -0.352 N 
ATOM     29  C   UNL A   1      44.127  21.867  24.871  1.00  0.00     0.251 C 
ATOM     30  H   UNL A   1      42.537  20.623  24.974  1.00  0.00     0.163 HD
ATOM     31  O   UNL A   1      44.730  21.158  24.070  1.00  0.00    -0.269 OA
BRANCH  29  32
ATOM     32  C   UNL A   1      44.847  22.961  25.589  1.00  0.00     0.039 A 
ATOM     33  C   UNL A   1      45.189  22.676  26.914  1.00  0.00     0.014 A 
ATOM     34  C   UNL A   1      44.804  24.285  25.160  1.00  0.00     0.014 A 
ATOM     35  C   UNL A   1      45.120  23.688  27.856  1.00  0.00     0.010 A 
ATOM     36  C   UNL A   1      44.572  25.262  26.090  1.00  0.00     0.010 A 
ATOM     37  C   UNL A   1      44.672  24.938  27.436  1.00  0.00    -0.014 A 
BRANCH  37  38
ATOM     38  C   UNL A   1      44.496  26.060  28.325  1.00  0.00     0.031 A 
ATOM     39  C   UNL A   1      43.110  26.524  28.402  1.00  0.00     0.074 A 
ATOM     40  C   UNL A   1      45.559  26.546  29.000  1.00  0.00     0.049 A 
ATOM     41  N   UNL A   1      42.758  27.753  28.403  1.00  0.00    -0.248 NA
ATOM     42  C   UNL A   1      41.971  25.601  28.321  1.00  0.00     0.031 C 
ATOM     43  C   UNL A   1      45.632  27.592  30.010  1.00  0.00     0.029 A 
ATOM     44  N   UNL A   1      46.896  26.285  28.695  1.00  0.00    -0.354 N 
ATOM     45  C   UNL A   1      41.419  27.763  28.728  1.00  0.00     0.074 A 
ATOM     46  C   UNL A   1      40.938  26.436  28.458  1.00  0.00     0.031 C 
ATOM     47  C   UNL A   1      46.880  28.105  30.010  1.00  0.00     0.029 A 
ATOM     48  C   UNL A   1      47.615  27.470  28.923  1.00  0.00     0.049 A 
ATOM     49  H   UNL A   1      47.266  25.429  28.378  1.00  0.00     0.167 HD
ATOM     50  C   UNL A   1      40.940  28.830  29.419  1.00  0.00     0.031 A 
ATOM     51  C   UNL A   1      48.175  28.119  27.856  1.00  0.00     0.031 A 
ATOM     52  C   UNL A   1      42.024  29.786  29.645  1.00  0.00     0.049 A 
ATOM     53  C   UNL A   1      47.459  29.419  27.565  1.00  0.00     0.074 A 
ATOM     54  C   UNL A   1      42.887  29.954  30.715  1.00  0.00     0.029 A 
ATOM     55  N   UNL A   1      42.634  30.375  28.547  1.00  0.00    -0.354 N 
ATOM     56  N   UNL A   1      46.227  29.675  27.920  1.00  0.00    -0.248 NA
ATOM     57  C   UNL A   1      48.092  30.542  26.884  1.00  0.00     0.031 C 
ATOM     58  C   UNL A   1      44.057  30.603  30.228  1.00  0.00     0.029 A 
ATOM     59  C   UNL A   1      43.889  30.849  28.876  1.00  0.00     0.049 A 
ATOM     60  H   UNL A   1      42.226  30.446  27.654  1.00  0.00     0.167 HD
ATOM     61  C   UNL A   1      45.911  30.965  27.581  1.00  0.00     0.074 A 
ATOM     62  C   UNL A   1      47.115  31.464  26.938  1.00  0.00     0.031 C 
ATOM     63  C   UNL A   1      44.694  31.524  27.863  1.00  0.00     0.031 A 
BRANCH  50  64
ATOM     64  C   UNL A   1      39.632  28.871  30.162  1.00  0.00    -0.014 A 
ATOM     65  C   UNL A   1      38.491  29.336  29.479  1.00  0.00     0.009 A 
ATOM     66  C   UNL A   1      39.440  28.499  31.503  1.00  0.00     0.009 A 
ATOM     67  C   UNL A   1      37.246  29.460  30.103  1.00  0.00     0.001 A 
ATOM     68  C   UNL A   1      38.196  28.635  32.141  1.00  0.00     0.001 A 
ATOM     69  C   UNL A   1      37.099  29.117  31.439  1.00  0.00     0.000 A 
ENDBRANCH  50  64
BRANCH  51  70
ATOM     70  C   UNL A   1      48.685  27.153  26.828  1.00  0.00    -0.014 A 
ATOM     71  C   UNL A   1      47.867  26.937  25.693  1.00  0.00     0.009 A 
ATOM     72  C   UNL A   1      50.054  26.883  26.723  1.00  0.00     0.009 A 
ATOM     73  C   UNL A   1      48.437  26.690  24.440  1.00  0.00     0.001 A 
ATOM     74  C   UNL A   1      50.611  26.589  25.470  1.00  0.00     0.001 A 
ATOM     75  C   UNL A   1      49.816  26.563  24.324  1.00  0.00     0.000 A 
ENDBRANCH  51  70
BRANCH  63  76
ATOM     76  C   UNL A   1      44.136  32.801  27.264  1.00  0.00    -0.014 A 
ATOM     77  C   UNL A   1      43.777  33.935  27.996  1.00  0.00     0.009 A 
ATOM     78  C   UNL A   1      44.065  32.930  25.854  1.00  0.00     0.009 A 
ATOM     79  C   UNL A   1      43.312  35.100  27.369  1.00  0.00     0.001 A 
ATOM     80  C   UNL A   1      43.684  34.111  25.220  1.00  0.00     0.001 A 
ATOM     81  C   UNL A   1      43.281  35.192  25.983  1.00  0.00     0.000 A 
ENDBRANCH  63  76
ENDBRANCH  37  38
ENDBRANCH  29  32
ENDBRANCH  27  28
ENDBRANCH  26  27
ENDBRANCH   1  26
TORSDOF 16
ENDMDL
MODEL 2
REMARK VINA RESULT:     -11.9      3.522      8.142
REMARK SMILES Cc1cccc(NC(=O)C[C@H]([NH2+]C(C)C)C(=O)NCCCCNC(=O)c2ccc(-c3c4nc(c(-c5ccccc5)c5ccc([nH]5)c(-c5ccccc5)c5nc(c(-c6ccccc6)c6ccc3[nH]6)C=C5)C=C4)cc2)c1
REMARK SMILES IDX 20 1 19 2 18 3 16 4 17 5 11 7 10 8 8 9 7 10 9 12 6 13 1 14
REMARK SMILES IDX 2 15 3 16 74 17 4 18 5 19 12 20 13 23 14 24 15 25 21 26
REMARK SMILES IDX 22 27 23 28 24 29 25 31 26 32 27 33 73 34 28 35 72 36 29 37
REMARK SMILES IDX 30 38 31 39 66 40 32 41 71 42 65 43 67 44 33 45 70 46 64 47
REMARK SMILES IDX 63 48 34 50 56 51 41 52 55 53 42 54 45 55 54 56 68 57 43 58
REMARK SMILES IDX 44 59 53 61 69 62 46 63 35 64 36 65 40 66 37 67 39 68 38 69
REMARK SMILES IDX 57 70 58 71 62 72 59 73 61 74 60 75 47 76 48 77 52 78 49 79
REMARK SMILES IDX 51 80 50 81
REMARK H PARENT 18 6 7 11 12 21 12 22 23 30 67 49 45 60
REMARK Flexibility Score: inf
ROOT
ATOM      1  C   UNL A   1      32.496  28.566  27.651  1.00  0.00     0.023 C 
ENDROOT
BRANCH   1   2
ATOM      2  C   UNL A   1      31.602  27.478  26.543  1.00  0.00     0.116 C 
BRANCH   2   3
ATOM      3  N   UNL A   1      31.082  25.473  26.729  1.00  0.00    -0.351 N 
ATOM      4  C   UNL A   1      31.251  24.090  26.672  1.00  0.00     0.278 C 
ATOM      5  O   UNL A   1      30.330  23.479  27.252  1.00  0.00    -0.268 OA
ATOM      6  H   UNL A   1      30.155  25.543  27.053  1.00  0.00     0.163 HD
BRANCH   4   7
ATOM      7  C   UNL A   1      32.332  23.233  25.999  1.00  0.00     0.282 C 
BRANCH   7   8
ATOM      8  C   UNL A   1      32.715  23.649  24.552  1.00  0.00     0.175 C 
BRANCH   8   9
ATOM      9  C   UNL A   1      31.707  23.398  23.410  1.00  0.00     0.230 C 
ATOM     10  N   UNL A   1      30.758  24.310  23.011  1.00  0.00    -0.326 N 
ATOM     11  H   UNL A   1      30.082  24.001  22.366  1.00  0.00     0.169 HD
ATOM     12  O   UNL A   1      31.729  22.313  22.816  1.00  0.00    -0.274 OA
BRANCH  10  13
ATOM     13  C   UNL A   1      30.665  25.644  23.442  1.00  0.00     0.041 A 
ATOM     14  C   UNL A   1      27.182  28.513  23.374  1.00  0.00     0.044 C 
ATOM     15  C   UNL A   1      28.589  28.012  23.345  1.00  0.00    -0.049 A 
ATOM     16  C   UNL A   1      29.884  29.077  22.655  1.00  0.00     0.003 A 
ATOM     17  C   UNL A   1      28.978  26.265  23.694  1.00  0.00     0.029 A 
ATOM     18  C   UNL A   1      31.589  28.461  22.493  1.00  0.00     0.002 A 
ATOM     19  C   UNL A   1      31.989  26.766  22.924  1.00  0.00     0.026 A 
ENDBRANCH  10  13
ENDBRANCH   8   9
ENDBRANCH   7   8
BRANCH   7  20
ATOM     20  N   UNL A   1      32.157  21.754  26.262  1.00  0.00    -0.334 N 
ATOM     21  H   UNL A   1      31.549  21.375  25.536  1.00  0.00     0.347 HD
ATOM     22  H   UNL A   1      31.772  21.683  27.204  1.00  0.00     0.347 HD
BRANCH  20  23
ATOM     23  C   UNL A   1      33.407  20.948  26.274  1.00  0.00     0.176 C 
ATOM     24  C   UNL A   1      33.558  20.182  24.949  1.00  0.00     0.075 C 
ATOM     25  C   UNL A   1      34.709  21.638  26.654  1.00  0.00     0.075 C 
ENDBRANCH  20  23
ENDBRANCH   7  20
ENDBRANCH   4   7
ENDBRANCH   2   3
ENDBRANCH   1   2
BRANCH   1  26
ATOM     26  C   UNL A   1      33.520  29.587  27.102  1.00  0.00     0.023 C 
BRANCH  26  27
ATOM     27  C   UNL A   1      34.882  29.381  27.702  1.00  0.00     0.116 C 
BRANCH  27  28
ATOM     28  N   UNL A   1      35.661  30.572  27.925  1.00  0.00    -0.352 N 
ATOM     29  C   UNL A   1      36.993  30.642  28.284  1.00  0.00     0.251 C 
ATOM     30  H   UNL A   1      35.193  31.430  27.808  1.00  0.00     0.163 HD
ATOM     31  O   UNL A   1      37.467  31.725  28.615  1.00  0.00    -0.269 OA
BRANCH  29  32
ATOM     32  C   UNL A   1      37.892  29.471  28.056  1.00  0.00     0.039 A 
ATOM     33  C   UNL A   1      38.074  28.638  29.164  1.00  0.00     0.014 A 
ATOM     34  C   UNL A   1      38.808  29.431  27.008  1.00  0.00     0.014 A 
ATOM     35  C   UNL A   1      39.319  28.072  29.378  1.00  0.00     0.010 A 
ATOM     36  C   UNL A   1      40.086  29.019  27.278  1.00  0.00     0.010 A 
ATOM     37  C   UNL A   1      40.342  28.396  28.491  1.00  0.00    -0.014 A 
BRANCH  37  38
ATOM     38  C   UNL A   1      41.697  27.923  28.633  1.00  0.00     0.031 A 
ATOM     39  C   UNL A   1      41.880  26.546  28.170  1.00  0.00     0.074 A 
ATOM     40  C   UNL A   1      42.642  28.751  29.125  1.00  0.00     0.049 A 
ATOM     41  N   UNL A   1      42.571  25.663  28.783  1.00  0.00    -0.248 NA
ATOM     42  C   UNL A   1      41.140  26.002  27.025  1.00  0.00     0.031 C 
ATOM     43  C   UNL A   1      44.077  28.553  29.279  1.00  0.00     0.029 A 
ATOM     44  N   UNL A   1      42.393  29.935  29.820  1.00  0.00    -0.354 N 
ATOM     45  C   UNL A   1      42.687  24.600  27.914  1.00  0.00     0.074 A 
ATOM     46  C   UNL A   1      41.629  24.762  26.953  1.00  0.00     0.031 C 
ATOM     47  C   UNL A   1      44.520  29.366  30.261  1.00  0.00     0.029 A 
ATOM     48  C   UNL A   1      43.360  30.034  30.835  1.00  0.00     0.049 A 
ATOM     49  H   UNL A   1      41.674  30.582  29.633  1.00  0.00     0.167 HD
ATOM     50  C   UNL A   1      43.817  23.850  27.973  1.00  0.00     0.031 A 
ATOM     51  C   UNL A   1      42.957  29.948  32.140  1.00  0.00     0.031 A 
ATOM     52  C   UNL A   1      44.686  24.366  29.030  1.00  0.00     0.049 A 
ATOM     53  C   UNL A   1      43.418  28.653  32.773  1.00  0.00     0.074 A 
ATOM     54  C   UNL A   1      45.735  25.270  28.992  1.00  0.00     0.029 A 
ATOM     55  N   UNL A   1      44.229  24.343  30.340  1.00  0.00    -0.354 N 
ATOM     56  N   UNL A   1      43.715  27.572  32.102  1.00  0.00    -0.248 NA
ATOM     57  C   UNL A   1      43.611  28.494  34.209  1.00  0.00     0.031 C 
ATOM     58  C   UNL A   1      45.863  25.837  30.292  1.00  0.00     0.029 A 
ATOM     59  C   UNL A   1      44.912  25.258  31.116  1.00  0.00     0.049 A 
ATOM     60  H   UNL A   1      43.514  23.753  30.671  1.00  0.00     0.167 HD
ATOM     61  C   UNL A   1      44.175  26.610  32.963  1.00  0.00     0.074 A 
ATOM     62  C   UNL A   1      44.093  27.240  34.270  1.00  0.00     0.031 C 
ATOM     63  C   UNL A   1      44.596  25.379  32.536  1.00  0.00     0.031 A 
BRANCH  50  64
ATOM     64  C   UNL A   1      44.288  22.898  26.906  1.00  0.00    -0.014 A 
ATOM     65  C   UNL A   1      43.428  21.852  26.519  1.00  0.00     0.009 A 
ATOM     66  C   UNL A   1      45.534  22.943  26.260  1.00  0.00     0.009 A 
ATOM     67  C   UNL A   1      43.799  20.889  25.576  1.00  0.00     0.001 A 
ATOM     68  C   UNL A   1      45.922  21.971  25.324  1.00  0.00     0.001 A 
ATOM     69  C   UNL A   1      45.052  20.943  24.983  1.00  0.00     0.000 A 
ENDBRANCH  50  64
BRANCH  51  70
ATOM     70  C   UNL A   1      41.621  30.597  32.350  1.00  0.00    -0.014 A 
ATOM     71  C   UNL A   1      41.432  31.873  31.769  1.00  0.00     0.009 A 
ATOM     72  C   UNL A   1      40.491  29.823  32.638  1.00  0.00     0.009 A 
ATOM     73  C   UNL A   1      40.179  32.254  31.277  1.00  0.00     0.001 A 
ATOM     74  C   UNL A   1      39.231  30.235  32.183  1.00  0.00     0.001 A 
ATOM     75  C   UNL A   1      39.088  31.410  31.445  1.00  0.00     0.000 A 
ENDBRANCH  51  70
BRANCH  63  76
ATOM     76  C   UNL A   1      44.815  24.158  33.408  1.00  0.00    -0.014 A 
ATOM     77  C   UNL A   1      43.861  23.163  33.640  1.00  0.00     0.009 A 
ATOM     78  C   UNL A   1      46.100  23.918  33.953  1.00  0.00     0.009 A 
ATOM     79  C   UNL A   1      44.150  22.035  34.420  1.00  0.00     0.001 A 
ATOM     80  C   UNL A   1      46.419  22.760  34.660  1.00  0.00     0.001 A 
ATOM     81  C   UNL A   1      45.431  21.826  34.916  1.00  0.00     0.000 A 
ENDBRANCH  63  76
ENDBRANCH  37  38
ENDBRANCH  29  32
ENDBRANCH  27  28
ENDBRANCH  26  27
ENDBRANCH   1  26
TORSDOF 16
ENDMDL
MODEL 3
REMARK VINA RESULT:     -11.7      1.741      2.279
REMARK SMILES Cc1cccc(NC(=O)C[C@H]([NH2+]C(C)C)C(=O)NCCCCNC(=O)c2ccc(-c3c4nc(c(-c5ccccc5)c5ccc([nH]5)c(-c5ccccc5)c5nc(c(-c6ccccc6)c6ccc3[nH]6)C=C5)C=C4)cc2)c1
REMARK SMILES IDX 20 1 19 2 18 3 16 4 17 5 11 7 10 8 8 9 7 10 9 12 6 13 1 14
REMARK SMILES IDX 2 15 3 16 74 17 4 18 5 19 12 20 13 23 14 24 15 25 21 26
REMARK SMILES IDX 22 27 23 28 24 29 25 31 26 32 27 33 73 34 28 35 72 36 29 37
REMARK SMILES IDX 30 38 31 39 66 40 32 41 71 42 65 43 67 44 33 45 70 46 64 47
REMARK SMILES IDX 63 48 34 50 56 51 41 52 55 53 42 54 45 55 54 56 68 57 43 58
REMARK SMILES IDX 44 59 53 61 69 62 46 63 35 64 36 65 40 66 37 67 39 68 38 69
REMARK SMILES IDX 57 70 58 71 62 72 59 73 61 74 60 75 47 76 48 77 52 78 49 79
REMARK SMILES IDX 51 80 50 81
REMARK H PARENT 18 6 7 11 12 21 12 22 23 30 67 49 45 60
REMARK Flexibility Score: inf
ROOT
ATOM      1  C   UNL A   1      38.676  24.249  26.903  1.00  0.00     0.023 C 
ENDROOT
BRANCH   1   2
ATOM      2  C   UNL A   1      37.128  23.804  26.118  1.00  0.00     0.116 C 
BRANCH   2   3
ATOM      3  N   UNL A   1      35.502  22.723  26.833  1.00  0.00    -0.351 N 
ATOM      4  C   UNL A   1      34.204  22.212  26.850  1.00  0.00     0.278 C 
ATOM      5  O   UNL A   1      34.064  21.312  27.703  1.00  0.00    -0.268 OA
ATOM      6  H   UNL A   1      35.873  22.339  27.660  1.00  0.00     0.163 HD
BRANCH   4   7
ATOM      7  C   UNL A   1      32.959  22.596  26.040  1.00  0.00     0.282 C 
BRANCH   7   8
ATOM      8  C   UNL A   1      32.330  23.975  26.387  1.00  0.00     0.175 C 
BRANCH   8   9
ATOM      9  C   UNL A   1      30.813  24.056  26.663  1.00  0.00     0.230 C 
ATOM     10  N   UNL A   1      29.999  25.052  26.177  1.00  0.00    -0.326 N 
ATOM     11  H   UNL A   1      29.076  25.083  26.519  1.00  0.00     0.169 HD
ATOM     12  O   UNL A   1      30.283  23.191  27.371  1.00  0.00    -0.274 OA
BRANCH  10  13
ATOM     13  C   UNL A   1      30.364  26.029  25.236  1.00  0.00     0.041 A 
ATOM     14  C   UNL A   1      32.398  25.628  21.228  1.00  0.00     0.044 C 
ATOM     15  C   UNL A   1      31.976  26.213  22.536  1.00  0.00    -0.049 A 
ATOM     16  C   UNL A   1      32.957  27.560  23.250  1.00  0.00     0.003 A 
ATOM     17  C   UNL A   1      30.700  25.412  23.563  1.00  0.00     0.029 A 
ATOM     18  C   UNL A   1      32.546  28.224  24.894  1.00  0.00     0.002 A 
ATOM     19  C   UNL A   1      31.228  27.491  25.868  1.00  0.00     0.026 A 
ENDBRANCH  10  13
ENDBRANCH   8   9
ENDBRANCH   7   8
BRANCH   7  20
ATOM     20  N   UNL A   1      32.004  21.439  25.844  1.00  0.00    -0.334 N 
ATOM     21  H   UNL A   1      31.054  21.809  25.864  1.00  0.00     0.347 HD
ATOM     22  H   UNL A   1      32.208  20.780  26.596  1.00  0.00     0.347 HD
BRANCH  20  23
ATOM     23  C   UNL A   1      32.168  20.674  24.580  1.00  0.00     0.176 C 
ATOM     24  C   UNL A   1      32.584  21.617  23.438  1.00  0.00     0.075 C 
ATOM     25  C   UNL A   1      33.039  19.426  24.598  1.00  0.00     0.075 C 
ENDBRANCH  20  23
ENDBRANCH   7  20
ENDBRANCH   4   7
ENDBRANCH   2   3
ENDBRANCH   1   2
BRANCH   1  26
ATOM     26  C   UNL A   1      40.027  23.797  26.300  1.00  0.00     0.023 C 
BRANCH  26  27
ATOM     27  C   UNL A   1      40.568  22.584  27.005  1.00  0.00     0.116 C 
BRANCH  27  28
ATOM     28  N   UNL A   1      41.398  21.712  26.215  1.00  0.00    -0.352 N 
ATOM     29  C   UNL A   1      42.700  21.938  25.812  1.00  0.00     0.251 C 
ATOM     30  H   UNL A   1      40.994  20.861  25.931  1.00  0.00     0.163 HD
ATOM     31  O   UNL A   1      43.212  21.184  24.990  1.00  0.00    -0.269 OA
BRANCH  29  32
ATOM     32  C   UNL A   1      43.541  22.943  26.530  1.00  0.00     0.039 A 
ATOM     33  C   UNL A   1      43.681  22.726  27.904  1.00  0.00     0.014 A 
ATOM     34  C   UNL A   1      43.803  24.204  26.003  1.00  0.00     0.014 A 
ATOM     35  C   UNL A   1      43.713  23.818  28.754  1.00  0.00     0.010 A 
ATOM     36  C   UNL A   1      43.670  25.292  26.825  1.00  0.00     0.010 A 
ATOM     37  C   UNL A   1      43.565  25.084  28.192  1.00  0.00    -0.014 A 
BRANCH  37  38
ATOM     38  C   UNL A   1      43.520  26.298  28.969  1.00  0.00     0.031 A 
ATOM     39  C   UNL A   1      42.205  26.942  28.960  1.00  0.00     0.074 A 
ATOM     40  C   UNL A   1      44.624  26.705  29.630  1.00  0.00     0.049 A 
ATOM     41  N   UNL A   1      42.016  28.200  28.838  1.00  0.00    -0.248 NA
ATOM     42  C   UNL A   1      40.957  26.169  28.928  1.00  0.00     0.031 C 
ATOM     43  C   UNL A   1      44.813  27.825  30.543  1.00  0.00     0.029 A 
ATOM     44  N   UNL A   1      45.921  26.247  29.393  1.00  0.00    -0.354 N 
ATOM     45  C   UNL A   1      40.684  28.413  29.118  1.00  0.00     0.074 A 
ATOM     46  C   UNL A   1      40.040  27.138  28.955  1.00  0.00     0.031 C 
ATOM     47  C   UNL A   1      46.118  28.170  30.535  1.00  0.00     0.029 A 
ATOM     48  C   UNL A   1      46.784  27.346  29.535  1.00  0.00     0.049 A 
ATOM     49  H   UNL A   1      46.181  25.325  29.167  1.00  0.00     0.167 HD
ATOM     50  C   UNL A   1      40.336  29.593  29.694  1.00  0.00     0.031 A 
ATOM     51  C   UNL A   1      47.445  27.814  28.431  1.00  0.00     0.031 A 
ATOM     52  C   UNL A   1      41.531  30.418  29.866  1.00  0.00     0.049 A 
ATOM     53  C   UNL A   1      46.910  29.162  28.000  1.00  0.00     0.074 A 
ATOM     54  C   UNL A   1      42.387  30.575  30.942  1.00  0.00     0.029 A 
ATOM     55  N   UNL A   1      42.234  30.818  28.738  1.00  0.00    -0.354 N 
ATOM     56  N   UNL A   1      45.716  29.607  28.291  1.00  0.00    -0.248 NA
ATOM     57  C   UNL A   1      47.698  30.124  27.239  1.00  0.00     0.031 C 
ATOM     58  C   UNL A   1      43.641  31.019  30.435  1.00  0.00     0.029 A 
ATOM     59  C   UNL A   1      43.533  31.156  29.062  1.00  0.00     0.049 A 
ATOM     60  H   UNL A   1      41.856  30.856  27.830  1.00  0.00     0.167 HD
ATOM     61  C   UNL A   1      45.578  30.889  27.826  1.00  0.00     0.074 A 
ATOM     62  C   UNL A   1      46.849  31.166  27.178  1.00  0.00     0.031 C 
ATOM     63  C   UNL A   1      44.439  31.624  28.017  1.00  0.00     0.031 A 
BRANCH  50  64
ATOM     64  C   UNL A   1      39.030  29.872  30.388  1.00  0.00    -0.014 A 
ATOM     65  C   UNL A   1      37.895  29.138  29.993  1.00  0.00     0.009 A 
ATOM     66  C   UNL A   1      38.828  30.824  31.400  1.00  0.00     0.009 A 
ATOM     67  C   UNL A   1      36.630  29.366  30.543  1.00  0.00     0.001 A 
ATOM     68  C   UNL A   1      37.558  31.070  31.948  1.00  0.00     0.001 A 
ATOM     69  C   UNL A   1      36.458  30.339  31.517  1.00  0.00     0.000 A 
ENDBRANCH  50  64
BRANCH  51  70
ATOM     70  C   UNL A   1      47.844  26.698  27.512  1.00  0.00    -0.014 A 
ATOM     71  C   UNL A   1      47.095  26.553  26.320  1.00  0.00     0.009 A 
ATOM     72  C   UNL A   1      49.141  26.173  27.551  1.00  0.00     0.009 A 
ATOM     73  C   UNL A   1      47.707  26.114  25.141  1.00  0.00     0.001 A 
ATOM     74  C   UNL A   1      49.732  25.691  26.375  1.00  0.00     0.001 A 
ATOM     75  C   UNL A   1      49.042  25.727  25.163  1.00  0.00     0.000 A 
ENDBRANCH  51  70
BRANCH  63  76
ATOM     76  C   UNL A   1      44.065  32.899  27.287  1.00  0.00    -0.014 A 
ATOM     77  C   UNL A   1      43.816  34.128  27.903  1.00  0.00     0.009 A 
ATOM     78  C   UNL A   1      44.067  32.910  25.869  1.00  0.00     0.009 A 
ATOM     79  C   UNL A   1      43.521  35.278  27.159  1.00  0.00     0.001 A 
ATOM     80  C   UNL A   1      43.858  34.067  25.121  1.00  0.00     0.001 A 
ATOM     81  C   UNL A   1      43.558  35.251  25.770  1.00  0.00     0.000 A 
ENDBRANCH  63  76
ENDBRANCH  37  38
ENDBRANCH  29  32
ENDBRANCH  27  28
ENDBRANCH  26  27
ENDBRANCH   1  26
TORSDOF 16
ENDMDL
