MODEL 1
REMARK VINA RESULT:     -11.8      0.000      0.000
REMARK SMILES Cc1c(Br)c(C)c2c(c1Br)O[C@H](C(F)(F)F)C(C(=O)NCCCCNC(=O)c1ccc(-c3c4nc(c(-c5ccccc5)c5ccc([nH]5)c(-c5ccccc5)c5nc(c(-c6ccccc6)c6ccc3[nH]6)C=C5)C=C4)cc1)=C2
REMARK SMILES IDX 23 1 22 2 21 3 20 4 18 5 19 6 17 8 1 9 2 10 3 11 9 12 4 13
REMARK SMILES IDX 5 14 8 15 10 16 6 17 7 18 11 19 76 20 12 21 13 22 14 23
REMARK SMILES IDX 15 24 16 25 24 26 25 27 26 28 27 30 28 31 29 32 75 33 30 34
REMARK SMILES IDX 74 35 31 36 32 37 33 38 68 39 34 40 73 41 67 42 69 43 35 44
REMARK SMILES IDX 72 45 66 46 65 47 36 49 58 50 43 51 57 52 44 53 47 54 56 55
REMARK SMILES IDX 70 56 45 57 46 58 55 60 71 61 48 62 37 63 38 64 42 65 39 66
REMARK SMILES IDX 41 67 40 68 59 69 60 70 64 71 61 72 63 73 62 74 49 75 50 76
REMARK SMILES IDX 54 77 51 78 53 79 52 80
REMARK H PARENT 20 7 25 29 69 48 47 59
REMARK Flexibility Score: inf
ROOT
ATOM      1  C   UNL A   1      33.229  29.321  25.743  1.00  0.00     0.023 C 
ENDROOT
BRANCH   1   2
ATOM      2  C   UNL A   1      33.805  28.324  24.736  1.00  0.00     0.023 C 
BRANCH   2   3
ATOM      3  C   UNL A   1      32.794  27.300  24.226  1.00  0.00     0.116 C 
BRANCH   3   4
ATOM      4  N   UNL A   1      31.912  26.839  25.282  1.00  0.00    -0.352 N 
ATOM      5  C   UNL A   1      31.623  25.660  25.879  1.00  0.00     0.251 C 
ATOM      6  O   UNL A   1      30.758  25.718  26.759  1.00  0.00    -0.270 OA
ATOM      7  H   UNL A   1      31.386  27.580  25.664  1.00  0.00     0.163 HD
BRANCH   5   8
ATOM      8  C   UNL A   1      32.260  24.350  25.556  1.00  0.00     0.067 C 
ATOM      9  C   UNL A   1      36.209  19.170  24.768  1.00  0.00     0.047 C 
ATOM     10  C   UNL A   1      35.583  20.522  25.021  1.00  0.00    -0.019 A 
ATOM     11  C   UNL A   1      36.340  21.674  25.348  1.00  0.00     0.025 A 
ATOM     12  C   UNL A   1      34.180  20.649  24.959  1.00  0.00     0.064 A 
ATOM     13  Br  UNL A   1      38.245  21.524  25.535  1.00  0.00    -0.050 Br
ATOM     14  C   UNL A   1      35.719  22.934  25.572  1.00  0.00    -0.026 A 
ATOM     15  C   UNL A   1      33.554  21.881  25.200  1.00  0.00     0.142 A 
ATOM     16  Br  UNL A   1      33.072  19.138  24.549  1.00  0.00    -0.046 Br
ATOM     17  C   UNL A   1      36.512  24.180  25.899  1.00  0.00     0.046 C 
ATOM     18  C   UNL A   1      34.306  23.017  25.521  1.00  0.00     0.022 A 
ATOM     19  O   UNL A   1      32.184  21.913  25.171  1.00  0.00    -0.474 OA
ATOM     20  C   UNL A   1      33.571  24.248  25.844  1.00  0.00     0.026 C 
ATOM     21  C   UNL A   1      31.558  23.193  24.917  1.00  0.00     0.314 C 
BRANCH  21  22
ATOM     22  C   UNL A   1      31.339  23.384  23.405  1.00  0.00     0.429 C 
ATOM     23  F   UNL A   1      31.544  22.218  22.744  1.00  0.00    -0.167 F 
ATOM     24  F   UNL A   1      30.074  23.771  23.114  1.00  0.00    -0.167 F 
ATOM     25  F   UNL A   1      32.167  24.308  22.871  1.00  0.00    -0.167 F 
ENDBRANCH  21  22
ENDBRANCH   5   8
ENDBRANCH   3   4
ENDBRANCH   2   3
ENDBRANCH   1   2
BRANCH   1  26
ATOM     26  C   UNL A   1      33.755  29.187  27.172  1.00  0.00     0.116 C 
BRANCH  26  27
ATOM     27  N   UNL A   1      33.755  30.435  27.922  1.00  0.00    -0.352 N 
ATOM     28  C   UNL A   1      34.785  30.976  28.655  1.00  0.00     0.251 C 
ATOM     29  H   UNL A   1      32.918  30.953  27.902  1.00  0.00     0.163 HD
ATOM     30  O   UNL A   1      34.638  32.014  29.290  1.00  0.00    -0.269 OA
BRANCH  28  31
ATOM     31  C   UNL A   1      36.062  30.244  28.703  1.00  0.00     0.039 A 
ATOM     32  C   UNL A   1      36.918  30.323  27.604  1.00  0.00     0.014 A 
ATOM     33  C   UNL A   1      36.449  29.587  29.874  1.00  0.00     0.014 A 
ATOM     34  C   UNL A   1      38.208  29.809  27.709  1.00  0.00     0.010 A 
ATOM     35  C   UNL A   1      37.755  29.127  29.996  1.00  0.00     0.010 A 
ATOM     36  C   UNL A   1      38.648  29.249  28.920  1.00  0.00    -0.014 A 
BRANCH  36  37
ATOM     37  C   UNL A   1      40.052  28.806  29.079  1.00  0.00     0.031 A 
ATOM     38  C   UNL A   1      41.061  29.718  29.709  1.00  0.00     0.074 A 
ATOM     39  C   UNL A   1      40.420  27.595  28.621  1.00  0.00     0.049 A 
ATOM     40  N   UNL A   1      42.330  29.503  29.940  1.00  0.00    -0.248 NA
ATOM     41  C   UNL A   1      40.589  31.052  30.115  1.00  0.00     0.031 C 
ATOM     42  C   UNL A   1      39.537  26.635  27.954  1.00  0.00     0.029 A 
ATOM     43  N   UNL A   1      41.635  26.960  28.657  1.00  0.00    -0.354 N 
ATOM     44  C   UNL A   1      42.809  30.672  30.513  1.00  0.00     0.074 A 
ATOM     45  C   UNL A   1      41.710  31.611  30.549  1.00  0.00     0.031 C 
ATOM     46  C   UNL A   1      40.229  25.515  27.688  1.00  0.00     0.029 A 
ATOM     47  C   UNL A   1      41.606  25.689  28.140  1.00  0.00     0.049 A 
ATOM     48  H   UNL A   1      42.451  27.377  29.019  1.00  0.00     0.167 HD
ATOM     49  C   UNL A   1      44.046  30.933  30.994  1.00  0.00     0.031 A 
ATOM     50  C   UNL A   1      42.577  24.760  28.054  1.00  0.00     0.031 A 
ATOM     51  C   UNL A   1      45.137  29.999  30.972  1.00  0.00     0.049 A 
ATOM     52  C   UNL A   1      43.947  25.079  28.580  1.00  0.00     0.074 A 
ATOM     53  C   UNL A   1      46.417  30.154  31.473  1.00  0.00     0.029 A 
ATOM     54  N   UNL A   1      45.073  28.730  30.417  1.00  0.00    -0.354 N 
ATOM     55  N   UNL A   1      44.370  26.172  29.166  1.00  0.00    -0.248 NA
ATOM     56  C   UNL A   1      44.970  24.033  28.437  1.00  0.00     0.031 C 
ATOM     57  C   UNL A   1      47.137  28.988  31.197  1.00  0.00     0.029 A 
ATOM     58  C   UNL A   1      46.295  28.096  30.552  1.00  0.00     0.049 A 
ATOM     59  H   UNL A   1      44.276  28.339  29.991  1.00  0.00     0.167 HD
ATOM     60  C   UNL A   1      45.702  25.940  29.478  1.00  0.00     0.074 A 
ATOM     61  C   UNL A   1      46.016  24.600  29.025  1.00  0.00     0.031 C 
ATOM     62  C   UNL A   1      46.587  26.764  30.090  1.00  0.00     0.031 A 
BRANCH  49  63
ATOM     63  C   UNL A   1      44.272  32.288  31.596  1.00  0.00    -0.014 A 
ATOM     64  C   UNL A   1      44.714  33.359  30.803  1.00  0.00     0.009 A 
ATOM     65  C   UNL A   1      44.030  32.502  32.960  1.00  0.00     0.009 A 
ATOM     66  C   UNL A   1      44.943  34.612  31.375  1.00  0.00     0.001 A 
ATOM     67  C   UNL A   1      44.239  33.762  33.524  1.00  0.00     0.001 A 
ATOM     68  C   UNL A   1      44.703  34.812  32.733  1.00  0.00     0.000 A 
ENDBRANCH  49  63
BRANCH  50  69
ATOM     69  C   UNL A   1      42.272  23.422  27.493  1.00  0.00    -0.014 A 
ATOM     70  C   UNL A   1      42.633  23.117  26.171  1.00  0.00     0.009 A 
ATOM     71  C   UNL A   1      41.639  22.442  28.271  1.00  0.00     0.009 A 
ATOM     72  C   UNL A   1      42.354  21.858  25.636  1.00  0.00     0.001 A 
ATOM     73  C   UNL A   1      41.376  21.178  27.737  1.00  0.00     0.001 A 
ATOM     74  C   UNL A   1      41.730  20.889  26.418  1.00  0.00     0.000 A 
ENDBRANCH  50  69
BRANCH  62  75
ATOM     75  C   UNL A   1      47.972  26.241  30.316  1.00  0.00    -0.014 A 
ATOM     76  C   UNL A   1      48.954  26.354  29.322  1.00  0.00     0.009 A 
ATOM     77  C   UNL A   1      48.317  25.695  31.561  1.00  0.00     0.009 A 
ATOM     78  C   UNL A   1      50.257  25.916  29.567  1.00  0.00     0.001 A 
ATOM     79  C   UNL A   1      49.623  25.275  31.810  1.00  0.00     0.001 A 
ATOM     80  C   UNL A   1      50.591  25.383  30.812  1.00  0.00     0.000 A 
ENDBRANCH  62  75
ENDBRANCH  36  37
ENDBRANCH  28  31
ENDBRANCH  26  27
ENDBRANCH   1  26
TORSDOF 12
ENDMDL
MODEL 2
REMARK VINA RESULT:     -11.7      2.540      7.486
REMARK SMILES Cc1c(Br)c(C)c2c(c1Br)O[C@H](C(F)(F)F)C(C(=O)NCCCCNC(=O)c1ccc(-c3c4nc(c(-c5ccccc5)c5ccc([nH]5)c(-c5ccccc5)c5nc(c(-c6ccccc6)c6ccc3[nH]6)C=C5)C=C4)cc1)=C2
REMARK SMILES IDX 23 1 22 2 21 3 20 4 18 5 19 6 17 8 1 9 2 10 3 11 9 12 4 13
REMARK SMILES IDX 5 14 8 15 10 16 6 17 7 18 11 19 76 20 12 21 13 22 14 23
REMARK SMILES IDX 15 24 16 25 24 26 25 27 26 28 27 30 28 31 29 32 75 33 30 34
REMARK SMILES IDX 74 35 31 36 32 37 33 38 68 39 34 40 73 41 67 42 69 43 35 44
REMARK SMILES IDX 72 45 66 46 65 47 36 49 58 50 43 51 57 52 44 53 47 54 56 55
REMARK SMILES IDX 70 56 45 57 46 58 55 60 71 61 48 62 37 63 38 64 42 65 39 66
REMARK SMILES IDX 41 67 40 68 59 69 60 70 64 71 61 72 63 73 62 74 49 75 50 76
REMARK SMILES IDX 54 77 51 78 53 79 52 80
REMARK H PARENT 20 7 25 29 69 48 47 59
REMARK Flexibility Score: inf
ROOT
ATOM      1  C   UNL A   1      37.770  20.616  24.982  1.00  0.00     0.023 C 
ENDROOT
BRANCH   1   2
ATOM      2  C   UNL A   1      37.226  21.953  24.475  1.00  0.00     0.023 C 
BRANCH   2   3
ATOM      3  C   UNL A   1      37.146  23.040  25.544  1.00  0.00     0.116 C 
BRANCH   3   4
ATOM      4  N   UNL A   1      36.083  22.782  26.497  1.00  0.00    -0.352 N 
ATOM      5  C   UNL A   1      34.789  23.148  26.651  1.00  0.00     0.251 C 
ATOM      6  O   UNL A   1      34.234  22.696  27.658  1.00  0.00    -0.270 OA
ATOM      7  H   UNL A   1      36.381  22.185  27.222  1.00  0.00     0.163 HD
BRANCH   5   8
ATOM      8  C   UNL A   1      34.023  24.024  25.717  1.00  0.00     0.067 C 
ATOM      9  C   UNL A   1      31.017  28.910  22.534  1.00  0.00     0.047 C 
ATOM     10  C   UNL A   1      31.724  28.005  23.517  1.00  0.00    -0.019 A 
ATOM     11  C   UNL A   1      32.040  28.400  24.840  1.00  0.00     0.025 A 
ATOM     12  C   UNL A   1      32.115  26.716  23.100  1.00  0.00     0.064 A 
ATOM     13  Br  UNL A   1      31.608  30.179  25.418  1.00  0.00    -0.050 Br
ATOM     14  C   UNL A   1      32.699  27.519  25.741  1.00  0.00    -0.026 A 
ATOM     15  C   UNL A   1      32.786  25.847  23.972  1.00  0.00     0.142 A 
ATOM     16  Br  UNL A   1      31.752  26.105  21.318  1.00  0.00    -0.046 Br
ATOM     17  C   UNL A   1      33.025  27.914  27.165  1.00  0.00     0.046 C 
ATOM     18  C   UNL A   1      33.095  26.240  25.280  1.00  0.00     0.022 A 
ATOM     19  O   UNL A   1      33.179  24.630  23.478  1.00  0.00    -0.474 OA
ATOM     20  C   UNL A   1      33.874  25.305  26.103  1.00  0.00     0.026 C 
ATOM     21  C   UNL A   1      33.399  23.567  24.436  1.00  0.00     0.314 C 
BRANCH  21  22
ATOM     22  C   UNL A   1      32.099  22.772  24.652  1.00  0.00     0.429 C 
ATOM     23  F   UNL A   1      32.363  21.445  24.750  1.00  0.00    -0.167 F 
ATOM     24  F   UNL A   1      31.467  23.121  25.798  1.00  0.00    -0.167 F 
ATOM     25  F   UNL A   1      31.212  22.938  23.646  1.00  0.00    -0.167 F 
ENDBRANCH  21  22
ENDBRANCH   5   8
ENDBRANCH   3   4
ENDBRANCH   2   3
ENDBRANCH   1   2
BRANCH   1  26
ATOM     26  C   UNL A   1      38.973  20.711  25.920  1.00  0.00     0.116 C 
BRANCH  26  27
ATOM     27  N   UNL A   1      39.936  19.630  25.761  1.00  0.00    -0.352 N 
ATOM     28  C   UNL A   1      41.279  19.650  26.051  1.00  0.00     0.251 C 
ATOM     29  H   UNL A   1      39.582  18.784  25.402  1.00  0.00     0.163 HD
ATOM     30  O   UNL A   1      41.995  18.683  25.818  1.00  0.00    -0.269 OA
BRANCH  28  31
ATOM     31  C   UNL A   1      41.851  20.889  26.604  1.00  0.00     0.039 A 
ATOM     32  C   UNL A   1      42.287  21.876  25.721  1.00  0.00     0.014 A 
ATOM     33  C   UNL A   1      41.845  21.107  27.985  1.00  0.00     0.014 A 
ATOM     34  C   UNL A   1      42.641  23.127  26.220  1.00  0.00     0.010 A 
ATOM     35  C   UNL A   1      42.143  22.373  28.475  1.00  0.00     0.010 A 
ATOM     36  C   UNL A   1      42.528  23.396  27.595  1.00  0.00    -0.014 A 
BRANCH  36  37
ATOM     37  C   UNL A   1      42.790  24.755  28.121  1.00  0.00     0.031 A 
ATOM     38  C   UNL A   1      44.187  25.173  28.465  1.00  0.00     0.074 A 
ATOM     39  C   UNL A   1      41.757  25.597  28.320  1.00  0.00     0.049 A 
ATOM     40  N   UNL A   1      44.610  26.321  28.928  1.00  0.00    -0.248 NA
ATOM     41  C   UNL A   1      45.245  24.166  28.285  1.00  0.00     0.031 C 
ATOM     42  C   UNL A   1      40.349  25.290  28.060  1.00  0.00     0.029 A 
ATOM     43  N   UNL A   1      41.738  26.889  28.779  1.00  0.00    -0.354 N 
ATOM     44  C   UNL A   1      45.979  26.173  29.097  1.00  0.00     0.074 A 
ATOM     45  C   UNL A   1      46.309  24.812  28.738  1.00  0.00     0.031 C 
ATOM     46  C   UNL A   1      39.608  26.381  28.318  1.00  0.00     0.029 A 
ATOM     47  C   UNL A   1      40.485  27.450  28.785  1.00  0.00     0.049 A 
ATOM     48  H   UNL A   1      42.545  27.368  29.076  1.00  0.00     0.167 HD
ATOM     49  C   UNL A   1      46.886  27.097  29.490  1.00  0.00     0.031 A 
ATOM     50  C   UNL A   1      40.088  28.694  29.115  1.00  0.00     0.031 A 
ATOM     51  C   UNL A   1      46.564  28.453  29.836  1.00  0.00     0.049 A 
ATOM     52  C   UNL A   1      41.112  29.696  29.563  1.00  0.00     0.074 A 
ATOM     53  C   UNL A   1      47.418  29.477  30.205  1.00  0.00     0.029 A 
ATOM     54  N   UNL A   1      45.280  28.974  29.852  1.00  0.00    -0.354 N 
ATOM     55  N   UNL A   1      42.410  29.556  29.670  1.00  0.00    -0.248 NA
ATOM     56  C   UNL A   1      40.614  31.030  29.932  1.00  0.00     0.031 C 
ATOM     57  C   UNL A   1      46.647  30.612  30.472  1.00  0.00     0.029 A 
ATOM     58  C   UNL A   1      45.316  30.303  30.238  1.00  0.00     0.049 A 
ATOM     59  H   UNL A   1      44.463  28.475  29.624  1.00  0.00     0.167 HD
ATOM     60  C   UNL A   1      42.888  30.786  30.099  1.00  0.00     0.074 A 
ATOM     61  C   UNL A   1      41.742  31.664  30.226  1.00  0.00     0.031 C 
ATOM     62  C   UNL A   1      44.165  31.156  30.363  1.00  0.00     0.031 A 
BRANCH  49  63
ATOM     63  C   UNL A   1      48.320  26.660  29.552  1.00  0.00    -0.014 A 
ATOM     64  C   UNL A   1      48.842  26.082  30.720  1.00  0.00     0.009 A 
ATOM     65  C   UNL A   1      49.152  26.814  28.435  1.00  0.00     0.009 A 
ATOM     66  C   UNL A   1      50.183  25.699  30.778  1.00  0.00     0.001 A 
ATOM     67  C   UNL A   1      50.487  26.409  28.489  1.00  0.00     0.001 A 
ATOM     68  C   UNL A   1      51.002  25.860  29.663  1.00  0.00     0.000 A 
ENDBRANCH  49  63
BRANCH  50  69
ATOM     69  C   UNL A   1      38.661  29.073  28.982  1.00  0.00    -0.014 A 
ATOM     70  C   UNL A   1      37.811  29.007  30.097  1.00  0.00     0.009 A 
ATOM     71  C   UNL A   1      38.145  29.518  27.756  1.00  0.00     0.009 A 
ATOM     72  C   UNL A   1      36.467  29.367  29.983  1.00  0.00     0.001 A 
ATOM     73  C   UNL A   1      36.803  29.893  27.649  1.00  0.00     0.001 A 
ATOM     74  C   UNL A   1      35.965  29.813  28.762  1.00  0.00     0.000 A 
ENDBRANCH  50  69
BRANCH  62  75
ATOM     75  C   UNL A   1      44.395  32.571  30.801  1.00  0.00    -0.014 A 
ATOM     76  C   UNL A   1      44.586  33.592  29.860  1.00  0.00     0.009 A 
ATOM     77  C   UNL A   1      44.347  32.895  32.165  1.00  0.00     0.009 A 
ATOM     78  C   UNL A   1      44.740  34.915  30.279  1.00  0.00     0.001 A 
ATOM     79  C   UNL A   1      44.482  34.220  32.580  1.00  0.00     0.001 A 
ATOM     80  C   UNL A   1      44.682  35.227  31.637  1.00  0.00     0.000 A 
ENDBRANCH  62  75
ENDBRANCH  36  37
ENDBRANCH  28  31
ENDBRANCH  26  27
ENDBRANCH   1  26
TORSDOF 12
ENDMDL
MODEL 3
REMARK VINA RESULT:     -11.6      0.325      5.903
REMARK SMILES Cc1c(Br)c(C)c2c(c1Br)O[C@H](C(F)(F)F)C(C(=O)NCCCCNC(=O)c1ccc(-c3c4nc(c(-c5ccccc5)c5ccc([nH]5)c(-c5ccccc5)c5nc(c(-c6ccccc6)c6ccc3[nH]6)C=C5)C=C4)cc1)=C2
REMARK SMILES IDX 23 1 22 2 21 3 20 4 18 5 19 6 17 8 1 9 2 10 3 11 9 12 4 13
REMARK SMILES IDX 5 14 8 15 10 16 6 17 7 18 11 19 76 20 12 21 13 22 14 23
REMARK SMILES IDX 15 24 16 25 24 26 25 27 26 28 27 30 28 31 29 32 75 33 30 34
REMARK SMILES IDX 74 35 31 36 32 37 33 38 68 39 34 40 73 41 67 42 69 43 35 44
REMARK SMILES IDX 72 45 66 46 65 47 36 49 58 50 43 51 57 52 44 53 47 54 56 55
REMARK SMILES IDX 70 56 45 57 46 58 55 60 71 61 48 62 37 63 38 64 42 65 39 66
REMARK SMILES IDX 41 67 40 68 59 69 60 70 64 71 61 72 63 73 62 74 49 75 50 76
REMARK SMILES IDX 54 77 51 78 53 79 52 80
REMARK H PARENT 20 7 25 29 69 48 47 59
REMARK Flexibility Score: inf
ROOT
ATOM      1  C   UNL A   1      33.165  29.306  25.776  1.00  0.00     0.023 C 
ENDROOT
BRANCH   1   2
ATOM      2  C   UNL A   1      33.702  28.483  24.604  1.00  0.00     0.023 C 
BRANCH   2   3
ATOM      3  C   UNL A   1      32.806  27.315  24.201  1.00  0.00     0.116 C 
BRANCH   3   4
ATOM      4  N   UNL A   1      31.938  26.900  25.288  1.00  0.00    -0.352 N 
ATOM      5  C   UNL A   1      31.613  25.738  25.899  1.00  0.00     0.251 C 
ATOM      6  O   UNL A   1      30.781  25.839  26.807  1.00  0.00    -0.270 OA
ATOM      7  H   UNL A   1      31.460  27.666  25.683  1.00  0.00     0.163 HD
BRANCH   5   8
ATOM      8  C   UNL A   1      32.176  24.398  25.561  1.00  0.00     0.067 C 
ATOM      9  C   UNL A   1      35.838  19.026  24.685  1.00  0.00     0.047 C 
ATOM     10  C   UNL A   1      35.288  20.407  24.953  1.00  0.00    -0.019 A 
ATOM     11  C   UNL A   1      36.109  21.518  25.267  1.00  0.00     0.025 A 
ATOM     12  C   UNL A   1      33.892  20.605  24.919  1.00  0.00     0.064 A 
ATOM     13  Br  UNL A   1      38.007  21.270  25.415  1.00  0.00    -0.050 Br
ATOM     14  C   UNL A   1      35.557  22.807  25.505  1.00  0.00    -0.026 A 
ATOM     15  C   UNL A   1      33.334  21.867  25.175  1.00  0.00     0.142 A 
ATOM     16  Br  UNL A   1      32.700  19.154  24.529  1.00  0.00    -0.046 Br
ATOM     17  C   UNL A   1      36.419  24.010  25.818  1.00  0.00     0.046 C 
ATOM     18  C   UNL A   1      34.149  22.963  25.482  1.00  0.00     0.022 A 
ATOM     19  O   UNL A   1      31.968  21.968  25.174  1.00  0.00    -0.474 OA
ATOM     20  C   UNL A   1      33.485  24.229  25.822  1.00  0.00     0.026 C 
ATOM     21  C   UNL A   1      31.403  23.280  24.935  1.00  0.00     0.314 C 
BRANCH  21  22
ATOM     22  C   UNL A   1      31.163  23.486  23.428  1.00  0.00     0.429 C 
ATOM     23  F   UNL A   1      32.148  24.248  22.890  1.00  0.00    -0.167 F 
ATOM     24  F   UNL A   1      31.166  22.319  22.743  1.00  0.00    -0.167 F 
ATOM     25  F   UNL A   1      29.986  24.096  23.165  1.00  0.00    -0.167 F 
ENDBRANCH  21  22
ENDBRANCH   5   8
ENDBRANCH   3   4
ENDBRANCH   2   3
ENDBRANCH   1   2
BRANCH   1  26
ATOM     26  C   UNL A   1      33.986  29.228  27.063  1.00  0.00     0.116 C 
BRANCH  26  27
ATOM     27  N   UNL A   1      33.921  30.432  27.881  1.00  0.00    -0.352 N 
ATOM     28  C   UNL A   1      34.899  30.947  28.698  1.00  0.00     0.251 C 
ATOM     29  H   UNL A   1      33.076  30.936  27.844  1.00  0.00     0.163 HD
ATOM     30  O   UNL A   1      34.698  31.945  29.381  1.00  0.00    -0.269 OA
BRANCH  28  31
ATOM     31  C   UNL A   1      36.186  30.235  28.774  1.00  0.00     0.039 A 
ATOM     32  C   UNL A   1      37.067  30.331  27.696  1.00  0.00     0.014 A 
ATOM     33  C   UNL A   1      36.556  29.581  29.952  1.00  0.00     0.014 A 
ATOM     34  C   UNL A   1      38.362  29.837  27.831  1.00  0.00     0.010 A 
ATOM     35  C   UNL A   1      37.865  29.141  30.105  1.00  0.00     0.010 A 
ATOM     36  C   UNL A   1      38.781  29.280  29.051  1.00  0.00    -0.014 A 
BRANCH  36  37
ATOM     37  C   UNL A   1      40.188  28.859  29.243  1.00  0.00     0.031 A 
ATOM     38  C   UNL A   1      40.629  27.491  28.820  1.00  0.00     0.074 A 
ATOM     39  C   UNL A   1      41.055  29.703  29.834  1.00  0.00     0.049 A 
ATOM     40  N   UNL A   1      41.817  26.951  28.899  1.00  0.00    -0.248 NA
ATOM     41  C   UNL A   1      39.599  26.608  28.250  1.00  0.00     0.031 C 
ATOM     42  C   UNL A   1      40.734  31.045  30.325  1.00  0.00     0.029 A 
ATOM     43  N   UNL A   1      42.391  29.557  30.112  1.00  0.00    -0.354 N 
ATOM     44  C   UNL A   1      41.677  25.666  28.394  1.00  0.00     0.074 A 
ATOM     45  C   UNL A   1      40.282  25.488  28.059  1.00  0.00     0.031 C 
ATOM     46  C   UNL A   1      41.854  31.617  30.800  1.00  0.00     0.029 A 
ATOM     47  C   UNL A   1      42.960  30.675  30.671  1.00  0.00     0.049 A 
ATOM     48  H   UNL A   1      42.893  28.731  29.928  1.00  0.00     0.167 HD
ATOM     49  C   UNL A   1      42.631  24.725  28.200  1.00  0.00     0.031 A 
ATOM     50  C   UNL A   1      44.236  30.918  31.025  1.00  0.00     0.031 A 
ATOM     51  C   UNL A   1      44.020  24.902  28.521  1.00  0.00     0.049 A 
ATOM     52  C   UNL A   1      45.273  29.853  30.814  1.00  0.00     0.074 A 
ATOM     53  C   UNL A   1      45.070  24.024  28.322  1.00  0.00     0.029 A 
ATOM     54  N   UNL A   1      44.551  26.039  29.108  1.00  0.00    -0.354 N 
ATOM     55  N   UNL A   1      45.134  28.661  30.289  1.00  0.00    -0.248 NA
ATOM     56  C   UNL A   1      46.644  30.171  31.242  1.00  0.00     0.031 C 
ATOM     57  C   UNL A   1      46.235  24.620  28.815  1.00  0.00     0.029 A 
ATOM     58  C   UNL A   1      45.913  25.881  29.291  1.00  0.00     0.049 A 
ATOM     59  H   UNL A   1      44.036  26.840  29.357  1.00  0.00     0.167 HD
ATOM     60  C   UNL A   1      46.400  28.092  30.304  1.00  0.00     0.074 A 
ATOM     61  C   UNL A   1      47.296  29.072  30.884  1.00  0.00     0.031 C 
ATOM     62  C   UNL A   1      46.785  26.866  29.874  1.00  0.00     0.031 A 
BRANCH  49  63
ATOM     63  C   UNL A   1      42.190  23.423  27.600  1.00  0.00    -0.014 A 
ATOM     64  C   UNL A   1      41.597  22.431  28.398  1.00  0.00     0.009 A 
ATOM     65  C   UNL A   1      42.357  23.188  26.228  1.00  0.00     0.009 A 
ATOM     66  C   UNL A   1      41.211  21.213  27.837  1.00  0.00     0.001 A 
ATOM     67  C   UNL A   1      41.949  21.977  25.667  1.00  0.00     0.001 A 
ATOM     68  C   UNL A   1      41.385  20.989  26.472  1.00  0.00     0.000 A 
ENDBRANCH  49  63
BRANCH  50  69
ATOM     69  C   UNL A   1      44.611  32.246  31.566  1.00  0.00    -0.014 A 
ATOM     70  C   UNL A   1      45.000  33.275  30.693  1.00  0.00     0.009 A 
ATOM     71  C   UNL A   1      44.568  32.502  32.944  1.00  0.00     0.009 A 
ATOM     72  C   UNL A   1      45.350  34.530  31.192  1.00  0.00     0.001 A 
ATOM     73  C   UNL A   1      44.903  33.765  33.439  1.00  0.00     0.001 A 
ATOM     74  C   UNL A   1      45.298  34.776  32.563  1.00  0.00     0.000 A 
ENDBRANCH  50  69
BRANCH  62  75
ATOM     75  C   UNL A   1      48.237  26.518  30.000  1.00  0.00    -0.014 A 
ATOM     76  C   UNL A   1      48.718  25.844  31.132  1.00  0.00     0.009 A 
ATOM     77  C   UNL A   1      49.117  26.803  28.946  1.00  0.00     0.009 A 
ATOM     78  C   UNL A   1      50.062  25.473  31.211  1.00  0.00     0.001 A 
ATOM     79  C   UNL A   1      50.455  26.414  29.019  1.00  0.00     0.001 A 
ATOM     80  C   UNL A   1      50.926  25.753  30.153  1.00  0.00     0.000 A 
ENDBRANCH  62  75
ENDBRANCH  36  37
ENDBRANCH  28  31
ENDBRANCH  26  27
ENDBRANCH   1  26
TORSDOF 12
ENDMDL
