MODEL 1
REMARK VINA RESULT:     -12.5      0.000      0.000
REMARK SMILES O=C(NCCCCNC(=O)[C@@H]1[C@@H](C(=O)NCc2ccccc2OCc2ccccc2)[C@@H]2C=C[C@H]1C2)c1ccc(-c2c3nc(c(-c4ccccc4)c4ccc([nH]4)c(-c4ccccc4)c4nc(c(-c5ccccc5)c5ccc2[nH]5)C=C4)C=C3)cc1
REMARK SMILES IDX 8 1 9 2 10 3 7 5 6 6 5 7 4 8 3 9 1 10 2 11 36 13 37 14 83 15
REMARK SMILES IDX 38 16 82 17 39 18 40 19 41 20 76 21 42 22 81 23 75 24 77 25
REMARK SMILES IDX 43 26 80 27 74 28 73 29 44 31 66 32 51 33 65 34 52 35 55 36
REMARK SMILES IDX 64 37 78 38 53 39 54 40 63 42 79 43 56 44 45 45 46 46 50 47
REMARK SMILES IDX 47 48 49 49 48 50 67 51 68 52 72 53 69 54 71 55 70 56 57 57
REMARK SMILES IDX 58 58 62 59 59 60 61 61 60 62 11 63 12 64 34 65 31 66 33 67
REMARK SMILES IDX 35 68 32 69 13 70 14 71 15 72 16 74 17 75 18 76 22 77 19 78
REMARK SMILES IDX 21 79 20 80 23 81 24 82 25 83 26 84 30 85 27 86 29 87 28 88
REMARK H PARENT 8 4 3 12 77 30 55 41 15 73
REMARK Flexibility Score: inf
ROOT
ATOM      1  N   UNL A   1      34.647  20.613  25.246  1.00  0.00    -0.356 N 
ATOM      2  C   UNL A   1      33.413  21.193  25.143  1.00  0.00     0.224 C 
ATOM      3  O   UNL A   1      32.448  20.487  24.871  1.00  0.00    -0.275 OA
ATOM      4  H   UNL A   1      34.710  19.684  24.926  1.00  0.00     0.163 HD
ENDROOT
BRANCH   1   5
ATOM      5  C   UNL A   1      35.877  21.186  25.767  1.00  0.00     0.116 C 
BRANCH   5   6
ATOM      6  C   UNL A   1      36.984  21.120  24.722  1.00  0.00     0.023 C 
BRANCH   6   7
ATOM      7  C   UNL A   1      37.979  19.987  24.957  1.00  0.00     0.023 C 
BRANCH   7   8
ATOM      8  C   UNL A   1      39.165  20.379  25.825  1.00  0.00     0.116 C 
BRANCH   8   9
ATOM      9  N   UNL A   1      40.204  19.360  25.825  1.00  0.00    -0.352 N 
ATOM     10  O   UNL A   1      42.351  18.642  25.857  1.00  0.00    -0.269 OA
ATOM     11  C   UNL A   1      41.549  19.532  26.066  1.00  0.00     0.251 C 
ATOM     12  H   UNL A   1      39.911  18.441  25.628  1.00  0.00     0.163 HD
BRANCH  11  13
ATOM     13  C   UNL A   1      41.988  20.848  26.570  1.00  0.00     0.039 A 
ATOM     14  C   UNL A   1      41.943  21.106  27.943  1.00  0.00     0.014 A 
ATOM     15  C   UNL A   1      42.359  21.843  25.665  1.00  0.00     0.014 A 
ATOM     16  C   UNL A   1      42.138  22.401  28.399  1.00  0.00     0.010 A 
ATOM     17  C   UNL A   1      42.646  23.124  26.139  1.00  0.00     0.010 A 
ATOM     18  C   UNL A   1      42.514  23.418  27.506  1.00  0.00    -0.014 A 
BRANCH  18  19
ATOM     19  C   UNL A   1      42.849  24.756  28.045  1.00  0.00     0.031 A 
ATOM     20  C   UNL A   1      44.263  25.147  28.366  1.00  0.00     0.074 A 
ATOM     21  C   UNL A   1      41.843  25.634  28.223  1.00  0.00     0.049 A 
ATOM     22  N   UNL A   1      44.710  26.283  28.837  1.00  0.00    -0.248 NA
ATOM     23  C   UNL A   1      45.308  24.137  28.139  1.00  0.00     0.031 C 
ATOM     24  C   UNL A   1      40.428  25.360  27.950  1.00  0.00     0.029 A 
ATOM     25  N   UNL A   1      41.851  26.934  28.652  1.00  0.00    -0.354 N 
ATOM     26  C   UNL A   1      46.082  26.119  28.988  1.00  0.00     0.074 A 
ATOM     27  C   UNL A   1      46.392  24.768  28.573  1.00  0.00     0.031 C 
ATOM     28  C   UNL A   1      39.715  26.473  28.167  1.00  0.00     0.029 A 
ATOM     29  C   UNL A   1      40.606  27.512  28.665  1.00  0.00     0.049 A 
ATOM     30  H   UNL A   1      42.670  27.408  28.926  1.00  0.00     0.167 HD
ATOM     31  C   UNL A   1      46.994  27.016  29.433  1.00  0.00     0.031 A 
ATOM     32  C   UNL A   1      40.213  28.737  29.055  1.00  0.00     0.031 A 
ATOM     33  C   UNL A   1      46.677  28.361  29.842  1.00  0.00     0.049 A 
ATOM     34  C   UNL A   1      41.243  29.698  29.565  1.00  0.00     0.074 A 
ATOM     35  C   UNL A   1      47.537  29.356  30.275  1.00  0.00     0.029 A 
ATOM     36  N   UNL A   1      45.399  28.898  29.872  1.00  0.00    -0.354 N 
ATOM     37  N   UNL A   1      42.539  29.535  29.674  1.00  0.00    -0.248 NA
ATOM     38  C   UNL A   1      40.755  31.011  30.005  1.00  0.00     0.031 C 
ATOM     39  C   UNL A   1      46.773  30.477  30.617  1.00  0.00     0.029 A 
ATOM     40  C   UNL A   1      45.444  30.201  30.343  1.00  0.00     0.049 A 
ATOM     41  H   UNL A   1      44.581  28.425  29.600  1.00  0.00     0.167 HD
ATOM     42  C   UNL A   1      43.026  30.729  30.185  1.00  0.00     0.074 A 
ATOM     43  C   UNL A   1      41.888  31.614  30.339  1.00  0.00     0.031 C 
ATOM     44  C   UNL A   1      44.300  31.062  30.502  1.00  0.00     0.031 A 
BRANCH  31  45
ATOM     45  C   UNL A   1      48.426  26.567  29.535  1.00  0.00    -0.014 A 
ATOM     46  C   UNL A   1      49.342  26.797  28.497  1.00  0.00     0.009 A 
ATOM     47  C   UNL A   1      48.878  25.953  30.714  1.00  0.00     0.009 A 
ATOM     48  C   UNL A   1      50.675  26.397  28.628  1.00  0.00     0.001 A 
ATOM     49  C   UNL A   1      50.216  25.578  30.853  1.00  0.00     0.001 A 
ATOM     50  C   UNL A   1      51.112  25.794  29.807  1.00  0.00     0.000 A 
ENDBRANCH  31  45
BRANCH  32  51
ATOM     51  C   UNL A   1      38.776  29.100  28.995  1.00  0.00    -0.014 A 
ATOM     52  C   UNL A   1      37.952  28.950  30.119  1.00  0.00     0.009 A 
ATOM     53  C   UNL A   1      38.229  29.632  27.816  1.00  0.00     0.009 A 
ATOM     54  C   UNL A   1      36.604  29.308  30.057  1.00  0.00     0.001 A 
ATOM     55  C   UNL A   1      36.890  30.019  27.766  1.00  0.00     0.001 A 
ATOM     56  C   UNL A   1      36.076  29.848  28.884  1.00  0.00     0.000 A 
ENDBRANCH  32  51
BRANCH  44  57
ATOM     57  C   UNL A   1      44.527  32.451  31.024  1.00  0.00    -0.014 A 
ATOM     58  C   UNL A   1      44.746  33.528  30.152  1.00  0.00     0.009 A 
ATOM     59  C   UNL A   1      44.500  32.686  32.408  1.00  0.00     0.009 A 
ATOM     60  C   UNL A   1      44.971  34.810  30.659  1.00  0.00     0.001 A 
ATOM     61  C   UNL A   1      44.696  33.973  32.909  1.00  0.00     0.001 A 
ATOM     62  C   UNL A   1      44.942  35.031  32.035  1.00  0.00     0.000 A 
ENDBRANCH  44  57
ENDBRANCH  18  19
ENDBRANCH  11  13
ENDBRANCH   8   9
ENDBRANCH   7   8
ENDBRANCH   6   7
ENDBRANCH   5   6
ENDBRANCH   1   5
BRANCH   2  63
ATOM     63  C   UNL A   1      33.351  22.693  25.334  1.00  0.00     0.098 C 
ATOM     64  C   UNL A   1      31.943  23.336  25.269  1.00  0.00     0.098 C 
ATOM     65  C   UNL A   1      34.093  23.362  24.135  1.00  0.00     0.025 C 
ATOM     66  C   UNL A   1      32.086  24.342  24.093  1.00  0.00     0.025 C 
ATOM     67  C   UNL A   1      33.440  22.984  22.822  1.00  0.00    -0.027 C 
ATOM     68  C   UNL A   1      33.544  24.770  24.225  1.00  0.00     0.017 C 
ATOM     69  C   UNL A   1      32.231  23.566  22.802  1.00  0.00    -0.027 C 
BRANCH  64  70
ATOM     70  C   UNL A   1      31.333  24.043  26.489  1.00  0.00     0.224 C 
ATOM     71  O   UNL A   1      31.388  23.446  27.577  1.00  0.00    -0.275 OA
ATOM     72  N   UNL A   1      30.629  25.198  26.524  1.00  0.00    -0.352 N 
ATOM     73  H   UNL A   1      30.107  25.287  27.355  1.00  0.00     0.163 HD
BRANCH  72  74
ATOM     74  C   UNL A   1      30.448  26.340  25.645  1.00  0.00     0.155 C 
BRANCH  74  75
ATOM     75  C   UNL A   1      31.437  27.485  25.819  1.00  0.00     0.013 A 
ATOM     76  C   UNL A   1      31.889  27.793  27.116  1.00  0.00     0.009 A 
ATOM     77  C   UNL A   1      32.108  28.099  24.746  1.00  0.00     0.124 A 
ATOM     78  C   UNL A   1      32.943  28.691  27.324  1.00  0.00     0.001 A 
ATOM     79  C   UNL A   1      33.123  29.041  24.949  1.00  0.00     0.047 A 
ATOM     80  C   UNL A   1      33.552  29.324  26.243  1.00  0.00     0.004 A 
BRANCH  77  81
ATOM     81  O   UNL A   1      31.748  27.772  23.484  1.00  0.00    -0.489 OA
BRANCH  81  82
ATOM     82  C   UNL A   1      30.991  28.719  22.720  1.00  0.00     0.265 C 
BRANCH  82  83
ATOM     83  C   UNL A   1      29.765  29.524  23.172  1.00  0.00    -0.011 A 
ATOM     84  C   UNL A   1      29.759  30.814  23.720  1.00  0.00     0.007 A 
ATOM     85  C   UNL A   1      28.513  28.972  22.838  1.00  0.00     0.007 A 
ATOM     86  C   UNL A   1      28.578  31.550  23.861  1.00  0.00     0.000 A 
ATOM     87  C   UNL A   1      27.329  29.700  22.982  1.00  0.00     0.000 A 
ATOM     88  C   UNL A   1      27.364  30.999  23.478  1.00  0.00     0.000 A 
ENDBRANCH  82  83
ENDBRANCH  81  82
ENDBRANCH  77  81
ENDBRANCH  74  75
ENDBRANCH  72  74
ENDBRANCH  64  70
ENDBRANCH   2  63
TORSDOF 17
ENDMDL
MODEL 2
REMARK VINA RESULT:     -12.4      0.656      5.676
REMARK SMILES O=C(NCCCCNC(=O)[C@@H]1[C@@H](C(=O)NCc2ccccc2OCc2ccccc2)[C@@H]2C=C[C@H]1C2)c1ccc(-c2c3nc(c(-c4ccccc4)c4ccc([nH]4)c(-c4ccccc4)c4nc(c(-c5ccccc5)c5ccc2[nH]5)C=C4)C=C3)cc1
REMARK SMILES IDX 8 1 9 2 10 3 7 5 6 6 5 7 4 8 3 9 1 10 2 11 36 13 37 14 83 15
REMARK SMILES IDX 38 16 82 17 39 18 40 19 41 20 76 21 42 22 81 23 75 24 77 25
REMARK SMILES IDX 43 26 80 27 74 28 73 29 44 31 66 32 51 33 65 34 52 35 55 36
REMARK SMILES IDX 64 37 78 38 53 39 54 40 63 42 79 43 56 44 45 45 46 46 50 47
REMARK SMILES IDX 47 48 49 49 48 50 67 51 68 52 72 53 69 54 71 55 70 56 57 57
REMARK SMILES IDX 58 58 62 59 59 60 61 61 60 62 11 63 12 64 34 65 31 66 33 67
REMARK SMILES IDX 35 68 32 69 13 70 14 71 15 72 16 74 17 75 18 76 22 77 19 78
REMARK SMILES IDX 21 79 20 80 23 81 24 82 25 83 26 84 30 85 27 86 29 87 28 88
REMARK H PARENT 8 4 3 12 77 30 55 41 15 73
REMARK Flexibility Score: inf
ROOT
ATOM      1  N   UNL A   1      34.465  20.425  25.333  1.00  0.00    -0.356 N 
ATOM      2  C   UNL A   1      33.199  20.929  25.220  1.00  0.00     0.224 C 
ATOM      3  O   UNL A   1      32.266  20.154  25.042  1.00  0.00    -0.275 OA
ATOM      4  H   UNL A   1      34.569  19.475  25.092  1.00  0.00     0.163 HD
ENDROOT
BRANCH   1   5
ATOM      5  C   UNL A   1      35.676  21.104  25.762  1.00  0.00     0.116 C 
BRANCH   5   6
ATOM      6  C   UNL A   1      36.752  21.012  24.687  1.00  0.00     0.023 C 
BRANCH   6   7
ATOM      7  C   UNL A   1      37.775  19.908  24.939  1.00  0.00     0.023 C 
BRANCH   7   8
ATOM      8  C   UNL A   1      38.999  20.368  25.715  1.00  0.00     0.116 C 
BRANCH   8   9
ATOM      9  N   UNL A   1      40.026  19.339  25.777  1.00  0.00    -0.352 N 
ATOM     10  O   UNL A   1      42.162  18.600  25.921  1.00  0.00    -0.269 OA
ATOM     11  C   UNL A   1      41.360  19.501  26.080  1.00  0.00     0.251 C 
ATOM     12  H   UNL A   1      39.734  18.420  25.579  1.00  0.00     0.163 HD
BRANCH  11  13
ATOM     13  C   UNL A   1      41.789  20.820  26.587  1.00  0.00     0.039 A 
ATOM     14  C   UNL A   1      41.663  21.104  27.949  1.00  0.00     0.014 A 
ATOM     15  C   UNL A   1      42.231  21.791  25.688  1.00  0.00     0.014 A 
ATOM     16  C   UNL A   1      41.850  22.404  28.393  1.00  0.00     0.010 A 
ATOM     17  C   UNL A   1      42.509  23.077  26.156  1.00  0.00     0.010 A 
ATOM     18  C   UNL A   1      42.298  23.398  27.507  1.00  0.00    -0.014 A 
BRANCH  18  19
ATOM     19  C   UNL A   1      42.620  24.742  28.041  1.00  0.00     0.031 A 
ATOM     20  C   UNL A   1      41.559  25.780  28.261  1.00  0.00     0.074 A 
ATOM     21  C   UNL A   1      43.905  25.005  28.349  1.00  0.00     0.049 A 
ATOM     22  N   UNL A   1      41.689  26.997  28.728  1.00  0.00    -0.248 NA
ATOM     23  C   UNL A   1      40.178  25.416  27.907  1.00  0.00     0.031 C 
ATOM     24  C   UNL A   1      45.022  24.072  28.171  1.00  0.00     0.029 A 
ATOM     25  N   UNL A   1      44.488  26.118  28.893  1.00  0.00    -0.354 N 
ATOM     26  C   UNL A   1      40.416  27.553  28.701  1.00  0.00     0.074 A 
ATOM     27  C   UNL A   1      39.529  26.547  28.157  1.00  0.00     0.031 C 
ATOM     28  C   UNL A   1      46.143  24.631  28.646  1.00  0.00     0.029 A 
ATOM     29  C   UNL A   1      45.840  25.985  29.092  1.00  0.00     0.049 A 
ATOM     30  H   UNL A   1      43.986  26.935  29.120  1.00  0.00     0.167 HD
ATOM     31  C   UNL A   1      40.028  28.790  29.093  1.00  0.00     0.031 A 
ATOM     32  C   UNL A   1      46.746  26.860  29.558  1.00  0.00     0.031 A 
ATOM     33  C   UNL A   1      40.917  29.784  29.637  1.00  0.00     0.049 A 
ATOM     34  C   UNL A   1      46.290  28.229  29.963  1.00  0.00     0.074 A 
ATOM     35  C   UNL A   1      40.612  31.055  30.096  1.00  0.00     0.029 A 
ATOM     36  N   UNL A   1      42.286  29.623  29.790  1.00  0.00    -0.354 N 
ATOM     37  N   UNL A   1      45.078  28.727  29.956  1.00  0.00    -0.248 NA
ATOM     38  C   UNL A   1      47.326  29.153  30.438  1.00  0.00     0.031 C 
ATOM     39  C   UNL A   1      41.805  31.680  30.478  1.00  0.00     0.029 A 
ATOM     40  C   UNL A   1      42.843  30.779  30.311  1.00  0.00     0.049 A 
ATOM     41  H   UNL A   1      42.787  28.807  29.563  1.00  0.00     0.167 HD
ATOM     42  C   UNL A   1      45.202  30.022  30.437  1.00  0.00     0.074 A 
ATOM     43  C   UNL A   1      46.604  30.221  30.749  1.00  0.00     0.031 C 
ATOM     44  C   UNL A   1      44.242  30.964  30.603  1.00  0.00     0.031 A 
BRANCH  31  45
ATOM     45  C   UNL A   1      38.579  29.156  28.922  1.00  0.00    -0.014 A 
ATOM     46  C   UNL A   1      37.657  29.015  29.971  1.00  0.00     0.009 A 
ATOM     47  C   UNL A   1      38.142  29.707  27.706  1.00  0.00     0.009 A 
ATOM     48  C   UNL A   1      36.323  29.392  29.797  1.00  0.00     0.001 A 
ATOM     49  C   UNL A   1      36.814  30.106  27.543  1.00  0.00     0.001 A 
ATOM     50  C   UNL A   1      35.904  29.942  28.586  1.00  0.00     0.000 A 
ENDBRANCH  31  45
BRANCH  32  51
ATOM     51  C   UNL A   1      48.174  26.464  29.641  1.00  0.00    -0.014 A 
ATOM     52  C   UNL A   1      48.682  25.859  30.799  1.00  0.00     0.009 A 
ATOM     53  C   UNL A   1      49.029  26.662  28.545  1.00  0.00     0.009 A 
ATOM     54  C   UNL A   1      50.024  25.476  30.863  1.00  0.00     0.001 A 
ATOM     55  C   UNL A   1      50.360  26.251  28.600  1.00  0.00     0.001 A 
ATOM     56  C   UNL A   1      50.859  25.667  29.762  1.00  0.00     0.000 A 
ENDBRANCH  32  51
BRANCH  44  57
ATOM     57  C   UNL A   1      44.680  32.284  31.168  1.00  0.00    -0.014 A 
ATOM     58  C   UNL A   1      45.068  33.340  30.329  1.00  0.00     0.009 A 
ATOM     59  C   UNL A   1      44.684  32.478  32.558  1.00  0.00     0.009 A 
ATOM     60  C   UNL A   1      45.488  34.554  30.875  1.00  0.00     0.001 A 
ATOM     61  C   UNL A   1      45.077  33.703  33.098  1.00  0.00     0.001 A 
ATOM     62  C   UNL A   1      45.488  34.736  32.257  1.00  0.00     0.000 A 
ENDBRANCH  44  57
ENDBRANCH  18  19
ENDBRANCH  11  13
ENDBRANCH   8   9
ENDBRANCH   7   8
ENDBRANCH   6   7
ENDBRANCH   5   6
ENDBRANCH   1   5
BRANCH   2  63
ATOM     63  C   UNL A   1      33.061  22.435  25.281  1.00  0.00     0.098 C 
ATOM     64  C   UNL A   1      31.616  22.993  25.307  1.00  0.00     0.098 C 
ATOM     65  C   UNL A   1      33.637  23.026  23.957  1.00  0.00     0.025 C 
ATOM     66  C   UNL A   1      31.578  23.888  24.037  1.00  0.00     0.025 C 
ATOM     67  C   UNL A   1      32.883  22.490  22.759  1.00  0.00    -0.027 C 
ATOM     68  C   UNL A   1      33.012  24.405  23.978  1.00  0.00     0.017 C 
ATOM     69  C   UNL A   1      31.644  23.001  22.813  1.00  0.00    -0.027 C 
BRANCH  64  70
ATOM     70  C   UNL A   1      31.087  23.778  26.517  1.00  0.00     0.224 C 
ATOM     71  O   UNL A   1      31.298  23.298  27.642  1.00  0.00    -0.275 OA
ATOM     72  N   UNL A   1      30.308  24.885  26.522  1.00  0.00    -0.352 N 
ATOM     73  H   UNL A   1      29.870  25.024  27.393  1.00  0.00     0.163 HD
BRANCH  72  74
ATOM     74  C   UNL A   1      29.954  25.920  25.566  1.00  0.00     0.155 C 
BRANCH  74  75
ATOM     75  C   UNL A   1      30.900  27.110  25.482  1.00  0.00     0.013 A 
ATOM     76  C   UNL A   1      31.847  27.290  26.508  1.00  0.00     0.009 A 
ATOM     77  C   UNL A   1      31.048  27.903  24.329  1.00  0.00     0.124 A 
ATOM     78  C   UNL A   1      32.872  28.237  26.393  1.00  0.00     0.001 A 
ATOM     79  C   UNL A   1      32.035  28.890  24.231  1.00  0.00     0.047 A 
ATOM     80  C   UNL A   1      32.960  29.045  25.261  1.00  0.00     0.004 A 
BRANCH  77  81
ATOM     81  O   UNL A   1      30.200  27.705  23.294  1.00  0.00    -0.489 OA
BRANCH  81  82
ATOM     82  C   UNL A   1      29.029  28.528  23.201  1.00  0.00     0.265 C 
BRANCH  82  83
ATOM     83  C   UNL A   1      28.927  29.954  22.647  1.00  0.00    -0.011 A 
ATOM     84  C   UNL A   1      28.609  30.328  21.333  1.00  0.00     0.007 A 
ATOM     85  C   UNL A   1      28.990  30.988  23.602  1.00  0.00     0.007 A 
ATOM     86  C   UNL A   1      28.296  31.649  20.997  1.00  0.00     0.000 A 
ATOM     87  C   UNL A   1      28.683  32.311  23.270  1.00  0.00     0.000 A 
ATOM     88  C   UNL A   1      28.318  32.639  21.969  1.00  0.00     0.000 A 
ENDBRANCH  82  83
ENDBRANCH  81  82
ENDBRANCH  77  81
ENDBRANCH  74  75
ENDBRANCH  72  74
ENDBRANCH  64  70
ENDBRANCH   2  63
TORSDOF 17
ENDMDL
MODEL 3
REMARK VINA RESULT:     -12.3      3.853      9.613
REMARK SMILES O=C(NCCCCNC(=O)[C@@H]1[C@@H](C(=O)NCc2ccccc2OCc2ccccc2)[C@@H]2C=C[C@H]1C2)c1ccc(-c2c3nc(c(-c4ccccc4)c4ccc([nH]4)c(-c4ccccc4)c4nc(c(-c5ccccc5)c5ccc2[nH]5)C=C4)C=C3)cc1
REMARK SMILES IDX 8 1 9 2 10 3 7 5 6 6 5 7 4 8 3 9 1 10 2 11 36 13 37 14 83 15
REMARK SMILES IDX 38 16 82 17 39 18 40 19 41 20 76 21 42 22 81 23 75 24 77 25
REMARK SMILES IDX 43 26 80 27 74 28 73 29 44 31 66 32 51 33 65 34 52 35 55 36
REMARK SMILES IDX 64 37 78 38 53 39 54 40 63 42 79 43 56 44 45 45 46 46 50 47
REMARK SMILES IDX 47 48 49 49 48 50 67 51 68 52 72 53 69 54 71 55 70 56 57 57
REMARK SMILES IDX 58 58 62 59 59 60 61 61 60 62 11 63 12 64 34 65 31 66 33 67
REMARK SMILES IDX 35 68 32 69 13 70 14 71 15 72 16 74 17 75 18 76 22 77 19 78
REMARK SMILES IDX 21 79 20 80 23 81 24 82 25 83 26 84 30 85 27 86 29 87 28 88
REMARK H PARENT 8 4 3 12 77 30 55 41 15 73
REMARK Flexibility Score: inf
ROOT
ATOM      1  N   UNL A   1      32.626  29.173  24.886  1.00  0.00    -0.356 N 
ATOM      2  C   UNL A   1      32.660  27.813  24.743  1.00  0.00     0.224 C 
ATOM      3  O   UNL A   1      33.740  27.264  24.552  1.00  0.00    -0.275 OA
ATOM      4  H   UNL A   1      33.458  29.646  24.654  1.00  0.00     0.163 HD
ENDROOT
BRANCH   1   5
ATOM      5  C   UNL A   1      31.526  30.009  25.334  1.00  0.00     0.116 C 
BRANCH   5   6
ATOM      6  C   UNL A   1      31.803  30.557  26.729  1.00  0.00     0.023 C 
BRANCH   6   7
ATOM      7  C   UNL A   1      31.556  32.058  26.855  1.00  0.00     0.023 C 
BRANCH   7   8
ATOM      8  C   UNL A   1      32.783  32.850  27.276  1.00  0.00     0.116 C 
BRANCH   8   9
ATOM      9  N   UNL A   1      32.450  34.215  27.657  1.00  0.00    -0.352 N 
ATOM     10  O   UNL A   1      32.528  36.026  29.013  1.00  0.00    -0.269 OA
ATOM     11  C   UNL A   1      33.012  34.966  28.665  1.00  0.00     0.251 C 
ATOM     12  H   UNL A   1      31.740  34.651  27.134  1.00  0.00     0.163 HD
BRANCH  11  13
ATOM     13  C   UNL A   1      34.216  34.427  29.328  1.00  0.00     0.039 A 
ATOM     14  C   UNL A   1      35.465  34.600  28.725  1.00  0.00     0.014 A 
ATOM     15  C   UNL A   1      34.081  33.678  30.497  1.00  0.00     0.014 A 
ATOM     16  C   UNL A   1      36.561  33.910  29.219  1.00  0.00     0.010 A 
ATOM     17  C   UNL A   1      35.207  33.061  31.046  1.00  0.00     0.010 A 
ATOM     18  C   UNL A   1      36.449  33.152  30.397  1.00  0.00    -0.014 A 
BRANCH  18  19
ATOM     19  C   UNL A   1      37.669  32.541  30.974  1.00  0.00     0.031 A 
ATOM     20  C   UNL A   1      38.297  33.067  32.233  1.00  0.00     0.074 A 
ATOM     21  C   UNL A   1      38.198  31.474  30.344  1.00  0.00     0.049 A 
ATOM     22  N   UNL A   1      39.360  32.633  32.860  1.00  0.00    -0.248 NA
ATOM     23  C   UNL A   1      37.658  34.231  32.867  1.00  0.00     0.031 C 
ATOM     24  C   UNL A   1      37.675  30.881  29.109  1.00  0.00     0.029 A 
ATOM     25  N   UNL A   1      39.272  30.686  30.661  1.00  0.00    -0.354 N 
ATOM     26  C   UNL A   1      39.535  33.482  33.946  1.00  0.00     0.074 A 
ATOM     27  C   UNL A   1      38.477  34.468  33.884  1.00  0.00     0.031 C 
ATOM     28  C   UNL A   1      38.396  29.794  28.804  1.00  0.00     0.029 A 
ATOM     29  C   UNL A   1      39.474  29.657  29.775  1.00  0.00     0.049 A 
ATOM     30  H   UNL A   1      39.845  30.843  31.447  1.00  0.00     0.167 HD
ATOM     31  C   UNL A   1      40.494  33.441  34.903  1.00  0.00     0.031 A 
ATOM     32  C   UNL A   1      40.433  28.718  29.729  1.00  0.00     0.031 A 
ATOM     33  C   UNL A   1      41.542  32.454  34.958  1.00  0.00     0.049 A 
ATOM     34  C   UNL A   1      41.492  28.712  30.789  1.00  0.00     0.074 A 
ATOM     35  C   UNL A   1      42.538  32.308  35.909  1.00  0.00     0.029 A 
ATOM     36  N   UNL A   1      41.732  31.448  34.023  1.00  0.00    -0.354 N 
ATOM     37  N   UNL A   1      41.625  29.506  31.823  1.00  0.00    -0.248 NA
ATOM     38  C   UNL A   1      42.531  27.681  30.674  1.00  0.00     0.031 C 
ATOM     39  C   UNL A   1      43.362  31.246  35.519  1.00  0.00     0.029 A 
ATOM     40  C   UNL A   1      42.845  30.695  34.359  1.00  0.00     0.049 A 
ATOM     41  H   UNL A   1      41.161  31.292  33.237  1.00  0.00     0.167 HD
ATOM     42  C   UNL A   1      42.758  29.064  32.491  1.00  0.00     0.074 A 
ATOM     43  C   UNL A   1      43.258  27.918  31.758  1.00  0.00     0.031 C 
ATOM     44  C   UNL A   1      43.335  29.565  33.610  1.00  0.00     0.031 A 
BRANCH  31  45
ATOM     45  C   UNL A   1      40.476  34.512  35.958  1.00  0.00    -0.014 A 
ATOM     46  C   UNL A   1      39.764  34.351  37.156  1.00  0.00     0.009 A 
ATOM     47  C   UNL A   1      41.234  35.680  35.771  1.00  0.00     0.009 A 
ATOM     48  C   UNL A   1      39.789  35.350  38.134  1.00  0.00     0.001 A 
ATOM     49  C   UNL A   1      41.278  36.665  36.761  1.00  0.00     0.001 A 
ATOM     50  C   UNL A   1      40.550  36.502  37.939  1.00  0.00     0.000 A 
ENDBRANCH  31  45
BRANCH  32  51
ATOM     51  C   UNL A   1      40.437  27.726  28.625  1.00  0.00    -0.014 A 
ATOM     52  C   UNL A   1      39.767  26.502  28.760  1.00  0.00     0.009 A 
ATOM     53  C   UNL A   1      41.088  28.016  27.414  1.00  0.00     0.009 A 
ATOM     54  C   UNL A   1      39.764  25.581  27.710  1.00  0.00     0.001 A 
ATOM     55  C   UNL A   1      41.057  27.108  26.357  1.00  0.00     0.001 A 
ATOM     56  C   UNL A   1      40.403  25.887  26.508  1.00  0.00     0.000 A 
ENDBRANCH  32  51
BRANCH  44  57
ATOM     57  C   UNL A   1      44.558  28.857  34.115  1.00  0.00    -0.014 A 
ATOM     58  C   UNL A   1      45.843  29.250  33.713  1.00  0.00     0.009 A 
ATOM     59  C   UNL A   1      44.421  27.794  35.022  1.00  0.00     0.009 A 
ATOM     60  C   UNL A   1      46.968  28.567  34.182  1.00  0.00     0.001 A 
ATOM     61  C   UNL A   1      45.548  27.133  35.511  1.00  0.00     0.001 A 
ATOM     62  C   UNL A   1      46.819  27.513  35.082  1.00  0.00     0.000 A 
ENDBRANCH  44  57
ENDBRANCH  18  19
ENDBRANCH  11  13
ENDBRANCH   8   9
ENDBRANCH   7   8
ENDBRANCH   6   7
ENDBRANCH   5   6
ENDBRANCH   1   5
BRANCH   2  63
ATOM     63  C   UNL A   1      31.330  27.093  24.791  1.00  0.00     0.098 C 
ATOM     64  C   UNL A   1      31.383  25.564  25.039  1.00  0.00     0.098 C 
ATOM     65  C   UNL A   1      30.677  27.192  23.377  1.00  0.00     0.025 C 
ATOM     66  C   UNL A   1      30.689  24.993  23.772  1.00  0.00     0.025 C 
ATOM     67  C   UNL A   1      31.568  26.555  22.331  1.00  0.00    -0.027 C 
ATOM     68  C   UNL A   1      29.658  26.075  23.468  1.00  0.00     0.017 C 
ATOM     69  C   UNL A   1      31.581  25.236  22.574  1.00  0.00    -0.027 C 
BRANCH  64  70
ATOM     70  C   UNL A   1      30.767  24.940  26.300  1.00  0.00     0.224 C 
ATOM     71  O   UNL A   1      29.712  25.440  26.723  1.00  0.00    -0.275 OA
ATOM     72  N   UNL A   1      31.283  23.974  27.096  1.00  0.00    -0.352 N 
ATOM     73  H   UNL A   1      30.850  23.954  27.980  1.00  0.00     0.163 HD
BRANCH  72  74
ATOM     74  C   UNL A   1      32.316  22.960  26.974  1.00  0.00     0.155 C 
BRANCH  74  75
ATOM     75  C   UNL A   1      33.271  23.111  25.798  1.00  0.00     0.013 A 
ATOM     76  C   UNL A   1      34.368  23.983  25.929  1.00  0.00     0.009 A 
ATOM     77  C   UNL A   1      33.263  22.258  24.679  1.00  0.00     0.124 A 
ATOM     78  C   UNL A   1      35.389  24.016  24.971  1.00  0.00     0.001 A 
ATOM     79  C   UNL A   1      34.250  22.326  23.689  1.00  0.00     0.047 A 
ATOM     80  C   UNL A   1      35.325  23.196  23.846  1.00  0.00     0.004 A 
BRANCH  77  81
ATOM     81  O   UNL A   1      32.261  21.357  24.559  1.00  0.00    -0.489 OA
BRANCH  81  82
ATOM     82  C   UNL A   1      32.415  20.283  23.623  1.00  0.00     0.265 C 
BRANCH  82  83
ATOM     83  C   UNL A   1      32.643  18.797  23.929  1.00  0.00    -0.011 A 
ATOM     84  C   UNL A   1      33.106  17.815  23.042  1.00  0.00     0.007 A 
ATOM     85  C   UNL A   1      32.539  18.428  25.285  1.00  0.00     0.007 A 
ATOM     86  C   UNL A   1      33.516  16.553  23.488  1.00  0.00     0.000 A 
ATOM     87  C   UNL A   1      32.942  17.168  25.735  1.00  0.00     0.000 A 
ATOM     88  C   UNL A   1      33.449  16.235  24.836  1.00  0.00     0.000 A 
ENDBRANCH  82  83
ENDBRANCH  81  82
ENDBRANCH  77  81
ENDBRANCH  74  75
ENDBRANCH  72  74
ENDBRANCH  64  70
ENDBRANCH   2  63
TORSDOF 17
ENDMDL
