MODEL 1
REMARK VINA RESULT:     -10.1      0.000      0.000
REMARK SMILES COCCN1C(=O)C[C@@H](C(=O)NCCCCNC(=O)c2ccc(-c3c4nc(c(-c5ccccc5)c5ccc([nH]5)c(-c5ccccc5)c5nc(c(-c6ccccc6)c6ccc3[nH]6)C=C5)C=C4)cc2)[C@H]1c1cccc(F)c1
REMARK SMILES IDX 14 1 13 2 12 3 10 4 11 5 9 7 5 8 6 9 68 10 7 11 8 12 4 13
REMARK SMILES IDX 3 14 2 15 1 16 69 17 70 18 75 19 71 20 73 21 72 22 74 23
REMARK SMILES IDX 15 24 16 25 17 26 18 27 19 29 20 30 21 31 67 32 22 33 66 34
REMARK SMILES IDX 23 35 24 36 25 37 60 38 26 39 65 40 59 41 61 42 27 43 64 44
REMARK SMILES IDX 58 45 57 46 28 48 50 49 35 50 49 51 36 52 39 53 48 54 62 55
REMARK SMILES IDX 37 56 38 57 47 59 63 60 40 61 29 62 30 63 34 64 31 65 33 66
REMARK SMILES IDX 32 67 51 68 52 69 56 70 53 71 55 72 54 73 41 74 42 75 46 76
REMARK SMILES IDX 43 77 45 78 44 79
REMARK H PARENT 12 6 17 28 61 47 39 58
REMARK Flexibility Score: inf
ROOT
ATOM      1  C   UNL A   1      34.577  30.320  27.560  1.00  0.00     0.023 C 
ENDROOT
BRANCH   1   2
ATOM      2  C   UNL A   1      34.312  28.822  27.577  1.00  0.00     0.116 C 
BRANCH   2   3
ATOM      3  N   UNL A   1      32.926  28.421  27.726  1.00  0.00    -0.356 N 
ATOM      4  C   UNL A   1      32.085  27.922  26.762  1.00  0.00     0.226 C 
ATOM      5  O   UNL A   1      31.054  27.363  27.137  1.00  0.00    -0.275 OA
ATOM      6  H   UNL A   1      32.542  28.520  28.626  1.00  0.00     0.163 HD
BRANCH   4   7
ATOM      7  C   UNL A   1      32.420  28.107  25.283  1.00  0.00     0.115 C 
ATOM      8  N   UNL A   1      31.388  26.603  23.752  1.00  0.00    -0.332 N 
ATOM      9  C   UNL A   1      30.621  27.756  23.702  1.00  0.00     0.224 C 
ATOM     10  C   UNL A   1      32.644  26.844  24.434  1.00  0.00     0.128 C 
ATOM     11  O   UNL A   1      29.623  27.937  23.023  1.00  0.00    -0.275 OA
ATOM     12  C   UNL A   1      31.279  28.823  24.541  1.00  0.00     0.116 C 
BRANCH   8  13
ATOM     13  C   UNL A   1      31.171  25.453  22.861  1.00  0.00     0.148 C 
BRANCH  13  14
ATOM     14  C   UNL A   1      31.977  25.518  21.552  1.00  0.00     0.181 C 
BRANCH  14  15
ATOM     15  O   UNL A   1      33.233  24.838  21.593  1.00  0.00    -0.383 OA
ATOM     16  C   UNL A   1      33.148  23.525  22.129  1.00  0.00     0.194 C 
ENDBRANCH  14  15
ENDBRANCH  13  14
ENDBRANCH   8  13
BRANCH  10  17
ATOM     17  C   UNL A   1      33.257  25.631  25.087  1.00  0.00    -0.022 A 
ATOM     18  C   UNL A   1      32.496  24.712  25.830  1.00  0.00     0.006 A 
ATOM     19  C   UNL A   1      34.645  25.431  24.998  1.00  0.00     0.045 A 
ATOM     20  C   UNL A   1      33.103  23.622  26.461  1.00  0.00     0.003 A 
ATOM     21  C   UNL A   1      35.241  24.359  25.653  1.00  0.00     0.123 A 
ATOM     22  C   UNL A   1      34.483  23.450  26.378  1.00  0.00     0.039 A 
ATOM     23  F   UNL A   1      36.573  24.234  25.619  1.00  0.00    -0.207 F 
ENDBRANCH  10  17
ENDBRANCH   4   7
ENDBRANCH   2   3
ENDBRANCH   1   2
BRANCH   1  24
ATOM     24  C   UNL A   1      33.352  31.227  27.706  1.00  0.00     0.023 C 
BRANCH  24  25
ATOM     25  C   UNL A   1      33.388  32.600  27.033  1.00  0.00     0.116 C 
BRANCH  25  26
ATOM     26  N   UNL A   1      32.746  33.679  27.769  1.00  0.00    -0.352 N 
ATOM     27  C   UNL A   1      33.242  34.444  28.804  1.00  0.00     0.251 C 
ATOM     28  H   UNL A   1      31.826  33.891  27.491  1.00  0.00     0.163 HD
ATOM     29  O   UNL A   1      32.576  35.361  29.274  1.00  0.00    -0.269 OA
BRANCH  27  30
ATOM     30  C   UNL A   1      34.558  34.123  29.399  1.00  0.00     0.039 A 
ATOM     31  C   UNL A   1      34.583  33.414  30.604  1.00  0.00     0.014 A 
ATOM     32  C   UNL A   1      35.754  34.451  28.755  1.00  0.00     0.014 A 
ATOM     33  C   UNL A   1      35.795  32.920  31.093  1.00  0.00     0.010 A 
ATOM     34  C   UNL A   1      36.953  33.900  29.208  1.00  0.00     0.010 A 
ATOM     35  C   UNL A   1      36.979  33.100  30.361  1.00  0.00    -0.014 A 
BRANCH  35  36
ATOM     36  C   UNL A   1      38.226  32.391  30.752  1.00  0.00     0.031 A 
ATOM     37  C   UNL A   1      39.153  32.971  31.781  1.00  0.00     0.074 A 
ATOM     38  C   UNL A   1      38.548  31.234  30.135  1.00  0.00     0.049 A 
ATOM     39  N   UNL A   1      40.292  32.498  32.225  1.00  0.00    -0.248 NA
ATOM     40  C   UNL A   1      38.762  34.257  32.379  1.00  0.00     0.031 C 
ATOM     41  C   UNL A   1      37.757  30.584  29.086  1.00  0.00     0.029 A 
ATOM     42  N   UNL A   1      39.626  30.399  30.298  1.00  0.00    -0.354 N 
ATOM     43  C   UNL A   1      40.748  33.423  33.155  1.00  0.00     0.074 A 
ATOM     44  C   UNL A   1      39.796  34.512  33.169  1.00  0.00     0.031 C 
ATOM     45  C   UNL A   1      38.361  29.442  28.721  1.00  0.00     0.029 A 
ATOM     46  C   UNL A   1      39.599  29.294  29.479  1.00  0.00     0.049 A 
ATOM     47  H   UNL A   1      40.351  30.575  30.941  1.00  0.00     0.167 HD
ATOM     48  C   UNL A   1      41.846  33.361  33.946  1.00  0.00     0.031 A 
ATOM     49  C   UNL A   1      40.473  28.279  29.348  1.00  0.00     0.031 A 
ATOM     50  C   UNL A   1      42.803  32.286  33.925  1.00  0.00     0.049 A 
ATOM     51  C   UNL A   1      41.702  28.251  30.215  1.00  0.00     0.074 A 
ATOM     52  C   UNL A   1      43.941  32.128  34.698  1.00  0.00     0.029 A 
ATOM     53  N   UNL A   1      42.736  31.185  33.086  1.00  0.00    -0.354 N 
ATOM     54  N   UNL A   1      42.084  29.106  31.133  1.00  0.00    -0.248 NA
ATOM     55  C   UNL A   1      42.612  27.110  30.039  1.00  0.00     0.031 C 
ATOM     56  C   UNL A   1      44.584  30.953  34.297  1.00  0.00     0.029 A 
ATOM     57  C   UNL A   1      43.817  30.349  33.315  1.00  0.00     0.049 A 
ATOM     58  H   UNL A   1      42.025  31.021  32.424  1.00  0.00     0.167 HD
ATOM     59  C   UNL A   1      43.258  28.588  31.666  1.00  0.00     0.074 A 
ATOM     60  C   UNL A   1      43.514  27.337  30.982  1.00  0.00     0.031 C 
ATOM     61  C   UNL A   1      44.053  29.103  32.635  1.00  0.00     0.031 A 
BRANCH  48  62
ATOM     62  C   UNL A   1      42.066  34.492  34.911  1.00  0.00    -0.014 A 
ATOM     63  C   UNL A   1      42.785  35.636  34.528  1.00  0.00     0.009 A 
ATOM     64  C   UNL A   1      41.518  34.437  36.202  1.00  0.00     0.009 A 
ATOM     65  C   UNL A   1      42.980  36.686  35.427  1.00  0.00     0.001 A 
ATOM     66  C   UNL A   1      41.689  35.501  37.090  1.00  0.00     0.001 A 
ATOM     67  C   UNL A   1      42.427  36.619  36.706  1.00  0.00     0.000 A 
ENDBRANCH  48  62
BRANCH  49  68
ATOM     68  C   UNL A   1      40.225  27.193  28.360  1.00  0.00    -0.014 A 
ATOM     69  C   UNL A   1      39.451  26.073  28.705  1.00  0.00     0.009 A 
ATOM     70  C   UNL A   1      40.794  27.252  27.078  1.00  0.00     0.009 A 
ATOM     71  C   UNL A   1      39.287  25.019  27.803  1.00  0.00     0.001 A 
ATOM     72  C   UNL A   1      40.599  26.212  26.167  1.00  0.00     0.001 A 
ATOM     73  C   UNL A   1      39.859  25.091  26.534  1.00  0.00     0.000 A 
ENDBRANCH  49  68
BRANCH  61  74
ATOM     74  C   UNL A   1      45.247  28.289  33.050  1.00  0.00    -0.014 A 
ATOM     75  C   UNL A   1      46.511  28.496  32.476  1.00  0.00     0.009 A 
ATOM     76  C   UNL A   1      45.108  27.323  34.059  1.00  0.00     0.009 A 
ATOM     77  C   UNL A   1      47.604  27.726  32.880  1.00  0.00     0.001 A 
ATOM     78  C   UNL A   1      46.207  26.576  34.483  1.00  0.00     0.001 A 
ATOM     79  C   UNL A   1      47.452  26.771  33.886  1.00  0.00     0.000 A 
ENDBRANCH  61  74
ENDBRANCH  35  36
ENDBRANCH  27  30
ENDBRANCH  25  26
ENDBRANCH  24  25
ENDBRANCH   1  24
TORSDOF 15
ENDMDL
MODEL 2
REMARK VINA RESULT:     -10.1      3.379      8.490
REMARK SMILES COCCN1C(=O)C[C@@H](C(=O)NCCCCNC(=O)c2ccc(-c3c4nc(c(-c5ccccc5)c5ccc([nH]5)c(-c5ccccc5)c5nc(c(-c6ccccc6)c6ccc3[nH]6)C=C5)C=C4)cc2)[C@H]1c1cccc(F)c1
REMARK SMILES IDX 14 1 13 2 12 3 10 4 11 5 9 7 5 8 6 9 68 10 7 11 8 12 4 13
REMARK SMILES IDX 3 14 2 15 1 16 69 17 70 18 75 19 71 20 73 21 72 22 74 23
REMARK SMILES IDX 15 24 16 25 17 26 18 27 19 29 20 30 21 31 67 32 22 33 66 34
REMARK SMILES IDX 23 35 24 36 25 37 60 38 26 39 65 40 59 41 61 42 27 43 64 44
REMARK SMILES IDX 58 45 57 46 28 48 50 49 35 50 49 51 36 52 39 53 48 54 62 55
REMARK SMILES IDX 37 56 38 57 47 59 63 60 40 61 29 62 30 63 34 64 31 65 33 66
REMARK SMILES IDX 32 67 51 68 52 69 56 70 53 71 55 72 54 73 41 74 42 75 46 76
REMARK SMILES IDX 43 77 45 78 44 79
REMARK H PARENT 12 6 17 28 61 47 39 58
REMARK Flexibility Score: inf
ROOT
ATOM      1  C   UNL A   1      37.072  22.967  24.091  1.00  0.00     0.023 C 
ENDROOT
BRANCH   1   2
ATOM      2  C   UNL A   1      35.685  23.361  23.604  1.00  0.00     0.116 C 
BRANCH   2   3
ATOM      3  N   UNL A   1      34.658  22.343  23.712  1.00  0.00    -0.356 N 
ATOM      4  C   UNL A   1      33.520  22.373  24.480  1.00  0.00     0.226 C 
ATOM      5  O   UNL A   1      32.630  21.564  24.215  1.00  0.00    -0.275 OA
ATOM      6  H   UNL A   1      34.793  21.533  23.171  1.00  0.00     0.163 HD
BRANCH   4   7
ATOM      7  C   UNL A   1      33.405  23.357  25.643  1.00  0.00     0.115 C 
ATOM      8  N   UNL A   1      31.306  24.444  25.929  1.00  0.00    -0.332 N 
ATOM      9  C   UNL A   1      31.301  23.399  26.838  1.00  0.00     0.224 C 
ATOM     10  C   UNL A   1      32.638  24.668  25.403  1.00  0.00     0.128 C 
ATOM     11  O   UNL A   1      30.397  23.105  27.603  1.00  0.00    -0.275 OA
ATOM     12  C   UNL A   1      32.653  22.730  26.829  1.00  0.00     0.116 C 
BRANCH   8  13
ATOM     13  C   UNL A   1      30.240  25.455  25.858  1.00  0.00     0.148 C 
BRANCH  13  14
ATOM     14  C   UNL A   1      30.730  26.896  26.078  1.00  0.00     0.181 C 
BRANCH  14  15
ATOM     15  O   UNL A   1      30.941  27.249  27.446  1.00  0.00    -0.383 OA
ATOM     16  C   UNL A   1      31.872  28.309  27.619  1.00  0.00     0.194 C 
ENDBRANCH  14  15
ENDBRANCH  13  14
ENDBRANCH   8  13
BRANCH  10  17
ATOM     17  C   UNL A   1      32.685  25.293  24.031  1.00  0.00    -0.022 A 
ATOM     18  C   UNL A   1      31.997  24.748  22.932  1.00  0.00     0.006 A 
ATOM     19  C   UNL A   1      33.479  26.433  23.823  1.00  0.00     0.045 A 
ATOM     20  C   UNL A   1      32.098  25.328  21.664  1.00  0.00     0.003 A 
ATOM     21  C   UNL A   1      33.594  26.984  22.551  1.00  0.00     0.123 A 
ATOM     22  C   UNL A   1      32.906  26.445  21.472  1.00  0.00     0.039 A 
ATOM     23  F   UNL A   1      34.419  28.020  22.362  1.00  0.00    -0.207 F 
ENDBRANCH  10  17
ENDBRANCH   4   7
ENDBRANCH   2   3
ENDBRANCH   1   2
BRANCH   1  24
ATOM     24  C   UNL A   1      37.238  21.521  24.563  1.00  0.00     0.023 C 
BRANCH  24  25
ATOM     25  C   UNL A   1      38.213  21.245  25.710  1.00  0.00     0.116 C 
BRANCH  25  26
ATOM     26  N   UNL A   1      39.112  20.118  25.514  1.00  0.00    -0.352 N 
ATOM     27  C   UNL A   1      40.419  19.963  25.926  1.00  0.00     0.251 C 
ATOM     28  H   UNL A   1      38.734  19.358  25.015  1.00  0.00     0.163 HD
ATOM     29  O   UNL A   1      41.014  18.909  25.723  1.00  0.00    -0.269 OA
BRANCH  27  30
ATOM     30  C   UNL A   1      41.136  21.091  26.560  1.00  0.00     0.039 A 
ATOM     31  C   UNL A   1      41.791  22.007  25.731  1.00  0.00     0.014 A 
ATOM     32  C   UNL A   1      41.111  21.292  27.943  1.00  0.00     0.014 A 
ATOM     33  C   UNL A   1      42.306  23.187  26.273  1.00  0.00     0.010 A 
ATOM     34  C   UNL A   1      41.565  22.500  28.472  1.00  0.00     0.010 A 
ATOM     35  C   UNL A   1      42.134  23.474  27.636  1.00  0.00    -0.014 A 
BRANCH  35  36
ATOM     36  C   UNL A   1      42.473  24.818  28.176  1.00  0.00     0.031 A 
ATOM     37  C   UNL A   1      43.872  25.141  28.616  1.00  0.00     0.074 A 
ATOM     38  C   UNL A   1      41.497  25.738  28.315  1.00  0.00     0.049 A 
ATOM     39  N   UNL A   1      44.339  26.253  29.130  1.00  0.00    -0.248 NA
ATOM     40  C   UNL A   1      44.876  24.074  28.478  1.00  0.00     0.031 C 
ATOM     41  C   UNL A   1      40.086  25.538  27.968  1.00  0.00     0.029 A 
ATOM     42  N   UNL A   1      41.538  27.027  28.787  1.00  0.00    -0.354 N 
ATOM     43  C   UNL A   1      45.686  26.021  29.370  1.00  0.00     0.074 A 
ATOM     44  C   UNL A   1      45.951  24.647  29.002  1.00  0.00     0.031 C 
ATOM     45  C   UNL A   1      39.406  26.670  28.212  1.00  0.00     0.029 A 
ATOM     46  C   UNL A   1      40.318  27.663  28.768  1.00  0.00     0.049 A 
ATOM     47  H   UNL A   1      42.363  27.456  29.110  1.00  0.00     0.167 HD
ATOM     48  C   UNL A   1      46.627  26.882  29.829  1.00  0.00     0.031 A 
ATOM     49  C   UNL A   1      39.970  28.904  29.157  1.00  0.00     0.031 A 
ATOM     50  C   UNL A   1      46.365  28.245  30.209  1.00  0.00     0.049 A 
ATOM     51  C   UNL A   1      41.028  29.828  29.696  1.00  0.00     0.074 A 
ATOM     52  C   UNL A   1      47.256  29.197  30.674  1.00  0.00     0.029 A 
ATOM     53  N   UNL A   1      45.119  28.851  30.168  1.00  0.00    -0.354 N 
ATOM     54  N   UNL A   1      42.311  29.610  29.858  1.00  0.00    -0.248 NA
ATOM     55  C   UNL A   1      40.593  31.176  30.090  1.00  0.00     0.031 C 
ATOM     56  C   UNL A   1      46.541  30.366  30.955  1.00  0.00     0.029 A 
ATOM     57  C   UNL A   1      45.215  30.160  30.610  1.00  0.00     0.049 A 
ATOM     58  H   UNL A   1      44.288  28.414  29.870  1.00  0.00     0.167 HD
ATOM     59  C   UNL A   1      42.839  30.801  30.339  1.00  0.00     0.074 A 
ATOM     60  C   UNL A   1      41.742  31.743  30.425  1.00  0.00     0.031 C 
ATOM     61  C   UNL A   1      44.119  31.089  30.680  1.00  0.00     0.031 A 
BRANCH  48  62
ATOM     62  C   UNL A   1      48.036  26.369  29.939  1.00  0.00    -0.014 A 
ATOM     63  C   UNL A   1      48.925  26.472  28.858  1.00  0.00     0.009 A 
ATOM     64  C   UNL A   1      48.494  25.813  31.144  1.00  0.00     0.009 A 
ATOM     65  C   UNL A   1      50.235  25.999  28.968  1.00  0.00     0.001 A 
ATOM     66  C   UNL A   1      49.813  25.368  31.261  1.00  0.00     0.001 A 
ATOM     67  C   UNL A   1      50.678  25.453  30.172  1.00  0.00     0.000 A 
ENDBRANCH  48  62
BRANCH  49  68
ATOM     68  C   UNL A   1      38.556  29.359  29.052  1.00  0.00    -0.014 A 
ATOM     69  C   UNL A   1      37.693  29.276  30.156  1.00  0.00     0.009 A 
ATOM     70  C   UNL A   1      38.053  29.844  27.835  1.00  0.00     0.009 A 
ATOM     71  C   UNL A   1      36.347  29.628  30.032  1.00  0.00     0.001 A 
ATOM     72  C   UNL A   1      36.715  30.228  27.723  1.00  0.00     0.001 A 
ATOM     73  C   UNL A   1      35.859  30.106  28.816  1.00  0.00     0.000 A 
ENDBRANCH  49  68
BRANCH  61  74
ATOM     74  C   UNL A   1      44.412  32.494  31.128  1.00  0.00    -0.014 A 
ATOM     75  C   UNL A   1      44.749  33.501  30.211  1.00  0.00     0.009 A 
ATOM     76  C   UNL A   1      44.313  32.819  32.491  1.00  0.00     0.009 A 
ATOM     77  C   UNL A   1      45.016  34.798  30.655  1.00  0.00     0.001 A 
ATOM     78  C   UNL A   1      44.550  34.123  32.928  1.00  0.00     0.001 A 
ATOM     79  C   UNL A   1      44.911  35.109  32.011  1.00  0.00     0.000 A 
ENDBRANCH  61  74
ENDBRANCH  35  36
ENDBRANCH  27  30
ENDBRANCH  25  26
ENDBRANCH  24  25
ENDBRANCH   1  24
TORSDOF 15
ENDMDL
MODEL 3
REMARK VINA RESULT:     -10.0      3.477      8.590
REMARK SMILES COCCN1C(=O)C[C@@H](C(=O)NCCCCNC(=O)c2ccc(-c3c4nc(c(-c5ccccc5)c5ccc([nH]5)c(-c5ccccc5)c5nc(c(-c6ccccc6)c6ccc3[nH]6)C=C5)C=C4)cc2)[C@H]1c1cccc(F)c1
REMARK SMILES IDX 14 1 13 2 12 3 10 4 11 5 9 7 5 8 6 9 68 10 7 11 8 12 4 13
REMARK SMILES IDX 3 14 2 15 1 16 69 17 70 18 75 19 71 20 73 21 72 22 74 23
REMARK SMILES IDX 15 24 16 25 17 26 18 27 19 29 20 30 21 31 67 32 22 33 66 34
REMARK SMILES IDX 23 35 24 36 25 37 60 38 26 39 65 40 59 41 61 42 27 43 64 44
REMARK SMILES IDX 58 45 57 46 28 48 50 49 35 50 49 51 36 52 39 53 48 54 62 55
REMARK SMILES IDX 37 56 38 57 47 59 63 60 40 61 29 62 30 63 34 64 31 65 33 66
REMARK SMILES IDX 32 67 51 68 52 69 56 70 53 71 55 72 54 73 41 74 42 75 46 76
REMARK SMILES IDX 43 77 45 78 44 79
REMARK H PARENT 12 6 17 28 61 47 39 58
REMARK Flexibility Score: inf
ROOT
ATOM      1  C   UNL A   1      36.858  22.980  24.649  1.00  0.00     0.023 C 
ENDROOT
BRANCH   1   2
ATOM      2  C   UNL A   1      35.713  23.172  23.666  1.00  0.00     0.116 C 
BRANCH   2   3
ATOM      3  N   UNL A   1      34.630  22.211  23.752  1.00  0.00    -0.356 N 
ATOM      4  C   UNL A   1      33.467  22.315  24.473  1.00  0.00     0.226 C 
ATOM      5  O   UNL A   1      32.547  21.548  24.188  1.00  0.00    -0.275 OA
ATOM      6  H   UNL A   1      34.744  21.384  23.231  1.00  0.00     0.163 HD
BRANCH   4   7
ATOM      7  C   UNL A   1      33.360  23.327  25.613  1.00  0.00     0.115 C 
ATOM      8  N   UNL A   1      31.274  24.448  25.862  1.00  0.00    -0.332 N 
ATOM      9  C   UNL A   1      31.250  23.424  26.796  1.00  0.00     0.224 C 
ATOM     10  C   UNL A   1      32.611  24.642  25.339  1.00  0.00     0.128 C 
ATOM     11  O   UNL A   1      30.338  23.159  27.561  1.00  0.00    -0.275 OA
ATOM     12  C   UNL A   1      32.592  22.737  26.809  1.00  0.00     0.116 C 
BRANCH   8  13
ATOM     13  C   UNL A   1      30.221  25.471  25.763  1.00  0.00     0.148 C 
BRANCH  13  14
ATOM     14  C   UNL A   1      30.713  26.902  26.042  1.00  0.00     0.181 C 
BRANCH  14  15
ATOM     15  O   UNL A   1      31.013  27.169  27.413  1.00  0.00    -0.383 OA
ATOM     16  C   UNL A   1      31.763  28.362  27.605  1.00  0.00     0.194 C 
ENDBRANCH  14  15
ENDBRANCH  13  14
ENDBRANCH   8  13
BRANCH  10  17
ATOM     17  C   UNL A   1      32.673  25.235  23.954  1.00  0.00    -0.022 A 
ATOM     18  C   UNL A   1      32.015  24.653  22.856  1.00  0.00     0.006 A 
ATOM     19  C   UNL A   1      33.454  26.382  23.733  1.00  0.00     0.045 A 
ATOM     20  C   UNL A   1      32.130  25.204  21.576  1.00  0.00     0.003 A 
ATOM     21  C   UNL A   1      33.583  26.904  22.450  1.00  0.00     0.123 A 
ATOM     22  C   UNL A   1      32.924  26.329  21.372  1.00  0.00     0.039 A 
ATOM     23  F   UNL A   1      34.395  27.950  22.251  1.00  0.00    -0.207 F 
ENDBRANCH  10  17
ENDBRANCH   4   7
ENDBRANCH   2   3
ENDBRANCH   1   2
BRANCH   1  24
ATOM     24  C   UNL A   1      37.449  21.570  24.733  1.00  0.00     0.023 C 
BRANCH  24  25
ATOM     25  C   UNL A   1      38.461  21.279  25.843  1.00  0.00     0.116 C 
BRANCH  25  26
ATOM     26  N   UNL A   1      39.355  20.156  25.600  1.00  0.00    -0.352 N 
ATOM     27  C   UNL A   1      40.679  20.002  25.957  1.00  0.00     0.251 C 
ATOM     28  H   UNL A   1      38.959  19.400  25.110  1.00  0.00     0.163 HD
ATOM     29  O   UNL A   1      41.268  18.953  25.719  1.00  0.00    -0.269 OA
BRANCH  27  30
ATOM     30  C   UNL A   1      41.417  21.128  26.570  1.00  0.00     0.039 A 
ATOM     31  C   UNL A   1      42.039  22.050  25.723  1.00  0.00     0.014 A 
ATOM     32  C   UNL A   1      41.445  21.319  27.954  1.00  0.00     0.014 A 
ATOM     33  C   UNL A   1      42.573  23.227  26.252  1.00  0.00     0.010 A 
ATOM     34  C   UNL A   1      41.916  22.525  28.473  1.00  0.00     0.010 A 
ATOM     35  C   UNL A   1      42.452  23.506  27.623  1.00  0.00    -0.014 A 
BRANCH  35  36
ATOM     36  C   UNL A   1      42.810  24.846  28.158  1.00  0.00     0.031 A 
ATOM     37  C   UNL A   1      41.765  25.909  28.339  1.00  0.00     0.074 A 
ATOM     38  C   UNL A   1      44.102  25.121  28.438  1.00  0.00     0.049 A 
ATOM     39  N   UNL A   1      41.905  27.138  28.772  1.00  0.00    -0.248 NA
ATOM     40  C   UNL A   1      40.386  25.554  27.971  1.00  0.00     0.031 C 
ATOM     41  C   UNL A   1      45.223  24.191  28.265  1.00  0.00     0.029 A 
ATOM     42  N   UNL A   1      44.693  26.261  28.925  1.00  0.00    -0.354 N 
ATOM     43  C   UNL A   1      40.635  27.698  28.734  1.00  0.00     0.074 A 
ATOM     44  C   UNL A   1      39.749  26.698  28.181  1.00  0.00     0.031 C 
ATOM     45  C   UNL A   1      46.357  24.789  28.666  1.00  0.00     0.029 A 
ATOM     46  C   UNL A   1      46.054  26.153  29.087  1.00  0.00     0.049 A 
ATOM     47  H   UNL A   1      44.189  27.079  29.137  1.00  0.00     0.167 HD
ATOM     48  C   UNL A   1      40.237  28.925  29.147  1.00  0.00     0.031 A 
ATOM     49  C   UNL A   1      46.959  27.050  29.521  1.00  0.00     0.031 A 
ATOM     50  C   UNL A   1      41.118  29.928  29.685  1.00  0.00     0.049 A 
ATOM     51  C   UNL A   1      46.494  28.418  29.941  1.00  0.00     0.074 A 
ATOM     52  C   UNL A   1      40.804  31.197  30.142  1.00  0.00     0.029 A 
ATOM     53  N   UNL A   1      42.487  29.776  29.838  1.00  0.00    -0.354 N 
ATOM     54  N   UNL A   1      45.278  28.908  29.955  1.00  0.00    -0.248 NA
ATOM     55  C   UNL A   1      47.524  29.350  30.421  1.00  0.00     0.031 C 
ATOM     56  C   UNL A   1      41.990  31.828  30.532  1.00  0.00     0.029 A 
ATOM     57  C   UNL A   1      43.034  30.932  30.372  1.00  0.00     0.049 A 
ATOM     58  H   UNL A   1      42.996  28.967  29.601  1.00  0.00     0.167 HD
ATOM     59  C   UNL A   1      45.394  30.191  30.476  1.00  0.00     0.074 A 
ATOM     60  C   UNL A   1      46.795  30.394  30.783  1.00  0.00     0.031 C 
ATOM     61  C   UNL A   1      44.427  31.117  30.682  1.00  0.00     0.031 A 
BRANCH  48  62
ATOM     62  C   UNL A   1      38.772  29.248  29.037  1.00  0.00    -0.014 A 
ATOM     63  C   UNL A   1      37.919  29.101  30.142  1.00  0.00     0.009 A 
ATOM     64  C   UNL A   1      38.245  29.740  27.833  1.00  0.00     0.009 A 
ATOM     65  C   UNL A   1      36.561  29.408  30.035  1.00  0.00     0.001 A 
ATOM     66  C   UNL A   1      36.892  30.074  27.738  1.00  0.00     0.001 A 
ATOM     67  C   UNL A   1      36.050  29.899  28.835  1.00  0.00     0.000 A 
ENDBRANCH  48  62
BRANCH  49  68
ATOM     68  C   UNL A   1      48.403  26.693  29.589  1.00  0.00    -0.014 A 
ATOM     69  C   UNL A   1      48.939  26.091  30.739  1.00  0.00     0.009 A 
ATOM     70  C   UNL A   1      49.261  26.987  28.518  1.00  0.00     0.009 A 
ATOM     71  C   UNL A   1      50.309  25.830  30.830  1.00  0.00     0.001 A 
ATOM     72  C   UNL A   1      50.624  26.694  28.599  1.00  0.00     0.001 A 
ATOM     73  C   UNL A   1      51.149  26.130  29.759  1.00  0.00     0.000 A 
ENDBRANCH  49  68
BRANCH  61  74
ATOM     74  C   UNL A   1      44.842  32.416  31.314  1.00  0.00    -0.014 A 
ATOM     75  C   UNL A   1      44.870  32.578  32.708  1.00  0.00     0.009 A 
ATOM     76  C   UNL A   1      45.245  33.484  30.497  1.00  0.00     0.009 A 
ATOM     77  C   UNL A   1      45.260  33.796  33.269  1.00  0.00     0.001 A 
ATOM     78  C   UNL A   1      45.664  34.690  31.061  1.00  0.00     0.001 A 
ATOM     79  C   UNL A   1      45.661  34.848  32.446  1.00  0.00     0.000 A 
ENDBRANCH  61  74
ENDBRANCH  35  36
ENDBRANCH  27  30
ENDBRANCH  25  26
ENDBRANCH  24  25
ENDBRANCH   1  24
TORSDOF 15
ENDMDL
