MODEL 1
REMARK VINA RESULT:      -9.1      0.000      0.000
REMARK SMILES C[C@@H]1CCC[C@H](C)[N@H+]1Cc1cc2c(cc1Cl)C=C(C(=O)NCCCCNC(=O)c1ccc(-c3c4nc(c(-c5ccccc5)c5ccc([nH]5)c(-c5ccccc5)c5nc(c(-c6ccccc6)c6ccc3[nH]6)C=C5)C=C4)cc1)[C@@H](C(F)(F)F)O2
REMARK SMILES IDX 23 1 22 2 21 3 19 4 20 5 18 7 10 8 11 9 15 10 12 11 14 12
REMARK SMILES IDX 16 13 13 14 82 15 17 16 77 17 9 18 8 19 7 20 6 21 5 22 4 23
REMARK SMILES IDX 2 24 3 26 1 27 78 28 79 29 80 30 81 31 24 32 25 33 26 34
REMARK SMILES IDX 27 35 28 37 29 38 30 39 76 40 31 41 75 42 32 43 33 44 34 45
REMARK SMILES IDX 69 46 35 47 74 48 68 49 70 50 36 51 73 52 67 53 66 54 37 56
REMARK SMILES IDX 59 57 44 58 58 59 45 60 48 61 57 62 71 63 46 64 47 65 56 67
REMARK SMILES IDX 72 68 49 69 38 70 39 71 43 72 40 73 42 74 41 75 60 76 61 77
REMARK SMILES IDX 65 78 62 79 64 80 63 81 50 82 51 83 55 84 52 85 54 86 53 87
REMARK H PARENT 21 6 8 25 26 36 70 55 48 66
REMARK Flexibility Score: inf
ROOT
ATOM      1  C   UNL A   1      37.680  33.755  29.562  1.00  0.00     0.023 C 
ENDROOT
BRANCH   1   2
ATOM      2  C   UNL A   1      38.384  34.726  30.505  1.00  0.00     0.116 C 
BRANCH   2   3
ATOM      3  N   UNL A   1      37.592  34.999  31.690  1.00  0.00    -0.352 N 
ATOM      4  C   UNL A   1      37.480  34.478  32.935  1.00  0.00     0.251 C 
ATOM      5  O   UNL A   1      36.702  35.074  33.687  1.00  0.00    -0.270 OA
ATOM      6  H   UNL A   1      36.978  35.755  31.553  1.00  0.00     0.163 HD
BRANCH   4   7
ATOM      7  C   UNL A   1      38.190  33.263  33.421  1.00  0.00     0.067 C 
ATOM      8  C   UNL A   1      40.467  28.773  33.298  1.00  0.00     0.029 A 
ATOM      9  C   UNL A   1      40.775  30.018  33.872  1.00  0.00     0.058 A 
ATOM     10  C   UNL A   1      39.156  28.569  32.835  1.00  0.00     0.050 A 
ATOM     11  C   UNL A   1      39.876  31.074  33.786  1.00  0.00     0.128 A 
ATOM     12  C   UNL A   1      38.264  29.644  32.724  1.00  0.00     0.033 A 
ATOM     13  Cl  UNL A   1      38.576  27.019  32.339  1.00  0.00    -0.084 Cl
ATOM     14  C   UNL A   1      38.651  30.915  33.141  1.00  0.00     0.019 A 
ATOM     15  O   UNL A   1      40.301  32.280  34.267  1.00  0.00    -0.475 OA
ATOM     16  C   UNL A   1      37.872  32.104  32.813  1.00  0.00     0.025 C 
ATOM     17  C   UNL A   1      39.247  33.255  34.490  1.00  0.00     0.314 C 
BRANCH   8  18
ATOM     18  C   UNL A   1      41.595  27.779  33.104  1.00  0.00     0.301 C 
BRANCH  18  19
ATOM     19  N   UNL A   1      42.502  27.584  34.261  1.00  0.00    -0.327 N 
ATOM     20  C   UNL A   1      44.733  28.376  34.995  1.00  0.00     0.075 C 
ATOM     21  C   UNL A   1      43.941  27.571  33.952  1.00  0.00     0.181 C 
ATOM     22  C   UNL A   1      44.555  26.167  33.794  1.00  0.00     0.065 C 
ATOM     23  C   UNL A   1      44.145  25.202  34.897  1.00  0.00     0.012 C 
ATOM     24  C   UNL A   1      42.034  26.598  35.247  1.00  0.00     0.181 C 
ATOM     25  H   UNL A   1      42.423  28.462  34.774  1.00  0.00     0.348 HD
ATOM     26  C   UNL A   1      42.633  25.192  35.074  1.00  0.00     0.065 C 
ATOM     27  C   UNL A   1      42.242  27.106  36.681  1.00  0.00     0.075 C 
ENDBRANCH  18  19
ENDBRANCH   8  18
BRANCH  17  28
ATOM     28  C   UNL A   1      38.632  33.069  35.894  1.00  0.00     0.429 C 
ATOM     29  F   UNL A   1      38.241  34.263  36.403  1.00  0.00    -0.167 F 
ATOM     30  F   UNL A   1      37.529  32.281  35.868  1.00  0.00    -0.167 F 
ATOM     31  F   UNL A   1      39.488  32.511  36.777  1.00  0.00    -0.167 F 
ENDBRANCH  17  28
ENDBRANCH   4   7
ENDBRANCH   2   3
ENDBRANCH   1   2
BRANCH   1  32
ATOM     32  C   UNL A   1      36.157  33.861  29.580  1.00  0.00     0.023 C 
BRANCH  32  33
ATOM     33  C   UNL A   1      35.427  32.615  30.073  1.00  0.00     0.116 C 
BRANCH  33  34
ATOM     34  N   UNL A   1      34.435  32.088  29.145  1.00  0.00    -0.352 N 
ATOM     35  C   UNL A   1      34.561  31.000  28.309  1.00  0.00     0.251 C 
ATOM     36  H   UNL A   1      33.574  32.565  29.111  1.00  0.00     0.163 HD
ATOM     37  O   UNL A   1      33.672  30.694  27.525  1.00  0.00    -0.269 OA
BRANCH  35  38
ATOM     38  C   UNL A   1      35.829  30.247  28.342  1.00  0.00     0.039 A 
ATOM     39  C   UNL A   1      36.150  29.485  29.466  1.00  0.00     0.014 A 
ATOM     40  C   UNL A   1      36.752  30.427  27.309  1.00  0.00     0.014 A 
ATOM     41  C   UNL A   1      37.459  29.063  29.645  1.00  0.00     0.010 A 
ATOM     42  C   UNL A   1      38.045  29.924  27.455  1.00  0.00     0.010 A 
ATOM     43  C   UNL A   1      38.425  29.294  28.650  1.00  0.00    -0.014 A 
BRANCH  43  44
ATOM     44  C   UNL A   1      39.829  28.887  28.901  1.00  0.00     0.031 A 
ATOM     45  C   UNL A   1      40.775  29.788  29.648  1.00  0.00     0.074 A 
ATOM     46  C   UNL A   1      40.227  27.658  28.523  1.00  0.00     0.049 A 
ATOM     47  N   UNL A   1      42.019  29.567  29.992  1.00  0.00    -0.248 NA
ATOM     48  C   UNL A   1      40.263  31.104  30.063  1.00  0.00     0.031 C 
ATOM     49  C   UNL A   1      39.388  26.684  27.820  1.00  0.00     0.029 A 
ATOM     50  N   UNL A   1      41.415  27.002  28.712  1.00  0.00    -0.354 N 
ATOM     51  C   UNL A   1      42.441  30.716  30.649  1.00  0.00     0.074 A 
ATOM     52  C   UNL A   1      41.334  31.645  30.632  1.00  0.00     0.031 C 
ATOM     53  C   UNL A   1      40.064  25.533  27.700  1.00  0.00     0.029 A 
ATOM     54  C   UNL A   1      41.403  25.710  28.251  1.00  0.00     0.049 A 
ATOM     55  H   UNL A   1      42.200  27.418  29.137  1.00  0.00     0.167 HD
ATOM     56  C   UNL A   1      43.642  30.969  31.224  1.00  0.00     0.031 A 
ATOM     57  C   UNL A   1      42.364  24.766  28.260  1.00  0.00     0.031 A 
ATOM     58  C   UNL A   1      44.744  30.043  31.239  1.00  0.00     0.049 A 
ATOM     59  C   UNL A   1      43.700  25.086  28.857  1.00  0.00     0.074 A 
ATOM     60  C   UNL A   1      46.004  30.215  31.787  1.00  0.00     0.029 A 
ATOM     61  N   UNL A   1      44.717  28.770  30.689  1.00  0.00    -0.354 N 
ATOM     62  N   UNL A   1      44.092  26.188  29.448  1.00  0.00    -0.248 NA
ATOM     63  C   UNL A   1      44.728  24.040  28.782  1.00  0.00     0.031 C 
ATOM     64  C   UNL A   1      46.755  29.065  31.525  1.00  0.00     0.029 A 
ATOM     65  C   UNL A   1      45.943  28.154  30.868  1.00  0.00     0.049 A 
ATOM     66  H   UNL A   1      43.940  28.366  30.238  1.00  0.00     0.167 HD
ATOM     67  C   UNL A   1      45.412  25.971  29.816  1.00  0.00     0.074 A 
ATOM     68  C   UNL A   1      45.746  24.623  29.404  1.00  0.00     0.031 C 
ATOM     69  C   UNL A   1      46.269  26.819  30.434  1.00  0.00     0.031 A 
BRANCH  56  70
ATOM     70  C   UNL A   1      43.839  32.311  31.873  1.00  0.00    -0.014 A 
ATOM     71  C   UNL A   1      43.576  32.471  33.243  1.00  0.00     0.009 A 
ATOM     72  C   UNL A   1      44.216  33.434  31.119  1.00  0.00     0.009 A 
ATOM     73  C   UNL A   1      43.683  33.727  33.845  1.00  0.00     0.001 A 
ATOM     74  C   UNL A   1      44.347  34.683  31.730  1.00  0.00     0.001 A 
ATOM     75  C   UNL A   1      44.074  34.830  33.090  1.00  0.00     0.000 A 
ENDBRANCH  56  70
BRANCH  57  76
ATOM     76  C   UNL A   1      42.062  23.433  27.679  1.00  0.00    -0.014 A 
ATOM     77  C   UNL A   1      42.402  23.148  26.345  1.00  0.00     0.009 A 
ATOM     78  C   UNL A   1      41.351  22.480  28.419  1.00  0.00     0.009 A 
ATOM     79  C   UNL A   1      42.001  21.949  25.755  1.00  0.00     0.001 A 
ATOM     80  C   UNL A   1      40.975  21.269  27.833  1.00  0.00     0.001 A 
ATOM     81  C   UNL A   1      41.290  21.010  26.498  1.00  0.00     0.000 A 
ENDBRANCH  57  76
BRANCH  69  82
ATOM     82  C   UNL A   1      47.661  26.324  30.704  1.00  0.00    -0.014 A 
ATOM     83  C   UNL A   1      47.985  25.799  31.965  1.00  0.00     0.009 A 
ATOM     84  C   UNL A   1      48.672  26.459  29.740  1.00  0.00     0.009 A 
ATOM     85  C   UNL A   1      49.298  25.427  32.260  1.00  0.00     0.001 A 
ATOM     86  C   UNL A   1      49.979  26.063  30.030  1.00  0.00     0.001 A 
ATOM     87  C   UNL A   1      50.292  25.556  31.292  1.00  0.00     0.000 A 
ENDBRANCH  69  82
ENDBRANCH  43  44
ENDBRANCH  35  38
ENDBRANCH  33  34
ENDBRANCH  32  33
ENDBRANCH   1  32
TORSDOF 14
ENDMDL
MODEL 2
REMARK VINA RESULT:      -8.9      0.231      5.684
REMARK SMILES C[C@@H]1CCC[C@H](C)[N@H+]1Cc1cc2c(cc1Cl)C=C(C(=O)NCCCCNC(=O)c1ccc(-c3c4nc(c(-c5ccccc5)c5ccc([nH]5)c(-c5ccccc5)c5nc(c(-c6ccccc6)c6ccc3[nH]6)C=C5)C=C4)cc1)[C@@H](C(F)(F)F)O2
REMARK SMILES IDX 23 1 22 2 21 3 19 4 20 5 18 7 10 8 11 9 15 10 12 11 14 12
REMARK SMILES IDX 16 13 13 14 82 15 17 16 77 17 9 18 8 19 7 20 6 21 5 22 4 23
REMARK SMILES IDX 2 24 3 26 1 27 78 28 79 29 80 30 81 31 24 32 25 33 26 34
REMARK SMILES IDX 27 35 28 37 29 38 30 39 76 40 31 41 75 42 32 43 33 44 34 45
REMARK SMILES IDX 69 46 35 47 74 48 68 49 70 50 36 51 73 52 67 53 66 54 37 56
REMARK SMILES IDX 59 57 44 58 58 59 45 60 48 61 57 62 71 63 46 64 47 65 56 67
REMARK SMILES IDX 72 68 49 69 38 70 39 71 43 72 40 73 42 74 41 75 60 76 61 77
REMARK SMILES IDX 65 78 62 79 64 80 63 81 50 82 51 83 55 84 52 85 54 86 53 87
REMARK H PARENT 21 6 8 25 26 36 70 55 48 66
REMARK Flexibility Score: inf
ROOT
ATOM      1  C   UNL A   1      37.261  33.883  29.539  1.00  0.00     0.023 C 
ENDROOT
BRANCH   1   2
ATOM      2  C   UNL A   1      38.175  34.625  30.509  1.00  0.00     0.116 C 
BRANCH   2   3
ATOM      3  N   UNL A   1      37.492  34.966  31.742  1.00  0.00    -0.352 N 
ATOM      4  C   UNL A   1      37.475  34.501  33.014  1.00  0.00     0.251 C 
ATOM      5  O   UNL A   1      36.776  35.146  33.801  1.00  0.00    -0.270 OA
ATOM      6  H   UNL A   1      36.885  35.732  31.624  1.00  0.00     0.163 HD
BRANCH   4   7
ATOM      7  C   UNL A   1      38.196  33.289  33.492  1.00  0.00     0.067 C 
ATOM      8  C   UNL A   1      40.480  28.803  33.345  1.00  0.00     0.029 A 
ATOM      9  C   UNL A   1      40.796  30.051  33.907  1.00  0.00     0.058 A 
ATOM     10  C   UNL A   1      39.160  28.594  32.909  1.00  0.00     0.050 A 
ATOM     11  C   UNL A   1      39.894  31.105  33.834  1.00  0.00     0.128 A 
ATOM     12  C   UNL A   1      38.264  29.667  32.811  1.00  0.00     0.033 A 
ATOM     13  Cl  UNL A   1      38.573  27.041  32.431  1.00  0.00    -0.084 Cl
ATOM     14  C   UNL A   1      38.656  30.941  33.214  1.00  0.00     0.019 A 
ATOM     15  O   UNL A   1      40.326  32.315  34.301  1.00  0.00    -0.475 OA
ATOM     16  C   UNL A   1      37.869  32.127  32.896  1.00  0.00     0.025 C 
ATOM     17  C   UNL A   1      39.274  33.288  34.540  1.00  0.00     0.314 C 
BRANCH   8  18
ATOM     18  C   UNL A   1      41.605  27.810  33.133  1.00  0.00     0.301 C 
BRANCH  18  19
ATOM     19  N   UNL A   1      42.545  27.636  34.267  1.00  0.00    -0.327 N 
ATOM     20  C   UNL A   1      44.693  28.609  35.034  1.00  0.00     0.075 C 
ATOM     21  C   UNL A   1      43.973  27.795  33.946  1.00  0.00     0.181 C 
ATOM     22  C   UNL A   1      44.729  26.478  33.688  1.00  0.00     0.065 C 
ATOM     23  C   UNL A   1      44.439  25.404  34.726  1.00  0.00     0.012 C 
ATOM     24  C   UNL A   1      42.199  26.542  35.188  1.00  0.00     0.181 C 
ATOM     25  H   UNL A   1      42.383  28.465  34.839  1.00  0.00     0.348 HD
ATOM     26  C   UNL A   1      42.939  25.222  34.915  1.00  0.00     0.065 C 
ATOM     27  C   UNL A   1      42.375  26.973  36.651  1.00  0.00     0.075 C 
ENDBRANCH  18  19
ENDBRANCH   8  18
BRANCH  17  28
ATOM     28  C   UNL A   1      38.687  33.108  35.956  1.00  0.00     0.429 C 
ATOM     29  F   UNL A   1      39.599  32.532  36.779  1.00  0.00    -0.167 F 
ATOM     30  F   UNL A   1      38.352  34.293  36.524  1.00  0.00    -0.167 F 
ATOM     31  F   UNL A   1      37.577  32.340  35.977  1.00  0.00    -0.167 F 
ENDBRANCH  17  28
ENDBRANCH   4   7
ENDBRANCH   2   3
ENDBRANCH   1   2
BRANCH   1  32
ATOM     32  C   UNL A   1      35.795  33.847  29.967  1.00  0.00     0.023 C 
BRANCH  32  33
ATOM     33  C   UNL A   1      35.200  32.451  30.120  1.00  0.00     0.116 C 
BRANCH  33  34
ATOM     34  N   UNL A   1      34.341  32.035  29.018  1.00  0.00    -0.352 N 
ATOM     35  C   UNL A   1      34.573  31.029  28.106  1.00  0.00     0.251 C 
ATOM     36  H   UNL A   1      33.497  32.531  28.914  1.00  0.00     0.163 HD
ATOM     37  O   UNL A   1      33.798  30.817  27.182  1.00  0.00    -0.269 OA
BRANCH  35  38
ATOM     38  C   UNL A   1      35.818  30.250  28.240  1.00  0.00     0.039 A 
ATOM     39  C   UNL A   1      36.050  29.513  29.402  1.00  0.00     0.014 A 
ATOM     40  C   UNL A   1      36.807  30.380  27.262  1.00  0.00     0.014 A 
ATOM     41  C   UNL A   1      37.336  29.068  29.675  1.00  0.00     0.010 A 
ATOM     42  C   UNL A   1      38.077  29.852  27.502  1.00  0.00     0.010 A 
ATOM     43  C   UNL A   1      38.367  29.249  28.735  1.00  0.00    -0.014 A 
BRANCH  43  44
ATOM     44  C   UNL A   1      39.743  28.818  29.085  1.00  0.00     0.031 A 
ATOM     45  C   UNL A   1      40.255  27.462  28.680  1.00  0.00     0.074 A 
ATOM     46  C   UNL A   1      40.561  29.691  29.700  1.00  0.00     0.049 A 
ATOM     47  N   UNL A   1      41.444  26.945  28.865  1.00  0.00    -0.248 NA
ATOM     48  C   UNL A   1      39.318  26.570  27.979  1.00  0.00     0.031 C 
ATOM     49  C   UNL A   1      40.185  31.046  30.113  1.00  0.00     0.029 A 
ATOM     50  N   UNL A   1      41.883  29.590  30.047  1.00  0.00    -0.354 N 
ATOM     51  C   UNL A   1      41.394  25.670  28.318  1.00  0.00     0.074 A 
ATOM     52  C   UNL A   1      40.051  25.476  27.819  1.00  0.00     0.031 C 
ATOM     53  C   UNL A   1      41.268  31.672  30.592  1.00  0.00     0.029 A 
ATOM     54  C   UNL A   1      42.394  30.744  30.586  1.00  0.00     0.049 A 
ATOM     55  H   UNL A   1      42.414  28.771  29.921  1.00  0.00     0.167 HD
ATOM     56  C   UNL A   1      42.383  24.747  28.230  1.00  0.00     0.031 A 
ATOM     57  C   UNL A   1      43.630  31.029  31.037  1.00  0.00     0.031 A 
ATOM     58  C   UNL A   1      43.719  24.943  28.728  1.00  0.00     0.049 A 
ATOM     59  C   UNL A   1      44.694  29.975  30.975  1.00  0.00     0.074 A 
ATOM     60  C   UNL A   1      44.786  24.061  28.695  1.00  0.00     0.029 A 
ATOM     61  N   UNL A   1      44.175  26.100  29.342  1.00  0.00    -0.354 N 
ATOM     62  N   UNL A   1      44.621  28.764  30.481  1.00  0.00    -0.248 NA
ATOM     63  C   UNL A   1      46.005  30.323  31.538  1.00  0.00     0.031 C 
ATOM     64  C   UNL A   1      45.873  24.666  29.333  1.00  0.00     0.029 A 
ATOM     65  C   UNL A   1      45.501  25.947  29.709  1.00  0.00     0.049 A 
ATOM     66  H   UNL A   1      43.635  26.909  29.493  1.00  0.00     0.167 HD
ATOM     67  C   UNL A   1      45.875  28.201  30.673  1.00  0.00     0.074 A 
ATOM     68  C   UNL A   1      46.696  29.214  31.306  1.00  0.00     0.031 C 
ATOM     69  C   UNL A   1      46.301  26.955  30.357  1.00  0.00     0.031 A 
BRANCH  56  70
ATOM     70  C   UNL A   1      42.055  23.429  27.585  1.00  0.00    -0.014 A 
ATOM     71  C   UNL A   1      41.481  22.400  28.349  1.00  0.00     0.009 A 
ATOM     72  C   UNL A   1      42.375  23.178  26.241  1.00  0.00     0.009 A 
ATOM     73  C   UNL A   1      41.239  21.146  27.784  1.00  0.00     0.001 A 
ATOM     74  C   UNL A   1      42.108  21.931  25.672  1.00  0.00     0.001 A 
ATOM     75  C   UNL A   1      41.547  20.914  26.445  1.00  0.00     0.000 A 
ENDBRANCH  56  70
BRANCH  57  76
ATOM     76  C   UNL A   1      43.898  32.385  31.579  1.00  0.00    -0.014 A 
ATOM     77  C   UNL A   1      43.628  32.677  32.927  1.00  0.00     0.009 A 
ATOM     78  C   UNL A   1      44.332  33.415  30.734  1.00  0.00     0.009 A 
ATOM     79  C   UNL A   1      43.750  33.981  33.407  1.00  0.00     0.001 A 
ATOM     80  C   UNL A   1      44.480  34.715  31.224  1.00  0.00     0.001 A 
ATOM     81  C   UNL A   1      44.177  34.998  32.556  1.00  0.00     0.000 A 
ENDBRANCH  57  76
BRANCH  69  82
ATOM     82  C   UNL A   1      47.721  26.601  30.693  1.00  0.00    -0.014 A 
ATOM     83  C   UNL A   1      48.716  26.686  29.707  1.00  0.00     0.009 A 
ATOM     84  C   UNL A   1      48.057  26.100  31.960  1.00  0.00     0.009 A 
ATOM     85  C   UNL A   1      50.019  26.266  29.979  1.00  0.00     0.001 A 
ATOM     86  C   UNL A   1      49.367  25.704  32.237  1.00  0.00     0.001 A 
ATOM     87  C   UNL A   1      50.344  25.780  31.243  1.00  0.00     0.000 A 
ENDBRANCH  69  82
ENDBRANCH  43  44
ENDBRANCH  35  38
ENDBRANCH  33  34
ENDBRANCH  32  33
ENDBRANCH   1  32
TORSDOF 14
ENDMDL
MODEL 3
REMARK VINA RESULT:      -8.6      5.372     11.289
REMARK SMILES C[C@@H]1CCC[C@H](C)[N@H+]1Cc1cc2c(cc1Cl)C=C(C(=O)NCCCCNC(=O)c1ccc(-c3c4nc(c(-c5ccccc5)c5ccc([nH]5)c(-c5ccccc5)c5nc(c(-c6ccccc6)c6ccc3[nH]6)C=C5)C=C4)cc1)[C@@H](C(F)(F)F)O2
REMARK SMILES IDX 23 1 22 2 21 3 19 4 20 5 18 7 10 8 11 9 15 10 12 11 14 12
REMARK SMILES IDX 16 13 13 14 82 15 17 16 77 17 9 18 8 19 7 20 6 21 5 22 4 23
REMARK SMILES IDX 2 24 3 26 1 27 78 28 79 29 80 30 81 31 24 32 25 33 26 34
REMARK SMILES IDX 27 35 28 37 29 38 30 39 76 40 31 41 75 42 32 43 33 44 34 45
REMARK SMILES IDX 69 46 35 47 74 48 68 49 70 50 36 51 73 52 67 53 66 54 37 56
REMARK SMILES IDX 59 57 44 58 58 59 45 60 48 61 57 62 71 63 46 64 47 65 56 67
REMARK SMILES IDX 72 68 49 69 38 70 39 71 43 72 40 73 42 74 41 75 60 76 61 77
REMARK SMILES IDX 65 78 62 79 64 80 63 81 50 82 51 83 55 84 52 85 54 86 53 87
REMARK H PARENT 21 6 8 25 26 36 70 55 48 66
REMARK Flexibility Score: inf
ROOT
ATOM      1  C   UNL A   1      35.491  21.706  26.043  1.00  0.00     0.023 C 
ENDROOT
BRANCH   1   2
ATOM      2  C   UNL A   1      34.153  21.611  25.316  1.00  0.00     0.116 C 
BRANCH   2   3
ATOM      3  N   UNL A   1      34.217  22.194  23.989  1.00  0.00    -0.352 N 
ATOM      4  C   UNL A   1      33.820  23.350  23.406  1.00  0.00     0.251 C 
ATOM      5  O   UNL A   1      34.143  23.481  22.221  1.00  0.00    -0.270 OA
ATOM      6  H   UNL A   1      34.662  21.595  23.347  1.00  0.00     0.163 HD
BRANCH   4   7
ATOM      7  C   UNL A   1      33.025  24.417  24.075  1.00  0.00     0.067 C 
ATOM      8  C   UNL A   1      31.467  29.034  25.345  1.00  0.00     0.029 A 
ATOM      9  C   UNL A   1      30.821  27.853  24.943  1.00  0.00     0.058 A 
ATOM     10  C   UNL A   1      32.817  28.948  25.729  1.00  0.00     0.050 A 
ATOM     11  C   UNL A   1      31.551  26.689  24.731  1.00  0.00     0.128 A 
ATOM     12  C   UNL A   1      33.553  27.782  25.485  1.00  0.00     0.033 A 
ATOM     13  Cl  UNL A   1      33.657  30.261  26.474  1.00  0.00    -0.084 Cl
ATOM     14  C   UNL A   1      32.932  26.670  24.922  1.00  0.00     0.019 A 
ATOM     15  O   UNL A   1      30.865  25.619  24.230  1.00  0.00    -0.475 OA
ATOM     16  C   UNL A   1      33.694  25.536  24.411  1.00  0.00     0.025 C 
ATOM     17  C   UNL A   1      31.550  24.344  24.351  1.00  0.00     0.314 C 
BRANCH   8  18
ATOM     18  C   UNL A   1      30.707  30.340  25.221  1.00  0.00     0.301 C 
BRANCH  18  19
ATOM     19  N   UNL A   1      30.140  30.641  23.884  1.00  0.00    -0.327 N 
ATOM     20  C   UNL A   1      29.256  32.614  22.670  1.00  0.00     0.075 C 
ATOM     21  C   UNL A   1      29.070  31.653  23.855  1.00  0.00     0.181 C 
ATOM     22  C   UNL A   1      27.640  31.081  23.849  1.00  0.00     0.065 C 
ATOM     23  C   UNL A   1      27.450  29.943  22.856  1.00  0.00     0.012 C 
ATOM     24  C   UNL A   1      29.954  29.467  23.018  1.00  0.00     0.181 C 
ATOM     25  H   UNL A   1      30.893  31.144  23.415  1.00  0.00     0.348 HD
ATOM     26  C   UNL A   1      28.531  28.885  23.030  1.00  0.00     0.065 C 
ATOM     27  C   UNL A   1      30.411  29.760  21.582  1.00  0.00     0.075 C 
ENDBRANCH  18  19
ENDBRANCH   8  18
BRANCH  17  28
ATOM     28  C   UNL A   1      31.261  23.708  25.728  1.00  0.00     0.429 C 
ATOM     29  F   UNL A   1      30.149  24.253  26.280  1.00  0.00    -0.167 F 
ATOM     30  F   UNL A   1      31.030  22.375  25.635  1.00  0.00    -0.167 F 
ATOM     31  F   UNL A   1      32.273  23.866  26.608  1.00  0.00    -0.167 F 
ENDBRANCH  17  28
ENDBRANCH   4   7
ENDBRANCH   2   3
ENDBRANCH   1   2
BRANCH   1  32
ATOM     32  C   UNL A   1      36.095  23.108  26.058  1.00  0.00     0.023 C 
BRANCH  32  33
ATOM     33  C   UNL A   1      37.326  23.291  25.174  1.00  0.00     0.116 C 
BRANCH  33  34
ATOM     34  N   UNL A   1      38.478  22.492  25.570  1.00  0.00    -0.352 N 
ATOM     35  C   UNL A   1      39.536  22.879  26.365  1.00  0.00     0.251 C 
ATOM     36  H   UNL A   1      38.504  21.568  25.231  1.00  0.00     0.163 HD
ATOM     37  O   UNL A   1      40.481  22.129  26.575  1.00  0.00    -0.269 OA
BRANCH  35  38
ATOM     38  C   UNL A   1      39.526  24.249  26.908  1.00  0.00     0.039 A 
ATOM     39  C   UNL A   1      40.215  25.262  26.239  1.00  0.00     0.014 A 
ATOM     40  C   UNL A   1      38.950  24.479  28.159  1.00  0.00     0.014 A 
ATOM     41  C   UNL A   1      40.492  26.446  26.907  1.00  0.00     0.010 A 
ATOM     42  C   UNL A   1      39.156  25.706  28.791  1.00  0.00     0.010 A 
ATOM     43  C   UNL A   1      39.981  26.673  28.197  1.00  0.00    -0.014 A 
BRANCH  43  44
ATOM     44  C   UNL A   1      40.348  27.923  28.907  1.00  0.00     0.031 A 
ATOM     45  C   UNL A   1      39.370  29.060  29.030  1.00  0.00     0.074 A 
ATOM     46  C   UNL A   1      41.545  27.996  29.517  1.00  0.00     0.049 A 
ATOM     47  N   UNL A   1      39.513  30.202  29.655  1.00  0.00    -0.248 NA
ATOM     48  C   UNL A   1      38.064  28.899  28.369  1.00  0.00     0.031 C 
ATOM     49  C   UNL A   1      42.564  26.944  29.494  1.00  0.00     0.029 A 
ATOM     50  N   UNL A   1      42.092  28.974  30.306  1.00  0.00    -0.354 N 
ATOM     51  C   UNL A   1      38.328  30.897  29.453  1.00  0.00     0.074 A 
ATOM     52  C   UNL A   1      37.485  30.065  28.623  1.00  0.00     0.031 C 
ATOM     53  C   UNL A   1      43.580  27.303  30.290  1.00  0.00     0.029 A 
ATOM     54  C   UNL A   1      43.318  28.636  30.821  1.00  0.00     0.049 A 
ATOM     55  H   UNL A   1      41.649  29.835  30.485  1.00  0.00     0.167 HD
ATOM     56  C   UNL A   1      37.970  32.116  29.925  1.00  0.00     0.031 A 
ATOM     57  C   UNL A   1      44.150  29.322  31.627  1.00  0.00     0.031 A 
ATOM     58  C   UNL A   1      38.811  32.943  30.750  1.00  0.00     0.049 A 
ATOM     59  C   UNL A   1      43.755  30.689  32.096  1.00  0.00     0.074 A 
ATOM     60  C   UNL A   1      38.541  34.198  31.267  1.00  0.00     0.029 A 
ATOM     61  N   UNL A   1      40.082  32.597  31.185  1.00  0.00    -0.354 N 
ATOM     62  N   UNL A   1      42.643  31.344  31.871  1.00  0.00    -0.248 NA
ATOM     63  C   UNL A   1      44.729  31.415  32.921  1.00  0.00     0.031 C 
ATOM     64  C   UNL A   1      39.667  34.632  31.973  1.00  0.00     0.029 A 
ATOM     65  C   UNL A   1      40.615  33.622  31.947  1.00  0.00     0.049 A 
ATOM     66  H   UNL A   1      40.537  31.747  30.981  1.00  0.00     0.167 HD
ATOM     67  C   UNL A   1      42.780  32.560  32.525  1.00  0.00     0.074 A 
ATOM     68  C   UNL A   1      44.074  32.541  33.177  1.00  0.00     0.031 C 
ATOM     69  C   UNL A   1      41.912  33.599  32.573  1.00  0.00     0.031 A 
BRANCH  56  70
ATOM     70  C   UNL A   1      36.614  32.643  29.547  1.00  0.00    -0.014 A 
ATOM     71  C   UNL A   1      36.415  33.222  28.282  1.00  0.00     0.009 A 
ATOM     72  C   UNL A   1      35.550  32.633  30.463  1.00  0.00     0.009 A 
ATOM     73  C   UNL A   1      35.182  33.782  27.944  1.00  0.00     0.001 A 
ATOM     74  C   UNL A   1      34.310  33.171  30.111  1.00  0.00     0.001 A 
ATOM     75  C   UNL A   1      34.129  33.751  28.855  1.00  0.00     0.000 A 
ENDBRANCH  56  70
BRANCH  57  76
ATOM     76  C   UNL A   1      45.435  28.695  32.028  1.00  0.00    -0.014 A 
ATOM     77  C   UNL A   1      46.552  28.758  31.177  1.00  0.00     0.009 A 
ATOM     78  C   UNL A   1      45.524  27.952  33.213  1.00  0.00     0.009 A 
ATOM     79  C   UNL A   1      47.718  28.058  31.487  1.00  0.00     0.001 A 
ATOM     80  C   UNL A   1      46.703  27.275  33.534  1.00  0.00     0.001 A 
ATOM     81  C   UNL A   1      47.793  27.318  32.664  1.00  0.00     0.000 A 
ENDBRANCH  57  76
BRANCH  69  82
ATOM     82  C   UNL A   1      42.327  34.814  33.352  1.00  0.00    -0.014 A 
ATOM     83  C   UNL A   1      41.938  34.951  34.694  1.00  0.00     0.009 A 
ATOM     84  C   UNL A   1      43.025  35.862  32.733  1.00  0.00     0.009 A 
ATOM     85  C   UNL A   1      42.232  36.119  35.399  1.00  0.00     0.001 A 
ATOM     86  C   UNL A   1      43.339  37.019  33.449  1.00  0.00     0.001 A 
ATOM     87  C   UNL A   1      42.935  37.149  34.778  1.00  0.00     0.000 A 
ENDBRANCH  69  82
ENDBRANCH  43  44
ENDBRANCH  35  38
ENDBRANCH  33  34
ENDBRANCH  32  33
ENDBRANCH   1  32
TORSDOF 14
ENDMDL
