MODEL 1
REMARK VINA RESULT:     -12.4      0.000      0.000
REMARK SMILES Cc1c(C(=O)Nc2ccc(C(=O)Nc3ccccc3C(=O)NCCCCNC(=O)c3ccc(-c4c5nc(c(-c6ccccc6)c6ccc([nH]6)c(-c6ccccc6)c6nc(c(-c7ccccc7)c7ccc4[nH]7)C=C6)C=C5)cc3)cc2)cccc1[N+](=O)[O-]
REMARK SMILES IDX 23 1 22 2 20 3 21 4 19 6 14 7 15 8 16 9 18 10 17 11 13 12
REMARK SMILES IDX 11 13 12 14 10 16 7 17 8 18 79 19 9 20 78 21 6 22 4 23 5 24
REMARK SMILES IDX 3 26 1 27 2 28 83 29 80 30 82 31 81 32 84 33 85 34 86 35
REMARK SMILES IDX 24 36 25 37 26 38 27 39 28 40 29 42 30 43 31 44 77 45 32 46
REMARK SMILES IDX 76 47 33 48 34 49 35 50 70 51 36 52 75 53 69 54 71 55 37 56
REMARK SMILES IDX 74 57 68 58 67 59 38 61 60 62 45 63 59 64 46 65 49 66 58 67
REMARK SMILES IDX 72 68 47 69 48 70 57 72 73 73 50 74 39 75 40 76 44 77 41 78
REMARK SMILES IDX 43 79 42 80 61 81 62 82 66 83 63 84 65 85 64 86 51 87 52 88
REMARK SMILES IDX 56 89 53 90 55 91 54 92
REMARK H PARENT 22 5 13 15 6 25 27 41 71 60 49 71
REMARK Flexibility Score: inf
ROOT
ATOM      1  C   UNL A   1      32.531  26.516  26.219  1.00  0.00     0.116 C 
ENDROOT
BRANCH   1   2
ATOM      2  N   UNL A   1      32.121  25.655  25.115  1.00  0.00    -0.352 N 
ATOM      3  C   UNL A   1      32.094  24.285  24.925  1.00  0.00     0.253 C 
ATOM      4  O   UNL A   1      31.483  23.862  23.945  1.00  0.00    -0.269 OA
ATOM      5  H   UNL A   1      31.790  26.158  24.336  1.00  0.00     0.163 HD
BRANCH   3   6
ATOM      6  C   UNL A   1      32.806  23.322  25.815  1.00  0.00     0.063 A 
ATOM      7  C   UNL A   1      33.871  22.505  25.355  1.00  0.00     0.054 A 
ATOM      8  C   UNL A   1      34.494  21.619  26.254  1.00  0.00     0.027 A 
ATOM      9  C   UNL A   1      34.116  21.568  27.594  1.00  0.00     0.002 A 
ATOM     10  C   UNL A   1      32.356  23.150  27.134  1.00  0.00     0.016 A 
ATOM     11  C   UNL A   1      33.035  22.321  28.031  1.00  0.00     0.001 A 
BRANCH   7  12
ATOM     12  N   UNL A   1      34.450  22.500  24.066  1.00  0.00    -0.321 N 
ATOM     13  C   UNL A   1      35.705  22.834  23.604  1.00  0.00     0.255 C 
ATOM     14  O   UNL A   1      35.885  22.932  22.388  1.00  0.00    -0.269 OA
ATOM     15  H   UNL A   1      33.836  22.198  23.358  1.00  0.00     0.170 HD
BRANCH  13  16
ATOM     16  C   UNL A   1      36.894  22.869  24.500  1.00  0.00     0.040 A 
ATOM     17  C   UNL A   1      38.923  22.794  26.450  1.00  0.00     0.041 A 
ATOM     18  C   UNL A   1      38.253  23.972  26.166  1.00  0.00     0.027 A 
ATOM     19  C   UNL A   1      38.684  21.677  25.643  1.00  0.00     0.027 A 
ATOM     20  C   UNL A   1      37.184  23.979  25.286  1.00  0.00     0.016 A 
ATOM     21  C   UNL A   1      37.675  21.719  24.667  1.00  0.00     0.016 A 
BRANCH  17  22
ATOM     22  N   UNL A   1      39.759  22.662  27.572  1.00  0.00    -0.322 N 
ATOM     23  C   UNL A   1      41.140  22.593  27.676  1.00  0.00     0.256 C 
ATOM     24  O   UNL A   1      41.646  22.330  28.767  1.00  0.00    -0.269 OA
ATOM     25  H   UNL A   1      39.283  22.610  28.431  1.00  0.00     0.170 HD
BRANCH  23  26
ATOM     26  C   UNL A   1      42.056  22.804  26.513  1.00  0.00     0.049 A 
ATOM     27  C   UNL A   1      42.521  20.327  26.132  1.00  0.00     0.053 C 
ATOM     28  C   UNL A   1      42.819  21.785  25.893  1.00  0.00     0.039 A 
ATOM     29  C   UNL A   1      43.879  22.199  25.053  1.00  0.00     0.273 A 
ATOM     30  C   UNL A   1      42.183  24.139  26.085  1.00  0.00     0.014 A 
ATOM     31  C   UNL A   1      44.019  23.539  24.651  1.00  0.00     0.086 A 
ATOM     32  C   UNL A   1      43.132  24.498  25.129  1.00  0.00     0.008 A 
BRANCH  29  33
ATOM     33  N   UNL A   1      44.964  21.282  24.674  1.00  0.00     0.063 N 
ATOM     34  O   UNL A   1      45.981  21.278  25.380  1.00  0.00    -0.258 OA
ATOM     35  O   UNL A   1      44.762  20.515  23.724  1.00  0.00    -0.258 OA
ENDBRANCH  29  33
ENDBRANCH  23  26
ENDBRANCH  17  22
ENDBRANCH  13  16
ENDBRANCH   7  12
ENDBRANCH   3   6
ENDBRANCH   1   2
BRANCH   1  36
ATOM     36  C   UNL A   1      33.754  27.419  25.998  1.00  0.00     0.023 C 
BRANCH  36  37
ATOM     37  C   UNL A   1      33.525  28.923  25.897  1.00  0.00     0.023 C 
BRANCH  37  38
ATOM     38  C   UNL A   1      32.993  29.557  27.170  1.00  0.00     0.116 C 
BRANCH  38  39
ATOM     39  N   UNL A   1      33.482  30.910  27.426  1.00  0.00    -0.352 N 
ATOM     40  C   UNL A   1      34.695  31.322  27.961  1.00  0.00     0.251 C 
ATOM     41  H   UNL A   1      32.862  31.634  27.181  1.00  0.00     0.163 HD
ATOM     42  O   UNL A   1      34.924  32.507  28.130  1.00  0.00    -0.269 OA
BRANCH  40  43
ATOM     43  C   UNL A   1      35.766  30.317  28.184  1.00  0.00     0.039 A 
ATOM     44  C   UNL A   1      35.887  29.777  29.470  1.00  0.00     0.014 A 
ATOM     45  C   UNL A   1      36.775  30.132  27.247  1.00  0.00     0.014 A 
ATOM     46  C   UNL A   1      37.130  29.328  29.898  1.00  0.00     0.010 A 
ATOM     47  C   UNL A   1      38.035  29.806  27.700  1.00  0.00     0.010 A 
ATOM     48  C   UNL A   1      38.221  29.481  29.046  1.00  0.00    -0.014 A 
BRANCH  48  49
ATOM     49  C   UNL A   1      39.601  29.446  29.506  1.00  0.00     0.031 A 
ATOM     50  C   UNL A   1      40.386  28.208  29.380  1.00  0.00     0.074 A 
ATOM     51  C   UNL A   1      40.171  30.576  29.977  1.00  0.00     0.049 A 
ATOM     52  N   UNL A   1      41.429  27.935  30.085  1.00  0.00    -0.248 NA
ATOM     53  C   UNL A   1      40.001  27.131  28.477  1.00  0.00     0.031 C 
ATOM     54  C   UNL A   1      41.585  30.831  30.232  1.00  0.00     0.029 A 
ATOM     55  N   UNL A   1      39.516  31.674  30.535  1.00  0.00    -0.354 N 
ATOM     56  C   UNL A   1      42.016  26.819  29.537  1.00  0.00     0.074 A 
ATOM     57  C   UNL A   1      41.034  26.296  28.617  1.00  0.00     0.031 C 
ATOM     58  C   UNL A   1      41.691  31.850  31.100  1.00  0.00     0.029 A 
ATOM     59  C   UNL A   1      40.348  32.180  31.549  1.00  0.00     0.049 A 
ATOM     60  H   UNL A   1      38.636  32.027  30.269  1.00  0.00     0.167 HD
ATOM     61  C   UNL A   1      43.323  26.556  29.815  1.00  0.00     0.031 A 
ATOM     62  C   UNL A   1      39.939  32.164  32.852  1.00  0.00     0.031 A 
ATOM     63  C   UNL A   1      43.839  27.448  30.855  1.00  0.00     0.049 A 
ATOM     64  C   UNL A   1      40.796  31.291  33.747  1.00  0.00     0.074 A 
ATOM     65  C   UNL A   1      44.641  28.578  30.827  1.00  0.00     0.029 A 
ATOM     66  N   UNL A   1      43.268  27.406  32.123  1.00  0.00    -0.354 N 
ATOM     67  N   UNL A   1      41.637  30.394  33.313  1.00  0.00    -0.248 NA
ATOM     68  C   UNL A   1      40.741  31.338  35.206  1.00  0.00     0.031 C 
ATOM     69  C   UNL A   1      44.475  29.264  32.061  1.00  0.00     0.029 A 
ATOM     70  C   UNL A   1      43.604  28.533  32.849  1.00  0.00     0.049 A 
ATOM     71  H   UNL A   1      42.701  26.675  32.456  1.00  0.00     0.167 HD
ATOM     72  C   UNL A   1      42.207  29.740  34.374  1.00  0.00     0.074 A 
ATOM     73  C   UNL A   1      41.629  30.385  35.541  1.00  0.00     0.031 C 
ATOM     74  C   UNL A   1      43.088  28.711  34.203  1.00  0.00     0.031 A 
BRANCH  61  75
ATOM     75  C   UNL A   1      44.203  25.681  28.947  1.00  0.00    -0.014 A 
ATOM     76  C   UNL A   1      44.261  24.296  29.193  1.00  0.00     0.009 A 
ATOM     77  C   UNL A   1      45.059  26.150  27.936  1.00  0.00     0.009 A 
ATOM     78  C   UNL A   1      45.171  23.457  28.532  1.00  0.00     0.001 A 
ATOM     79  C   UNL A   1      45.990  25.326  27.288  1.00  0.00     0.001 A 
ATOM     80  C   UNL A   1      46.054  23.978  27.595  1.00  0.00     0.000 A 
ENDBRANCH  61  75
BRANCH  62  81
ATOM     81  C   UNL A   1      38.471  32.371  33.013  1.00  0.00    -0.014 A 
ATOM     82  C   UNL A   1      37.945  33.650  32.732  1.00  0.00     0.009 A 
ATOM     83  C   UNL A   1      37.589  31.284  33.065  1.00  0.00     0.009 A 
ATOM     84  C   UNL A   1      36.600  33.813  32.389  1.00  0.00     0.001 A 
ATOM     85  C   UNL A   1      36.237  31.456  32.735  1.00  0.00     0.001 A 
ATOM     86  C   UNL A   1      35.753  32.710  32.361  1.00  0.00     0.000 A 
ENDBRANCH  62  81
BRANCH  74  87
ATOM     87  C   UNL A   1      43.599  27.784  35.284  1.00  0.00    -0.014 A 
ATOM     88  C   UNL A   1      44.924  27.745  35.737  1.00  0.00     0.009 A 
ATOM     89  C   UNL A   1      42.668  26.988  35.991  1.00  0.00     0.009 A 
ATOM     90  C   UNL A   1      45.305  26.922  36.808  1.00  0.00     0.001 A 
ATOM     91  C   UNL A   1      43.034  26.206  37.089  1.00  0.00     0.001 A 
ATOM     92  C   UNL A   1      44.360  26.163  37.490  1.00  0.00     0.000 A 
ENDBRANCH  74  87
ENDBRANCH  48  49
ENDBRANCH  40  43
ENDBRANCH  38  39
ENDBRANCH  37  38
ENDBRANCH  36  37
ENDBRANCH   1  36
TORSDOF 16
ENDMDL
MODEL 2
REMARK VINA RESULT:     -11.4      3.009      5.544
REMARK SMILES Cc1c(C(=O)Nc2ccc(C(=O)Nc3ccccc3C(=O)NCCCCNC(=O)c3ccc(-c4c5nc(c(-c6ccccc6)c6ccc([nH]6)c(-c6ccccc6)c6nc(c(-c7ccccc7)c7ccc4[nH]7)C=C6)C=C5)cc3)cc2)cccc1[N+](=O)[O-]
REMARK SMILES IDX 23 1 22 2 20 3 21 4 19 6 14 7 15 8 16 9 18 10 17 11 13 12
REMARK SMILES IDX 11 13 12 14 10 16 7 17 8 18 79 19 9 20 78 21 6 22 4 23 5 24
REMARK SMILES IDX 3 26 1 27 2 28 83 29 80 30 82 31 81 32 84 33 85 34 86 35
REMARK SMILES IDX 24 36 25 37 26 38 27 39 28 40 29 42 30 43 31 44 77 45 32 46
REMARK SMILES IDX 76 47 33 48 34 49 35 50 70 51 36 52 75 53 69 54 71 55 37 56
REMARK SMILES IDX 74 57 68 58 67 59 38 61 60 62 45 63 59 64 46 65 49 66 58 67
REMARK SMILES IDX 72 68 47 69 48 70 57 72 73 73 50 74 39 75 40 76 44 77 41 78
REMARK SMILES IDX 43 79 42 80 61 81 62 82 66 83 63 84 65 85 64 86 51 87 52 88
REMARK SMILES IDX 56 89 53 90 55 91 54 92
REMARK H PARENT 22 5 13 15 6 25 27 41 71 60 49 71
REMARK Flexibility Score: inf
ROOT
ATOM      1  C   UNL A   1      34.345  28.949  27.121  1.00  0.00     0.116 C 
ENDROOT
BRANCH   1   2
ATOM      2  N   UNL A   1      33.069  28.696  27.781  1.00  0.00    -0.352 N 
ATOM      3  C   UNL A   1      31.872  28.136  27.372  1.00  0.00     0.253 C 
ATOM      4  O   UNL A   1      31.046  27.869  28.244  1.00  0.00    -0.269 OA
ATOM      5  H   UNL A   1      33.057  28.985  28.722  1.00  0.00     0.163 HD
BRANCH   3   6
ATOM      6  C   UNL A   1      31.528  27.894  25.941  1.00  0.00     0.063 A 
ATOM      7  C   UNL A   1      30.785  26.762  25.517  1.00  0.00     0.054 A 
ATOM      8  C   UNL A   1      30.502  26.602  24.147  1.00  0.00     0.027 A 
ATOM      9  C   UNL A   1      30.892  27.558  23.213  1.00  0.00     0.002 A 
ATOM     10  C   UNL A   1      32.027  28.769  24.962  1.00  0.00     0.016 A 
ATOM     11  C   UNL A   1      31.670  28.634  23.618  1.00  0.00     0.001 A 
BRANCH   7  12
ATOM     12  N   UNL A   1      30.224  25.753  26.331  1.00  0.00    -0.321 N 
ATOM     13  C   UNL A   1      30.615  24.465  26.627  1.00  0.00     0.255 C 
ATOM     14  O   UNL A   1      29.825  23.723  27.214  1.00  0.00    -0.269 OA
ATOM     15  H   UNL A   1      29.388  26.024  26.775  1.00  0.00     0.170 HD
BRANCH  13  16
ATOM     16  C   UNL A   1      32.022  24.009  26.459  1.00  0.00     0.040 A 
ATOM     17  C   UNL A   1      34.550  22.896  25.909  1.00  0.00     0.041 A 
ATOM     18  C   UNL A   1      33.867  22.572  27.069  1.00  0.00     0.027 A 
ATOM     19  C   UNL A   1      34.034  23.905  25.089  1.00  0.00     0.027 A 
ATOM     20  C   UNL A   1      32.580  23.037  27.282  1.00  0.00     0.016 A 
ATOM     21  C   UNL A   1      32.776  24.463  25.368  1.00  0.00     0.016 A 
BRANCH  17  22
ATOM     22  N   UNL A   1      35.685  22.184  25.487  1.00  0.00    -0.322 N 
ATOM     23  C   UNL A   1      35.821  20.895  24.993  1.00  0.00     0.256 C 
ATOM     24  O   UNL A   1      36.949  20.434  24.823  1.00  0.00    -0.269 OA
ATOM     25  H   UNL A   1      36.529  22.685  25.553  1.00  0.00     0.170 HD
BRANCH  23  26
ATOM     26  C   UNL A   1      34.652  20.019  24.672  1.00  0.00     0.049 A 
ATOM     27  C   UNL A   1      35.852  17.831  25.194  1.00  0.00     0.053 C 
ATOM     28  C   UNL A   1      34.698  18.605  24.610  1.00  0.00     0.039 A 
ATOM     29  C   UNL A   1      33.620  17.957  23.962  1.00  0.00     0.273 A 
ATOM     30  C   UNL A   1      33.462  20.701  24.353  1.00  0.00     0.014 A 
ATOM     31  C   UNL A   1      32.445  18.649  23.619  1.00  0.00     0.086 A 
ATOM     32  C   UNL A   1      32.351  20.014  23.867  1.00  0.00     0.008 A 
BRANCH  29  33
ATOM     33  N   UNL A   1      33.728  16.569  23.490  1.00  0.00     0.063 N 
ATOM     34  O   UNL A   1      34.300  16.377  22.409  1.00  0.00    -0.258 OA
ATOM     35  O   UNL A   1      33.314  15.674  24.238  1.00  0.00    -0.258 OA
ENDBRANCH  29  33
ENDBRANCH  23  26
ENDBRANCH  17  22
ENDBRANCH  13  16
ENDBRANCH   7  12
ENDBRANCH   3   6
ENDBRANCH   1   2
BRANCH   1  36
ATOM     36  C   UNL A   1      34.945  30.358  27.254  1.00  0.00     0.023 C 
BRANCH  36  37
ATOM     37  C   UNL A   1      34.017  31.495  27.667  1.00  0.00     0.023 C 
BRANCH  37  38
ATOM     38  C   UNL A   1      34.729  32.679  28.298  1.00  0.00     0.116 C 
BRANCH  38  39
ATOM     39  N   UNL A   1      33.851  33.613  28.998  1.00  0.00    -0.352 N 
ATOM     40  C   UNL A   1      33.948  34.114  30.290  1.00  0.00     0.251 C 
ATOM     41  H   UNL A   1      33.078  33.934  28.479  1.00  0.00     0.163 HD
ATOM     42  O   UNL A   1      33.098  34.873  30.723  1.00  0.00    -0.269 OA
BRANCH  40  43
ATOM     43  C   UNL A   1      35.174  33.837  31.082  1.00  0.00     0.039 A 
ATOM     44  C   UNL A   1      36.300  34.627  30.826  1.00  0.00     0.014 A 
ATOM     45  C   UNL A   1      35.288  32.673  31.833  1.00  0.00     0.014 A 
ATOM     46  C   UNL A   1      37.563  34.095  31.056  1.00  0.00     0.010 A 
ATOM     47  C   UNL A   1      36.531  32.091  31.949  1.00  0.00     0.010 A 
ATOM     48  C   UNL A   1      37.659  32.774  31.486  1.00  0.00    -0.014 A 
BRANCH  48  49
ATOM     49  C   UNL A   1      38.875  31.984  31.366  1.00  0.00     0.031 A 
ATOM     50  C   UNL A   1      38.855  30.710  30.630  1.00  0.00     0.074 A 
ATOM     51  C   UNL A   1      40.031  32.468  31.871  1.00  0.00     0.049 A 
ATOM     52  N   UNL A   1      39.715  29.765  30.792  1.00  0.00    -0.248 NA
ATOM     53  C   UNL A   1      37.796  30.373  29.687  1.00  0.00     0.031 C 
ATOM     54  C   UNL A   1      41.387  31.984  31.634  1.00  0.00     0.029 A 
ATOM     55  N   UNL A   1      40.170  33.395  32.905  1.00  0.00    -0.354 N 
ATOM     56  C   UNL A   1      39.511  28.848  29.788  1.00  0.00     0.074 A 
ATOM     57  C   UNL A   1      38.244  29.213  29.201  1.00  0.00     0.031 C 
ATOM     58  C   UNL A   1      42.177  32.404  32.637  1.00  0.00     0.029 A 
ATOM     59  C   UNL A   1      41.322  33.038  33.627  1.00  0.00     0.049 A 
ATOM     60  H   UNL A   1      39.573  34.154  33.093  1.00  0.00     0.167 HD
ATOM     61  C   UNL A   1      40.512  27.979  29.475  1.00  0.00     0.031 A 
ATOM     62  C   UNL A   1      41.227  32.650  34.933  1.00  0.00     0.031 A 
ATOM     63  C   UNL A   1      41.609  28.055  30.441  1.00  0.00     0.049 A 
ATOM     64  C   UNL A   1      41.655  31.217  35.174  1.00  0.00     0.074 A 
ATOM     65  C   UNL A   1      42.860  28.650  30.416  1.00  0.00     0.029 A 
ATOM     66  N   UNL A   1      41.360  27.728  31.771  1.00  0.00    -0.354 N 
ATOM     67  N   UNL A   1      41.800  30.324  34.234  1.00  0.00    -0.248 NA
ATOM     68  C   UNL A   1      41.918  30.668  36.503  1.00  0.00     0.031 C 
ATOM     69  C   UNL A   1      43.321  28.760  31.756  1.00  0.00     0.029 A 
ATOM     70  C   UNL A   1      42.369  28.198  32.589  1.00  0.00     0.049 A 
ATOM     71  H   UNL A   1      40.571  27.230  32.085  1.00  0.00     0.167 HD
ATOM     72  C   UNL A   1      42.136  29.116  34.789  1.00  0.00     0.074 A 
ATOM     73  C   UNL A   1      42.221  29.391  36.213  1.00  0.00     0.031 C 
ATOM     74  C   UNL A   1      42.297  27.991  34.032  1.00  0.00     0.031 A 
BRANCH  61  75
ATOM     75  C   UNL A   1      40.616  27.269  28.141  1.00  0.00    -0.014 A 
ATOM     76  C   UNL A   1      40.082  25.975  28.002  1.00  0.00     0.009 A 
ATOM     77  C   UNL A   1      41.291  27.768  27.013  1.00  0.00     0.009 A 
ATOM     78  C   UNL A   1      40.282  25.204  26.846  1.00  0.00     0.001 A 
ATOM     79  C   UNL A   1      41.521  26.997  25.866  1.00  0.00     0.001 A 
ATOM     80  C   UNL A   1      41.024  25.707  25.786  1.00  0.00     0.000 A 
ENDBRANCH  61  75
BRANCH  62  81
ATOM     81  C   UNL A   1      40.149  33.356  35.683  1.00  0.00    -0.014 A 
ATOM     82  C   UNL A   1      38.968  32.642  35.981  1.00  0.00     0.009 A 
ATOM     83  C   UNL A   1      40.415  34.530  36.399  1.00  0.00     0.009 A 
ATOM     84  C   UNL A   1      38.148  33.024  37.046  1.00  0.00     0.001 A 
ATOM     85  C   UNL A   1      39.581  34.917  37.457  1.00  0.00     0.001 A 
ATOM     86  C   UNL A   1      38.472  34.144  37.803  1.00  0.00     0.000 A 
ENDBRANCH  62  81
BRANCH  74  87
ATOM     87  C   UNL A   1      42.446  26.579  34.553  1.00  0.00    -0.014 A 
ATOM     88  C   UNL A   1      41.498  25.919  35.345  1.00  0.00     0.009 A 
ATOM     89  C   UNL A   1      43.547  25.807  34.116  1.00  0.00     0.009 A 
ATOM     90  C   UNL A   1      41.664  24.576  35.716  1.00  0.00     0.001 A 
ATOM     91  C   UNL A   1      43.691  24.456  34.441  1.00  0.00     0.001 A 
ATOM     92  C   UNL A   1      42.752  23.842  35.255  1.00  0.00     0.000 A 
ENDBRANCH  74  87
ENDBRANCH  48  49
ENDBRANCH  40  43
ENDBRANCH  38  39
ENDBRANCH  37  38
ENDBRANCH  36  37
ENDBRANCH   1  36
TORSDOF 16
ENDMDL
MODEL 3
REMARK VINA RESULT:     -10.6      2.483      5.005
REMARK SMILES Cc1c(C(=O)Nc2ccc(C(=O)Nc3ccccc3C(=O)NCCCCNC(=O)c3ccc(-c4c5nc(c(-c6ccccc6)c6ccc([nH]6)c(-c6ccccc6)c6nc(c(-c7ccccc7)c7ccc4[nH]7)C=C6)C=C5)cc3)cc2)cccc1[N+](=O)[O-]
REMARK SMILES IDX 23 1 22 2 20 3 21 4 19 6 14 7 15 8 16 9 18 10 17 11 13 12
REMARK SMILES IDX 11 13 12 14 10 16 7 17 8 18 79 19 9 20 78 21 6 22 4 23 5 24
REMARK SMILES IDX 3 26 1 27 2 28 83 29 80 30 82 31 81 32 84 33 85 34 86 35
REMARK SMILES IDX 24 36 25 37 26 38 27 39 28 40 29 42 30 43 31 44 77 45 32 46
REMARK SMILES IDX 76 47 33 48 34 49 35 50 70 51 36 52 75 53 69 54 71 55 37 56
REMARK SMILES IDX 74 57 68 58 67 59 38 61 60 62 45 63 59 64 46 65 49 66 58 67
REMARK SMILES IDX 72 68 47 69 48 70 57 72 73 73 50 74 39 75 40 76 44 77 41 78
REMARK SMILES IDX 43 79 42 80 61 81 62 82 66 83 63 84 65 85 64 86 51 87 52 88
REMARK SMILES IDX 56 89 53 90 55 91 54 92
REMARK H PARENT 22 5 13 15 6 25 27 41 71 60 49 71
REMARK Flexibility Score: inf
ROOT
ATOM      1  C   UNL A   1      32.665  28.681  27.330  1.00  0.00     0.116 C 
ENDROOT
BRANCH   1   2
ATOM      2  N   UNL A   1      31.889  29.671  26.591  1.00  0.00    -0.352 N 
ATOM      3  C   UNL A   1      31.534  29.815  25.262  1.00  0.00     0.253 C 
ATOM      4  O   UNL A   1      30.681  30.659  24.993  1.00  0.00    -0.269 OA
ATOM      5  H   UNL A   1      31.541  30.393  27.163  1.00  0.00     0.163 HD
BRANCH   3   6
ATOM      6  C   UNL A   1      32.168  29.038  24.157  1.00  0.00     0.063 A 
ATOM      7  C   UNL A   1      31.485  28.006  23.463  1.00  0.00     0.054 A 
ATOM      8  C   UNL A   1      32.151  27.316  22.432  1.00  0.00     0.027 A 
ATOM      9  C   UNL A   1      33.445  27.663  22.051  1.00  0.00     0.002 A 
ATOM     10  C   UNL A   1      33.517  29.272  23.845  1.00  0.00     0.016 A 
ATOM     11  C   UNL A   1      34.135  28.629  22.770  1.00  0.00     0.001 A 
BRANCH   7  12
ATOM     12  N   UNL A   1      30.145  27.595  23.643  1.00  0.00    -0.321 N 
ATOM     13  C   UNL A   1      29.571  26.368  23.901  1.00  0.00     0.255 C 
ATOM     14  O   UNL A   1      28.347  26.253  23.810  1.00  0.00    -0.269 OA
ATOM     15  H   UNL A   1      29.494  28.329  23.571  1.00  0.00     0.170 HD
BRANCH  13  16
ATOM     16  C   UNL A   1      30.345  25.242  24.490  1.00  0.00     0.040 A 
ATOM     17  C   UNL A   1      31.495  22.927  25.608  1.00  0.00     0.041 A 
ATOM     18  C   UNL A   1      31.173  24.015  26.401  1.00  0.00     0.027 A 
ATOM     19  C   UNL A   1      31.385  23.055  24.220  1.00  0.00     0.027 A 
ATOM     20  C   UNL A   1      30.510  25.106  25.864  1.00  0.00     0.016 A 
ATOM     21  C   UNL A   1      30.816  24.213  23.664  1.00  0.00     0.016 A 
BRANCH  17  22
ATOM     22  N   UNL A   1      31.837  21.679  26.156  1.00  0.00    -0.322 N 
ATOM     23  C   UNL A   1      33.062  21.040  26.274  1.00  0.00     0.256 C 
ATOM     24  O   UNL A   1      33.095  19.875  26.666  1.00  0.00    -0.269 OA
ATOM     25  H   UNL A   1      31.076  21.170  26.518  1.00  0.00     0.170 HD
BRANCH  23  26
ATOM     26  C   UNL A   1      34.359  21.699  25.928  1.00  0.00     0.049 A 
ATOM     27  C   UNL A   1      35.360  19.651  24.785  1.00  0.00     0.053 C 
ATOM     28  C   UNL A   1      35.482  21.029  25.383  1.00  0.00     0.039 A 
ATOM     29  C   UNL A   1      36.723  21.708  25.441  1.00  0.00     0.273 A 
ATOM     30  C   UNL A   1      34.441  23.068  26.246  1.00  0.00     0.014 A 
ATOM     31  C   UNL A   1      36.802  23.068  25.787  1.00  0.00     0.086 A 
ATOM     32  C   UNL A   1      35.647  23.759  26.137  1.00  0.00     0.008 A 
BRANCH  29  33
ATOM     33  N   UNL A   1      37.998  20.994  25.279  1.00  0.00     0.063 N 
ATOM     34  O   UNL A   1      37.979  19.924  24.656  1.00  0.00    -0.258 OA
ATOM     35  O   UNL A   1      39.021  21.544  25.706  1.00  0.00    -0.258 OA
ENDBRANCH  29  33
ENDBRANCH  23  26
ENDBRANCH  17  22
ENDBRANCH  13  16
ENDBRANCH   7  12
ENDBRANCH   3   6
ENDBRANCH   1   2
BRANCH   1  36
ATOM     36  C   UNL A   1      34.196  28.781  27.256  1.00  0.00     0.023 C 
BRANCH  36  37
ATOM     37  C   UNL A   1      34.823  30.170  27.231  1.00  0.00     0.023 C 
BRANCH  37  38
ATOM     38  C   UNL A   1      35.009  30.792  28.605  1.00  0.00     0.116 C 
BRANCH  38  39
ATOM     39  N   UNL A   1      34.201  31.983  28.847  1.00  0.00    -0.352 N 
ATOM     40  C   UNL A   1      34.490  33.105  29.613  1.00  0.00     0.251 C 
ATOM     41  H   UNL A   1      33.323  31.994  28.401  1.00  0.00     0.163 HD
ATOM     42  O   UNL A   1      33.674  34.003  29.726  1.00  0.00    -0.269 OA
BRANCH  40  43
ATOM     43  C   UNL A   1      35.858  33.266  30.169  1.00  0.00     0.039 A 
ATOM     44  C   UNL A   1      36.845  33.777  29.318  1.00  0.00     0.014 A 
ATOM     45  C   UNL A   1      36.210  32.676  31.377  1.00  0.00     0.014 A 
ATOM     46  C   UNL A   1      38.171  33.424  29.534  1.00  0.00     0.010 A 
ATOM     47  C   UNL A   1      37.501  32.219  31.529  1.00  0.00     0.010 A 
ATOM     48  C   UNL A   1      38.461  32.530  30.563  1.00  0.00    -0.014 A 
BRANCH  48  49
ATOM     49  C   UNL A   1      39.702  31.774  30.634  1.00  0.00     0.031 A 
ATOM     50  C   UNL A   1      39.836  30.511  29.891  1.00  0.00     0.074 A 
ATOM     51  C   UNL A   1      40.747  32.280  31.324  1.00  0.00     0.049 A 
ATOM     52  N   UNL A   1      40.684  29.585  30.180  1.00  0.00    -0.248 NA
ATOM     53  C   UNL A   1      38.953  30.160  28.785  1.00  0.00     0.031 C 
ATOM     54  C   UNL A   1      42.137  31.834  31.304  1.00  0.00     0.029 A 
ATOM     55  N   UNL A   1      40.691  33.195  32.376  1.00  0.00    -0.354 N 
ATOM     56  C   UNL A   1      40.671  28.678  29.147  1.00  0.00     0.074 A 
ATOM     57  C   UNL A   1      39.506  29.019  28.367  1.00  0.00     0.031 C 
ATOM     58  C   UNL A   1      42.742  32.259  32.425  1.00  0.00     0.029 A 
ATOM     59  C   UNL A   1      41.721  32.857  33.271  1.00  0.00     0.049 A 
ATOM     60  H   UNL A   1      40.051  33.936  32.472  1.00  0.00     0.167 HD
ATOM     61  C   UNL A   1      41.733  27.839  28.991  1.00  0.00     0.031 A 
ATOM     62  C   UNL A   1      41.428  32.448  34.540  1.00  0.00     0.031 A 
ATOM     63  C   UNL A   1      42.657  27.930  30.123  1.00  0.00     0.049 A 
ATOM     64  C   UNL A   1      41.851  31.023  34.833  1.00  0.00     0.074 A 
ATOM     65  C   UNL A   1      43.879  28.557  30.307  1.00  0.00     0.029 A 
ATOM     66  N   UNL A   1      42.205  27.577  31.392  1.00  0.00    -0.354 N 
ATOM     67  N   UNL A   1      42.170  30.148  33.920  1.00  0.00    -0.248 NA
ATOM     68  C   UNL A   1      41.910  30.462  36.181  1.00  0.00     0.031 C 
ATOM     69  C   UNL A   1      44.113  28.659  31.705  1.00  0.00     0.029 A 
ATOM     70  C   UNL A   1      43.055  28.061  32.367  1.00  0.00     0.049 A 
ATOM     71  H   UNL A   1      41.390  27.055  31.569  1.00  0.00     0.167 HD
ATOM     72  C   UNL A   1      42.446  28.941  34.509  1.00  0.00     0.074 A 
ATOM     73  C   UNL A   1      42.291  29.197  35.931  1.00  0.00     0.031 C 
ATOM     74  C   UNL A   1      42.757  27.831  33.777  1.00  0.00     0.031 A 
BRANCH  61  75
ATOM     75  C   UNL A   1      42.071  27.152  27.685  1.00  0.00    -0.014 A 
ATOM     76  C   UNL A   1      42.040  25.747  27.614  1.00  0.00     0.009 A 
ATOM     77  C   UNL A   1      42.505  27.806  26.519  1.00  0.00     0.009 A 
ATOM     78  C   UNL A   1      42.492  25.046  26.485  1.00  0.00     0.001 A 
ATOM     79  C   UNL A   1      42.984  27.116  25.397  1.00  0.00     0.001 A 
ATOM     80  C   UNL A   1      42.988  25.731  25.384  1.00  0.00     0.000 A 
ENDBRANCH  61  75
BRANCH  62  81
ATOM     81  C   UNL A   1      40.223  33.115  35.113  1.00  0.00    -0.014 A 
ATOM     82  C   UNL A   1      39.001  32.410  35.098  1.00  0.00     0.009 A 
ATOM     83  C   UNL A   1      40.345  34.217  35.969  1.00  0.00     0.009 A 
ATOM     84  C   UNL A   1      37.982  32.720  36.002  1.00  0.00     0.001 A 
ATOM     85  C   UNL A   1      39.313  34.534  36.864  1.00  0.00     0.001 A 
ATOM     86  C   UNL A   1      38.151  33.763  36.906  1.00  0.00     0.000 A 
ENDBRANCH  62  81
BRANCH  74  87
ATOM     87  C   UNL A   1      42.859  26.416  34.301  1.00  0.00    -0.014 A 
ATOM     88  C   UNL A   1      41.926  25.815  35.156  1.00  0.00     0.009 A 
ATOM     89  C   UNL A   1      43.887  25.581  33.805  1.00  0.00     0.009 A 
ATOM     90  C   UNL A   1      42.039  24.467  35.528  1.00  0.00     0.001 A 
ATOM     91  C   UNL A   1      43.975  24.226  34.134  1.00  0.00     0.001 A 
ATOM     92  C   UNL A   1      43.055  23.671  35.008  1.00  0.00     0.000 A 
ENDBRANCH  74  87
ENDBRANCH  48  49
ENDBRANCH  40  43
ENDBRANCH  38  39
ENDBRANCH  37  38
ENDBRANCH  36  37
ENDBRANCH   1  36
TORSDOF 16
ENDMDL
