MODEL 1
REMARK VINA RESULT:     -10.6      0.000      0.000
REMARK SMILES C[C@@H](CC(=O)NCCCCNC(=O)c1ccc(-c2c3nc(c(-c4ccccc4)c4ccc([nH]4)c(-c4ccccc4)c4nc(c(-c5ccccc5)c5ccc2[nH]5)C=C4)C=C3)cc1)NC(=O)/C=C/c1cccnc1
REMARK SMILES IDX 7 1 6 2 4 3 5 4 3 6 2 7 1 8 62 9 63 10 64 12 65 13 66 14
REMARK SMILES IDX 67 15 68 16 72 17 69 18 71 19 70 20 8 21 9 22 10 23 11 24
REMARK SMILES IDX 12 25 13 27 14 28 15 29 61 30 16 31 60 32 17 33 18 34 19 35
REMARK SMILES IDX 54 36 20 37 59 38 53 39 55 40 21 41 58 42 52 43 51 44 22 46
REMARK SMILES IDX 44 47 29 48 43 49 30 50 33 51 42 52 56 53 31 54 32 55 41 57
REMARK SMILES IDX 57 58 34 59 23 60 24 61 28 62 25 63 27 64 26 65 45 66 46 67
REMARK SMILES IDX 50 68 47 69 49 70 48 71 35 72 36 73 40 74 37 75 39 76 38 77
REMARK H PARENT 6 5 62 11 11 26 55 45 33 56
REMARK Flexibility Score: inf
ROOT
ATOM      1  C   UNL A   1      37.444  22.580  25.598  1.00  0.00     0.116 C 
ENDROOT
BRANCH   1   2
ATOM      2  N   UNL A   1      36.269  22.488  26.439  1.00  0.00    -0.356 N 
ATOM      3  C   UNL A   1      35.120  23.218  26.411  1.00  0.00     0.222 C 
ATOM      4  O   UNL A   1      34.363  23.144  27.380  1.00  0.00    -0.275 OA
ATOM      5  H   UNL A   1      36.307  21.794  27.137  1.00  0.00     0.163 HD
BRANCH   3   6
ATOM      6  C   UNL A   1      34.760  24.059  25.204  1.00  0.00     0.124 C 
BRANCH   6   7
ATOM      7  C   UNL A   1      33.627  23.540  24.307  1.00  0.00     0.088 C 
ATOM      8  C   UNL A   1      33.472  24.337  23.016  1.00  0.00     0.031 C 
BRANCH   7   9
ATOM      9  N   UNL A   1      32.332  23.466  24.976  1.00  0.00    -0.350 N 
ATOM     10  C   UNL A   1      31.575  22.396  25.350  1.00  0.00     0.244 C 
ATOM     11  H   UNL A   1      31.936  24.340  25.194  1.00  0.00     0.164 HD
ATOM     12  O   UNL A   1      30.443  22.584  25.794  1.00  0.00    -0.270 OA
BRANCH  10  13
ATOM     13  C   UNL A   1      32.116  21.010  25.341  1.00  0.00     0.072 C 
ATOM     14  C   UNL A   1      32.114  20.166  24.304  1.00  0.00     0.015 C 
BRANCH  14  15
ATOM     15  C   UNL A   1      32.708  18.837  24.297  1.00  0.00    -0.007 A 
ATOM     16  C   UNL A   1      32.852  18.100  25.469  1.00  0.00     0.011 A 
ATOM     17  C   UNL A   1      33.012  18.216  23.089  1.00  0.00     0.119 A 
ATOM     18  C   UNL A   1      33.276  16.776  25.386  1.00  0.00     0.021 A 
ATOM     19  N   UNL A   1      33.429  16.935  22.981  1.00  0.00    -0.264 NA
ATOM     20  C   UNL A   1      33.545  16.243  24.134  1.00  0.00     0.111 A 
ENDBRANCH  14  15
ENDBRANCH  10  13
ENDBRANCH   7   9
ENDBRANCH   6   7
ENDBRANCH   3   6
ENDBRANCH   1   2
BRANCH   1  21
ATOM     21  C   UNL A   1      37.439  21.453  24.561  1.00  0.00     0.023 C 
BRANCH  21  22
ATOM     22  C   UNL A   1      38.134  20.175  24.999  1.00  0.00     0.023 C 
BRANCH  22  23
ATOM     23  C   UNL A   1      39.299  20.393  25.941  1.00  0.00     0.116 C 
BRANCH  23  24
ATOM     24  N   UNL A   1      40.274  19.311  25.914  1.00  0.00    -0.352 N 
ATOM     25  C   UNL A   1      41.624  19.390  26.167  1.00  0.00     0.251 C 
ATOM     26  H   UNL A   1      39.926  18.419  25.690  1.00  0.00     0.163 HD
ATOM     27  O   UNL A   1      42.356  18.424  26.013  1.00  0.00    -0.269 OA
BRANCH  25  28
ATOM     28  C   UNL A   1      42.172  20.695  26.586  1.00  0.00     0.039 A 
ATOM     29  C   UNL A   1      42.526  21.625  25.610  1.00  0.00     0.014 A 
ATOM     30  C   UNL A   1      42.204  21.028  27.943  1.00  0.00     0.014 A 
ATOM     31  C   UNL A   1      42.846  22.927  25.996  1.00  0.00     0.010 A 
ATOM     32  C   UNL A   1      42.419  22.345  28.314  1.00  0.00     0.010 A 
ATOM     33  C   UNL A   1      42.752  23.306  27.346  1.00  0.00    -0.014 A 
BRANCH  33  34
ATOM     34  C   UNL A   1      43.024  24.696  27.781  1.00  0.00     0.031 A 
ATOM     35  C   UNL A   1      44.444  25.138  27.995  1.00  0.00     0.074 A 
ATOM     36  C   UNL A   1      42.002  25.529  28.058  1.00  0.00     0.049 A 
ATOM     37  N   UNL A   1      44.894  26.277  28.453  1.00  0.00    -0.248 NA
ATOM     38  C   UNL A   1      45.498  24.154  27.691  1.00  0.00     0.031 C 
ATOM     39  C   UNL A   1      40.578  25.201  27.944  1.00  0.00     0.029 A 
ATOM     40  N   UNL A   1      42.009  26.827  28.499  1.00  0.00    -0.354 N 
ATOM     41  C   UNL A   1      46.274  26.133  28.521  1.00  0.00     0.074 A 
ATOM     42  C   UNL A   1      46.584  24.781  28.113  1.00  0.00     0.031 C 
ATOM     43  C   UNL A   1      39.851  26.282  28.271  1.00  0.00     0.029 A 
ATOM     44  C   UNL A   1      40.753  27.364  28.653  1.00  0.00     0.049 A 
ATOM     45  H   UNL A   1      42.835  27.328  28.689  1.00  0.00     0.167 HD
ATOM     46  C   UNL A   1      47.206  27.052  28.864  1.00  0.00     0.031 A 
ATOM     47  C   UNL A   1      40.375  28.593  29.052  1.00  0.00     0.031 A 
ATOM     48  C   UNL A   1      46.902  28.406  29.233  1.00  0.00     0.049 A 
ATOM     49  C   UNL A   1      41.429  29.605  29.404  1.00  0.00     0.074 A 
ATOM     50  C   UNL A   1      47.775  29.436  29.531  1.00  0.00     0.029 A 
ATOM     51  N   UNL A   1      45.619  28.918  29.346  1.00  0.00    -0.354 N 
ATOM     52  N   UNL A   1      42.734  29.474  29.398  1.00  0.00    -0.248 NA
ATOM     53  C   UNL A   1      40.957  30.937  29.807  1.00  0.00     0.031 C 
ATOM     54  C   UNL A   1      47.018  30.565  29.859  1.00  0.00     0.029 A 
ATOM     55  C   UNL A   1      45.676  30.248  29.723  1.00  0.00     0.049 A 
ATOM     56  H   UNL A   1      44.791  28.411  29.183  1.00  0.00     0.167 HD
ATOM     57  C   UNL A   1      43.240  30.712  29.769  1.00  0.00     0.074 A 
ATOM     58  C   UNL A   1      42.101  31.584  29.980  1.00  0.00     0.031 C 
ATOM     59  C   UNL A   1      44.530  31.096  29.923  1.00  0.00     0.031 A 
BRANCH  46  60
ATOM     60  C   UNL A   1      48.642  26.611  28.846  1.00  0.00    -0.014 A 
ATOM     61  C   UNL A   1      49.244  26.050  29.984  1.00  0.00     0.009 A 
ATOM     62  C   UNL A   1      49.401  26.750  27.674  1.00  0.00     0.009 A 
ATOM     63  C   UNL A   1      50.590  25.679  29.962  1.00  0.00     0.001 A 
ATOM     64  C   UNL A   1      50.739  26.350  27.646  1.00  0.00     0.001 A 
ATOM     65  C   UNL A   1      51.335  25.826  28.793  1.00  0.00     0.000 A 
ENDBRANCH  46  60
BRANCH  47  66
ATOM     66  C   UNL A   1      38.934  28.948  29.108  1.00  0.00    -0.014 A 
ATOM     67  C   UNL A   1      38.269  29.389  27.953  1.00  0.00     0.009 A 
ATOM     68  C   UNL A   1      38.216  28.852  30.309  1.00  0.00     0.009 A 
ATOM     69  C   UNL A   1      36.922  29.753  28.006  1.00  0.00     0.001 A 
ATOM     70  C   UNL A   1      36.861  29.192  30.354  1.00  0.00     0.001 A 
ATOM     71  C   UNL A   1      36.218  29.649  29.205  1.00  0.00     0.000 A 
ENDBRANCH  47  66
BRANCH  59  72
ATOM     72  C   UNL A   1      44.778  32.526  30.303  1.00  0.00    -0.014 A 
ATOM     73  C   UNL A   1      44.903  33.527  29.328  1.00  0.00     0.009 A 
ATOM     74  C   UNL A   1      44.841  32.881  31.660  1.00  0.00     0.009 A 
ATOM     75  C   UNL A   1      45.116  34.853  29.706  1.00  0.00     0.001 A 
ATOM     76  C   UNL A   1      45.028  34.212  32.034  1.00  0.00     0.001 A 
ATOM     77  C   UNL A   1      45.174  35.196  31.057  1.00  0.00     0.000 A 
ENDBRANCH  59  72
ENDBRANCH  33  34
ENDBRANCH  25  28
ENDBRANCH  23  24
ENDBRANCH  22  23
ENDBRANCH  21  22
ENDBRANCH   1  21
TORSDOF 15
ENDMDL
MODEL 2
REMARK VINA RESULT:     -10.5      0.899      6.084
REMARK SMILES C[C@@H](CC(=O)NCCCCNC(=O)c1ccc(-c2c3nc(c(-c4ccccc4)c4ccc([nH]4)c(-c4ccccc4)c4nc(c(-c5ccccc5)c5ccc2[nH]5)C=C4)C=C3)cc1)NC(=O)/C=C/c1cccnc1
REMARK SMILES IDX 7 1 6 2 4 3 5 4 3 6 2 7 1 8 62 9 63 10 64 12 65 13 66 14
REMARK SMILES IDX 67 15 68 16 72 17 69 18 71 19 70 20 8 21 9 22 10 23 11 24
REMARK SMILES IDX 12 25 13 27 14 28 15 29 61 30 16 31 60 32 17 33 18 34 19 35
REMARK SMILES IDX 54 36 20 37 59 38 53 39 55 40 21 41 58 42 52 43 51 44 22 46
REMARK SMILES IDX 44 47 29 48 43 49 30 50 33 51 42 52 56 53 31 54 32 55 41 57
REMARK SMILES IDX 57 58 34 59 23 60 24 61 28 62 25 63 27 64 26 65 45 66 46 67
REMARK SMILES IDX 50 68 47 69 49 70 48 71 35 72 36 73 40 74 37 75 39 76 38 77
REMARK H PARENT 6 5 62 11 11 26 55 45 33 56
REMARK Flexibility Score: inf
ROOT
ATOM      1  C   UNL A   1      37.394  21.831  25.368  1.00  0.00     0.116 C 
ENDROOT
BRANCH   1   2
ATOM      2  N   UNL A   1      36.292  22.297  26.183  1.00  0.00    -0.356 N 
ATOM      3  C   UNL A   1      35.276  23.146  25.868  1.00  0.00     0.222 C 
ATOM      4  O   UNL A   1      34.599  23.606  26.790  1.00  0.00    -0.275 OA
ATOM      5  H   UNL A   1      36.276  21.948  27.104  1.00  0.00     0.163 HD
BRANCH   3   6
ATOM      6  C   UNL A   1      34.956  23.480  24.426  1.00  0.00     0.124 C 
BRANCH   6   7
ATOM      7  C   UNL A   1      33.713  22.816  23.817  1.00  0.00     0.088 C 
ATOM      8  C   UNL A   1      33.403  23.307  22.407  1.00  0.00     0.031 C 
BRANCH   7   9
ATOM      9  N   UNL A   1      32.513  22.946  24.637  1.00  0.00    -0.350 N 
ATOM     10  C   UNL A   1      31.757  22.009  25.276  1.00  0.00     0.244 C 
ATOM     11  H   UNL A   1      32.195  23.871  24.750  1.00  0.00     0.164 HD
ATOM     12  O   UNL A   1      30.704  22.347  25.813  1.00  0.00    -0.270 OA
BRANCH  10  13
ATOM     13  C   UNL A   1      32.219  20.604  25.438  1.00  0.00     0.072 C 
ATOM     14  C   UNL A   1      32.617  19.782  24.461  1.00  0.00     0.015 C 
BRANCH  14  15
ATOM     15  C   UNL A   1      33.129  18.433  24.649  1.00  0.00    -0.007 A 
ATOM     16  C   UNL A   1      34.380  18.058  24.172  1.00  0.00     0.011 A 
ATOM     17  C   UNL A   1      32.430  17.528  25.443  1.00  0.00     0.119 A 
ATOM     18  C   UNL A   1      34.888  16.808  24.517  1.00  0.00     0.021 A 
ATOM     19  N   UNL A   1      32.897  16.308  25.790  1.00  0.00    -0.264 NA
ATOM     20  C   UNL A   1      34.120  15.980  25.322  1.00  0.00     0.111 A 
ENDBRANCH  14  15
ENDBRANCH  10  13
ENDBRANCH   7   9
ENDBRANCH   6   7
ENDBRANCH   3   6
ENDBRANCH   1   2
BRANCH   1  21
ATOM     21  C   UNL A   1      37.080  20.442  24.803  1.00  0.00     0.023 C 
BRANCH  21  22
ATOM     22  C   UNL A   1      38.230  19.451  24.860  1.00  0.00     0.023 C 
BRANCH  22  23
ATOM     23  C   UNL A   1      39.210  19.702  25.986  1.00  0.00     0.116 C 
BRANCH  23  24
ATOM     24  N   UNL A   1      40.434  18.920  25.871  1.00  0.00    -0.352 N 
ATOM     25  C   UNL A   1      41.727  19.347  26.066  1.00  0.00     0.251 C 
ATOM     26  H   UNL A   1      40.322  17.973  25.627  1.00  0.00     0.163 HD
ATOM     27  O   UNL A   1      42.679  18.615  25.841  1.00  0.00    -0.269 OA
BRANCH  25  28
ATOM     28  C   UNL A   1      41.932  20.739  26.513  1.00  0.00     0.039 A 
ATOM     29  C   UNL A   1      42.128  20.992  27.870  1.00  0.00     0.014 A 
ATOM     30  C   UNL A   1      42.057  21.758  25.566  1.00  0.00     0.014 A 
ATOM     31  C   UNL A   1      42.525  22.267  28.273  1.00  0.00     0.010 A 
ATOM     32  C   UNL A   1      42.553  22.992  25.957  1.00  0.00     0.010 A 
ATOM     33  C   UNL A   1      42.783  23.262  27.315  1.00  0.00    -0.014 A 
BRANCH  33  34
ATOM     34  C   UNL A   1      43.266  24.607  27.704  1.00  0.00     0.031 A 
ATOM     35  C   UNL A   1      42.273  25.661  28.106  1.00  0.00     0.074 A 
ATOM     36  C   UNL A   1      44.578  24.903  27.623  1.00  0.00     0.049 A 
ATOM     37  N   UNL A   1      42.478  26.919  28.400  1.00  0.00    -0.248 NA
ATOM     38  C   UNL A   1      40.857  25.257  28.145  1.00  0.00     0.031 C 
ATOM     39  C   UNL A   1      45.636  23.984  27.192  1.00  0.00     0.029 A 
ATOM     40  N   UNL A   1      45.244  26.070  27.894  1.00  0.00    -0.354 N 
ATOM     41  C   UNL A   1      41.217  27.459  28.625  1.00  0.00     0.074 A 
ATOM     42  C   UNL A   1      40.253  26.411  28.380  1.00  0.00     0.031 C 
ATOM     43  C   UNL A   1      46.820  24.613  27.265  1.00  0.00     0.029 A 
ATOM     44  C   UNL A   1      46.603  25.986  27.709  1.00  0.00     0.049 A 
ATOM     45  H   UNL A   1      44.792  26.892  28.193  1.00  0.00     0.167 HD
ATOM     46  C   UNL A   1      40.891  28.708  29.030  1.00  0.00     0.031 A 
ATOM     47  C   UNL A   1      47.564  26.912  27.884  1.00  0.00     0.031 A 
ATOM     48  C   UNL A   1      41.851  29.738  29.310  1.00  0.00     0.049 A 
ATOM     49  C   UNL A   1      47.180  28.286  28.358  1.00  0.00     0.074 A 
ATOM     50  C   UNL A   1      41.630  31.016  29.790  1.00  0.00     0.029 A 
ATOM     51  N   UNL A   1      43.219  29.602  29.139  1.00  0.00    -0.354 N 
ATOM     52  N   UNL A   1      45.989  28.761  28.632  1.00  0.00    -0.248 NA
ATOM     53  C   UNL A   1      48.274  29.246  28.556  1.00  0.00     0.031 C 
ATOM     54  C   UNL A   1      42.865  31.666  29.879  1.00  0.00     0.029 A 
ATOM     55  C   UNL A   1      43.856  30.778  29.493  1.00  0.00     0.049 A 
ATOM     56  H   UNL A   1      43.671  28.790  28.814  1.00  0.00     0.167 HD
ATOM     57  C   UNL A   1      46.192  30.065  29.061  1.00  0.00     0.074 A 
ATOM     58  C   UNL A   1      47.622  30.301  29.023  1.00  0.00     0.031 C 
ATOM     59  C   UNL A   1      45.280  30.988  29.451  1.00  0.00     0.031 A 
BRANCH  46  60
ATOM     60  C   UNL A   1      39.429  29.015  29.194  1.00  0.00    -0.014 A 
ATOM     61  C   UNL A   1      38.776  28.802  30.419  1.00  0.00     0.009 A 
ATOM     62  C   UNL A   1      38.698  29.529  28.114  1.00  0.00     0.009 A 
ATOM     63  C   UNL A   1      37.409  29.057  30.545  1.00  0.00     0.001 A 
ATOM     64  C   UNL A   1      37.337  29.812  28.251  1.00  0.00     0.001 A 
ATOM     65  C   UNL A   1      36.692  29.565  29.463  1.00  0.00     0.000 A 
ENDBRANCH  46  60
BRANCH  47  66
ATOM     66  C   UNL A   1      48.988  26.563  27.644  1.00  0.00    -0.014 A 
ATOM     67  C   UNL A   1      49.550  26.727  26.368  1.00  0.00     0.009 A 
ATOM     68  C   UNL A   1      49.791  26.064  28.680  1.00  0.00     0.009 A 
ATOM     69  C   UNL A   1      50.880  26.373  26.129  1.00  0.00     0.001 A 
ATOM     70  C   UNL A   1      51.128  25.735  28.444  1.00  0.00     0.001 A 
ATOM     71  C   UNL A   1      51.668  25.882  27.167  1.00  0.00     0.000 A 
ENDBRANCH  47  66
BRANCH  59  72
ATOM     72  C   UNL A   1      45.802  32.321  29.900  1.00  0.00    -0.014 A 
ATOM     73  C   UNL A   1      45.940  33.388  29.000  1.00  0.00     0.009 A 
ATOM     74  C   UNL A   1      46.115  32.522  31.254  1.00  0.00     0.009 A 
ATOM     75  C   UNL A   1      46.412  34.625  29.444  1.00  0.00     0.001 A 
ATOM     76  C   UNL A   1      46.562  33.767  31.698  1.00  0.00     0.001 A 
ATOM     77  C   UNL A   1      46.718  34.815  30.791  1.00  0.00     0.000 A 
ENDBRANCH  59  72
ENDBRANCH  33  34
ENDBRANCH  25  28
ENDBRANCH  23  24
ENDBRANCH  22  23
ENDBRANCH  21  22
ENDBRANCH   1  21
TORSDOF 15
ENDMDL
MODEL 3
REMARK VINA RESULT:     -10.5      5.242      9.739
REMARK SMILES C[C@@H](CC(=O)NCCCCNC(=O)c1ccc(-c2c3nc(c(-c4ccccc4)c4ccc([nH]4)c(-c4ccccc4)c4nc(c(-c5ccccc5)c5ccc2[nH]5)C=C4)C=C3)cc1)NC(=O)/C=C/c1cccnc1
REMARK SMILES IDX 7 1 6 2 4 3 5 4 3 6 2 7 1 8 62 9 63 10 64 12 65 13 66 14
REMARK SMILES IDX 67 15 68 16 72 17 69 18 71 19 70 20 8 21 9 22 10 23 11 24
REMARK SMILES IDX 12 25 13 27 14 28 15 29 61 30 16 31 60 32 17 33 18 34 19 35
REMARK SMILES IDX 54 36 20 37 59 38 53 39 55 40 21 41 58 42 52 43 51 44 22 46
REMARK SMILES IDX 44 47 29 48 43 49 30 50 33 51 42 52 56 53 31 54 32 55 41 57
REMARK SMILES IDX 57 58 34 59 23 60 24 61 28 62 25 63 27 64 26 65 45 66 46 67
REMARK SMILES IDX 50 68 47 69 49 70 48 71 35 72 36 73 40 74 37 75 39 76 38 77
REMARK H PARENT 6 5 62 11 11 26 55 45 33 56
REMARK Flexibility Score: inf
ROOT
ATOM      1  C   UNL A   1      32.311  29.830  25.841  1.00  0.00     0.116 C 
ENDROOT
BRANCH   1   2
ATOM      2  N   UNL A   1      31.772  28.734  26.620  1.00  0.00    -0.356 N 
ATOM      3  C   UNL A   1      32.118  27.418  26.623  1.00  0.00     0.222 C 
ATOM      4  O   UNL A   1      31.355  26.620  27.172  1.00  0.00    -0.275 OA
ATOM      5  H   UNL A   1      31.046  28.978  27.239  1.00  0.00     0.163 HD
BRANCH   3   6
ATOM      6  C   UNL A   1      33.422  26.952  26.012  1.00  0.00     0.124 C 
BRANCH   6   7
ATOM      7  C   UNL A   1      33.373  25.681  25.150  1.00  0.00     0.088 C 
ATOM      8  C   UNL A   1      34.160  24.521  25.750  1.00  0.00     0.031 C 
BRANCH   7   9
ATOM      9  N   UNL A   1      33.808  25.887  23.773  1.00  0.00    -0.350 N 
ATOM     10  C   UNL A   1      33.126  26.304  22.669  1.00  0.00     0.244 C 
ATOM     11  H   UNL A   1      34.759  25.690  23.612  1.00  0.00     0.164 HD
ATOM     12  O   UNL A   1      33.681  26.281  21.572  1.00  0.00    -0.270 OA
BRANCH  10  13
ATOM     13  C   UNL A   1      31.762  26.890  22.764  1.00  0.00     0.072 C 
ATOM     14  C   UNL A   1      31.415  28.144  22.454  1.00  0.00     0.015 C 
BRANCH  14  15
ATOM     15  C   UNL A   1      30.061  28.678  22.491  1.00  0.00    -0.007 A 
ATOM     16  C   UNL A   1      29.029  27.997  23.128  1.00  0.00     0.011 A 
ATOM     17  C   UNL A   1      29.805  29.960  22.012  1.00  0.00     0.119 A 
ATOM     18  C   UNL A   1      27.794  28.625  23.274  1.00  0.00     0.021 A 
ATOM     19  N   UNL A   1      28.616  30.591  22.137  1.00  0.00    -0.264 NA
ATOM     20  C   UNL A   1      27.640  29.909  22.772  1.00  0.00     0.111 A 
ENDBRANCH  14  15
ENDBRANCH  10  13
ENDBRANCH   7   9
ENDBRANCH   6   7
ENDBRANCH   3   6
ENDBRANCH   1   2
BRANCH   1  21
ATOM     21  C   UNL A   1      31.196  30.815  25.477  1.00  0.00     0.023 C 
BRANCH  21  22
ATOM     22  C   UNL A   1      31.035  31.985  26.434  1.00  0.00     0.023 C 
BRANCH  22  23
ATOM     23  C   UNL A   1      32.339  32.636  26.843  1.00  0.00     0.116 C 
BRANCH  23  24
ATOM     24  N   UNL A   1      32.165  33.957  27.431  1.00  0.00    -0.352 N 
ATOM     25  C   UNL A   1      32.944  34.559  28.393  1.00  0.00     0.251 C 
ATOM     26  H   UNL A   1      31.401  34.482  27.101  1.00  0.00     0.163 HD
ATOM     27  O   UNL A   1      32.634  35.636  28.878  1.00  0.00    -0.269 OA
BRANCH  25  28
ATOM     28  C   UNL A   1      34.146  33.838  28.855  1.00  0.00     0.039 A 
ATOM     29  C   UNL A   1      35.405  34.323  28.500  1.00  0.00     0.014 A 
ATOM     30  C   UNL A   1      34.012  32.767  29.742  1.00  0.00     0.014 A 
ATOM     31  C   UNL A   1      36.538  33.774  29.099  1.00  0.00     0.010 A 
ATOM     32  C   UNL A   1      35.129  32.297  30.413  1.00  0.00     0.010 A 
ATOM     33  C   UNL A   1      36.404  32.788  30.092  1.00  0.00    -0.014 A 
BRANCH  33  34
ATOM     34  C   UNL A   1      37.584  32.228  30.792  1.00  0.00     0.031 A 
ATOM     35  C   UNL A   1      38.318  31.064  30.188  1.00  0.00     0.074 A 
ATOM     36  C   UNL A   1      37.944  32.709  31.998  1.00  0.00     0.049 A 
ATOM     37  N   UNL A   1      39.316  30.374  30.676  1.00  0.00    -0.248 NA
ATOM     38  C   UNL A   1      37.841  30.586  28.879  1.00  0.00     0.031 C 
ATOM     39  C   UNL A   1      37.278  33.799  32.716  1.00  0.00     0.029 A 
ATOM     40  N   UNL A   1      38.963  32.334  32.836  1.00  0.00    -0.354 N 
ATOM     41  C   UNL A   1      39.562  29.368  29.751  1.00  0.00     0.074 A 
ATOM     42  C   UNL A   1      38.575  29.500  28.703  1.00  0.00     0.031 C 
ATOM     43  C   UNL A   1      37.929  34.028  33.869  1.00  0.00     0.029 A 
ATOM     44  C   UNL A   1      39.031  33.079  33.988  1.00  0.00     0.049 A 
ATOM     45  H   UNL A   1      39.587  31.601  32.631  1.00  0.00     0.167 HD
ATOM     46  C   UNL A   1      40.541  28.433  29.755  1.00  0.00     0.031 A 
ATOM     47  C   UNL A   1      39.891  33.007  35.021  1.00  0.00     0.031 A 
ATOM     48  C   UNL A   1      41.544  28.326  30.776  1.00  0.00     0.049 A 
ATOM     49  C   UNL A   1      40.985  31.976  34.993  1.00  0.00     0.074 A 
ATOM     50  C   UNL A   1      42.619  27.459  30.841  1.00  0.00     0.029 A 
ATOM     51  N   UNL A   1      41.596  29.119  31.911  1.00  0.00    -0.354 N 
ATOM     52  N   UNL A   1      41.246  31.075  34.077  1.00  0.00    -0.248 NA
ATOM     53  C   UNL A   1      41.910  31.962  36.135  1.00  0.00     0.031 C 
ATOM     54  C   UNL A   1      43.305  27.706  32.034  1.00  0.00     0.029 A 
ATOM     55  C   UNL A   1      42.679  28.754  32.690  1.00  0.00     0.049 A 
ATOM     56  H   UNL A   1      40.957  29.836  32.130  1.00  0.00     0.167 HD
ATOM     57  C   UNL A   1      42.378  30.404  34.518  1.00  0.00     0.074 A 
ATOM     58  C   UNL A   1      42.762  31.013  35.777  1.00  0.00     0.031 C 
ATOM     59  C   UNL A   1      43.043  29.377  33.936  1.00  0.00     0.031 A 
BRANCH  46  60
ATOM     60  C   UNL A   1      40.564  27.461  28.610  1.00  0.00    -0.014 A 
ATOM     61  C   UNL A   1      39.968  26.194  28.719  1.00  0.00     0.009 A 
ATOM     62  C   UNL A   1      41.184  27.819  27.403  1.00  0.00     0.009 A 
ATOM     63  C   UNL A   1      40.031  25.289  27.658  1.00  0.00     0.001 A 
ATOM     64  C   UNL A   1      41.219  26.922  26.333  1.00  0.00     0.001 A 
ATOM     65  C   UNL A   1      40.652  25.654  26.465  1.00  0.00     0.000 A 
ENDBRANCH  46  60
BRANCH  47  66
ATOM     66  C   UNL A   1      39.776  33.959  36.155  1.00  0.00    -0.014 A 
ATOM     67  C   UNL A   1      40.460  35.185  36.122  1.00  0.00     0.009 A 
ATOM     68  C   UNL A   1      38.989  33.652  37.275  1.00  0.00     0.009 A 
ATOM     69  C   UNL A   1      40.379  36.070  37.199  1.00  0.00     0.001 A 
ATOM     70  C   UNL A   1      38.889  34.552  38.339  1.00  0.00     0.001 A 
ATOM     71  C   UNL A   1      39.590  35.756  38.303  1.00  0.00     0.000 A 
ENDBRANCH  47  66
BRANCH  59  72
ATOM     72  C   UNL A   1      44.270  28.871  34.636  1.00  0.00    -0.014 A 
ATOM     73  C   UNL A   1      44.198  27.816  35.559  1.00  0.00     0.009 A 
ATOM     74  C   UNL A   1      45.522  29.429  34.331  1.00  0.00     0.009 A 
ATOM     75  C   UNL A   1      45.355  27.351  36.185  1.00  0.00     0.001 A 
ATOM     76  C   UNL A   1      46.679  28.943  34.940  1.00  0.00     0.001 A 
ATOM     77  C   UNL A   1      46.594  27.910  35.873  1.00  0.00     0.000 A 
ENDBRANCH  59  72
ENDBRANCH  33  34
ENDBRANCH  25  28
ENDBRANCH  23  24
ENDBRANCH  22  23
ENDBRANCH  21  22
ENDBRANCH   1  21
TORSDOF 15
ENDMDL
