MODEL 1
REMARK VINA RESULT:     -10.4      0.000      0.000
REMARK SMILES O=C(NCCCCNC(=O)c1cc(-c2ccc(F)c(C(F)(F)F)c2)cnc1O)c1ccc(-c2c3nc(c(-c4ccccc4)c4ccc([nH]4)c(-c4ccccc4)c4nc(c(-c5ccccc5)c5ccc2[nH]5)C=C4)C=C3)cc1
REMARK SMILES IDX 5 1 4 2 3 3 1 4 2 5 29 7 30 8 76 9 31 10 75 11 32 12 33 13
REMARK SMILES IDX 34 14 69 15 35 16 74 17 68 18 70 19 36 20 73 21 67 22 66 23
REMARK SMILES IDX 37 25 59 26 44 27 58 28 45 29 48 30 57 31 71 32 46 33 47 34
REMARK SMILES IDX 56 36 72 37 49 38 38 39 39 40 43 41 40 42 42 43 41 44 60 45
REMARK SMILES IDX 61 46 65 47 62 48 64 49 63 50 50 51 51 52 55 53 52 54 54 55
REMARK SMILES IDX 53 56 6 57 7 58 8 59 9 60 10 62 11 63 12 64 27 65 13 66
REMARK SMILES IDX 26 67 25 68 28 69 14 71 15 72 24 73 16 74 19 75 17 76 18 77
REMARK SMILES IDX 20 78 21 79 22 80 23 81
REMARK H PARENT 3 6 70 24 48 35 8 61 28 70
REMARK Flexibility Score: inf
ROOT
ATOM      1  C   UNL A   1      35.032  34.719  28.551  1.00  0.00     0.023 C 
ENDROOT
BRANCH   1   2
ATOM      2  C   UNL A   1      34.403  33.517  29.246  1.00  0.00     0.116 C 
BRANCH   2   3
ATOM      3  N   UNL A   1      33.788  32.585  28.317  1.00  0.00    -0.352 N 
ATOM      4  O   UNL A   1      33.626  30.878  26.873  1.00  0.00    -0.269 OA
ATOM      5  C   UNL A   1      34.281  31.438  27.749  1.00  0.00     0.251 C 
ATOM      6  H   UNL A   1      32.867  32.814  28.053  1.00  0.00     0.163 HD
BRANCH   5   7
ATOM      7  C   UNL A   1      35.587  30.868  28.156  1.00  0.00     0.039 A 
ATOM      8  C   UNL A   1      35.607  29.576  28.692  1.00  0.00     0.014 A 
ATOM      9  C   UNL A   1      36.773  31.605  28.093  1.00  0.00     0.014 A 
ATOM     10  C   UNL A   1      36.807  29.022  29.145  1.00  0.00     0.010 A 
ATOM     11  C   UNL A   1      37.983  31.022  28.469  1.00  0.00     0.010 A 
ATOM     12  C   UNL A   1      38.007  29.738  29.033  1.00  0.00    -0.014 A 
BRANCH  12  13
ATOM     13  C   UNL A   1      39.275  29.196  29.589  1.00  0.00     0.031 A 
ATOM     14  C   UNL A   1      39.775  29.690  30.922  1.00  0.00     0.074 A 
ATOM     15  C   UNL A   1      39.978  28.270  28.909  1.00  0.00     0.049 A 
ATOM     16  N   UNL A   1      40.861  29.355  31.572  1.00  0.00    -0.248 NA
ATOM     17  C   UNL A   1      38.960  30.708  31.608  1.00  0.00     0.031 C 
ATOM     18  C   UNL A   1      39.611  27.714  27.605  1.00  0.00     0.029 A 
ATOM     19  N   UNL A   1      41.143  27.618  29.233  1.00  0.00    -0.354 N 
ATOM     20  C   UNL A   1      40.867  30.133  32.723  1.00  0.00     0.074 A 
ATOM     21  C   UNL A   1      39.707  30.992  32.664  1.00  0.00     0.031 C 
ATOM     22  C   UNL A   1      40.507  26.774  27.262  1.00  0.00     0.029 A 
ATOM     23  C   UNL A   1      41.528  26.682  28.303  1.00  0.00     0.049 A 
ATOM     24  H   UNL A   1      41.655  27.805  30.053  1.00  0.00     0.167 HD
ATOM     25  C   UNL A   1      41.745  30.116  33.753  1.00  0.00     0.031 A 
ATOM     26  C   UNL A   1      42.575  25.834  28.296  1.00  0.00     0.031 A 
ATOM     27  C   UNL A   1      42.875  29.235  33.839  1.00  0.00     0.049 A 
ATOM     28  C   UNL A   1      43.528  25.825  29.460  1.00  0.00     0.074 A 
ATOM     29  C   UNL A   1      43.801  29.122  34.862  1.00  0.00     0.029 A 
ATOM     30  N   UNL A   1      43.220  28.300  32.878  1.00  0.00    -0.354 N 
ATOM     31  N   UNL A   1      43.501  26.548  30.553  1.00  0.00    -0.248 NA
ATOM     32  C   UNL A   1      44.646  24.870  29.398  1.00  0.00     0.031 C 
ATOM     33  C   UNL A   1      44.728  28.141  34.503  1.00  0.00     0.029 A 
ATOM     34  C   UNL A   1      44.346  27.608  33.282  1.00  0.00     0.049 A 
ATOM     35  H   UNL A   1      42.736  28.152  32.032  1.00  0.00     0.167 HD
ATOM     36  C   UNL A   1      44.570  26.109  31.325  1.00  0.00     0.074 A 
ATOM     37  C   UNL A   1      45.225  25.055  30.579  1.00  0.00     0.031 C 
ATOM     38  C   UNL A   1      44.968  26.541  32.545  1.00  0.00     0.031 A 
BRANCH  25  39
ATOM     39  C   UNL A   1      41.512  31.070  34.891  1.00  0.00    -0.014 A 
ATOM     40  C   UNL A   1      40.430  30.871  35.761  1.00  0.00     0.009 A 
ATOM     41  C   UNL A   1      42.315  32.209  35.053  1.00  0.00     0.009 A 
ATOM     42  C   UNL A   1      40.147  31.800  36.764  1.00  0.00     0.001 A 
ATOM     43  C   UNL A   1      42.047  33.124  36.074  1.00  0.00     0.001 A 
ATOM     44  C   UNL A   1      40.959  32.922  36.922  1.00  0.00     0.000 A 
ENDBRANCH  25  39
BRANCH  26  45
ATOM     45  C   UNL A   1      42.741  24.872  27.175  1.00  0.00    -0.014 A 
ATOM     46  C   UNL A   1      43.530  25.194  26.059  1.00  0.00     0.009 A 
ATOM     47  C   UNL A   1      42.095  23.627  27.211  1.00  0.00     0.009 A 
ATOM     48  C   UNL A   1      43.662  24.291  25.001  1.00  0.00     0.001 A 
ATOM     49  C   UNL A   1      42.250  22.716  26.164  1.00  0.00     0.001 A 
ATOM     50  C   UNL A   1      43.028  23.051  25.057  1.00  0.00     0.000 A 
ENDBRANCH  26  45
BRANCH  38  51
ATOM     51  C   UNL A   1      46.133  25.851  33.196  1.00  0.00    -0.014 A 
ATOM     52  C   UNL A   1      47.438  26.274  32.898  1.00  0.00     0.009 A 
ATOM     53  C   UNL A   1      45.951  24.721  34.005  1.00  0.00     0.009 A 
ATOM     54  C   UNL A   1      48.540  25.570  33.384  1.00  0.00     0.001 A 
ATOM     55  C   UNL A   1      47.055  24.033  34.512  1.00  0.00     0.001 A 
ATOM     56  C   UNL A   1      48.347  24.453  34.192  1.00  0.00     0.000 A 
ENDBRANCH  38  51
ENDBRANCH  12  13
ENDBRANCH   5   7
ENDBRANCH   2   3
ENDBRANCH   1   2
BRANCH   1  57
ATOM     57  C   UNL A   1      34.224  36.018  28.603  1.00  0.00     0.023 C 
BRANCH  57  58
ATOM     58  C   UNL A   1      32.928  35.963  29.409  1.00  0.00     0.116 C 
BRANCH  58  59
ATOM     59  N   UNL A   1      32.859  37.005  30.427  1.00  0.00    -0.352 N 
ATOM     60  C   UNL A   1      33.181  36.943  31.755  1.00  0.00     0.256 C 
ATOM     61  H   UNL A   1      32.533  37.878  30.112  1.00  0.00     0.163 HD
ATOM     62  O   UNL A   1      32.902  37.881  32.501  1.00  0.00    -0.269 OA
BRANCH  60  63
ATOM     63  C   UNL A   1      33.873  35.771  32.300  1.00  0.00     0.102 A 
ATOM     64  C   UNL A   1      35.270  35.725  32.225  1.00  0.00     0.029 A 
ATOM     65  C   UNL A   1      33.199  34.682  32.837  1.00  0.00     0.223 A 
ATOM     66  C   UNL A   1      35.958  34.617  32.730  1.00  0.00     0.001 A 
ATOM     67  N   UNL A   1      33.826  33.616  33.366  1.00  0.00    -0.221 NA
ATOM     68  C   UNL A   1      35.179  33.608  33.303  1.00  0.00     0.124 A 
BRANCH  65  69
ATOM     69  O   UNL A   1      31.838  34.585  32.875  1.00  0.00    -0.493 OA
ATOM     70  H   UNL A   1      31.312  35.359  32.833  1.00  0.00     0.295 HD
ENDBRANCH  65  69
BRANCH  66  71
ATOM     71  C   UNL A   1      37.416  34.504  32.642  1.00  0.00    -0.016 A 
ATOM     72  C   UNL A   1      38.205  34.572  33.803  1.00  0.00     0.012 A 
ATOM     73  C   UNL A   1      38.064  34.328  31.405  1.00  0.00     0.025 A 
ATOM     74  C   UNL A   1      39.595  34.476  33.731  1.00  0.00     0.040 A 
ATOM     75  C   UNL A   1      39.465  34.233  31.323  1.00  0.00     0.092 A 
ATOM     76  C   UNL A   1      40.211  34.312  32.496  1.00  0.00     0.135 A 
ATOM     77  F   UNL A   1      41.547  34.233  32.447  1.00  0.00    -0.206 F 
BRANCH  75  78
ATOM     78  C   UNL A   1      40.178  34.073  30.016  1.00  0.00     0.419 C 
ATOM     79  F   UNL A   1      41.149  35.008  29.827  1.00  0.00    -0.166 F 
ATOM     80  F   UNL A   1      40.780  32.861  29.877  1.00  0.00    -0.166 F 
ATOM     81  F   UNL A   1      39.346  34.190  28.940  1.00  0.00    -0.166 F 
ENDBRANCH  75  78
ENDBRANCH  66  71
ENDBRANCH  60  63
ENDBRANCH  58  59
ENDBRANCH  57  58
ENDBRANCH   1  57
TORSDOF 14
ENDMDL
MODEL 2
REMARK VINA RESULT:     -10.0      5.017      9.835
REMARK SMILES O=C(NCCCCNC(=O)c1cc(-c2ccc(F)c(C(F)(F)F)c2)cnc1O)c1ccc(-c2c3nc(c(-c4ccccc4)c4ccc([nH]4)c(-c4ccccc4)c4nc(c(-c5ccccc5)c5ccc2[nH]5)C=C4)C=C3)cc1
REMARK SMILES IDX 5 1 4 2 3 3 1 4 2 5 29 7 30 8 76 9 31 10 75 11 32 12 33 13
REMARK SMILES IDX 34 14 69 15 35 16 74 17 68 18 70 19 36 20 73 21 67 22 66 23
REMARK SMILES IDX 37 25 59 26 44 27 58 28 45 29 48 30 57 31 71 32 46 33 47 34
REMARK SMILES IDX 56 36 72 37 49 38 38 39 39 40 43 41 40 42 42 43 41 44 60 45
REMARK SMILES IDX 61 46 65 47 62 48 64 49 63 50 50 51 51 52 55 53 52 54 54 55
REMARK SMILES IDX 53 56 6 57 7 58 8 59 9 60 10 62 11 63 12 64 27 65 13 66
REMARK SMILES IDX 26 67 25 68 28 69 14 71 15 72 24 73 16 74 19 75 17 76 18 77
REMARK SMILES IDX 20 78 21 79 22 80 23 81
REMARK H PARENT 3 6 70 24 48 35 8 61 28 70
REMARK Flexibility Score: inf
ROOT
ATOM      1  C   UNL A   1      31.309  30.945  26.298  1.00  0.00     0.023 C 
ENDROOT
BRANCH   1   2
ATOM      2  C   UNL A   1      32.548  31.611  26.885  1.00  0.00     0.116 C 
BRANCH   2   3
ATOM      3  N   UNL A   1      32.311  32.983  27.297  1.00  0.00    -0.352 N 
ATOM      4  O   UNL A   1      32.553  34.887  28.456  1.00  0.00    -0.269 OA
ATOM      5  C   UNL A   1      33.023  33.795  28.141  1.00  0.00     0.251 C 
ATOM      6  H   UNL A   1      31.508  33.398  26.905  1.00  0.00     0.163 HD
BRANCH   5   7
ATOM      7  C   UNL A   1      34.335  33.384  28.692  1.00  0.00     0.039 A 
ATOM      8  C   UNL A   1      35.487  33.700  27.963  1.00  0.00     0.014 A 
ATOM      9  C   UNL A   1      34.448  32.630  29.863  1.00  0.00     0.014 A 
ATOM     10  C   UNL A   1      36.742  33.278  28.413  1.00  0.00     0.010 A 
ATOM     11  C   UNL A   1      35.705  32.280  30.356  1.00  0.00     0.010 A 
ATOM     12  C   UNL A   1      36.863  32.570  29.617  1.00  0.00    -0.014 A 
BRANCH  12  13
ATOM     13  C   UNL A   1      38.178  32.041  30.064  1.00  0.00     0.031 A 
ATOM     14  C   UNL A   1      38.675  30.725  29.524  1.00  0.00     0.074 A 
ATOM     15  C   UNL A   1      38.927  32.730  30.946  1.00  0.00     0.049 A 
ATOM     16  N   UNL A   1      39.785  30.086  29.796  1.00  0.00    -0.248 NA
ATOM     17  C   UNL A   1      37.803  30.021  28.567  1.00  0.00     0.031 C 
ATOM     18  C   UNL A   1      38.560  34.011  31.553  1.00  0.00     0.029 A 
ATOM     19  N   UNL A   1      40.165  32.455  31.473  1.00  0.00    -0.354 N 
ATOM     20  C   UNL A   1      39.731  28.905  29.066  1.00  0.00     0.074 A 
ATOM     21  C   UNL A   1      38.462  28.888  28.376  1.00  0.00     0.031 C 
ATOM     22  C   UNL A   1      39.569  34.432  32.333  1.00  0.00     0.029 A 
ATOM     23  C   UNL A   1      40.640  33.439  32.308  1.00  0.00     0.049 A 
ATOM     24  H   UNL A   1      40.665  31.631  31.274  1.00  0.00     0.167 HD
ATOM     25  C   UNL A   1      40.666  27.934  28.955  1.00  0.00     0.031 A 
ATOM     26  C   UNL A   1      41.812  33.538  32.966  1.00  0.00     0.031 A 
ATOM     27  C   UNL A   1      41.947  27.965  29.603  1.00  0.00     0.049 A 
ATOM     28  C   UNL A   1      42.840  32.450  32.815  1.00  0.00     0.074 A 
ATOM     29  C   UNL A   1      42.973  27.041  29.522  1.00  0.00     0.029 A 
ATOM     30  N   UNL A   1      42.385  28.984  30.432  1.00  0.00    -0.354 N 
ATOM     31  N   UNL A   1      42.783  31.355  32.096  1.00  0.00    -0.248 NA
ATOM     32  C   UNL A   1      44.103  32.620  33.551  1.00  0.00     0.031 C 
ATOM     33  C   UNL A   1      44.022  27.483  30.331  1.00  0.00     0.029 A 
ATOM     34  C   UNL A   1      43.667  28.709  30.871  1.00  0.00     0.049 A 
ATOM     35  H   UNL A   1      41.863  29.783  30.673  1.00  0.00     0.167 HD
ATOM     36  C   UNL A   1      44.012  30.728  32.261  1.00  0.00     0.074 A 
ATOM     37  C   UNL A   1      44.797  31.565  33.145  1.00  0.00     0.031 C 
ATOM     38  C   UNL A   1      44.449  29.565  31.724  1.00  0.00     0.031 A 
BRANCH  25  39
ATOM     39  C   UNL A   1      40.351  26.751  28.083  1.00  0.00    -0.014 A 
ATOM     40  C   UNL A   1      39.628  25.668  28.606  1.00  0.00     0.009 A 
ATOM     41  C   UNL A   1      40.842  26.672  26.771  1.00  0.00     0.009 A 
ATOM     42  C   UNL A   1      39.410  24.524  27.836  1.00  0.00     0.001 A 
ATOM     43  C   UNL A   1      40.600  25.537  25.993  1.00  0.00     0.001 A 
ATOM     44  C   UNL A   1      39.892  24.462  26.529  1.00  0.00     0.000 A 
ENDBRANCH  25  39
BRANCH  26  45
ATOM     45  C   UNL A   1      42.104  34.747  33.780  1.00  0.00    -0.014 A 
ATOM     46  C   UNL A   1      41.742  34.811  35.134  1.00  0.00     0.009 A 
ATOM     47  C   UNL A   1      42.737  35.855  33.194  1.00  0.00     0.009 A 
ATOM     48  C   UNL A   1      42.002  35.961  35.883  1.00  0.00     0.001 A 
ATOM     49  C   UNL A   1      43.019  36.994  33.953  1.00  0.00     0.001 A 
ATOM     50  C   UNL A   1      42.646  37.048  35.295  1.00  0.00     0.000 A 
ENDBRANCH  26  45
BRANCH  38  51
ATOM     51  C   UNL A   1      45.857  29.133  32.016  1.00  0.00    -0.014 A 
ATOM     52  C   UNL A   1      46.885  29.491  31.128  1.00  0.00     0.009 A 
ATOM     53  C   UNL A   1      46.150  28.284  33.092  1.00  0.00     0.009 A 
ATOM     54  C   UNL A   1      48.177  28.995  31.304  1.00  0.00     0.001 A 
ATOM     55  C   UNL A   1      47.450  27.810  33.280  1.00  0.00     0.001 A 
ATOM     56  C   UNL A   1      48.458  28.157  32.380  1.00  0.00     0.000 A 
ENDBRANCH  38  51
ENDBRANCH  12  13
ENDBRANCH   5   7
ENDBRANCH   2   3
ENDBRANCH   1   2
BRANCH   1  57
ATOM     57  C   UNL A   1      31.541  30.079  25.058  1.00  0.00     0.023 C 
BRANCH  57  58
ATOM     58  C   UNL A   1      32.841  29.277  25.041  1.00  0.00     0.116 C 
BRANCH  58  59
ATOM     59  N   UNL A   1      33.517  29.338  23.751  1.00  0.00    -0.352 N 
ATOM     60  C   UNL A   1      33.632  28.375  22.785  1.00  0.00     0.256 C 
ATOM     61  H   UNL A   1      33.955  30.195  23.545  1.00  0.00     0.163 HD
ATOM     62  O   UNL A   1      34.383  28.550  21.826  1.00  0.00    -0.269 OA
BRANCH  60  63
ATOM     63  C   UNL A   1      32.853  27.135  22.872  1.00  0.00     0.102 A 
ATOM     64  C   UNL A   1      33.498  25.971  23.303  1.00  0.00     0.029 A 
ATOM     65  C   UNL A   1      31.519  27.057  22.494  1.00  0.00     0.223 A 
ATOM     66  C   UNL A   1      32.783  24.772  23.391  1.00  0.00     0.001 A 
ATOM     67  N   UNL A   1      30.789  25.932  22.598  1.00  0.00    -0.221 NA
ATOM     68  C   UNL A   1      31.431  24.825  23.042  1.00  0.00     0.124 A 
BRANCH  65  69
ATOM     69  O   UNL A   1      30.822  28.109  21.974  1.00  0.00    -0.493 OA
ATOM     70  H   UNL A   1      29.918  28.225  22.188  1.00  0.00     0.295 HD
ENDBRANCH  65  69
BRANCH  66  71
ATOM     71  C   UNL A   1      33.421  23.517  23.802  1.00  0.00    -0.016 A 
ATOM     72  C   UNL A   1      32.659  22.344  23.931  1.00  0.00     0.012 A 
ATOM     73  C   UNL A   1      34.799  23.454  24.078  1.00  0.00     0.025 A 
ATOM     74  C   UNL A   1      33.253  21.146  24.331  1.00  0.00     0.040 A 
ATOM     75  C   UNL A   1      35.405  22.251  24.485  1.00  0.00     0.092 A 
ATOM     76  C   UNL A   1      34.615  21.111  24.608  1.00  0.00     0.135 A 
ATOM     77  F   UNL A   1      35.164  19.955  25.002  1.00  0.00    -0.206 F 
BRANCH  75  78
ATOM     78  C   UNL A   1      36.864  22.164  24.811  1.00  0.00     0.419 C 
ATOM     79  F   UNL A   1      37.516  21.228  24.067  1.00  0.00    -0.166 F 
ATOM     80  F   UNL A   1      37.529  23.336  24.619  1.00  0.00    -0.166 F 
ATOM     81  F   UNL A   1      37.098  21.822  26.111  1.00  0.00    -0.166 F 
ENDBRANCH  75  78
ENDBRANCH  66  71
ENDBRANCH  60  63
ENDBRANCH  58  59
ENDBRANCH  57  58
ENDBRANCH   1  57
TORSDOF 14
ENDMDL
MODEL 3
REMARK VINA RESULT:      -9.9      4.898      7.949
REMARK SMILES O=C(NCCCCNC(=O)c1cc(-c2ccc(F)c(C(F)(F)F)c2)cnc1O)c1ccc(-c2c3nc(c(-c4ccccc4)c4ccc([nH]4)c(-c4ccccc4)c4nc(c(-c5ccccc5)c5ccc2[nH]5)C=C4)C=C3)cc1
REMARK SMILES IDX 5 1 4 2 3 3 1 4 2 5 29 7 30 8 76 9 31 10 75 11 32 12 33 13
REMARK SMILES IDX 34 14 69 15 35 16 74 17 68 18 70 19 36 20 73 21 67 22 66 23
REMARK SMILES IDX 37 25 59 26 44 27 58 28 45 29 48 30 57 31 71 32 46 33 47 34
REMARK SMILES IDX 56 36 72 37 49 38 38 39 39 40 43 41 40 42 42 43 41 44 60 45
REMARK SMILES IDX 61 46 65 47 62 48 64 49 63 50 50 51 51 52 55 53 52 54 54 55
REMARK SMILES IDX 53 56 6 57 7 58 8 59 9 60 10 62 11 63 12 64 27 65 13 66
REMARK SMILES IDX 26 67 25 68 28 69 14 71 15 72 24 73 16 74 19 75 17 76 18 77
REMARK SMILES IDX 20 78 21 79 22 80 23 81
REMARK H PARENT 3 6 70 24 48 35 8 61 28 70
REMARK Flexibility Score: inf
ROOT
ATOM      1  C   UNL A   1      31.271  30.962  25.882  1.00  0.00     0.023 C 
ENDROOT
BRANCH   1   2
ATOM      2  C   UNL A   1      32.392  31.477  26.776  1.00  0.00     0.116 C 
BRANCH   2   3
ATOM      3  N   UNL A   1      32.224  32.869  27.151  1.00  0.00    -0.352 N 
ATOM      4  O   UNL A   1      32.559  34.788  28.260  1.00  0.00    -0.269 OA
ATOM      5  C   UNL A   1      32.974  33.666  27.976  1.00  0.00     0.251 C 
ATOM      6  H   UNL A   1      31.444  33.313  26.745  1.00  0.00     0.163 HD
BRANCH   5   7
ATOM      7  C   UNL A   1      34.263  33.204  28.543  1.00  0.00     0.039 A 
ATOM      8  C   UNL A   1      35.441  33.540  27.867  1.00  0.00     0.014 A 
ATOM      9  C   UNL A   1      34.328  32.386  29.674  1.00  0.00     0.014 A 
ATOM     10  C   UNL A   1      36.675  33.074  28.331  1.00  0.00     0.010 A 
ATOM     11  C   UNL A   1      35.564  31.989  30.184  1.00  0.00     0.010 A 
ATOM     12  C   UNL A   1      36.748  32.299  29.498  1.00  0.00    -0.014 A 
BRANCH  12  13
ATOM     13  C   UNL A   1      38.041  31.725  29.954  1.00  0.00     0.031 A 
ATOM     14  C   UNL A   1      38.814  32.410  31.051  1.00  0.00     0.074 A 
ATOM     15  C   UNL A   1      38.524  30.600  29.393  1.00  0.00     0.049 A 
ATOM     16  N   UNL A   1      39.964  32.078  31.582  1.00  0.00    -0.248 NA
ATOM     17  C   UNL A   1      38.230  33.638  31.617  1.00  0.00     0.031 C 
ATOM     18  C   UNL A   1      37.882  29.846  28.316  1.00  0.00     0.029 A 
ATOM     19  N   UNL A   1      39.665  29.886  29.665  1.00  0.00    -0.354 N 
ATOM     20  C   UNL A   1      40.247  33.064  32.519  1.00  0.00     0.074 A 
ATOM     21  C   UNL A   1      39.176  34.033  32.455  1.00  0.00     0.031 C 
ATOM     22  C   UNL A   1      38.613  28.751  28.051  1.00  0.00     0.029 A 
ATOM     23  C   UNL A   1      39.792  28.742  28.914  1.00  0.00     0.049 A 
ATOM     24  H   UNL A   1      40.331  30.168  30.334  1.00  0.00     0.167 HD
ATOM     25  C   UNL A   1      41.289  33.144  33.377  1.00  0.00     0.031 A 
ATOM     26  C   UNL A   1      40.740  27.785  28.930  1.00  0.00     0.031 A 
ATOM     27  C   UNL A   1      42.334  32.163  33.477  1.00  0.00     0.049 A 
ATOM     28  C   UNL A   1      41.883  27.890  29.904  1.00  0.00     0.074 A 
ATOM     29  C   UNL A   1      43.413  32.142  34.342  1.00  0.00     0.029 A 
ATOM     30  N   UNL A   1      42.415  31.019  32.701  1.00  0.00    -0.354 N 
ATOM     31  N   UNL A   1      42.117  28.815  30.802  1.00  0.00    -0.248 NA
ATOM     32  C   UNL A   1      42.881  26.810  29.878  1.00  0.00     0.031 C 
ATOM     33  C   UNL A   1      44.169  31.001  34.066  1.00  0.00     0.029 A 
ATOM     34  C   UNL A   1      43.529  30.286  33.067  1.00  0.00     0.049 A 
ATOM     35  H   UNL A   1      41.777  30.766  31.995  1.00  0.00     0.167 HD
ATOM     36  C   UNL A   1      43.263  28.409  31.474  1.00  0.00     0.074 A 
ATOM     37  C   UNL A   1      43.676  27.153  30.884  1.00  0.00     0.031 C 
ATOM     38  C   UNL A   1      43.911  29.023  32.493  1.00  0.00     0.031 A 
BRANCH  25  39
ATOM     39  C   UNL A   1      41.351  34.328  34.301  1.00  0.00    -0.014 A 
ATOM     40  C   UNL A   1      40.648  34.306  35.515  1.00  0.00     0.009 A 
ATOM     41  C   UNL A   1      42.037  35.495  33.933  1.00  0.00     0.009 A 
ATOM     42  C   UNL A   1      40.621  35.433  36.338  1.00  0.00     0.001 A 
ATOM     43  C   UNL A   1      42.031  36.613  34.771  1.00  0.00     0.001 A 
ATOM     44  C   UNL A   1      41.315  36.584  35.967  1.00  0.00     0.000 A 
ENDBRANCH  25  39
BRANCH  26  45
ATOM     45  C   UNL A   1      40.617  26.605  28.034  1.00  0.00    -0.014 A 
ATOM     46  C   UNL A   1      41.183  26.611  26.749  1.00  0.00     0.009 A 
ATOM     47  C   UNL A   1      39.913  25.467  28.459  1.00  0.00     0.009 A 
ATOM     48  C   UNL A   1      41.041  25.505  25.908  1.00  0.00     0.001 A 
ATOM     49  C   UNL A   1      39.796  24.352  27.626  1.00  0.00     0.001 A 
ATOM     50  C   UNL A   1      40.354  24.374  26.349  1.00  0.00     0.000 A 
ENDBRANCH  26  45
BRANCH  38  51
ATOM     51  C   UNL A   1      45.107  28.337  33.089  1.00  0.00    -0.014 A 
ATOM     52  C   UNL A   1      44.934  27.492  34.198  1.00  0.00     0.009 A 
ATOM     53  C   UNL A   1      46.404  28.612  32.637  1.00  0.00     0.009 A 
ATOM     54  C   UNL A   1      46.038  26.947  34.852  1.00  0.00     0.001 A 
ATOM     55  C   UNL A   1      47.507  28.044  33.278  1.00  0.00     0.001 A 
ATOM     56  C   UNL A   1      47.323  27.221  34.390  1.00  0.00     0.000 A 
ENDBRANCH  38  51
ENDBRANCH  12  13
ENDBRANCH   5   7
ENDBRANCH   2   3
ENDBRANCH   1   2
BRANCH   1  57
ATOM     57  C   UNL A   1      31.586  29.701  25.075  1.00  0.00     0.023 C 
BRANCH  57  58
ATOM     58  C   UNL A   1      33.051  29.275  25.053  1.00  0.00     0.116 C 
BRANCH  58  59
ATOM     59  N   UNL A   1      33.633  29.341  23.717  1.00  0.00    -0.352 N 
ATOM     60  C   UNL A   1      33.671  28.385  22.739  1.00  0.00     0.256 C 
ATOM     61  H   UNL A   1      34.060  30.197  23.487  1.00  0.00     0.163 HD
ATOM     62  O   UNL A   1      34.352  28.563  21.730  1.00  0.00    -0.269 OA
BRANCH  60  63
ATOM     63  C   UNL A   1      32.893  27.149  22.874  1.00  0.00     0.102 A 
ATOM     64  C   UNL A   1      33.550  25.990  23.300  1.00  0.00     0.029 A 
ATOM     65  C   UNL A   1      31.546  27.068  22.544  1.00  0.00     0.223 A 
ATOM     66  C   UNL A   1      32.837  24.794  23.432  1.00  0.00     0.001 A 
ATOM     67  N   UNL A   1      30.818  25.947  22.693  1.00  0.00    -0.221 NA
ATOM     68  C   UNL A   1      31.473  24.846  23.131  1.00  0.00     0.124 A 
BRANCH  65  69
ATOM     69  O   UNL A   1      30.834  28.115  22.033  1.00  0.00    -0.493 OA
ATOM     70  H   UNL A   1      29.898  28.084  22.023  1.00  0.00     0.295 HD
ENDBRANCH  65  69
BRANCH  66  71
ATOM     71  C   UNL A   1      33.485  23.545  23.840  1.00  0.00    -0.016 A 
ATOM     72  C   UNL A   1      32.738  22.360  23.950  1.00  0.00     0.012 A 
ATOM     73  C   UNL A   1      34.861  23.497  24.133  1.00  0.00     0.025 A 
ATOM     74  C   UNL A   1      33.343  21.167  24.347  1.00  0.00     0.040 A 
ATOM     75  C   UNL A   1      35.477  22.299  24.537  1.00  0.00     0.092 A 
ATOM     76  C   UNL A   1      34.701  21.147  24.640  1.00  0.00     0.135 A 
ATOM     77  F   UNL A   1      35.260  19.995  25.030  1.00  0.00    -0.206 F 
BRANCH  75  78
ATOM     78  C   UNL A   1      36.934  22.228  24.881  1.00  0.00     0.419 C 
ATOM     79  F   UNL A   1      37.153  21.865  26.174  1.00  0.00    -0.166 F 
ATOM     80  F   UNL A   1      37.625  21.344  24.112  1.00  0.00    -0.166 F 
ATOM     81  F   UNL A   1      37.574  23.423  24.725  1.00  0.00    -0.166 F 
ENDBRANCH  75  78
ENDBRANCH  66  71
ENDBRANCH  60  63
ENDBRANCH  58  59
ENDBRANCH  57  58
ENDBRANCH   1  57
TORSDOF 14
ENDMDL
