MODEL 1
REMARK VINA RESULT:     -11.9      0.000      0.000
REMARK SMILES Cc1cc(NC(=O)c2ccc(Br)cc2N)ccc1C(=O)NCCCCNC(=O)c1ccc(-c2c3nc(c(-c4ccccc4)c4ccc([nH]4)c(-c4ccccc4)c4nc(c(-c5ccccc5)c5ccc2[nH]5)C=C4)C=C3)cc1
REMARK SMILES IDX 23 1 22 2 21 3 19 4 20 5 18 7 1 8 2 9 3 10 4 11 17 12 16 13
REMARK SMILES IDX 5 14 6 15 7 17 8 18 9 19 14 20 10 21 13 22 11 23 12 24 15 25
REMARK SMILES IDX 24 28 25 29 26 30 27 31 28 33 29 34 30 35 76 36 31 37 75 38
REMARK SMILES IDX 32 39 33 40 34 41 69 42 35 43 74 44 68 45 70 46 36 47 73 48
REMARK SMILES IDX 67 49 66 50 37 52 59 53 44 54 58 55 45 56 48 57 57 58 71 59
REMARK SMILES IDX 46 60 47 61 56 63 72 64 49 65 38 66 39 67 43 68 40 69 42 70
REMARK SMILES IDX 41 71 60 72 61 73 65 74 62 75 64 76 63 77 50 78 51 79 55 80
REMARK SMILES IDX 52 81 54 82 53 83
REMARK H PARENT 21 6 5 16 15 26 15 27 26 32 70 51 48 62
REMARK Flexibility Score: inf
ROOT
ATOM      1  C   UNL A   1      33.919  28.861  26.924  1.00  0.00     0.023 C 
ENDROOT
BRANCH   1   2
ATOM      2  C   UNL A   1      33.889  28.994  25.394  1.00  0.00     0.116 C 
BRANCH   2   3
ATOM      3  N   UNL A   1      32.557  29.350  24.955  1.00  0.00    -0.352 N 
ATOM      4  C   UNL A   1      31.464  28.662  24.503  1.00  0.00     0.251 C 
ATOM      5  O   UNL A   1      30.528  29.387  24.143  1.00  0.00    -0.269 OA
ATOM      6  H   UNL A   1      32.399  30.320  24.989  1.00  0.00     0.163 HD
BRANCH   4   7
ATOM      7  C   UNL A   1      31.242  27.171  24.481  1.00  0.00     0.042 A 
ATOM      8  C   UNL A   1      31.372  26.516  21.956  1.00  0.00     0.045 C 
ATOM      9  C   UNL A   1      31.231  26.246  23.419  1.00  0.00    -0.036 A 
ATOM     10  C   UNL A   1      30.997  24.882  23.701  1.00  0.00     0.030 A 
ATOM     11  C   UNL A   1      30.750  24.406  24.983  1.00  0.00     0.041 A 
ATOM     12  C   UNL A   1      30.899  26.666  25.767  1.00  0.00     0.016 A 
ATOM     13  C   UNL A   1      30.623  25.316  26.014  1.00  0.00     0.027 A 
BRANCH  11  14
ATOM     14  N   UNL A   1      30.644  23.033  25.249  1.00  0.00    -0.322 N 
ATOM     15  C   UNL A   1      31.657  22.091  25.303  1.00  0.00     0.257 C 
ATOM     16  H   UNL A   1      29.734  22.698  25.418  1.00  0.00     0.170 HD
ATOM     17  O   UNL A   1      31.389  20.895  25.202  1.00  0.00    -0.269 OA
BRANCH  15  18
ATOM     18  C   UNL A   1      33.074  22.497  25.552  1.00  0.00     0.063 A 
ATOM     19  C   UNL A   1      33.850  22.794  24.417  1.00  0.00     0.017 A 
ATOM     20  C   UNL A   1      33.643  22.584  26.844  1.00  0.00     0.045 A 
ATOM     21  C   UNL A   1      35.182  23.187  24.553  1.00  0.00     0.016 A 
ATOM     22  C   UNL A   1      34.988  22.967  26.956  1.00  0.00     0.042 A 
ATOM     23  C   UNL A   1      35.744  23.270  25.823  1.00  0.00     0.020 A 
ATOM     24  Br  UNL A   1      37.559  23.758  26.015  1.00  0.00    -0.051 Br
BRANCH  20  25
ATOM     25  N   UNL A   1      32.991  22.165  28.003  1.00  0.00    -0.398 N 
ATOM     26  H   UNL A   1      32.948  22.760  28.786  1.00  0.00     0.156 HD
ATOM     27  H   UNL A   1      32.575  21.274  28.039  1.00  0.00     0.156 HD
ENDBRANCH  20  25
ENDBRANCH  15  18
ENDBRANCH  11  14
ENDBRANCH   4   7
ENDBRANCH   2   3
ENDBRANCH   1   2
BRANCH   1  28
ATOM     28  C   UNL A   1      33.487  30.094  27.707  1.00  0.00     0.023 C 
BRANCH  28  29
ATOM     29  C   UNL A   1      34.310  31.322  27.375  1.00  0.00     0.116 C 
BRANCH  29  30
ATOM     30  N   UNL A   1      34.970  31.949  28.516  1.00  0.00    -0.352 N 
ATOM     31  C   UNL A   1      35.969  31.445  29.334  1.00  0.00     0.251 C 
ATOM     32  H   UNL A   1      34.663  32.858  28.737  1.00  0.00     0.163 HD
ATOM     33  O   UNL A   1      36.373  32.102  30.292  1.00  0.00    -0.269 OA
BRANCH  31  34
ATOM     34  C   UNL A   1      36.669  30.190  28.951  1.00  0.00     0.039 A 
ATOM     35  C   UNL A   1      36.802  29.206  29.937  1.00  0.00     0.014 A 
ATOM     36  C   UNL A   1      37.453  30.135  27.807  1.00  0.00     0.014 A 
ATOM     37  C   UNL A   1      37.931  28.394  29.930  1.00  0.00     0.010 A 
ATOM     38  C   UNL A   1      38.646  29.451  27.877  1.00  0.00     0.010 A 
ATOM     39  C   UNL A   1      38.923  28.651  28.988  1.00  0.00    -0.014 A 
BRANCH  39  40
ATOM     40  C   UNL A   1      40.315  28.254  29.173  1.00  0.00     0.031 A 
ATOM     41  C   UNL A   1      40.788  26.955  28.639  1.00  0.00     0.074 A 
ATOM     42  C   UNL A   1      41.189  29.116  29.749  1.00  0.00     0.049 A 
ATOM     43  N   UNL A   1      41.821  26.318  29.079  1.00  0.00    -0.248 NA
ATOM     44  C   UNL A   1      40.083  26.233  27.582  1.00  0.00     0.031 C 
ATOM     45  C   UNL A   1      42.646  28.986  29.790  1.00  0.00     0.029 A 
ATOM     46  N   UNL A   1      40.947  30.209  30.591  1.00  0.00    -0.354 N 
ATOM     47  C   UNL A   1      42.105  25.321  28.170  1.00  0.00     0.074 A 
ATOM     48  C   UNL A   1      40.933  25.234  27.336  1.00  0.00     0.031 C 
ATOM     49  C   UNL A   1      43.111  29.704  30.826  1.00  0.00     0.029 A 
ATOM     50  C   UNL A   1      41.954  30.171  31.569  1.00  0.00     0.049 A 
ATOM     51  H   UNL A   1      40.219  30.868  30.513  1.00  0.00     0.167 HD
ATOM     52  C   UNL A   1      43.365  24.801  28.121  1.00  0.00     0.031 A 
ATOM     53  C   UNL A   1      41.731  29.923  32.895  1.00  0.00     0.031 A 
ATOM     54  C   UNL A   1      44.191  25.288  29.229  1.00  0.00     0.049 A 
ATOM     55  C   UNL A   1      42.497  28.718  33.422  1.00  0.00     0.074 A 
ATOM     56  C   UNL A   1      45.204  26.229  29.313  1.00  0.00     0.029 A 
ATOM     57  N   UNL A   1      43.810  25.003  30.536  1.00  0.00    -0.354 N 
ATOM     58  N   UNL A   1      43.042  27.816  32.653  1.00  0.00    -0.248 NA
ATOM     59  C   UNL A   1      42.654  28.396  34.841  1.00  0.00     0.031 C 
ATOM     60  C   UNL A   1      45.365  26.579  30.681  1.00  0.00     0.029 A 
ATOM     61  C   UNL A   1      44.475  25.825  31.426  1.00  0.00     0.049 A 
ATOM     62  H   UNL A   1      43.157  24.313  30.793  1.00  0.00     0.167 HD
ATOM     63  C   UNL A   1      43.594  26.823  33.416  1.00  0.00     0.074 A 
ATOM     64  C   UNL A   1      43.337  27.236  34.783  1.00  0.00     0.031 C 
ATOM     65  C   UNL A   1      44.199  25.736  32.854  1.00  0.00     0.031 A 
BRANCH  52  66
ATOM     66  C   UNL A   1      43.936  24.100  26.902  1.00  0.00    -0.014 A 
ATOM     67  C   UNL A   1      44.823  24.794  26.055  1.00  0.00     0.009 A 
ATOM     68  C   UNL A   1      43.585  22.809  26.475  1.00  0.00     0.009 A 
ATOM     69  C   UNL A   1      45.246  24.273  24.824  1.00  0.00     0.001 A 
ATOM     70  C   UNL A   1      43.982  22.288  25.234  1.00  0.00     0.001 A 
ATOM     71  C   UNL A   1      44.803  23.028  24.399  1.00  0.00     0.000 A 
ENDBRANCH  52  66
BRANCH  53  72
ATOM     72  C   UNL A   1      40.396  30.344  33.396  1.00  0.00    -0.014 A 
ATOM     73  C   UNL A   1      40.186  31.707  33.679  1.00  0.00     0.009 A 
ATOM     74  C   UNL A   1      39.277  29.510  33.263  1.00  0.00     0.009 A 
ATOM     75  C   UNL A   1      38.897  32.246  33.707  1.00  0.00     0.001 A 
ATOM     76  C   UNL A   1      37.985  30.052  33.300  1.00  0.00     0.001 A 
ATOM     77  C   UNL A   1      37.798  31.422  33.483  1.00  0.00     0.000 A 
ENDBRANCH  53  72
BRANCH  65  78
ATOM     78  C   UNL A   1      44.643  24.494  33.587  1.00  0.00    -0.014 A 
ATOM     79  C   UNL A   1      43.796  23.426  33.911  1.00  0.00     0.009 A 
ATOM     80  C   UNL A   1      46.022  24.312  33.840  1.00  0.00     0.009 A 
ATOM     81  C   UNL A   1      44.296  22.254  34.498  1.00  0.00     0.001 A 
ATOM     82  C   UNL A   1      46.529  23.130  34.383  1.00  0.00     0.001 A 
ATOM     83  C   UNL A   1      45.662  22.102  34.723  1.00  0.00     0.000 A 
ENDBRANCH  65  78
ENDBRANCH  39  40
ENDBRANCH  31  34
ENDBRANCH  29  30
ENDBRANCH  28  29
ENDBRANCH   1  28
TORSDOF 14
ENDMDL
MODEL 2
REMARK VINA RESULT:     -11.9      3.405      8.701
REMARK SMILES Cc1cc(NC(=O)c2ccc(Br)cc2N)ccc1C(=O)NCCCCNC(=O)c1ccc(-c2c3nc(c(-c4ccccc4)c4ccc([nH]4)c(-c4ccccc4)c4nc(c(-c5ccccc5)c5ccc2[nH]5)C=C4)C=C3)cc1
REMARK SMILES IDX 23 1 22 2 21 3 19 4 20 5 18 7 1 8 2 9 3 10 4 11 17 12 16 13
REMARK SMILES IDX 5 14 6 15 7 17 8 18 9 19 14 20 10 21 13 22 11 23 12 24 15 25
REMARK SMILES IDX 24 28 25 29 26 30 27 31 28 33 29 34 30 35 76 36 31 37 75 38
REMARK SMILES IDX 32 39 33 40 34 41 69 42 35 43 74 44 68 45 70 46 36 47 73 48
REMARK SMILES IDX 67 49 66 50 37 52 59 53 44 54 58 55 45 56 48 57 57 58 71 59
REMARK SMILES IDX 46 60 47 61 56 63 72 64 49 65 38 66 39 67 43 68 40 69 42 70
REMARK SMILES IDX 41 71 60 72 61 73 65 74 62 75 64 76 63 77 50 78 51 79 55 80
REMARK SMILES IDX 52 81 54 82 53 83
REMARK H PARENT 21 6 5 16 15 26 15 27 26 32 70 51 48 62
REMARK Flexibility Score: inf
ROOT
ATOM      1  C   UNL A   1      37.325  21.227  24.728  1.00  0.00     0.023 C 
ENDROOT
BRANCH   1   2
ATOM      2  C   UNL A   1      36.150  21.572  25.654  1.00  0.00     0.116 C 
BRANCH   2   3
ATOM      3  N   UNL A   1      35.106  20.579  25.520  1.00  0.00    -0.352 N 
ATOM      4  C   UNL A   1      33.776  20.600  25.201  1.00  0.00     0.251 C 
ATOM      5  O   UNL A   1      33.220  19.498  25.288  1.00  0.00    -0.269 OA
ATOM      6  H   UNL A   1      35.432  19.668  25.701  1.00  0.00     0.163 HD
BRANCH   4   7
ATOM      7  C   UNL A   1      32.958  21.758  24.686  1.00  0.00     0.042 A 
ATOM      8  C   UNL A   1      34.435  22.843  22.826  1.00  0.00     0.045 C 
ATOM      9  C   UNL A   1      33.208  22.695  23.665  1.00  0.00    -0.036 A 
ATOM     10  C   UNL A   1      32.240  23.687  23.394  1.00  0.00     0.030 A 
ATOM     11  C   UNL A   1      31.054  23.801  24.108  1.00  0.00     0.041 A 
ATOM     12  C   UNL A   1      31.777  21.956  25.456  1.00  0.00     0.016 A 
ATOM     13  C   UNL A   1      30.855  22.978  25.200  1.00  0.00     0.027 A 
BRANCH  11  14
ATOM     14  N   UNL A   1      30.058  24.717  23.737  1.00  0.00    -0.322 N 
ATOM     15  C   UNL A   1      29.850  25.998  24.220  1.00  0.00     0.257 C 
ATOM     16  H   UNL A   1      29.427  24.409  23.048  1.00  0.00     0.170 HD
ATOM     17  O   UNL A   1      28.759  26.543  24.064  1.00  0.00    -0.269 OA
BRANCH  15  18
ATOM     18  C   UNL A   1      30.956  26.763  24.872  1.00  0.00     0.063 A 
ATOM     19  C   UNL A   1      30.978  26.758  26.278  1.00  0.00     0.017 A 
ATOM     20  C   UNL A   1      31.942  27.474  24.149  1.00  0.00     0.045 A 
ATOM     21  C   UNL A   1      31.977  27.442  26.973  1.00  0.00     0.016 A 
ATOM     22  C   UNL A   1      32.928  28.166  24.868  1.00  0.00     0.042 A 
ATOM     23  C   UNL A   1      32.946  28.144  26.263  1.00  0.00     0.020 A 
ATOM     24  Br  UNL A   1      34.277  29.109  27.195  1.00  0.00    -0.051 Br
BRANCH  20  25
ATOM     25  N   UNL A   1      31.904  27.654  22.766  1.00  0.00    -0.398 N 
ATOM     26  H   UNL A   1      32.303  28.459  22.363  1.00  0.00     0.156 HD
ATOM     27  H   UNL A   1      31.480  26.975  22.193  1.00  0.00     0.156 HD
ENDBRANCH  20  25
ENDBRANCH  15  18
ENDBRANCH  11  14
ENDBRANCH   4   7
ENDBRANCH   2   3
ENDBRANCH   1   2
BRANCH   1  28
ATOM     28  C   UNL A   1      38.702  21.210  25.379  1.00  0.00     0.023 C 
BRANCH  28  29
ATOM     29  C   UNL A   1      38.916  22.365  26.337  1.00  0.00     0.116 C 
BRANCH  29  30
ATOM     30  N   UNL A   1      40.301  22.581  26.745  1.00  0.00    -0.352 N 
ATOM     31  C   UNL A   1      40.946  23.768  27.054  1.00  0.00     0.251 C 
ATOM     32  H   UNL A   1      40.854  21.770  26.810  1.00  0.00     0.163 HD
ATOM     33  O   UNL A   1      42.144  23.765  27.330  1.00  0.00    -0.269 OA
BRANCH  31  34
ATOM     34  C   UNL A   1      40.153  25.015  27.219  1.00  0.00     0.039 A 
ATOM     35  C   UNL A   1      40.550  26.129  26.471  1.00  0.00     0.014 A 
ATOM     36  C   UNL A   1      39.301  25.175  28.304  1.00  0.00     0.014 A 
ATOM     37  C   UNL A   1      40.374  27.398  27.010  1.00  0.00     0.010 A 
ATOM     38  C   UNL A   1      39.266  26.408  28.916  1.00  0.00     0.010 A 
ATOM     39  C   UNL A   1      39.885  27.503  28.310  1.00  0.00    -0.014 A 
BRANCH  39  40
ATOM     40  C   UNL A   1      40.125  28.666  29.157  1.00  0.00     0.031 A 
ATOM     41  C   UNL A   1      39.092  29.724  29.265  1.00  0.00     0.074 A 
ATOM     42  C   UNL A   1      41.249  28.728  29.912  1.00  0.00     0.049 A 
ATOM     43  N   UNL A   1      39.330  30.944  29.614  1.00  0.00    -0.248 NA
ATOM     44  C   UNL A   1      37.690  29.494  28.926  1.00  0.00     0.031 C 
ATOM     45  C   UNL A   1      41.530  29.683  30.985  1.00  0.00     0.029 A 
ATOM     46  N   UNL A   1      42.471  28.061  29.757  1.00  0.00    -0.354 N 
ATOM     47  C   UNL A   1      38.116  31.541  29.872  1.00  0.00     0.074 A 
ATOM     48  C   UNL A   1      37.134  30.645  29.313  1.00  0.00     0.031 C 
ATOM     49  C   UNL A   1      42.861  29.770  31.144  1.00  0.00     0.029 A 
ATOM     50  C   UNL A   1      43.465  29.003  30.069  1.00  0.00     0.049 A 
ATOM     51  H   UNL A   1      42.605  27.125  29.485  1.00  0.00     0.167 HD
ATOM     52  C   UNL A   1      38.069  32.641  30.678  1.00  0.00     0.031 A 
ATOM     53  C   UNL A   1      44.361  29.505  29.165  1.00  0.00     0.031 A 
ATOM     54  C   UNL A   1      39.412  33.132  30.994  1.00  0.00     0.049 A 
ATOM     55  C   UNL A   1      44.305  31.021  29.037  1.00  0.00     0.074 A 
ATOM     56  C   UNL A   1      40.211  33.050  32.124  1.00  0.00     0.029 A 
ATOM     57  N   UNL A   1      40.239  33.564  29.961  1.00  0.00    -0.354 N 
ATOM     58  N   UNL A   1      43.311  31.746  29.471  1.00  0.00    -0.248 NA
ATOM     59  C   UNL A   1      45.318  31.830  28.359  1.00  0.00     0.031 C 
ATOM     60  C   UNL A   1      41.546  33.345  31.740  1.00  0.00     0.029 A 
ATOM     61  C   UNL A   1      41.551  33.640  30.387  1.00  0.00     0.049 A 
ATOM     62  H   UNL A   1      39.932  33.784  29.052  1.00  0.00     0.167 HD
ATOM     63  C   UNL A   1      43.515  33.061  29.148  1.00  0.00     0.074 A 
ATOM     64  C   UNL A   1      44.794  33.066  28.461  1.00  0.00     0.031 C 
ATOM     65  C   UNL A   1      42.604  34.028  29.457  1.00  0.00     0.031 A 
BRANCH  52  66
ATOM     66  C   UNL A   1      36.824  33.080  31.426  1.00  0.00    -0.014 A 
ATOM     67  C   UNL A   1      36.642  32.679  32.764  1.00  0.00     0.009 A 
ATOM     68  C   UNL A   1      35.757  33.802  30.865  1.00  0.00     0.009 A 
ATOM     69  C   UNL A   1      35.441  32.898  33.455  1.00  0.00     0.001 A 
ATOM     70  C   UNL A   1      34.543  34.004  31.537  1.00  0.00     0.001 A 
ATOM     71  C   UNL A   1      34.379  33.537  32.832  1.00  0.00     0.000 A 
ENDBRANCH  52  66
BRANCH  53  72
ATOM     72  C   UNL A   1      44.704  28.588  28.047  1.00  0.00    -0.014 A 
ATOM     73  C   UNL A   1      45.314  27.357  28.353  1.00  0.00     0.009 A 
ATOM     74  C   UNL A   1      44.139  28.754  26.775  1.00  0.00     0.009 A 
ATOM     75  C   UNL A   1      45.253  26.282  27.462  1.00  0.00     0.001 A 
ATOM     76  C   UNL A   1      44.087  27.677  25.880  1.00  0.00     0.001 A 
ATOM     77  C   UNL A   1      44.609  26.434  26.238  1.00  0.00     0.000 A 
ENDBRANCH  53  72
BRANCH  65  78
ATOM     78  C   UNL A   1      42.625  35.453  28.964  1.00  0.00    -0.014 A 
ATOM     79  C   UNL A   1      43.261  36.508  29.630  1.00  0.00     0.009 A 
ATOM     80  C   UNL A   1      42.102  35.735  27.680  1.00  0.00     0.009 A 
ATOM     81  C   UNL A   1      43.335  37.788  29.062  1.00  0.00     0.001 A 
ATOM     82  C   UNL A   1      42.212  36.997  27.092  1.00  0.00     0.001 A 
ATOM     83  C   UNL A   1      42.821  38.030  27.790  1.00  0.00     0.000 A 
ENDBRANCH  65  78
ENDBRANCH  39  40
ENDBRANCH  31  34
ENDBRANCH  29  30
ENDBRANCH  28  29
ENDBRANCH   1  28
TORSDOF 14
ENDMDL
MODEL 3
REMARK VINA RESULT:     -11.9      1.949      3.300
REMARK SMILES Cc1cc(NC(=O)c2ccc(Br)cc2N)ccc1C(=O)NCCCCNC(=O)c1ccc(-c2c3nc(c(-c4ccccc4)c4ccc([nH]4)c(-c4ccccc4)c4nc(c(-c5ccccc5)c5ccc2[nH]5)C=C4)C=C3)cc1
REMARK SMILES IDX 23 1 22 2 21 3 19 4 20 5 18 7 1 8 2 9 3 10 4 11 17 12 16 13
REMARK SMILES IDX 5 14 6 15 7 17 8 18 9 19 14 20 10 21 13 22 11 23 12 24 15 25
REMARK SMILES IDX 24 28 25 29 26 30 27 31 28 33 29 34 30 35 76 36 31 37 75 38
REMARK SMILES IDX 32 39 33 40 34 41 69 42 35 43 74 44 68 45 70 46 36 47 73 48
REMARK SMILES IDX 67 49 66 50 37 52 59 53 44 54 58 55 45 56 48 57 57 58 71 59
REMARK SMILES IDX 46 60 47 61 56 63 72 64 49 65 38 66 39 67 43 68 40 69 42 70
REMARK SMILES IDX 41 71 60 72 61 73 65 74 62 75 64 76 63 77 50 78 51 79 55 80
REMARK SMILES IDX 52 81 54 82 53 83
REMARK H PARENT 21 6 5 16 15 26 15 27 26 32 70 51 48 62
REMARK Flexibility Score: inf
ROOT
ATOM      1  C   UNL A   1      33.114  29.900  26.754  1.00  0.00     0.023 C 
ENDROOT
BRANCH   1   2
ATOM      2  C   UNL A   1      33.181  29.691  25.234  1.00  0.00     0.116 C 
BRANCH   2   3
ATOM      3  N   UNL A   1      31.860  29.813  24.659  1.00  0.00    -0.352 N 
ATOM      4  C   UNL A   1      30.964  28.953  24.084  1.00  0.00     0.251 C 
ATOM      5  O   UNL A   1      29.953  29.507  23.635  1.00  0.00    -0.269 OA
ATOM      6  H   UNL A   1      31.522  30.737  24.690  1.00  0.00     0.163 HD
BRANCH   4   7
ATOM      7  C   UNL A   1      31.026  27.448  24.017  1.00  0.00     0.042 A 
ATOM      8  C   UNL A   1      30.949  26.666  26.508  1.00  0.00     0.045 C 
ATOM      9  C   UNL A   1      30.990  26.468  25.028  1.00  0.00    -0.036 A 
ATOM     10  C   UNL A   1      31.063  25.105  24.663  1.00  0.00     0.030 A 
ATOM     11  C   UNL A   1      31.196  24.681  23.347  1.00  0.00     0.041 A 
ATOM     12  C   UNL A   1      31.251  26.985  22.690  1.00  0.00     0.016 A 
ATOM     13  C   UNL A   1      31.370  25.629  22.358  1.00  0.00     0.027 A 
BRANCH  11  14
ATOM     14  N   UNL A   1      31.143  23.321  23.004  1.00  0.00    -0.322 N 
ATOM     15  C   UNL A   1      32.184  22.410  22.951  1.00  0.00     0.257 C 
ATOM     16  H   UNL A   1      30.253  22.972  22.771  1.00  0.00     0.170 HD
ATOM     17  O   UNL A   1      32.055  21.367  22.313  1.00  0.00    -0.269 OA
BRANCH  15  18
ATOM     18  C   UNL A   1      33.447  22.640  23.716  1.00  0.00     0.063 A 
ATOM     19  C   UNL A   1      34.547  23.120  22.982  1.00  0.00     0.017 A 
ATOM     20  C   UNL A   1      33.573  22.393  25.103  1.00  0.00     0.045 A 
ATOM     21  C   UNL A   1      35.766  23.368  23.614  1.00  0.00     0.016 A 
ATOM     22  C   UNL A   1      34.812  22.636  25.714  1.00  0.00     0.042 A 
ATOM     23  C   UNL A   1      35.892  23.124  24.978  1.00  0.00     0.020 A 
ATOM     24  Br  UNL A   1      37.551  23.414  25.834  1.00  0.00    -0.051 Br
BRANCH  20  25
ATOM     25  N   UNL A   1      32.583  21.779  25.870  1.00  0.00    -0.398 N 
ATOM     26  H   UNL A   1      32.747  20.894  26.268  1.00  0.00     0.156 HD
ATOM     27  H   UNL A   1      31.720  22.231  26.013  1.00  0.00     0.156 HD
ENDBRANCH  20  25
ENDBRANCH  15  18
ENDBRANCH  11  14
ENDBRANCH   4   7
ENDBRANCH   2   3
ENDBRANCH   1   2
BRANCH   1  28
ATOM     28  C   UNL A   1      34.436  29.777  27.501  1.00  0.00     0.023 C 
BRANCH  28  29
ATOM     29  C   UNL A   1      35.066  31.119  27.811  1.00  0.00     0.116 C 
BRANCH  29  30
ATOM     30  N   UNL A   1      34.121  32.208  28.038  1.00  0.00    -0.352 N 
ATOM     31  C   UNL A   1      34.126  33.179  29.028  1.00  0.00     0.251 C 
ATOM     32  H   UNL A   1      33.374  32.261  27.399  1.00  0.00     0.163 HD
ATOM     33  O   UNL A   1      33.209  33.995  29.096  1.00  0.00    -0.269 OA
BRANCH  31  34
ATOM     34  C   UNL A   1      35.323  33.337  29.895  1.00  0.00     0.039 A 
ATOM     35  C   UNL A   1      36.402  34.058  29.370  1.00  0.00     0.014 A 
ATOM     36  C   UNL A   1      35.506  32.528  31.008  1.00  0.00     0.014 A 
ATOM     37  C   UNL A   1      37.694  33.700  29.740  1.00  0.00     0.010 A 
ATOM     38  C   UNL A   1      36.776  32.060  31.261  1.00  0.00     0.010 A 
ATOM     39  C   UNL A   1      37.862  32.585  30.557  1.00  0.00    -0.014 A 
BRANCH  39  40
ATOM     40  C   UNL A   1      39.101  31.815  30.603  1.00  0.00     0.031 A 
ATOM     41  C   UNL A   1      39.175  30.498  29.928  1.00  0.00     0.074 A 
ATOM     42  C   UNL A   1      40.204  32.350  31.182  1.00  0.00     0.049 A 
ATOM     43  N   UNL A   1      40.016  29.567  30.233  1.00  0.00    -0.248 NA
ATOM     44  C   UNL A   1      38.249  30.101  28.870  1.00  0.00     0.031 C 
ATOM     45  C   UNL A   1      41.571  31.833  31.102  1.00  0.00     0.029 A 
ATOM     46  N   UNL A   1      40.311  33.377  32.129  1.00  0.00    -0.354 N 
ATOM     47  C   UNL A   1      39.972  28.629  29.225  1.00  0.00     0.074 A 
ATOM     48  C   UNL A   1      38.780  28.941  28.477  1.00  0.00     0.031 C 
ATOM     49  C   UNL A   1      42.265  32.293  32.156  1.00  0.00     0.029 A 
ATOM     50  C   UNL A   1      41.317  32.974  33.021  1.00  0.00     0.049 A 
ATOM     51  H   UNL A   1      39.787  34.210  32.162  1.00  0.00     0.167 HD
ATOM     52  C   UNL A   1      41.039  27.799  29.038  1.00  0.00     0.031 A 
ATOM     53  C   UNL A   1      41.102  32.661  34.335  1.00  0.00     0.031 A 
ATOM     54  C   UNL A   1      42.020  27.934  30.117  1.00  0.00     0.049 A 
ATOM     55  C   UNL A   1      41.536  31.249  34.699  1.00  0.00     0.074 A 
ATOM     56  C   UNL A   1      43.255  28.558  30.204  1.00  0.00     0.029 A 
ATOM     57  N   UNL A   1      41.643  27.630  31.421  1.00  0.00    -0.354 N 
ATOM     58  N   UNL A   1      41.775  30.317  33.818  1.00  0.00    -0.248 NA
ATOM     59  C   UNL A   1      41.670  30.754  36.070  1.00  0.00     0.031 C 
ATOM     60  C   UNL A   1      43.573  28.712  31.580  1.00  0.00     0.029 A 
ATOM     61  C   UNL A   1      42.550  28.151  32.324  1.00  0.00     0.049 A 
ATOM     62  H   UNL A   1      40.840  27.116  31.667  1.00  0.00     0.167 HD
ATOM     63  C   UNL A   1      42.074  29.140  34.451  1.00  0.00     0.074 A 
ATOM     64  C   UNL A   1      42.008  29.467  35.864  1.00  0.00     0.031 C 
ATOM     65  C   UNL A   1      42.331  27.994  33.756  1.00  0.00     0.031 A 
BRANCH  52  66
ATOM     66  C   UNL A   1      41.336  27.099  27.725  1.00  0.00    -0.014 A 
ATOM     67  C   UNL A   1      41.278  25.693  27.660  1.00  0.00     0.009 A 
ATOM     68  C   UNL A   1      41.761  27.737  26.547  1.00  0.00     0.009 A 
ATOM     69  C   UNL A   1      41.711  24.976  26.534  1.00  0.00     0.001 A 
ATOM     70  C   UNL A   1      42.220  27.030  25.426  1.00  0.00     0.001 A 
ATOM     71  C   UNL A   1      42.209  25.645  25.425  1.00  0.00     0.000 A 
ENDBRANCH  52  66
BRANCH  53  72
ATOM     72  C   UNL A   1      39.958  33.369  34.968  1.00  0.00    -0.014 A 
ATOM     73  C   UNL A   1      38.664  32.844  34.792  1.00  0.00     0.009 A 
ATOM     74  C   UNL A   1      40.164  34.309  35.988  1.00  0.00     0.009 A 
ATOM     75  C   UNL A   1      37.634  33.153  35.684  1.00  0.00     0.001 A 
ATOM     76  C   UNL A   1      39.126  34.623  36.876  1.00  0.00     0.001 A 
ATOM     77  C   UNL A   1      37.877  34.018  36.748  1.00  0.00     0.000 A 
ENDBRANCH  53  72
BRANCH  65  78
ATOM     78  C   UNL A   1      42.456  26.611  34.346  1.00  0.00    -0.014 A 
ATOM     79  C   UNL A   1      41.484  26.009  35.155  1.00  0.00     0.009 A 
ATOM     80  C   UNL A   1      43.546  25.801  33.952  1.00  0.00     0.009 A 
ATOM     81  C   UNL A   1      41.614  24.679  35.582  1.00  0.00     0.001 A 
ATOM     82  C   UNL A   1      43.657  24.464  34.338  1.00  0.00     0.001 A 
ATOM     83  C   UNL A   1      42.694  23.905  35.165  1.00  0.00     0.000 A 
ENDBRANCH  65  78
ENDBRANCH  39  40
ENDBRANCH  31  34
ENDBRANCH  29  30
ENDBRANCH  28  29
ENDBRANCH   1  28
TORSDOF 14
ENDMDL
