MODEL 1
REMARK VINA RESULT:     -13.1      0.000      0.000
REMARK SMILES CCn1ncc(NC(=O)[C@@H]2CCCC[C@@H]2C(=O)NCCCCNC(=O)c2ccc(-c3c4nc(c(-c5ccccc5)c5ccc([nH]5)c(-c5ccccc5)c5nc(c(-c6ccccc6)c6ccc3[nH]6)C=C5)C=C4)cc2)c1C(=O)Nc1cnn(C)c1C
REMARK SMILES IDX 19 1 18 2 16 3 17 4 15 6 10 7 11 8 12 9 14 10 13 11 8 12
REMARK SMILES IDX 7 13 9 15 6 16 3 17 4 18 74 19 5 20 2 21 1 22 75 23 76 24
REMARK SMILES IDX 77 25 78 27 79 28 83 29 80 30 81 31 84 32 82 33 20 34 21 35
REMARK SMILES IDX 22 36 23 37 24 38 25 40 26 41 27 42 73 43 28 44 72 45 29 46
REMARK SMILES IDX 30 47 31 48 66 49 32 50 71 51 65 52 67 53 33 54 70 55 64 56
REMARK SMILES IDX 63 57 34 59 56 60 41 61 55 62 42 63 45 64 54 65 68 66 43 67
REMARK SMILES IDX 44 68 53 70 69 71 46 72 35 73 36 74 40 75 37 76 39 77 38 78
REMARK SMILES IDX 57 79 58 80 62 81 59 82 61 83 60 84 47 85 48 86 52 87 49 88
REMARK SMILES IDX 51 89 50 90
REMARK H PARENT 18 5 7 14 77 26 23 39 67 58 45 69
REMARK Flexibility Score: inf
ROOT
ATOM      1  C   UNL A   1      36.821  21.949  25.680  1.00  0.00     0.116 C 
ENDROOT
BRANCH   1   2
ATOM      2  N   UNL A   1      35.631  21.389  26.276  1.00  0.00    -0.356 N 
ATOM      3  C   UNL A   1      34.413  21.963  26.458  1.00  0.00     0.223 C 
ATOM      4  O   UNL A   1      33.745  21.516  27.393  1.00  0.00    -0.275 OA
ATOM      5  H   UNL A   1      35.713  20.461  26.595  1.00  0.00     0.163 HD
BRANCH   3   6
ATOM      6  C   UNL A   1      33.906  23.067  25.509  1.00  0.00     0.091 C 
ATOM      7  C   UNL A   1      32.343  23.125  25.541  1.00  0.00     0.091 C 
ATOM      8  C   UNL A   1      31.807  21.734  25.154  1.00  0.00     0.014 C 
ATOM      9  C   UNL A   1      32.240  21.393  23.736  1.00  0.00     0.001 C 
ATOM     10  C   UNL A   1      34.281  22.825  24.026  1.00  0.00     0.014 C 
ATOM     11  C   UNL A   1      33.736  21.496  23.509  1.00  0.00     0.001 C 
BRANCH   7  12
ATOM     12  C   UNL A   1      31.780  23.790  26.795  1.00  0.00     0.228 C 
ATOM     13  N   UNL A   1      31.707  25.147  26.951  1.00  0.00    -0.322 N 
ATOM     14  H   UNL A   1      31.361  25.422  27.830  1.00  0.00     0.170 HD
ATOM     15  O   UNL A   1      31.398  23.102  27.751  1.00  0.00    -0.274 OA
BRANCH  13  16
ATOM     16  C   UNL A   1      32.021  26.215  26.123  1.00  0.00     0.092 A 
ATOM     17  N   UNL A   1      31.977  28.112  25.096  1.00  0.00    -0.258 N 
ATOM     18  N   UNL A   1      33.264  28.014  25.509  1.00  0.00    -0.178 NA
ATOM     19  C   UNL A   1      31.339  26.878  25.089  1.00  0.00     0.150 A 
ATOM     20  C   UNL A   1      33.263  26.884  26.208  1.00  0.00     0.162 A 
BRANCH  17  21
ATOM     21  C   UNL A   1      31.385  29.434  25.246  1.00  0.00     0.142 C 
ATOM     22  C   UNL A   1      32.134  30.313  26.229  1.00  0.00     0.029 C 
ENDBRANCH  17  21
BRANCH  19  23
ATOM     23  C   UNL A   1      30.229  26.367  24.288  1.00  0.00     0.276 C 
ATOM     24  O   UNL A   1      29.954  25.163  24.298  1.00  0.00    -0.267 OA
ATOM     25  N   UNL A   1      29.295  27.169  23.661  1.00  0.00    -0.318 N 
ATOM     26  H   UNL A   1      28.363  26.874  23.782  1.00  0.00     0.170 HD
BRANCH  25  27
ATOM     27  C   UNL A   1      29.432  28.303  22.899  1.00  0.00     0.082 A 
ATOM     28  C   UNL A   1      30.510  28.703  22.092  1.00  0.00     0.161 A 
ATOM     29  C   UNL A   1      28.464  29.280  22.722  1.00  0.00     0.059 A 
ATOM     30  N   UNL A   1      30.304  29.899  21.539  1.00  0.00    -0.179 NA
ATOM     31  N   UNL A   1      29.092  30.266  21.996  1.00  0.00    -0.271 N 
ATOM     32  C   UNL A   1      27.094  29.466  23.271  1.00  0.00     0.068 C 
ATOM     33  C   UNL A   1      28.681  31.643  21.829  1.00  0.00     0.174 C 
ENDBRANCH  25  27
ENDBRANCH  19  23
ENDBRANCH  13  16
ENDBRANCH   7  12
ENDBRANCH   3   6
ENDBRANCH   1   2
BRANCH   1  34
ATOM     34  C   UNL A   1      37.332  21.068  24.543  1.00  0.00     0.023 C 
BRANCH  34  35
ATOM     35  C   UNL A   1      38.120  19.819  24.957  1.00  0.00     0.023 C 
BRANCH  35  36
ATOM     36  C   UNL A   1      39.217  20.083  25.969  1.00  0.00     0.116 C 
BRANCH  36  37
ATOM     37  N   UNL A   1      40.332  19.135  25.880  1.00  0.00    -0.352 N 
ATOM     38  C   UNL A   1      41.692  19.418  25.916  1.00  0.00     0.251 C 
ATOM     39  H   UNL A   1      40.088  18.187  25.782  1.00  0.00     0.163 HD
ATOM     40  O   UNL A   1      42.528  18.633  25.522  1.00  0.00    -0.269 OA
BRANCH  38  41
ATOM     41  C   UNL A   1      42.085  20.710  26.503  1.00  0.00     0.039 A 
ATOM     42  C   UNL A   1      42.748  21.711  25.786  1.00  0.00     0.014 A 
ATOM     43  C   UNL A   1      41.676  20.915  27.813  1.00  0.00     0.014 A 
ATOM     44  C   UNL A   1      42.946  22.943  26.405  1.00  0.00     0.010 A 
ATOM     45  C   UNL A   1      41.623  22.184  28.296  1.00  0.00     0.010 A 
ATOM     46  C   UNL A   1      42.376  23.162  27.667  1.00  0.00    -0.014 A 
BRANCH  46  47
ATOM     47  C   UNL A   1      42.495  24.412  28.394  1.00  0.00     0.031 A 
ATOM     48  C   UNL A   1      41.420  25.397  28.126  1.00  0.00     0.074 A 
ATOM     49  C   UNL A   1      43.346  24.526  29.438  1.00  0.00     0.049 A 
ATOM     50  N   UNL A   1      41.534  26.546  27.551  1.00  0.00    -0.248 NA
ATOM     51  C   UNL A   1      40.031  25.012  28.423  1.00  0.00     0.031 C 
ATOM     52  C   UNL A   1      44.220  23.498  30.035  1.00  0.00     0.029 A 
ATOM     53  N   UNL A   1      43.506  25.566  30.293  1.00  0.00    -0.354 N 
ATOM     54  C   UNL A   1      40.270  27.122  27.592  1.00  0.00     0.074 A 
ATOM     55  C   UNL A   1      39.359  26.068  27.961  1.00  0.00     0.031 C 
ATOM     56  C   UNL A   1      44.602  23.885  31.273  1.00  0.00     0.029 A 
ATOM     57  C   UNL A   1      44.170  25.254  31.473  1.00  0.00     0.049 A 
ATOM     58  H   UNL A   1      43.178  26.473  30.092  1.00  0.00     0.167 HD
ATOM     59  C   UNL A   1      40.110  28.474  27.582  1.00  0.00     0.031 A 
ATOM     60  C   UNL A   1      44.329  26.067  32.547  1.00  0.00     0.031 A 
ATOM     61  C   UNL A   1      41.329  29.148  27.207  1.00  0.00     0.049 A 
ATOM     62  C   UNL A   1      44.102  27.452  32.073  1.00  0.00     0.074 A 
ATOM     63  C   UNL A   1      42.142  29.140  26.091  1.00  0.00     0.029 A 
ATOM     64  N   UNL A   1      42.099  29.654  28.228  1.00  0.00    -0.354 N 
ATOM     65  N   UNL A   1      44.880  28.046  31.211  1.00  0.00    -0.248 NA
ATOM     66  C   UNL A   1      42.755  27.990  32.175  1.00  0.00     0.031 C 
ATOM     67  C   UNL A   1      43.471  29.155  26.611  1.00  0.00     0.029 A 
ATOM     68  C   UNL A   1      43.393  29.260  28.003  1.00  0.00     0.049 A 
ATOM     69  H   UNL A   1      41.780  30.198  28.983  1.00  0.00     0.167 HD
ATOM     70  C   UNL A   1      44.014  28.718  30.359  1.00  0.00     0.074 A 
ATOM     71  C   UNL A   1      42.727  28.726  31.058  1.00  0.00     0.031 C 
ATOM     72  C   UNL A   1      44.340  28.944  29.051  1.00  0.00     0.031 A 
BRANCH  59  73
ATOM     73  C   UNL A   1      39.007  29.193  28.319  1.00  0.00    -0.014 A 
ATOM     74  C   UNL A   1      38.938  29.064  29.718  1.00  0.00     0.009 A 
ATOM     75  C   UNL A   1      37.882  29.748  27.679  1.00  0.00     0.009 A 
ATOM     76  C   UNL A   1      37.774  29.395  30.423  1.00  0.00     0.001 A 
ATOM     77  C   UNL A   1      36.735  30.118  28.385  1.00  0.00     0.001 A 
ATOM     78  C   UNL A   1      36.670  29.913  29.754  1.00  0.00     0.000 A 
ENDBRANCH  59  73
BRANCH  60  79
ATOM     79  C   UNL A   1      44.335  25.705  33.981  1.00  0.00    -0.014 A 
ATOM     80  C   UNL A   1      45.149  26.391  34.895  1.00  0.00     0.009 A 
ATOM     81  C   UNL A   1      43.320  24.877  34.499  1.00  0.00     0.009 A 
ATOM     82  C   UNL A   1      44.928  26.284  36.277  1.00  0.00     0.001 A 
ATOM     83  C   UNL A   1      43.097  24.775  35.878  1.00  0.00     0.001 A 
ATOM     84  C   UNL A   1      43.892  25.490  36.766  1.00  0.00     0.000 A 
ENDBRANCH  60  79
BRANCH  72  85
ATOM     85  C   UNL A   1      45.746  28.609  28.606  1.00  0.00    -0.014 A 
ATOM     86  C   UNL A   1      46.114  27.354  28.086  1.00  0.00     0.009 A 
ATOM     87  C   UNL A   1      46.689  29.644  28.556  1.00  0.00     0.009 A 
ATOM     88  C   UNL A   1      47.394  27.138  27.560  1.00  0.00     0.001 A 
ATOM     89  C   UNL A   1      47.960  29.435  28.015  1.00  0.00     0.001 A 
ATOM     90  C   UNL A   1      48.315  28.183  27.522  1.00  0.00     0.000 A 
ENDBRANCH  72  85
ENDBRANCH  46  47
ENDBRANCH  38  41
ENDBRANCH  36  37
ENDBRANCH  35  36
ENDBRANCH  34  35
ENDBRANCH   1  34
TORSDOF 16
ENDMDL
MODEL 2
REMARK VINA RESULT:     -12.8      2.525      6.453
REMARK SMILES CCn1ncc(NC(=O)[C@@H]2CCCC[C@@H]2C(=O)NCCCCNC(=O)c2ccc(-c3c4nc(c(-c5ccccc5)c5ccc([nH]5)c(-c5ccccc5)c5nc(c(-c6ccccc6)c6ccc3[nH]6)C=C5)C=C4)cc2)c1C(=O)Nc1cnn(C)c1C
REMARK SMILES IDX 19 1 18 2 16 3 17 4 15 6 10 7 11 8 12 9 14 10 13 11 8 12
REMARK SMILES IDX 7 13 9 15 6 16 3 17 4 18 74 19 5 20 2 21 1 22 75 23 76 24
REMARK SMILES IDX 77 25 78 27 79 28 83 29 80 30 81 31 84 32 82 33 20 34 21 35
REMARK SMILES IDX 22 36 23 37 24 38 25 40 26 41 27 42 73 43 28 44 72 45 29 46
REMARK SMILES IDX 30 47 31 48 66 49 32 50 71 51 65 52 67 53 33 54 70 55 64 56
REMARK SMILES IDX 63 57 34 59 56 60 41 61 55 62 42 63 45 64 54 65 68 66 43 67
REMARK SMILES IDX 44 68 53 70 69 71 46 72 35 73 36 74 40 75 37 76 39 77 38 78
REMARK SMILES IDX 57 79 58 80 62 81 59 82 61 83 60 84 47 85 48 86 52 87 49 88
REMARK SMILES IDX 51 89 50 90
REMARK H PARENT 18 5 7 14 77 26 23 39 67 58 45 69
REMARK Flexibility Score: inf
ROOT
ATOM      1  C   UNL A   1      32.951  26.653  26.477  1.00  0.00     0.116 C 
ENDROOT
BRANCH   1   2
ATOM      2  N   UNL A   1      32.735  25.264  26.810  1.00  0.00    -0.356 N 
ATOM      3  C   UNL A   1      32.827  24.168  26.013  1.00  0.00     0.223 C 
ATOM      4  O   UNL A   1      32.139  23.202  26.349  1.00  0.00    -0.275 OA
ATOM      5  H   UNL A   1      32.486  25.087  27.746  1.00  0.00     0.163 HD
BRANCH   3   6
ATOM      6  C   UNL A   1      33.777  24.146  24.799  1.00  0.00     0.091 C 
ATOM      7  C   UNL A   1      33.730  22.745  24.105  1.00  0.00     0.091 C 
ATOM      8  C   UNL A   1      34.102  21.681  25.155  1.00  0.00     0.014 C 
ATOM      9  C   UNL A   1      35.522  21.919  25.645  1.00  0.00     0.001 C 
ATOM     10  C   UNL A   1      35.263  24.371  25.177  1.00  0.00     0.014 C 
ATOM     11  C   UNL A   1      35.766  23.323  26.166  1.00  0.00     0.001 C 
BRANCH   7  12
ATOM     12  C   UNL A   1      32.474  22.520  23.266  1.00  0.00     0.228 C 
ATOM     13  N   UNL A   1      31.873  23.512  22.542  1.00  0.00    -0.322 N 
ATOM     14  H   UNL A   1      31.049  23.222  22.088  1.00  0.00     0.170 HD
ATOM     15  O   UNL A   1      31.924  21.411  23.247  1.00  0.00    -0.274 OA
BRANCH  13  16
ATOM     16  C   UNL A   1      32.188  24.844  22.315  1.00  0.00     0.092 A 
ATOM     17  N   UNL A   1      32.864  26.877  22.572  1.00  0.00    -0.258 N 
ATOM     18  N   UNL A   1      33.419  26.514  21.390  1.00  0.00    -0.178 NA
ATOM     19  C   UNL A   1      31.803  26.053  22.922  1.00  0.00     0.150 A 
ATOM     20  C   UNL A   1      33.065  25.238  21.279  1.00  0.00     0.162 A 
BRANCH  17  21
ATOM     21  C   UNL A   1      33.737  27.647  23.447  1.00  0.00     0.142 C 
ATOM     22  C   UNL A   1      33.902  29.089  23.003  1.00  0.00     0.029 C 
ENDBRANCH  17  21
BRANCH  19  23
ATOM     23  C   UNL A   1      30.613  26.297  23.734  1.00  0.00     0.276 C 
ATOM     24  O   UNL A   1      30.181  25.421  24.489  1.00  0.00    -0.267 OA
ATOM     25  N   UNL A   1      30.029  27.539  23.894  1.00  0.00    -0.318 N 
ATOM     26  H   UNL A   1      29.795  27.758  24.826  1.00  0.00     0.170 HD
BRANCH  25  27
ATOM     27  C   UNL A   1      29.717  28.523  22.989  1.00  0.00     0.082 A 
ATOM     28  C   UNL A   1      30.566  29.225  22.116  1.00  0.00     0.161 A 
ATOM     29  C   UNL A   1      28.441  28.985  22.703  1.00  0.00     0.059 A 
ATOM     30  N   UNL A   1      29.908  30.150  21.416  1.00  0.00    -0.179 NA
ATOM     31  N   UNL A   1      28.636  30.042  21.844  1.00  0.00    -0.271 N 
ATOM     32  C   UNL A   1      27.096  28.659  23.249  1.00  0.00     0.068 C 
ATOM     33  C   UNL A   1      27.703  31.095  21.506  1.00  0.00     0.174 C 
ENDBRANCH  25  27
ENDBRANCH  19  23
ENDBRANCH  13  16
ENDBRANCH   7  12
ENDBRANCH   3   6
ENDBRANCH   1   2
BRANCH   1  34
ATOM     34  C   UNL A   1      31.864  27.537  27.081  1.00  0.00     0.023 C 
BRANCH  34  35
ATOM     35  C   UNL A   1      32.167  29.039  27.139  1.00  0.00     0.023 C 
BRANCH  35  36
ATOM     36  C   UNL A   1      33.645  29.373  27.195  1.00  0.00     0.116 C 
BRANCH  36  37
ATOM     37  N   UNL A   1      33.923  30.805  27.048  1.00  0.00    -0.352 N 
ATOM     38  C   UNL A   1      34.970  31.528  27.607  1.00  0.00     0.251 C 
ATOM     39  H   UNL A   1      33.295  31.313  26.486  1.00  0.00     0.163 HD
ATOM     40  O   UNL A   1      34.947  32.737  27.697  1.00  0.00    -0.269 OA
BRANCH  38  41
ATOM     41  C   UNL A   1      36.145  30.759  28.052  1.00  0.00     0.039 A 
ATOM     42  C   UNL A   1      36.339  29.408  27.750  1.00  0.00     0.014 A 
ATOM     43  C   UNL A   1      37.108  31.490  28.732  1.00  0.00     0.014 A 
ATOM     44  C   UNL A   1      37.552  28.821  28.106  1.00  0.00     0.010 A 
ATOM     45  C   UNL A   1      38.370  30.995  28.820  1.00  0.00     0.010 A 
ATOM     46  C   UNL A   1      38.560  29.634  28.645  1.00  0.00    -0.014 A 
BRANCH  46  47
ATOM     47  C   UNL A   1      39.869  29.139  29.028  1.00  0.00     0.031 A 
ATOM     48  C   UNL A   1      40.098  29.037  30.488  1.00  0.00     0.074 A 
ATOM     49  C   UNL A   1      40.677  28.546  28.119  1.00  0.00     0.049 A 
ATOM     50  N   UNL A   1      40.933  29.714  31.201  1.00  0.00    -0.248 NA
ATOM     51  C   UNL A   1      39.208  28.166  31.275  1.00  0.00     0.031 C 
ATOM     52  C   UNL A   1      40.416  28.263  26.696  1.00  0.00     0.029 A 
ATOM     53  N   UNL A   1      41.869  27.931  28.317  1.00  0.00    -0.354 N 
ATOM     54  C   UNL A   1      40.824  29.216  32.495  1.00  0.00     0.074 A 
ATOM     55  C   UNL A   1      39.629  28.412  32.518  1.00  0.00     0.031 C 
ATOM     56  C   UNL A   1      41.285  27.329  26.248  1.00  0.00     0.029 A 
ATOM     57  C   UNL A   1      42.275  27.099  27.282  1.00  0.00     0.049 A 
ATOM     58  H   UNL A   1      42.405  28.065  29.132  1.00  0.00     0.167 HD
ATOM     59  C   UNL A   1      41.867  29.286  33.367  1.00  0.00     0.031 A 
ATOM     60  C   UNL A   1      43.343  26.264  27.290  1.00  0.00     0.031 A 
ATOM     61  C   UNL A   1      42.891  30.185  32.896  1.00  0.00     0.049 A 
ATOM     62  C   UNL A   1      44.243  26.731  28.370  1.00  0.00     0.074 A 
ATOM     63  C   UNL A   1      42.939  31.530  32.583  1.00  0.00     0.029 A 
ATOM     64  N   UNL A   1      43.979  29.618  32.274  1.00  0.00    -0.354 N 
ATOM     65  N   UNL A   1      44.848  27.886  28.342  1.00  0.00    -0.248 NA
ATOM     66  C   UNL A   1      44.082  26.141  29.690  1.00  0.00     0.031 C 
ATOM     67  C   UNL A   1      43.735  31.598  31.401  1.00  0.00     0.029 A 
ATOM     68  C   UNL A   1      44.198  30.312  31.112  1.00  0.00     0.049 A 
ATOM     69  H   UNL A   1      44.503  28.852  32.603  1.00  0.00     0.167 HD
ATOM     70  C   UNL A   1      44.742  28.371  29.638  1.00  0.00     0.074 A 
ATOM     71  C   UNL A   1      44.347  27.214  30.444  1.00  0.00     0.031 C 
ATOM     72  C   UNL A   1      44.696  29.714  29.891  1.00  0.00     0.031 A 
BRANCH  59  73
ATOM     73  C   UNL A   1      42.159  28.235  34.410  1.00  0.00    -0.014 A 
ATOM     74  C   UNL A   1      42.755  27.029  34.000  1.00  0.00     0.009 A 
ATOM     75  C   UNL A   1      41.620  28.264  35.710  1.00  0.00     0.009 A 
ATOM     76  C   UNL A   1      42.735  25.892  34.817  1.00  0.00     0.001 A 
ATOM     77  C   UNL A   1      41.636  27.144  36.544  1.00  0.00     0.001 A 
ATOM     78  C   UNL A   1      42.167  25.948  36.086  1.00  0.00     0.000 A 
ENDBRANCH  59  73
BRANCH  60  79
ATOM     79  C   UNL A   1      43.472  24.928  26.667  1.00  0.00    -0.014 A 
ATOM     80  C   UNL A   1      42.791  23.819  27.190  1.00  0.00     0.009 A 
ATOM     81  C   UNL A   1      44.036  24.806  25.383  1.00  0.00     0.009 A 
ATOM     82  C   UNL A   1      42.644  22.644  26.436  1.00  0.00     0.001 A 
ATOM     83  C   UNL A   1      43.885  23.635  24.629  1.00  0.00     0.001 A 
ATOM     84  C   UNL A   1      43.176  22.559  25.150  1.00  0.00     0.000 A 
ENDBRANCH  60  79
BRANCH  72  85
ATOM     85  C   UNL A   1      44.952  30.659  28.738  1.00  0.00    -0.014 A 
ATOM     86  C   UNL A   1      43.946  31.088  27.852  1.00  0.00     0.009 A 
ATOM     87  C   UNL A   1      46.213  31.262  28.644  1.00  0.00     0.009 A 
ATOM     88  C   UNL A   1      44.205  32.070  26.888  1.00  0.00     0.001 A 
ATOM     89  C   UNL A   1      46.468  32.254  27.694  1.00  0.00     0.001 A 
ATOM     90  C   UNL A   1      45.467  32.655  26.813  1.00  0.00     0.000 A 
ENDBRANCH  72  85
ENDBRANCH  46  47
ENDBRANCH  38  41
ENDBRANCH  36  37
ENDBRANCH  35  36
ENDBRANCH  34  35
ENDBRANCH   1  34
TORSDOF 16
ENDMDL
MODEL 3
REMARK VINA RESULT:     -12.4      2.555      5.805
REMARK SMILES CCn1ncc(NC(=O)[C@@H]2CCCC[C@@H]2C(=O)NCCCCNC(=O)c2ccc(-c3c4nc(c(-c5ccccc5)c5ccc([nH]5)c(-c5ccccc5)c5nc(c(-c6ccccc6)c6ccc3[nH]6)C=C5)C=C4)cc2)c1C(=O)Nc1cnn(C)c1C
REMARK SMILES IDX 19 1 18 2 16 3 17 4 15 6 10 7 11 8 12 9 14 10 13 11 8 12
REMARK SMILES IDX 7 13 9 15 6 16 3 17 4 18 74 19 5 20 2 21 1 22 75 23 76 24
REMARK SMILES IDX 77 25 78 27 79 28 83 29 80 30 81 31 84 32 82 33 20 34 21 35
REMARK SMILES IDX 22 36 23 37 24 38 25 40 26 41 27 42 73 43 28 44 72 45 29 46
REMARK SMILES IDX 30 47 31 48 66 49 32 50 71 51 65 52 67 53 33 54 70 55 64 56
REMARK SMILES IDX 63 57 34 59 56 60 41 61 55 62 42 63 45 64 54 65 68 66 43 67
REMARK SMILES IDX 44 68 53 70 69 71 46 72 35 73 36 74 40 75 37 76 39 77 38 78
REMARK SMILES IDX 57 79 58 80 62 81 59 82 61 83 60 84 47 85 48 86 52 87 49 88
REMARK SMILES IDX 51 89 50 90
REMARK H PARENT 18 5 7 14 77 26 23 39 67 58 45 69
REMARK Flexibility Score: inf
ROOT
ATOM      1  C   UNL A   1      36.381  23.947  26.087  1.00  0.00     0.116 C 
ENDROOT
BRANCH   1   2
ATOM      2  N   UNL A   1      35.554  22.960  26.740  1.00  0.00    -0.356 N 
ATOM      3  C   UNL A   1      34.228  22.711  26.581  1.00  0.00     0.223 C 
ATOM      4  O   UNL A   1      33.657  22.209  27.551  1.00  0.00    -0.275 OA
ATOM      5  H   UNL A   1      36.017  22.385  27.393  1.00  0.00     0.163 HD
BRANCH   3   6
ATOM      6  C   UNL A   1      33.521  23.004  25.243  1.00  0.00     0.091 C 
ATOM      7  C   UNL A   1      31.999  22.659  25.353  1.00  0.00     0.091 C 
ATOM      8  C   UNL A   1      31.876  21.180  25.765  1.00  0.00     0.014 C 
ATOM      9  C   UNL A   1      32.485  20.295  24.689  1.00  0.00     0.001 C 
ATOM     10  C   UNL A   1      34.055  22.152  24.065  1.00  0.00     0.014 C 
ATOM     11  C   UNL A   1      33.915  20.656  24.333  1.00  0.00     0.001 C 
BRANCH   7  12
ATOM     12  C   UNL A   1      31.192  23.693  26.134  1.00  0.00     0.228 C 
ATOM     13  N   UNL A   1      30.916  24.944  25.653  1.00  0.00    -0.322 N 
ATOM     14  H   UNL A   1      30.423  25.509  26.289  1.00  0.00     0.170 HD
ATOM     15  O   UNL A   1      30.784  23.439  27.275  1.00  0.00    -0.274 OA
BRANCH  13  16
ATOM     16  C   UNL A   1      31.190  25.577  24.449  1.00  0.00     0.092 A 
ATOM     17  N   UNL A   1      32.168  26.679  22.873  1.00  0.00    -0.258 N 
ATOM     18  N   UNL A   1      31.653  25.606  22.225  1.00  0.00    -0.178 NA
ATOM     19  C   UNL A   1      31.553  26.890  24.100  1.00  0.00     0.150 A 
ATOM     20  C   UNL A   1      31.123  24.894  23.213  1.00  0.00     0.162 A 
BRANCH  17  21
ATOM     21  C   UNL A   1      33.513  27.055  22.460  1.00  0.00     0.142 C 
ATOM     22  C   UNL A   1      33.703  28.556  22.347  1.00  0.00     0.029 C 
ENDBRANCH  17  21
BRANCH  19  23
ATOM     23  C   UNL A   1      31.351  28.104  24.887  1.00  0.00     0.276 C 
ATOM     24  O   UNL A   1      31.697  28.146  26.072  1.00  0.00    -0.267 OA
ATOM     25  N   UNL A   1      30.985  29.322  24.347  1.00  0.00    -0.318 N 
ATOM     26  H   UNL A   1      31.507  30.086  24.685  1.00  0.00     0.170 HD
BRANCH  25  27
ATOM     27  C   UNL A   1      30.026  29.659  23.424  1.00  0.00     0.082 A 
ATOM     28  C   UNL A   1      29.506  28.893  22.367  1.00  0.00     0.161 A 
ATOM     29  C   UNL A   1      29.309  30.846  23.399  1.00  0.00     0.059 A 
ATOM     30  N   UNL A   1      28.617  29.576  21.645  1.00  0.00    -0.179 NA
ATOM     31  N   UNL A   1      28.571  30.783  22.239  1.00  0.00    -0.271 N 
ATOM     32  C   UNL A   1      29.348  32.076  24.235  1.00  0.00     0.068 C 
ATOM     33  C   UNL A   1      27.925  31.872  21.539  1.00  0.00     0.174 C 
ENDBRANCH  25  27
ENDBRANCH  19  23
ENDBRANCH  13  16
ENDBRANCH   7  12
ENDBRANCH   3   6
ENDBRANCH   1   2
BRANCH   1  34
ATOM     34  C   UNL A   1      37.375  23.287  25.135  1.00  0.00     0.023 C 
BRANCH  34  35
ATOM     35  C   UNL A   1      38.237  22.166  25.727  1.00  0.00     0.023 C 
BRANCH  35  36
ATOM     36  C   UNL A   1      39.309  22.647  26.686  1.00  0.00     0.116 C 
BRANCH  36  37
ATOM     37  N   UNL A   1      40.660  22.225  26.305  1.00  0.00    -0.352 N 
ATOM     38  C   UNL A   1      41.747  23.036  25.998  1.00  0.00     0.251 C 
ATOM     39  H   UNL A   1      40.816  21.255  26.261  1.00  0.00     0.163 HD
ATOM     40  O   UNL A   1      42.714  22.622  25.395  1.00  0.00    -0.269 OA
BRANCH  38  41
ATOM     41  C   UNL A   1      41.695  24.427  26.480  1.00  0.00     0.039 A 
ATOM     42  C   UNL A   1      40.981  25.439  25.832  1.00  0.00     0.014 A 
ATOM     43  C   UNL A   1      42.340  24.659  27.686  1.00  0.00     0.014 A 
ATOM     44  C   UNL A   1      40.891  26.683  26.455  1.00  0.00     0.010 A 
ATOM     45  C   UNL A   1      42.015  25.766  28.405  1.00  0.00     0.010 A 
ATOM     46  C   UNL A   1      41.418  26.828  27.746  1.00  0.00    -0.014 A 
BRANCH  46  47
ATOM     47  C   UNL A   1      41.359  28.067  28.500  1.00  0.00     0.031 A 
ATOM     48  C   UNL A   1      42.413  29.054  28.166  1.00  0.00     0.074 A 
ATOM     49  C   UNL A   1      40.257  28.389  29.216  1.00  0.00     0.049 A 
ATOM     50  N   UNL A   1      43.368  29.470  28.927  1.00  0.00    -0.248 NA
ATOM     51  C   UNL A   1      42.490  29.552  26.783  1.00  0.00     0.031 C 
ATOM     52  C   UNL A   1      38.988  27.648  29.342  1.00  0.00     0.029 A 
ATOM     53  N   UNL A   1      39.983  29.538  29.881  1.00  0.00    -0.354 N 
ATOM     54  C   UNL A   1      44.050  30.433  28.193  1.00  0.00     0.074 A 
ATOM     55  C   UNL A   1      43.591  30.304  26.833  1.00  0.00     0.031 C 
ATOM     56  C   UNL A   1      38.023  28.471  29.809  1.00  0.00     0.029 A 
ATOM     57  C   UNL A   1      38.643  29.722  30.198  1.00  0.00     0.049 A 
ATOM     58  H   UNL A   1      40.680  30.191  30.120  1.00  0.00     0.167 HD
ATOM     59  C   UNL A   1      44.737  31.434  28.810  1.00  0.00     0.031 A 
ATOM     60  C   UNL A   1      38.087  30.841  30.725  1.00  0.00     0.031 A 
ATOM     61  C   UNL A   1      44.916  31.165  30.215  1.00  0.00     0.049 A 
ATOM     62  C   UNL A   1      39.189  31.625  31.328  1.00  0.00     0.074 A 
ATOM     63  C   UNL A   1      45.530  30.166  30.945  1.00  0.00     0.029 A 
ATOM     64  N   UNL A   1      44.043  31.780  31.082  1.00  0.00    -0.354 N 
ATOM     65  N   UNL A   1      39.886  31.206  32.347  1.00  0.00    -0.248 NA
ATOM     66  C   UNL A   1      39.835  32.632  30.501  1.00  0.00     0.031 C 
ATOM     67  C   UNL A   1      44.639  29.911  32.030  1.00  0.00     0.029 A 
ATOM     68  C   UNL A   1      43.584  30.823  31.951  1.00  0.00     0.049 A 
ATOM     69  H   UNL A   1      43.794  32.732  31.079  1.00  0.00     0.167 HD
ATOM     70  C   UNL A   1      41.196  31.548  32.044  1.00  0.00     0.074 A 
ATOM     71  C   UNL A   1      41.091  32.508  30.943  1.00  0.00     0.031 C 
ATOM     72  C   UNL A   1      42.248  30.808  32.509  1.00  0.00     0.031 A 
BRANCH  59  73
ATOM     73  C   UNL A   1      44.862  32.831  28.253  1.00  0.00    -0.014 A 
ATOM     74  C   UNL A   1      46.146  33.329  27.968  1.00  0.00     0.009 A 
ATOM     75  C   UNL A   1      43.810  33.767  28.267  1.00  0.00     0.009 A 
ATOM     76  C   UNL A   1      46.373  34.699  27.791  1.00  0.00     0.001 A 
ATOM     77  C   UNL A   1      44.027  35.130  28.050  1.00  0.00     0.001 A 
ATOM     78  C   UNL A   1      45.314  35.600  27.841  1.00  0.00     0.000 A 
ENDBRANCH  59  73
BRANCH  60  79
ATOM     79  C   UNL A   1      36.752  31.419  30.454  1.00  0.00    -0.014 A 
ATOM     80  C   UNL A   1      35.928  31.853  31.503  1.00  0.00     0.009 A 
ATOM     81  C   UNL A   1      36.410  31.811  29.146  1.00  0.00     0.009 A 
ATOM     82  C   UNL A   1      34.825  32.686  31.255  1.00  0.00     0.001 A 
ATOM     83  C   UNL A   1      35.313  32.646  28.899  1.00  0.00     0.001 A 
ATOM     84  C   UNL A   1      34.529  33.095  29.956  1.00  0.00     0.000 A 
ENDBRANCH  60  79
BRANCH  72  85
ATOM     85  C   UNL A   1      41.954  29.717  33.515  1.00  0.00    -0.014 A 
ATOM     86  C   UNL A   1      41.623  28.399  33.151  1.00  0.00     0.009 A 
ATOM     87  C   UNL A   1      42.180  29.990  34.870  1.00  0.00     0.009 A 
ATOM     88  C   UNL A   1      41.496  27.394  34.119  1.00  0.00     0.001 A 
ATOM     89  C   UNL A   1      42.071  28.984  35.835  1.00  0.00     0.001 A 
ATOM     90  C   UNL A   1      41.725  27.689  35.461  1.00  0.00     0.000 A 
ENDBRANCH  72  85
ENDBRANCH  46  47
ENDBRANCH  38  41
ENDBRANCH  36  37
ENDBRANCH  35  36
ENDBRANCH  34  35
ENDBRANCH   1  34
TORSDOF 16
ENDMDL
