MODEL 1
REMARK VINA RESULT:     -11.1      0.000      0.000
REMARK SMILES Cc1cc(CC(=O)C(=O)NCCCCNC(=O)c2ccc(-c3c4nc(c(-c5ccccc5)c5ccc([nH]5)c(-c5ccccc5)c5nc(c(-c6ccccc6)c6ccc3[nH]6)C=C5)C=C4)cc2)cc2cn[nH]c12
REMARK SMILES IDX 12 1 11 2 10 3 8 4 9 5 6 7 7 8 5 9 4 10 1 11 2 12 3 13 71 14
REMARK SMILES IDX 67 15 70 16 66 17 68 18 69 19 13 21 14 22 15 23 16 24 17 26
REMARK SMILES IDX 18 27 19 28 65 29 20 30 64 31 21 32 22 33 23 34 58 35 24 36
REMARK SMILES IDX 63 37 57 38 59 39 25 40 62 41 56 42 55 43 26 45 48 46 33 47
REMARK SMILES IDX 47 48 34 49 37 50 46 51 60 52 35 53 36 54 45 56 61 57 38 58
REMARK SMILES IDX 27 59 28 60 32 61 29 62 31 63 30 64 49 65 50 66 54 67 51 68
REMARK SMILES IDX 53 69 52 70 39 71 40 72 44 73 41 74 43 75 42 76
REMARK H PARENT 10 6 70 20 15 25 59 44 37 55
REMARK Flexibility Score: inf
ROOT
ATOM      1  C   UNL A   1      41.028  21.085  27.491  1.00  0.00     0.023 C 
ENDROOT
BRANCH   1   2
ATOM      2  C   UNL A   1      39.911  21.221  26.450  1.00  0.00     0.116 C 
BRANCH   2   3
ATOM      3  N   UNL A   1      39.174  22.462  26.617  1.00  0.00    -0.349 N 
ATOM      4  C   UNL A   1      37.959  22.857  26.101  1.00  0.00     0.287 C 
ATOM      5  O   UNL A   1      37.591  24.016  26.259  1.00  0.00    -0.266 OA
ATOM      6  H   UNL A   1      39.615  23.129  27.192  1.00  0.00     0.163 HD
BRANCH   4   7
ATOM      7  C   UNL A   1      37.056  21.881  25.330  1.00  0.00     0.224 C 
ATOM      8  O   UNL A   1      37.331  21.513  24.192  1.00  0.00    -0.288 OA
BRANCH   7   9
ATOM      9  C   UNL A   1      35.761  21.485  26.004  1.00  0.00     0.122 C 
BRANCH   9  10
ATOM     10  C   UNL A   1      34.734  20.833  25.106  1.00  0.00    -0.039 A 
ATOM     11  C   UNL A   1      31.818  22.013  22.928  1.00  0.00     0.047 C 
ATOM     12  C   UNL A   1      32.797  21.097  23.599  1.00  0.00    -0.025 A 
ATOM     13  C   UNL A   1      33.776  21.630  24.459  1.00  0.00     0.009 A 
ATOM     14  C   UNL A   1      32.841  19.706  23.416  1.00  0.00     0.068 A 
ATOM     15  C   UNL A   1      33.782  18.883  24.026  1.00  0.00     0.020 A 
ATOM     16  N   UNL A   1      32.063  18.859  22.667  1.00  0.00    -0.278 N 
ATOM     17  C   UNL A   1      34.751  19.447  24.876  1.00  0.00     0.016 A 
ATOM     18  C   UNL A   1      33.468  17.584  23.567  1.00  0.00     0.143 A 
ATOM     19  N   UNL A   1      32.416  17.564  22.746  1.00  0.00    -0.183 NA
ATOM     20  H   UNL A   1      31.309  19.173  22.118  1.00  0.00     0.190 HD
ENDBRANCH   9  10
ENDBRANCH   7   9
ENDBRANCH   4   7
ENDBRANCH   2   3
ENDBRANCH   1   2
BRANCH   1  21
ATOM     21  C   UNL A   1      42.086  20.008  27.189  1.00  0.00     0.023 C 
BRANCH  21  22
ATOM     22  C   UNL A   1      42.164  19.587  25.726  1.00  0.00     0.116 C 
BRANCH  22  23
ATOM     23  N   UNL A   1      43.534  19.535  25.229  1.00  0.00    -0.352 N 
ATOM     24  C   UNL A   1      44.374  20.583  24.917  1.00  0.00     0.251 C 
ATOM     25  H   UNL A   1      43.907  18.634  25.100  1.00  0.00     0.163 HD
ATOM     26  O   UNL A   1      45.329  20.413  24.174  1.00  0.00    -0.269 OA
BRANCH  24  27
ATOM     27  C   UNL A   1      44.123  21.915  25.501  1.00  0.00     0.039 A 
ATOM     28  C   UNL A   1      43.189  22.779  24.920  1.00  0.00     0.014 A 
ATOM     29  C   UNL A   1      44.873  22.319  26.606  1.00  0.00     0.014 A 
ATOM     30  C   UNL A   1      42.979  24.031  25.491  1.00  0.00     0.010 A 
ATOM     31  C   UNL A   1      44.593  23.508  27.235  1.00  0.00     0.010 A 
ATOM     32  C   UNL A   1      43.684  24.382  26.651  1.00  0.00    -0.014 A 
BRANCH  32  33
ATOM     33  C   UNL A   1      43.420  25.644  27.323  1.00  0.00     0.031 A 
ATOM     34  C   UNL A   1      44.344  26.748  26.961  1.00  0.00     0.074 A 
ATOM     35  C   UNL A   1      42.305  25.867  28.046  1.00  0.00     0.049 A 
ATOM     36  N   UNL A   1      45.234  27.303  27.713  1.00  0.00    -0.248 NA
ATOM     37  C   UNL A   1      44.363  27.214  25.565  1.00  0.00     0.031 C 
ATOM     38  C   UNL A   1      41.139  24.993  28.219  1.00  0.00     0.029 A 
ATOM     39  N   UNL A   1      41.932  26.999  28.700  1.00  0.00    -0.354 N 
ATOM     40  C   UNL A   1      45.805  28.316  26.949  1.00  0.00     0.074 A 
ATOM     41  C   UNL A   1      45.351  28.111  25.597  1.00  0.00     0.031 C 
ATOM     42  C   UNL A   1      40.110  25.711  28.729  1.00  0.00     0.029 A 
ATOM     43  C   UNL A   1      40.593  27.036  29.070  1.00  0.00     0.049 A 
ATOM     44  H   UNL A   1      42.559  27.731  28.895  1.00  0.00     0.167 HD
ATOM     45  C   UNL A   1      46.418  29.385  27.527  1.00  0.00     0.031 A 
ATOM     46  C   UNL A   1      39.936  28.105  29.582  1.00  0.00     0.031 A 
ATOM     47  C   UNL A   1      46.645  29.177  28.932  1.00  0.00     0.049 A 
ATOM     48  C   UNL A   1      40.967  29.012  30.143  1.00  0.00     0.074 A 
ATOM     49  C   UNL A   1      47.372  28.276  29.683  1.00  0.00     0.029 A 
ATOM     50  N   UNL A   1      45.735  29.747  29.790  1.00  0.00    -0.354 N 
ATOM     51  N   UNL A   1      41.716  28.706  31.163  1.00  0.00    -0.248 NA
ATOM     52  C   UNL A   1      41.460  30.092  29.304  1.00  0.00     0.031 C 
ATOM     53  C   UNL A   1      46.557  28.011  30.821  1.00  0.00     0.029 A 
ATOM     54  C   UNL A   1      45.413  28.808  30.732  1.00  0.00     0.049 A 
ATOM     55  H   UNL A   1      45.379  30.663  29.736  1.00  0.00     0.167 HD
ATOM     56  C   UNL A   1      42.959  29.240  30.857  1.00  0.00     0.074 A 
ATOM     57  C   UNL A   1      42.713  30.171  29.758  1.00  0.00     0.031 C 
ATOM     58  C   UNL A   1      44.104  28.669  31.330  1.00  0.00     0.031 A 
BRANCH  45  59
ATOM     59  C   UNL A   1      46.438  30.768  26.934  1.00  0.00    -0.014 A 
ATOM     60  C   UNL A   1      47.639  31.499  26.960  1.00  0.00     0.009 A 
ATOM     61  C   UNL A   1      45.266  31.481  26.618  1.00  0.00     0.009 A 
ATOM     62  C   UNL A   1      47.656  32.880  26.740  1.00  0.00     0.001 A 
ATOM     63  C   UNL A   1      45.284  32.853  26.358  1.00  0.00     0.001 A 
ATOM     64  C   UNL A   1      46.476  33.558  26.444  1.00  0.00     0.000 A 
ENDBRANCH  45  59
BRANCH  46  65
ATOM     65  C   UNL A   1      38.544  28.555  29.341  1.00  0.00    -0.014 A 
ATOM     66  C   UNL A   1      37.701  28.849  30.428  1.00  0.00     0.009 A 
ATOM     67  C   UNL A   1      38.137  28.989  28.066  1.00  0.00     0.009 A 
ATOM     68  C   UNL A   1      36.537  29.612  30.255  1.00  0.00     0.001 A 
ATOM     69  C   UNL A   1      36.969  29.742  27.893  1.00  0.00     0.001 A 
ATOM     70  C   UNL A   1      36.182  30.074  28.992  1.00  0.00     0.000 A 
ENDBRANCH  46  65
BRANCH  58  71
ATOM     71  C   UNL A   1      43.988  27.597  32.383  1.00  0.00    -0.014 A 
ATOM     72  C   UNL A   1      44.013  26.226  32.077  1.00  0.00     0.009 A 
ATOM     73  C   UNL A   1      44.099  27.988  33.725  1.00  0.00     0.009 A 
ATOM     74  C   UNL A   1      44.164  25.273  33.092  1.00  0.00     0.001 A 
ATOM     75  C   UNL A   1      44.266  27.038  34.734  1.00  0.00     0.001 A 
ATOM     76  C   UNL A   1      44.305  25.682  34.417  1.00  0.00     0.000 A 
ENDBRANCH  58  71
ENDBRANCH  32  33
ENDBRANCH  24  27
ENDBRANCH  22  23
ENDBRANCH  21  22
ENDBRANCH   1  21
TORSDOF 13
ENDMDL
MODEL 2
REMARK VINA RESULT:     -10.9      3.297      6.654
REMARK SMILES Cc1cc(CC(=O)C(=O)NCCCCNC(=O)c2ccc(-c3c4nc(c(-c5ccccc5)c5ccc([nH]5)c(-c5ccccc5)c5nc(c(-c6ccccc6)c6ccc3[nH]6)C=C5)C=C4)cc2)cc2cn[nH]c12
REMARK SMILES IDX 12 1 11 2 10 3 8 4 9 5 6 7 7 8 5 9 4 10 1 11 2 12 3 13 71 14
REMARK SMILES IDX 67 15 70 16 66 17 68 18 69 19 13 21 14 22 15 23 16 24 17 26
REMARK SMILES IDX 18 27 19 28 65 29 20 30 64 31 21 32 22 33 23 34 58 35 24 36
REMARK SMILES IDX 63 37 57 38 59 39 25 40 62 41 56 42 55 43 26 45 48 46 33 47
REMARK SMILES IDX 47 48 34 49 37 50 46 51 60 52 35 53 36 54 45 56 61 57 38 58
REMARK SMILES IDX 27 59 28 60 32 61 29 62 31 63 30 64 49 65 50 66 54 67 51 68
REMARK SMILES IDX 53 69 52 70 39 71 40 72 44 73 41 74 43 75 42 76
REMARK H PARENT 10 6 70 20 15 25 59 44 37 55
REMARK Flexibility Score: inf
ROOT
ATOM      1  C   UNL A   1      42.353  19.131  26.618  1.00  0.00     0.023 C 
ENDROOT
BRANCH   1   2
ATOM      2  C   UNL A   1      43.191  19.209  25.336  1.00  0.00     0.116 C 
BRANCH   2   3
ATOM      3  N   UNL A   1      44.516  19.745  25.596  1.00  0.00    -0.349 N 
ATOM      4  C   UNL A   1      45.100  20.924  25.187  1.00  0.00     0.287 C 
ATOM      5  O   UNL A   1      46.292  21.108  25.407  1.00  0.00    -0.266 OA
ATOM      6  H   UNL A   1      45.089  19.173  26.157  1.00  0.00     0.163 HD
BRANCH   4   7
ATOM      7  C   UNL A   1      44.294  22.010  24.457  1.00  0.00     0.224 C 
ATOM      8  O   UNL A   1      44.323  22.120  23.235  1.00  0.00    -0.288 OA
BRANCH   7   9
ATOM      9  C   UNL A   1      43.554  23.001  25.328  1.00  0.00     0.122 C 
BRANCH   9  10
ATOM     10  C   UNL A   1      44.372  24.174  25.818  1.00  0.00    -0.039 A 
ATOM     11  C   UNL A   1      46.120  25.156  29.077  1.00  0.00     0.047 C 
ATOM     12  C   UNL A   1      45.629  25.229  27.662  1.00  0.00    -0.025 A 
ATOM     13  C   UNL A   1      44.850  24.179  27.138  1.00  0.00     0.009 A 
ATOM     14  C   UNL A   1      45.910  26.279  26.774  1.00  0.00     0.068 A 
ATOM     15  C   UNL A   1      45.468  26.305  25.455  1.00  0.00     0.020 A 
ATOM     16  N   UNL A   1      46.622  27.442  26.932  1.00  0.00    -0.278 N 
ATOM     17  C   UNL A   1      44.697  25.238  24.960  1.00  0.00     0.016 A 
ATOM     18  C   UNL A   1      45.976  27.517  24.935  1.00  0.00     0.143 A 
ATOM     19  N   UNL A   1      46.672  28.216  25.833  1.00  0.00    -0.183 NA
ATOM     20  H   UNL A   1      47.060  27.688  27.778  1.00  0.00     0.190 HD
ENDBRANCH   9  10
ENDBRANCH   7   9
ENDBRANCH   4   7
ENDBRANCH   2   3
ENDBRANCH   1   2
BRANCH   1  21
ATOM     21  C   UNL A   1      42.416  20.372  27.525  1.00  0.00     0.023 C 
BRANCH  21  22
ATOM     22  C   UNL A   1      41.060  20.969  27.883  1.00  0.00     0.116 C 
BRANCH  22  23
ATOM     23  N   UNL A   1      40.251  21.266  26.707  1.00  0.00    -0.352 N 
ATOM     24  C   UNL A   1      39.513  22.400  26.437  1.00  0.00     0.251 C 
ATOM     25  H   UNL A   1      40.227  20.566  26.016  1.00  0.00     0.163 HD
ATOM     26  O   UNL A   1      38.604  22.370  25.621  1.00  0.00    -0.269 OA
BRANCH  24  27
ATOM     27  C   UNL A   1      39.840  23.662  27.128  1.00  0.00     0.039 A 
ATOM     28  C   UNL A   1      41.093  23.838  27.728  1.00  0.00     0.014 A 
ATOM     29  C   UNL A   1      38.863  24.653  27.223  1.00  0.00     0.014 A 
ATOM     30  C   UNL A   1      41.369  25.037  28.378  1.00  0.00     0.010 A 
ATOM     31  C   UNL A   1      39.169  25.876  27.768  1.00  0.00     0.010 A 
ATOM     32  C   UNL A   1      40.400  26.050  28.386  1.00  0.00    -0.014 A 
BRANCH  32  33
ATOM     33  C   UNL A   1      40.693  27.347  28.977  1.00  0.00     0.031 A 
ATOM     34  C   UNL A   1      41.773  28.109  28.301  1.00  0.00     0.074 A 
ATOM     35  C   UNL A   1      39.913  27.913  29.919  1.00  0.00     0.049 A 
ATOM     36  N   UNL A   1      42.946  28.383  28.764  1.00  0.00    -0.248 NA
ATOM     37  C   UNL A   1      41.569  28.520  26.902  1.00  0.00     0.031 C 
ATOM     38  C   UNL A   1      38.629  27.439  30.446  1.00  0.00     0.029 A 
ATOM     39  N   UNL A   1      40.063  29.117  30.530  1.00  0.00    -0.354 N 
ATOM     40  C   UNL A   1      43.572  29.159  27.792  1.00  0.00     0.074 A 
ATOM     41  C   UNL A   1      42.748  29.074  26.612  1.00  0.00     0.031 C 
ATOM     42  C   UNL A   1      38.018  28.445  31.114  1.00  0.00     0.029 A 
ATOM     43  C   UNL A   1      38.934  29.567  31.202  1.00  0.00     0.049 A 
ATOM     44  H   UNL A   1      40.904  29.628  30.500  1.00  0.00     0.167 HD
ATOM     45  C   UNL A   1      44.593  30.002  28.102  1.00  0.00     0.031 A 
ATOM     46  C   UNL A   1      38.768  30.796  31.750  1.00  0.00     0.031 A 
ATOM     47  C   UNL A   1      45.102  29.763  29.427  1.00  0.00     0.049 A 
ATOM     48  C   UNL A   1      40.124  31.357  31.961  1.00  0.00     0.074 A 
ATOM     49  C   UNL A   1      45.703  28.700  30.067  1.00  0.00     0.029 A 
ATOM     50  N   UNL A   1      44.645  30.600  30.417  1.00  0.00    -0.354 N 
ATOM     51  N   UNL A   1      40.987  30.859  32.798  1.00  0.00    -0.248 NA
ATOM     52  C   UNL A   1      40.677  32.219  30.929  1.00  0.00     0.031 C 
ATOM     53  C   UNL A   1      45.165  28.718  31.386  1.00  0.00     0.029 A 
ATOM     54  C   UNL A   1      44.317  29.823  31.494  1.00  0.00     0.049 A 
ATOM     55  H   UNL A   1      44.569  31.580  30.361  1.00  0.00     0.167 HD
ATOM     56  C   UNL A   1      42.210  30.983  32.156  1.00  0.00     0.074 A 
ATOM     57  C   UNL A   1      41.972  31.922  31.062  1.00  0.00     0.031 C 
ATOM     58  C   UNL A   1      43.222  30.101  32.396  1.00  0.00     0.031 A 
BRANCH  45  59
ATOM     59  C   UNL A   1      44.860  31.301  27.391  1.00  0.00    -0.014 A 
ATOM     60  C   UNL A   1      46.156  31.554  26.905  1.00  0.00     0.009 A 
ATOM     61  C   UNL A   1      43.974  32.393  27.436  1.00  0.00     0.009 A 
ATOM     62  C   UNL A   1      46.558  32.843  26.542  1.00  0.00     0.001 A 
ATOM     63  C   UNL A   1      44.359  33.674  27.036  1.00  0.00     0.001 A 
ATOM     64  C   UNL A   1      45.660  33.905  26.612  1.00  0.00     0.000 A 
ENDBRANCH  45  59
BRANCH  46  65
ATOM     65  C   UNL A   1      37.552  31.643  31.804  1.00  0.00    -0.014 A 
ATOM     66  C   UNL A   1      36.758  31.808  30.654  1.00  0.00     0.009 A 
ATOM     67  C   UNL A   1      37.000  32.036  33.037  1.00  0.00     0.009 A 
ATOM     68  C   UNL A   1      35.440  32.276  30.746  1.00  0.00     0.001 A 
ATOM     69  C   UNL A   1      35.686  32.514  33.126  1.00  0.00     0.001 A 
ATOM     70  C   UNL A   1      34.899  32.611  31.983  1.00  0.00     0.000 A 
ENDBRANCH  46  65
BRANCH  58  71
ATOM     71  C   UNL A   1      43.074  29.137  33.545  1.00  0.00    -0.014 A 
ATOM     72  C   UNL A   1      43.504  29.438  34.849  1.00  0.00     0.009 A 
ATOM     73  C   UNL A   1      42.268  28.007  33.348  1.00  0.00     0.009 A 
ATOM     74  C   UNL A   1      43.118  28.634  35.928  1.00  0.00     0.001 A 
ATOM     75  C   UNL A   1      41.870  27.216  34.427  1.00  0.00     0.001 A 
ATOM     76  C   UNL A   1      42.289  27.533  35.717  1.00  0.00     0.000 A 
ENDBRANCH  58  71
ENDBRANCH  32  33
ENDBRANCH  24  27
ENDBRANCH  22  23
ENDBRANCH  21  22
ENDBRANCH   1  21
TORSDOF 13
ENDMDL
MODEL 3
REMARK VINA RESULT:     -10.7      3.137      4.438
REMARK SMILES Cc1cc(CC(=O)C(=O)NCCCCNC(=O)c2ccc(-c3c4nc(c(-c5ccccc5)c5ccc([nH]5)c(-c5ccccc5)c5nc(c(-c6ccccc6)c6ccc3[nH]6)C=C5)C=C4)cc2)cc2cn[nH]c12
REMARK SMILES IDX 12 1 11 2 10 3 8 4 9 5 6 7 7 8 5 9 4 10 1 11 2 12 3 13 71 14
REMARK SMILES IDX 67 15 70 16 66 17 68 18 69 19 13 21 14 22 15 23 16 24 17 26
REMARK SMILES IDX 18 27 19 28 65 29 20 30 64 31 21 32 22 33 23 34 58 35 24 36
REMARK SMILES IDX 63 37 57 38 59 39 25 40 62 41 56 42 55 43 26 45 48 46 33 47
REMARK SMILES IDX 47 48 34 49 37 50 46 51 60 52 35 53 36 54 45 56 61 57 38 58
REMARK SMILES IDX 27 59 28 60 32 61 29 62 31 63 30 64 49 65 50 66 54 67 51 68
REMARK SMILES IDX 53 69 52 70 39 71 40 72 44 73 41 74 43 75 42 76
REMARK H PARENT 10 6 70 20 15 25 59 44 37 55
REMARK Flexibility Score: inf
ROOT
ATOM      1  C   UNL A   1      38.202  23.687  26.131  1.00  0.00     0.023 C 
ENDROOT
BRANCH   1   2
ATOM      2  C   UNL A   1      36.708  23.688  25.787  1.00  0.00     0.116 C 
BRANCH   2   3
ATOM      3  N   UNL A   1      35.978  22.711  26.576  1.00  0.00    -0.349 N 
ATOM      4  C   UNL A   1      34.666  22.297  26.498  1.00  0.00     0.287 C 
ATOM      5  O   UNL A   1      34.220  21.557  27.368  1.00  0.00    -0.266 OA
ATOM      6  H   UNL A   1      36.507  22.272  27.282  1.00  0.00     0.163 HD
BRANCH   4   7
ATOM      7  C   UNL A   1      33.749  22.746  25.349  1.00  0.00     0.224 C 
ATOM      8  O   UNL A   1      33.893  22.320  24.208  1.00  0.00    -0.288 OA
BRANCH   7   9
ATOM      9  C   UNL A   1      32.733  23.818  25.677  1.00  0.00     0.122 C 
BRANCH   9  10
ATOM     10  C   UNL A   1      33.088  25.213  25.214  1.00  0.00    -0.039 A 
ATOM     11  C   UNL A   1      34.086  28.509  26.883  1.00  0.00     0.047 C 
ATOM     12  C   UNL A   1      33.751  27.515  25.812  1.00  0.00    -0.025 A 
ATOM     13  C   UNL A   1      33.398  26.198  26.166  1.00  0.00     0.009 A 
ATOM     14  C   UNL A   1      33.784  27.786  24.435  1.00  0.00     0.068 A 
ATOM     15  C   UNL A   1      33.500  26.835  23.461  1.00  0.00     0.020 A 
ATOM     16  N   UNL A   1      34.079  28.931  23.737  1.00  0.00    -0.278 N 
ATOM     17  C   UNL A   1      33.156  25.526  23.846  1.00  0.00     0.016 A 
ATOM     18  C   UNL A   1      33.658  27.523  22.236  1.00  0.00     0.143 A 
ATOM     19  N   UNL A   1      34.002  28.801  22.401  1.00  0.00    -0.183 NA
ATOM     20  H   UNL A   1      34.325  29.775  24.178  1.00  0.00     0.190 HD
ENDBRANCH   9  10
ENDBRANCH   7   9
ENDBRANCH   4   7
ENDBRANCH   2   3
ENDBRANCH   1   2
BRANCH   1  21
ATOM     21  C   UNL A   1      38.899  22.317  26.046  1.00  0.00     0.023 C 
BRANCH  21  22
ATOM     22  C   UNL A   1      40.051  22.127  27.024  1.00  0.00     0.116 C 
BRANCH  22  23
ATOM     23  N   UNL A   1      41.348  22.067  26.360  1.00  0.00    -0.352 N 
ATOM     24  C   UNL A   1      42.140  23.110  25.927  1.00  0.00     0.251 C 
ATOM     25  H   UNL A   1      41.704  21.163  26.200  1.00  0.00     0.163 HD
ATOM     26  O   UNL A   1      42.994  22.927  25.072  1.00  0.00    -0.269 OA
BRANCH  24  27
ATOM     27  C   UNL A   1      41.963  24.450  26.516  1.00  0.00     0.039 A 
ATOM     28  C   UNL A   1      41.340  25.469  25.785  1.00  0.00     0.014 A 
ATOM     29  C   UNL A   1      42.476  24.702  27.788  1.00  0.00     0.014 A 
ATOM     30  C   UNL A   1      41.193  26.725  26.366  1.00  0.00     0.010 A 
ATOM     31  C   UNL A   1      42.237  25.906  28.405  1.00  0.00     0.010 A 
ATOM     32  C   UNL A   1      41.641  26.930  27.678  1.00  0.00    -0.014 A 
BRANCH  32  33
ATOM     33  C   UNL A   1      41.419  28.203  28.345  1.00  0.00     0.031 A 
ATOM     34  C   UNL A   1      42.458  29.231  28.086  1.00  0.00     0.074 A 
ATOM     35  C   UNL A   1      40.264  28.509  28.968  1.00  0.00     0.049 A 
ATOM     36  N   UNL A   1      43.317  29.705  28.924  1.00  0.00    -0.248 NA
ATOM     37  C   UNL A   1      42.641  29.708  26.705  1.00  0.00     0.031 C 
ATOM     38  C   UNL A   1      39.021  27.732  29.021  1.00  0.00     0.029 A 
ATOM     39  N   UNL A   1      39.925  29.661  29.605  1.00  0.00    -0.354 N 
ATOM     40  C   UNL A   1      44.035  30.676  28.232  1.00  0.00     0.074 A 
ATOM     41  C   UNL A   1      43.691  30.521  26.841  1.00  0.00     0.031 C 
ATOM     42  C   UNL A   1      38.011  28.525  29.448  1.00  0.00     0.029 A 
ATOM     43  C   UNL A   1      38.566  29.804  29.853  1.00  0.00     0.049 A 
ATOM     44  H   UNL A   1      40.589  30.339  29.868  1.00  0.00     0.167 HD
ATOM     45  C   UNL A   1      44.677  31.685  28.880  1.00  0.00     0.031 A 
ATOM     46  C   UNL A   1      37.953  30.918  30.323  1.00  0.00     0.031 A 
ATOM     47  C   UNL A   1      44.758  31.446  30.297  1.00  0.00     0.049 A 
ATOM     48  C   UNL A   1      38.997  31.732  30.989  1.00  0.00     0.074 A 
ATOM     49  C   UNL A   1      45.339  30.482  31.094  1.00  0.00     0.029 A 
ATOM     50  N   UNL A   1      43.821  32.080  31.078  1.00  0.00    -0.354 N 
ATOM     51  N   UNL A   1      39.624  31.357  32.067  1.00  0.00    -0.248 NA
ATOM     52  C   UNL A   1      39.650  32.776  30.216  1.00  0.00     0.031 C 
ATOM     53  C   UNL A   1      44.404  30.273  32.150  1.00  0.00     0.029 A 
ATOM     54  C   UNL A   1      43.341  31.162  31.971  1.00  0.00     0.049 A 
ATOM     55  H   UNL A   1      43.547  33.023  31.009  1.00  0.00     0.167 HD
ATOM     56  C   UNL A   1      40.929  31.791  31.883  1.00  0.00     0.074 A 
ATOM     57  C   UNL A   1      40.859  32.749  30.782  1.00  0.00     0.031 C 
ATOM     58  C   UNL A   1      41.976  31.124  32.447  1.00  0.00     0.031 A 
BRANCH  45  59
ATOM     59  C   UNL A   1      44.861  33.068  28.315  1.00  0.00    -0.014 A 
ATOM     60  C   UNL A   1      46.163  33.591  28.215  1.00  0.00     0.009 A 
ATOM     61  C   UNL A   1      43.797  33.974  28.150  1.00  0.00     0.009 A 
ATOM     62  C   UNL A   1      46.386  34.958  28.021  1.00  0.00     0.001 A 
ATOM     63  C   UNL A   1      44.015  35.334  27.915  1.00  0.00     0.001 A 
ATOM     64  C   UNL A   1      45.310  35.830  27.876  1.00  0.00     0.000 A 
ENDBRANCH  45  59
BRANCH  46  65
ATOM     65  C   UNL A   1      36.629  31.482  29.965  1.00  0.00    -0.014 A 
ATOM     66  C   UNL A   1      35.815  32.054  30.959  1.00  0.00     0.009 A 
ATOM     67  C   UNL A   1      36.293  31.738  28.623  1.00  0.00     0.009 A 
ATOM     68  C   UNL A   1      34.755  32.909  30.624  1.00  0.00     0.001 A 
ATOM     69  C   UNL A   1      35.227  32.584  28.289  1.00  0.00     0.001 A 
ATOM     70  C   UNL A   1      34.474  33.188  29.291  1.00  0.00     0.000 A 
ENDBRANCH  46  65
BRANCH  58  71
ATOM     71  C   UNL A   1      41.679  30.056  33.468  1.00  0.00    -0.014 A 
ATOM     72  C   UNL A   1      41.478  28.709  33.120  1.00  0.00     0.009 A 
ATOM     73  C   UNL A   1      41.847  30.382  34.821  1.00  0.00     0.009 A 
ATOM     74  C   UNL A   1      41.464  27.714  34.105  1.00  0.00     0.001 A 
ATOM     75  C   UNL A   1      41.850  29.388  35.800  1.00  0.00     0.001 A 
ATOM     76  C   UNL A   1      41.665  28.054  35.442  1.00  0.00     0.000 A 
ENDBRANCH  58  71
ENDBRANCH  32  33
ENDBRANCH  24  27
ENDBRANCH  22  23
ENDBRANCH  21  22
ENDBRANCH   1  21
TORSDOF 13
ENDMDL
