MODEL 1
REMARK VINA RESULT:     -11.4      0.000      0.000
REMARK SMILES C[C@@H]1[C@H](C(=O)NCCCCNC(=O)c2ccc(-c3c4nc(c(-c5ccccc5)c5ccc([nH]5)c(-c5ccccc5)c5nc(c(-c6ccccc6)c6ccc3[nH]6)C=C5)C=C4)cc2)CC[N@@H+]1Cc1ccc2c(c1)CCN2C
REMARK SMILES IDX 8 1 7 2 6 3 4 4 5 5 3 7 1 8 2 9 64 10 62 11 63 12 65 14
REMARK SMILES IDX 66 15 67 16 71 17 68 18 70 19 69 20 72 21 74 22 73 23 75 24
REMARK SMILES IDX 9 25 10 26 11 27 12 28 13 30 14 31 15 32 61 33 16 34 60 35
REMARK SMILES IDX 17 36 18 37 19 38 54 39 20 40 59 41 53 42 55 43 21 44 58 45
REMARK SMILES IDX 52 46 51 47 22 49 44 50 29 51 43 52 30 53 33 54 42 55 56 56
REMARK SMILES IDX 31 57 32 58 41 60 57 61 34 62 23 63 24 64 28 65 25 66 27 67
REMARK SMILES IDX 26 68 45 69 46 70 50 71 47 72 49 73 48 74 35 75 36 76 40 77
REMARK SMILES IDX 37 78 39 79 38 80
REMARK H PARENT 6 6 64 13 11 29 55 48 33 59
REMARK Flexibility Score: inf
ROOT
ATOM      1  C   UNL A   1      36.091  20.358  24.982  1.00  0.00     0.023 C 
ENDROOT
BRANCH   1   2
ATOM      2  C   UNL A   1      34.751  21.094  24.945  1.00  0.00     0.116 C 
BRANCH   2   3
ATOM      3  N   UNL A   1      34.865  22.409  25.530  1.00  0.00    -0.356 N 
ATOM      4  C   UNL A   1      34.435  23.611  25.077  1.00  0.00     0.229 C 
ATOM      5  O   UNL A   1      34.783  24.596  25.740  1.00  0.00    -0.275 OA
ATOM      6  H   UNL A   1      35.330  22.436  26.396  1.00  0.00     0.163 HD
BRANCH   4   7
ATOM      7  C   UNL A   1      33.528  23.802  23.869  1.00  0.00     0.142 C 
ATOM      8  C   UNL A   1      31.358  23.078  25.205  1.00  0.00     0.076 C 
ATOM      9  C   UNL A   1      32.013  23.510  23.909  1.00  0.00     0.193 C 
ATOM     10  N   UNL A   1      31.380  24.587  23.129  1.00  0.00    -0.328 N 
ATOM     11  C   UNL A   1      33.657  25.145  23.155  1.00  0.00     0.081 C 
ATOM     12  C   UNL A   1      32.410  25.171  22.285  1.00  0.00     0.263 C 
ATOM     13  H   UNL A   1      30.650  24.133  22.579  1.00  0.00     0.348 HD
BRANCH  10  14
ATOM     14  C   UNL A   1      30.334  25.455  23.672  1.00  0.00     0.299 C 
BRANCH  14  15
ATOM     15  C   UNL A   1      30.689  26.800  24.294  1.00  0.00     0.007 A 
ATOM     16  C   UNL A   1      30.486  28.005  23.577  1.00  0.00     0.012 A 
ATOM     17  C   UNL A   1      31.336  26.882  25.536  1.00  0.00     0.015 A 
ATOM     18  C   UNL A   1      30.876  29.255  24.097  1.00  0.00     0.026 A 
ATOM     19  C   UNL A   1      31.711  28.118  26.033  1.00  0.00    -0.022 A 
ATOM     20  C   UNL A   1      31.496  29.302  25.330  1.00  0.00     0.040 A 
ATOM     21  C   UNL A   1      32.314  28.434  27.362  1.00  0.00     0.059 C 
ATOM     22  N   UNL A   1      32.007  30.407  26.012  1.00  0.00    -0.374 N 
ATOM     23  C   UNL A   1      32.833  29.854  27.092  1.00  0.00     0.121 C 
ATOM     24  C   UNL A   1      31.184  31.570  26.239  1.00  0.00     0.143 C 
ENDBRANCH  14  15
ENDBRANCH  10  14
ENDBRANCH   4   7
ENDBRANCH   2   3
ENDBRANCH   1   2
BRANCH   1  25
ATOM     25  C   UNL A   1      37.308  21.200  24.630  1.00  0.00     0.023 C 
BRANCH  25  26
ATOM     26  C   UNL A   1      38.386  21.231  25.698  1.00  0.00     0.116 C 
BRANCH  26  27
ATOM     27  N   UNL A   1      39.261  20.068  25.663  1.00  0.00    -0.352 N 
ATOM     28  C   UNL A   1      40.599  19.976  25.973  1.00  0.00     0.251 C 
ATOM     29  H   UNL A   1      38.836  19.228  25.376  1.00  0.00     0.163 HD
ATOM     30  O   UNL A   1      41.232  18.960  25.723  1.00  0.00    -0.269 OA
BRANCH  28  31
ATOM     31  C   UNL A   1      41.284  21.134  26.579  1.00  0.00     0.039 A 
ATOM     32  C   UNL A   1      41.880  22.072  25.736  1.00  0.00     0.014 A 
ATOM     33  C   UNL A   1      41.285  21.322  27.962  1.00  0.00     0.014 A 
ATOM     34  C   UNL A   1      42.381  23.256  26.274  1.00  0.00     0.010 A 
ATOM     35  C   UNL A   1      41.676  22.545  28.483  1.00  0.00     0.010 A 
ATOM     36  C   UNL A   1      42.226  23.524  27.642  1.00  0.00    -0.014 A 
BRANCH  36  37
ATOM     37  C   UNL A   1      42.630  24.825  28.222  1.00  0.00     0.031 A 
ATOM     38  C   UNL A   1      41.598  25.893  28.448  1.00  0.00     0.074 A 
ATOM     39  C   UNL A   1      43.932  25.070  28.464  1.00  0.00     0.049 A 
ATOM     40  N   UNL A   1      41.759  27.122  28.864  1.00  0.00    -0.248 NA
ATOM     41  C   UNL A   1      40.203  25.545  28.126  1.00  0.00     0.031 C 
ATOM     42  C   UNL A   1      45.034  24.132  28.226  1.00  0.00     0.029 A 
ATOM     43  N   UNL A   1      44.551  26.187  28.960  1.00  0.00    -0.354 N 
ATOM     44  C   UNL A   1      40.497  27.700  28.822  1.00  0.00     0.074 A 
ATOM     45  C   UNL A   1      39.592  26.708  28.286  1.00  0.00     0.031 C 
ATOM     46  C   UNL A   1      46.186  24.698  28.619  1.00  0.00     0.029 A 
ATOM     47  C   UNL A   1      45.912  26.049  29.094  1.00  0.00     0.049 A 
ATOM     48  H   UNL A   1      44.068  27.011  29.199  1.00  0.00     0.167 HD
ATOM     49  C   UNL A   1      40.120  28.937  29.220  1.00  0.00     0.031 A 
ATOM     50  C   UNL A   1      46.832  26.916  29.552  1.00  0.00     0.031 A 
ATOM     51  C   UNL A   1      41.019  29.906  29.783  1.00  0.00     0.049 A 
ATOM     52  C   UNL A   1      46.385  28.273  30.018  1.00  0.00     0.074 A 
ATOM     53  C   UNL A   1      40.731  31.166  30.276  1.00  0.00     0.029 A 
ATOM     54  N   UNL A   1      42.384  29.714  29.934  1.00  0.00    -0.354 N 
ATOM     55  N   UNL A   1      45.177  28.784  30.031  1.00  0.00    -0.248 NA
ATOM     56  C   UNL A   1      47.425  29.166  30.543  1.00  0.00     0.031 C 
ATOM     57  C   UNL A   1      41.931  31.751  30.695  1.00  0.00     0.029 A 
ATOM     58  C   UNL A   1      42.956  30.836  30.506  1.00  0.00     0.049 A 
ATOM     59  H   UNL A   1      42.873  28.901  29.673  1.00  0.00     0.167 HD
ATOM     60  C   UNL A   1      45.307  30.045  30.595  1.00  0.00     0.074 A 
ATOM     61  C   UNL A   1      46.709  30.216  30.920  1.00  0.00     0.031 C 
ATOM     62  C   UNL A   1      44.352  30.978  30.825  1.00  0.00     0.031 A 
BRANCH  49  63
ATOM     63  C   UNL A   1      38.670  29.295  29.058  1.00  0.00    -0.014 A 
ATOM     64  C   UNL A   1      38.168  29.760  27.831  1.00  0.00     0.009 A 
ATOM     65  C   UNL A   1      37.792  29.168  30.146  1.00  0.00     0.009 A 
ATOM     66  C   UNL A   1      36.828  30.134  27.710  1.00  0.00     0.001 A 
ATOM     67  C   UNL A   1      36.446  29.514  30.013  1.00  0.00     0.001 A 
ATOM     68  C   UNL A   1      35.969  30.008  28.799  1.00  0.00     0.000 A 
ENDBRANCH  49  63
BRANCH  50  69
ATOM     69  C   UNL A   1      48.260  26.513  29.634  1.00  0.00    -0.014 A 
ATOM     70  C   UNL A   1      49.130  26.771  28.563  1.00  0.00     0.009 A 
ATOM     71  C   UNL A   1      48.763  25.874  30.778  1.00  0.00     0.009 A 
ATOM     72  C   UNL A   1      50.468  26.374  28.625  1.00  0.00     0.001 A 
ATOM     73  C   UNL A   1      50.107  25.502  30.846  1.00  0.00     0.001 A 
ATOM     74  C   UNL A   1      50.956  25.744  29.768  1.00  0.00     0.000 A 
ENDBRANCH  50  69
BRANCH  62  75
ATOM     75  C   UNL A   1      44.787  32.247  31.500  1.00  0.00    -0.014 A 
ATOM     76  C   UNL A   1      45.190  33.366  30.756  1.00  0.00     0.009 A 
ATOM     77  C   UNL A   1      44.750  32.333  32.899  1.00  0.00     0.009 A 
ATOM     78  C   UNL A   1      45.578  34.539  31.406  1.00  0.00     0.001 A 
ATOM     79  C   UNL A   1      45.111  33.515  33.545  1.00  0.00     0.001 A 
ATOM     80  C   UNL A   1      45.533  34.615  32.798  1.00  0.00     0.000 A 
ENDBRANCH  62  75
ENDBRANCH  36  37
ENDBRANCH  28  31
ENDBRANCH  26  27
ENDBRANCH  25  26
ENDBRANCH   1  25
TORSDOF 13
ENDMDL
MODEL 2
REMARK VINA RESULT:     -11.4      1.522      6.234
REMARK SMILES C[C@@H]1[C@H](C(=O)NCCCCNC(=O)c2ccc(-c3c4nc(c(-c5ccccc5)c5ccc([nH]5)c(-c5ccccc5)c5nc(c(-c6ccccc6)c6ccc3[nH]6)C=C5)C=C4)cc2)CC[N@@H+]1Cc1ccc2c(c1)CCN2C
REMARK SMILES IDX 8 1 7 2 6 3 4 4 5 5 3 7 1 8 2 9 64 10 62 11 63 12 65 14
REMARK SMILES IDX 66 15 67 16 71 17 68 18 70 19 69 20 72 21 74 22 73 23 75 24
REMARK SMILES IDX 9 25 10 26 11 27 12 28 13 30 14 31 15 32 61 33 16 34 60 35
REMARK SMILES IDX 17 36 18 37 19 38 54 39 20 40 59 41 53 42 55 43 21 44 58 45
REMARK SMILES IDX 52 46 51 47 22 49 44 50 29 51 43 52 30 53 33 54 42 55 56 56
REMARK SMILES IDX 31 57 32 58 41 60 57 61 34 62 23 63 24 64 28 65 25 66 27 67
REMARK SMILES IDX 26 68 45 69 46 70 50 71 47 72 49 73 48 74 35 75 36 76 40 77
REMARK SMILES IDX 37 78 39 79 38 80
REMARK H PARENT 6 6 64 13 11 29 55 48 33 59
REMARK Flexibility Score: inf
ROOT
ATOM      1  C   UNL A   1      36.284  21.520  24.952  1.00  0.00     0.023 C 
ENDROOT
BRANCH   1   2
ATOM      2  C   UNL A   1      35.297  21.438  26.117  1.00  0.00     0.116 C 
BRANCH   2   3
ATOM      3  N   UNL A   1      34.084  20.761  25.723  1.00  0.00    -0.356 N 
ATOM      4  C   UNL A   1      32.806  21.204  25.678  1.00  0.00     0.229 C 
ATOM      5  O   UNL A   1      31.946  20.356  25.410  1.00  0.00    -0.275 OA
ATOM      6  H   UNL A   1      34.207  19.826  25.442  1.00  0.00     0.163 HD
BRANCH   4   7
ATOM      7  C   UNL A   1      32.391  22.657  25.875  1.00  0.00     0.142 C 
ATOM      8  C   UNL A   1      33.079  23.337  23.408  1.00  0.00     0.076 C 
ATOM      9  C   UNL A   1      32.552  23.727  24.775  1.00  0.00     0.193 C 
ATOM     10  N   UNL A   1      31.338  24.557  24.845  1.00  0.00    -0.328 N 
ATOM     11  C   UNL A   1      30.987  22.870  26.437  1.00  0.00     0.081 C 
ATOM     12  C   UNL A   1      30.747  24.346  26.158  1.00  0.00     0.263 C 
ATOM     13  H   UNL A   1      31.656  25.518  24.722  1.00  0.00     0.348 HD
BRANCH  10  14
ATOM     14  C   UNL A   1      30.454  24.776  23.700  1.00  0.00     0.299 C 
BRANCH  14  15
ATOM     15  C   UNL A   1      30.024  26.184  23.310  1.00  0.00     0.007 A 
ATOM     16  C   UNL A   1      30.958  27.102  22.768  1.00  0.00     0.012 A 
ATOM     17  C   UNL A   1      28.733  26.657  23.585  1.00  0.00     0.015 A 
ATOM     18  C   UNL A   1      30.607  28.434  22.471  1.00  0.00     0.026 A 
ATOM     19  C   UNL A   1      28.404  27.968  23.286  1.00  0.00    -0.022 A 
ATOM     20  C   UNL A   1      29.322  28.862  22.740  1.00  0.00     0.040 A 
ATOM     21  C   UNL A   1      27.074  28.636  23.405  1.00  0.00     0.059 C 
ATOM     22  N   UNL A   1      28.770  30.133  22.577  1.00  0.00    -0.374 N 
ATOM     23  C   UNL A   1      27.502  30.108  23.315  1.00  0.00     0.121 C 
ATOM     24  C   UNL A   1      28.870  30.816  21.310  1.00  0.00     0.143 C 
ENDBRANCH  14  15
ENDBRANCH  10  14
ENDBRANCH   4   7
ENDBRANCH   2   3
ENDBRANCH   1   2
BRANCH   1  25
ATOM     25  C   UNL A   1      37.349  20.434  24.922  1.00  0.00     0.023 C 
BRANCH  25  26
ATOM     26  C   UNL A   1      38.637  20.792  25.641  1.00  0.00     0.116 C 
BRANCH  26  27
ATOM     27  N   UNL A   1      39.612  19.711  25.641  1.00  0.00    -0.352 N 
ATOM     28  C   UNL A   1      40.950  19.745  25.964  1.00  0.00     0.251 C 
ATOM     29  H   UNL A   1      39.266  18.829  25.373  1.00  0.00     0.163 HD
ATOM     30  O   UNL A   1      41.672  18.783  25.745  1.00  0.00    -0.269 OA
BRANCH  28  31
ATOM     31  C   UNL A   1      41.523  20.974  26.546  1.00  0.00     0.039 A 
ATOM     32  C   UNL A   1      42.079  21.922  25.686  1.00  0.00     0.014 A 
ATOM     33  C   UNL A   1      41.459  21.214  27.919  1.00  0.00     0.014 A 
ATOM     34  C   UNL A   1      42.470  23.160  26.192  1.00  0.00     0.010 A 
ATOM     35  C   UNL A   1      41.739  22.481  28.403  1.00  0.00     0.010 A 
ATOM     36  C   UNL A   1      42.245  23.467  27.543  1.00  0.00    -0.014 A 
BRANCH  36  37
ATOM     37  C   UNL A   1      42.529  24.816  28.083  1.00  0.00     0.031 A 
ATOM     38  C   UNL A   1      43.920  25.162  28.532  1.00  0.00     0.074 A 
ATOM     39  C   UNL A   1      41.520  25.693  28.243  1.00  0.00     0.049 A 
ATOM     40  N   UNL A   1      44.354  26.253  29.107  1.00  0.00    -0.248 NA
ATOM     41  C   UNL A   1      44.953  24.128  28.344  1.00  0.00     0.031 C 
ATOM     42  C   UNL A   1      40.115  25.449  27.901  1.00  0.00     0.029 A 
ATOM     43  N   UNL A   1      41.520  26.970  28.742  1.00  0.00    -0.354 N 
ATOM     44  C   UNL A   1      45.697  26.023  29.378  1.00  0.00     0.074 A 
ATOM     45  C   UNL A   1      45.992  24.672  28.959  1.00  0.00     0.031 C 
ATOM     46  C   UNL A   1      39.400  26.556  28.159  1.00  0.00     0.029 A 
ATOM     47  C   UNL A   1      40.284  27.569  28.722  1.00  0.00     0.049 A 
ATOM     48  H   UNL A   1      42.329  27.416  29.081  1.00  0.00     0.167 HD
ATOM     49  C   UNL A   1      46.610  26.872  29.905  1.00  0.00     0.031 A 
ATOM     50  C   UNL A   1      39.909  28.801  29.112  1.00  0.00     0.031 A 
ATOM     51  C   UNL A   1      46.318  28.225  30.289  1.00  0.00     0.049 A 
ATOM     52  C   UNL A   1      40.947  29.736  29.665  1.00  0.00     0.074 A 
ATOM     53  C   UNL A   1      47.182  29.190  30.775  1.00  0.00     0.029 A 
ATOM     54  N   UNL A   1      45.061  28.806  30.220  1.00  0.00    -0.354 N 
ATOM     55  N   UNL A   1      42.227  29.527  29.857  1.00  0.00    -0.248 NA
ATOM     56  C   UNL A   1      40.491  31.080  30.041  1.00  0.00     0.031 C 
ATOM     57  C   UNL A   1      46.438  30.347  31.032  1.00  0.00     0.029 A 
ATOM     58  C   UNL A   1      45.122  30.115  30.663  1.00  0.00     0.049 A 
ATOM     59  H   UNL A   1      44.245  28.353  29.903  1.00  0.00     0.167 HD
ATOM     60  C   UNL A   1      42.736  30.721  30.346  1.00  0.00     0.074 A 
ATOM     61  C   UNL A   1      41.627  31.653  30.410  1.00  0.00     0.031 C 
ATOM     62  C   UNL A   1      44.006  31.023  30.709  1.00  0.00     0.031 A 
BRANCH  49  63
ATOM     63  C   UNL A   1      48.006  26.348  30.086  1.00  0.00    -0.014 A 
ATOM     64  C   UNL A   1      48.936  26.375  29.034  1.00  0.00     0.009 A 
ATOM     65  C   UNL A   1      48.399  25.819  31.325  1.00  0.00     0.009 A 
ATOM     66  C   UNL A   1      50.215  25.841  29.204  1.00  0.00     0.001 A 
ATOM     67  C   UNL A   1      49.689  25.314  31.502  1.00  0.00     0.001 A 
ATOM     68  C   UNL A   1      50.590  25.314  30.439  1.00  0.00     0.000 A 
ENDBRANCH  49  63
BRANCH  50  69
ATOM     69  C   UNL A   1      38.497  29.235  28.954  1.00  0.00    -0.014 A 
ATOM     70  C   UNL A   1      37.612  29.171  30.042  1.00  0.00     0.009 A 
ATOM     71  C   UNL A   1      38.026  29.716  27.724  1.00  0.00     0.009 A 
ATOM     72  C   UNL A   1      36.277  29.556  29.893  1.00  0.00     0.001 A 
ATOM     73  C   UNL A   1      36.697  30.125  27.586  1.00  0.00     0.001 A 
ATOM     74  C   UNL A   1      35.822  30.036  28.667  1.00  0.00     0.000 A 
ENDBRANCH  50  69
BRANCH  62  75
ATOM     75  C   UNL A   1      44.271  32.429  31.163  1.00  0.00    -0.014 A 
ATOM     76  C   UNL A   1      44.609  33.438  30.248  1.00  0.00     0.009 A 
ATOM     77  C   UNL A   1      44.138  32.754  32.521  1.00  0.00     0.009 A 
ATOM     78  C   UNL A   1      44.839  34.741  30.692  1.00  0.00     0.001 A 
ATOM     79  C   UNL A   1      44.340  34.062  32.958  1.00  0.00     0.001 A 
ATOM     80  C   UNL A   1      44.699  35.053  32.045  1.00  0.00     0.000 A 
ENDBRANCH  62  75
ENDBRANCH  36  37
ENDBRANCH  28  31
ENDBRANCH  26  27
ENDBRANCH  25  26
ENDBRANCH   1  25
TORSDOF 13
ENDMDL
MODEL 3
REMARK VINA RESULT:     -11.2      0.545      5.964
REMARK SMILES C[C@@H]1[C@H](C(=O)NCCCCNC(=O)c2ccc(-c3c4nc(c(-c5ccccc5)c5ccc([nH]5)c(-c5ccccc5)c5nc(c(-c6ccccc6)c6ccc3[nH]6)C=C5)C=C4)cc2)CC[N@@H+]1Cc1ccc2c(c1)CCN2C
REMARK SMILES IDX 8 1 7 2 6 3 4 4 5 5 3 7 1 8 2 9 64 10 62 11 63 12 65 14
REMARK SMILES IDX 66 15 67 16 71 17 68 18 70 19 69 20 72 21 74 22 73 23 75 24
REMARK SMILES IDX 9 25 10 26 11 27 12 28 13 30 14 31 15 32 61 33 16 34 60 35
REMARK SMILES IDX 17 36 18 37 19 38 54 39 20 40 59 41 53 42 55 43 21 44 58 45
REMARK SMILES IDX 52 46 51 47 22 49 44 50 29 51 43 52 30 53 33 54 42 55 56 56
REMARK SMILES IDX 31 57 32 58 41 60 57 61 34 62 23 63 24 64 28 65 25 66 27 67
REMARK SMILES IDX 26 68 45 69 46 70 50 71 47 72 49 73 48 74 35 75 36 76 40 77
REMARK SMILES IDX 37 78 39 79 38 80
REMARK H PARENT 6 6 64 13 11 29 55 48 33 59
REMARK Flexibility Score: inf
ROOT
ATOM      1  C   UNL A   1      37.391  22.064  24.600  1.00  0.00     0.023 C 
ENDROOT
BRANCH   1   2
ATOM      2  C   UNL A   1      35.884  22.094  24.337  1.00  0.00     0.116 C 
BRANCH   2   3
ATOM      3  N   UNL A   1      35.189  22.802  25.385  1.00  0.00    -0.356 N 
ATOM      4  C   UNL A   1      34.087  23.587  25.331  1.00  0.00     0.229 C 
ATOM      5  O   UNL A   1      33.782  24.166  26.382  1.00  0.00    -0.275 OA
ATOM      6  H   UNL A   1      35.578  22.696  26.282  1.00  0.00     0.163 HD
BRANCH   4   7
ATOM      7  C   UNL A   1      33.200  23.745  24.103  1.00  0.00     0.142 C 
ATOM      8  C   UNL A   1      30.984  23.236  25.463  1.00  0.00     0.076 C 
ATOM      9  C   UNL A   1      31.671  23.540  24.147  1.00  0.00     0.193 C 
ATOM     10  N   UNL A   1      31.104  24.594  23.289  1.00  0.00    -0.328 N 
ATOM     11  C   UNL A   1      33.409  25.026  23.300  1.00  0.00     0.081 C 
ATOM     12  C   UNL A   1      32.171  25.061  22.417  1.00  0.00     0.263 C 
ATOM     13  H   UNL A   1      30.354  24.144  22.764  1.00  0.00     0.348 HD
BRANCH  10  14
ATOM     14  C   UNL A   1      30.105  25.554  23.759  1.00  0.00     0.299 C 
BRANCH  14  15
ATOM     15  C   UNL A   1      30.533  26.881  24.373  1.00  0.00     0.007 A 
ATOM     16  C   UNL A   1      30.343  28.098  23.672  1.00  0.00     0.012 A 
ATOM     17  C   UNL A   1      31.235  26.932  25.586  1.00  0.00     0.015 A 
ATOM     18  C   UNL A   1      30.799  29.330  24.182  1.00  0.00     0.026 A 
ATOM     19  C   UNL A   1      31.675  28.150  26.073  1.00  0.00    -0.022 A 
ATOM     20  C   UNL A   1      31.473  29.346  25.387  1.00  0.00     0.040 A 
ATOM     21  C   UNL A   1      32.346  28.436  27.377  1.00  0.00     0.059 C 
ATOM     22  N   UNL A   1      32.052  30.427  26.052  1.00  0.00    -0.374 N 
ATOM     23  C   UNL A   1      32.903  29.838  27.092  1.00  0.00     0.121 C 
ATOM     24  C   UNL A   1      31.281  31.617  26.320  1.00  0.00     0.143 C 
ENDBRANCH  14  15
ENDBRANCH  10  14
ENDBRANCH   4   7
ENDBRANCH   2   3
ENDBRANCH   1   2
BRANCH   1  25
ATOM     25  C   UNL A   1      37.982  20.686  24.858  1.00  0.00     0.023 C 
BRANCH  25  26
ATOM     26  C   UNL A   1      38.938  20.619  26.036  1.00  0.00     0.116 C 
BRANCH  26  27
ATOM     27  N   UNL A   1      39.969  19.604  25.879  1.00  0.00    -0.352 N 
ATOM     28  C   UNL A   1      41.334  19.721  26.018  1.00  0.00     0.251 C 
ATOM     29  H   UNL A   1      39.645  18.706  25.639  1.00  0.00     0.163 HD
ATOM     30  O   UNL A   1      42.078  18.812  25.680  1.00  0.00    -0.269 OA
BRANCH  28  31
ATOM     31  C   UNL A   1      41.903  20.975  26.546  1.00  0.00     0.039 A 
ATOM     32  C   UNL A   1      42.318  21.952  25.639  1.00  0.00     0.014 A 
ATOM     33  C   UNL A   1      41.971  21.209  27.920  1.00  0.00     0.014 A 
ATOM     34  C   UNL A   1      42.698  23.207  26.111  1.00  0.00     0.010 A 
ATOM     35  C   UNL A   1      42.237  22.488  28.380  1.00  0.00     0.010 A 
ATOM     36  C   UNL A   1      42.601  23.500  27.479  1.00  0.00    -0.014 A 
BRANCH  36  37
ATOM     37  C   UNL A   1      42.872  24.860  27.996  1.00  0.00     0.031 A 
ATOM     38  C   UNL A   1      44.274  25.250  28.370  1.00  0.00     0.074 A 
ATOM     39  C   UNL A   1      41.847  25.709  28.204  1.00  0.00     0.049 A 
ATOM     40  N   UNL A   1      44.705  26.357  28.916  1.00  0.00    -0.248 NA
ATOM     41  C   UNL A   1      45.326  24.246  28.135  1.00  0.00     0.031 C 
ATOM     42  C   UNL A   1      40.434  25.421  27.936  1.00  0.00     0.029 A 
ATOM     43  N   UNL A   1      41.836  26.989  28.695  1.00  0.00    -0.354 N 
ATOM     44  C   UNL A   1      46.066  26.169  29.118  1.00  0.00     0.074 A 
ATOM     45  C   UNL A   1      46.378  24.823  28.692  1.00  0.00     0.031 C 
ATOM     46  C   UNL A   1      39.702  26.509  28.225  1.00  0.00     0.029 A 
ATOM     47  C   UNL A   1      40.583  27.551  28.736  1.00  0.00     0.049 A 
ATOM     48  H   UNL A   1      42.648  27.461  28.989  1.00  0.00     0.167 HD
ATOM     49  C   UNL A   1      46.980  27.047  29.592  1.00  0.00     0.031 A 
ATOM     50  C   UNL A   1      40.193  28.774  29.138  1.00  0.00     0.031 A 
ATOM     51  C   UNL A   1      46.668  28.394  29.983  1.00  0.00     0.049 A 
ATOM     52  C   UNL A   1      41.230  29.743  29.631  1.00  0.00     0.074 A 
ATOM     53  C   UNL A   1      47.527  29.387  30.419  1.00  0.00     0.029 A 
ATOM     54  N   UNL A   1      45.392  28.937  29.976  1.00  0.00    -0.354 N 
ATOM     55  N   UNL A   1      42.524  29.573  29.758  1.00  0.00    -0.248 NA
ATOM     56  C   UNL A   1      40.754  31.076  30.022  1.00  0.00     0.031 C 
ATOM     57  C   UNL A   1      46.764  30.524  30.708  1.00  0.00     0.029 A 
ATOM     58  C   UNL A   1      45.438  30.251  30.408  1.00  0.00     0.049 A 
ATOM     59  H   UNL A   1      44.576  28.459  29.705  1.00  0.00     0.167 HD
ATOM     60  C   UNL A   1      43.022  30.785  30.213  1.00  0.00     0.074 A 
ATOM     61  C   UNL A   1      41.891  31.685  30.329  1.00  0.00     0.031 C 
ATOM     62  C   UNL A   1      44.300  31.126  30.507  1.00  0.00     0.031 A 
BRANCH  49  63
ATOM     63  C   UNL A   1      48.398  26.566  29.704  1.00  0.00    -0.014 A 
ATOM     64  C   UNL A   1      48.837  25.847  30.828  1.00  0.00     0.009 A 
ATOM     65  C   UNL A   1      49.311  26.833  28.672  1.00  0.00     0.009 A 
ATOM     66  C   UNL A   1      50.170  25.448  30.939  1.00  0.00     0.001 A 
ATOM     67  C   UNL A   1      50.636  26.405  28.771  1.00  0.00     0.001 A 
ATOM     68  C   UNL A   1      51.067  25.724  29.909  1.00  0.00     0.000 A 
ENDBRANCH  49  63
BRANCH  50  69
ATOM     69  C   UNL A   1      38.762  29.166  29.052  1.00  0.00    -0.014 A 
ATOM     70  C   UNL A   1      37.909  28.974  30.150  1.00  0.00     0.009 A 
ATOM     71  C   UNL A   1      38.241  29.734  27.879  1.00  0.00     0.009 A 
ATOM     72  C   UNL A   1      36.558  29.319  30.066  1.00  0.00     0.001 A 
ATOM     73  C   UNL A   1      36.896  30.102  27.808  1.00  0.00     0.001 A 
ATOM     74  C   UNL A   1      36.054  29.886  28.897  1.00  0.00     0.000 A 
ENDBRANCH  50  69
BRANCH  62  75
ATOM     75  C   UNL A   1      44.546  32.543  30.939  1.00  0.00    -0.014 A 
ATOM     76  C   UNL A   1      44.803  33.555  30.002  1.00  0.00     0.009 A 
ATOM     77  C   UNL A   1      44.477  32.872  32.301  1.00  0.00     0.009 A 
ATOM     78  C   UNL A   1      45.017  34.868  30.427  1.00  0.00     0.001 A 
ATOM     79  C   UNL A   1      44.663  34.189  32.720  1.00  0.00     0.001 A 
ATOM     80  C   UNL A   1      44.942  35.184  31.783  1.00  0.00     0.000 A 
ENDBRANCH  62  75
ENDBRANCH  36  37
ENDBRANCH  28  31
ENDBRANCH  26  27
ENDBRANCH  25  26
ENDBRANCH   1  25
TORSDOF 13
ENDMDL
