MODEL 1
REMARK VINA RESULT:     -10.6      0.000      0.000
REMARK SMILES CC[C@@H](C)N(C)c1ccc(/C=C/C(=O)NCCCCNC(=O)c2ccc(-c3c4nc(c(-c5ccccc5)c5ccc([nH]5)c(-c5ccccc5)c5nc(c(-c6ccccc6)c6ccc3[nH]6)C=C5)C=C4)cc2)cc1F
REMARK SMILES IDX 16 1 15 2 13 3 14 4 12 6 11 7 10 8 7 9 8 10 72 11 9 12 71 13
REMARK SMILES IDX 73 14 5 15 6 16 3 17 4 18 2 19 1 20 17 21 18 22 19 23 20 24
REMARK SMILES IDX 21 25 22 27 23 28 24 29 70 30 25 31 69 32 26 33 27 34 28 35
REMARK SMILES IDX 63 36 29 37 68 38 62 39 64 40 30 41 67 42 61 43 60 44 31 46
REMARK SMILES IDX 53 47 38 48 52 49 39 50 42 51 51 52 65 53 40 54 41 55 50 57
REMARK SMILES IDX 66 58 43 59 32 60 33 61 37 62 34 63 36 64 35 65 54 66 55 67
REMARK SMILES IDX 59 68 56 69 58 70 57 71 44 72 45 73 49 74 46 75 48 76 47 77
REMARK H PARENT 15 5 20 26 64 45 42 56
REMARK Flexibility Score: inf
ROOT
ATOM      1  C   UNL A   1      31.027  29.910  25.028  1.00  0.00     0.116 C 
ENDROOT
BRANCH   1   2
ATOM      2  N   UNL A   1      30.582  30.084  23.656  1.00  0.00    -0.353 N 
ATOM      3  C   UNL A   1      30.304  29.152  22.701  1.00  0.00     0.243 C 
ATOM      4  O   UNL A   1      29.827  29.499  21.625  1.00  0.00    -0.270 OA
ATOM      5  H   UNL A   1      30.462  31.019  23.373  1.00  0.00     0.163 HD
BRANCH   3   6
ATOM      6  C   UNL A   1      30.490  27.713  22.992  1.00  0.00     0.072 C 
ATOM      7  C   UNL A   1      31.457  26.982  22.419  1.00  0.00     0.014 C 
BRANCH   7   8
ATOM      8  C   UNL A   1      31.722  25.570  22.712  1.00  0.00    -0.022 A 
ATOM      9  C   UNL A   1      32.340  22.817  23.154  1.00  0.00     0.073 A 
ATOM     10  C   UNL A   1      31.050  23.329  23.374  1.00  0.00     0.029 A 
ATOM     11  C   UNL A   1      33.300  23.730  22.693  1.00  0.00     0.147 A 
ATOM     12  C   UNL A   1      30.741  24.682  23.156  1.00  0.00     0.010 A 
ATOM     13  C   UNL A   1      33.007  25.077  22.478  1.00  0.00     0.049 A 
ATOM     14  F   UNL A   1      34.537  23.321  22.371  1.00  0.00    -0.205 F 
BRANCH   9  15
ATOM     15  N   UNL A   1      32.620  21.466  23.348  1.00  0.00    -0.370 N 
ATOM     16  C   UNL A   1      32.049  20.524  22.391  1.00  0.00     0.144 C 
BRANCH  15  17
ATOM     17  C   UNL A   1      33.046  20.936  24.664  1.00  0.00     0.078 C 
ATOM     18  C   UNL A   1      34.570  20.941  24.801  1.00  0.00     0.031 C 
BRANCH  17  19
ATOM     19  C   UNL A   1      32.423  19.564  24.965  1.00  0.00     0.021 C 
ATOM     20  C   UNL A   1      33.436  18.426  24.970  1.00  0.00     0.006 C 
ENDBRANCH  17  19
ENDBRANCH  15  17
ENDBRANCH   9  15
ENDBRANCH   7   8
ENDBRANCH   3   6
ENDBRANCH   1   2
BRANCH   1  21
ATOM     21  C   UNL A   1      32.539  29.693  25.101  1.00  0.00     0.023 C 
BRANCH  21  22
ATOM     22  C   UNL A   1      32.964  28.414  25.829  1.00  0.00     0.023 C 
BRANCH  22  23
ATOM     23  C   UNL A   1      33.613  28.631  27.192  1.00  0.00     0.116 C 
BRANCH  23  24
ATOM     24  N   UNL A   1      33.574  30.014  27.639  1.00  0.00    -0.352 N 
ATOM     25  C   UNL A   1      34.568  30.745  28.249  1.00  0.00     0.251 C 
ATOM     26  H   UNL A   1      32.726  30.490  27.486  1.00  0.00     0.163 HD
ATOM     27  O   UNL A   1      34.348  31.877  28.656  1.00  0.00    -0.269 OA
BRANCH  25  28
ATOM     28  C   UNL A   1      35.896  30.130  28.448  1.00  0.00     0.039 A 
ATOM     29  C   UNL A   1      36.811  30.150  27.394  1.00  0.00     0.014 A 
ATOM     30  C   UNL A   1      36.247  29.570  29.680  1.00  0.00     0.014 A 
ATOM     31  C   UNL A   1      38.106  29.671  27.595  1.00  0.00     0.010 A 
ATOM     32  C   UNL A   1      37.557  29.155  29.898  1.00  0.00     0.010 A 
ATOM     33  C   UNL A   1      38.499  29.205  28.860  1.00  0.00    -0.014 A 
BRANCH  33  34
ATOM     34  C   UNL A   1      39.895  28.776  29.121  1.00  0.00     0.031 A 
ATOM     35  C   UNL A   1      40.877  29.731  29.736  1.00  0.00     0.074 A 
ATOM     36  C   UNL A   1      40.298  27.551  28.731  1.00  0.00     0.049 A 
ATOM     37  N   UNL A   1      42.151  29.561  29.981  1.00  0.00    -0.248 NA
ATOM     38  C   UNL A   1      40.366  31.063  30.098  1.00  0.00     0.031 C 
ATOM     39  C   UNL A   1      39.454  26.550  28.073  1.00  0.00     0.029 A 
ATOM     40  N   UNL A   1      41.525  26.946  28.820  1.00  0.00    -0.354 N 
ATOM     41  C   UNL A   1      42.598  30.766  30.504  1.00  0.00     0.074 A 
ATOM     42  C   UNL A   1      41.471  31.675  30.498  1.00  0.00     0.031 C 
ATOM     43  C   UNL A   1      40.186  25.450  27.835  1.00  0.00     0.029 A 
ATOM     44  C   UNL A   1      41.553  25.679  28.290  1.00  0.00     0.049 A 
ATOM     45  H   UNL A   1      42.312  27.378  29.225  1.00  0.00     0.167 HD
ATOM     46  C   UNL A   1      43.830  31.085  30.968  1.00  0.00     0.031 A 
ATOM     47  C   UNL A   1      42.569  24.802  28.177  1.00  0.00     0.031 A 
ATOM     48  C   UNL A   1      44.947  30.180  30.984  1.00  0.00     0.049 A 
ATOM     49  C   UNL A   1      43.924  25.173  28.707  1.00  0.00     0.074 A 
ATOM     50  C   UNL A   1      46.218  30.387  31.492  1.00  0.00     0.029 A 
ATOM     51  N   UNL A   1      44.928  28.895  30.465  1.00  0.00    -0.354 N 
ATOM     52  N   UNL A   1      44.311  26.290  29.272  1.00  0.00    -0.248 NA
ATOM     53  C   UNL A   1      44.980  24.157  28.594  1.00  0.00     0.031 C 
ATOM     54  C   UNL A   1      46.982  29.243  31.239  1.00  0.00     0.029 A 
ATOM     55  C   UNL A   1      46.171  28.305  30.619  1.00  0.00     0.049 A 
ATOM     56  H   UNL A   1      44.146  28.466  30.048  1.00  0.00     0.167 HD
ATOM     57  C   UNL A   1      45.647  26.105  29.603  1.00  0.00     0.074 A 
ATOM     58  C   UNL A   1      45.998  24.762  29.189  1.00  0.00     0.031 C 
ATOM     59  C   UNL A   1      46.506  26.969  30.196  1.00  0.00     0.031 A 
BRANCH  46  60
ATOM     60  C   UNL A   1      44.028  32.483  31.487  1.00  0.00    -0.014 A 
ATOM     61  C   UNL A   1      43.807  32.794  32.839  1.00  0.00     0.009 A 
ATOM     62  C   UNL A   1      44.451  33.498  30.617  1.00  0.00     0.009 A 
ATOM     63  C   UNL A   1      43.962  34.103  33.298  1.00  0.00     0.001 A 
ATOM     64  C   UNL A   1      44.635  34.801  31.086  1.00  0.00     0.001 A 
ATOM     65  C   UNL A   1      44.380  35.105  32.422  1.00  0.00     0.000 A 
ENDBRANCH  46  60
BRANCH  47  66
ATOM     66  C   UNL A   1      42.333  23.476  27.550  1.00  0.00    -0.014 A 
ATOM     67  C   UNL A   1      42.614  23.271  26.191  1.00  0.00     0.009 A 
ATOM     68  C   UNL A   1      41.835  22.406  28.310  1.00  0.00     0.009 A 
ATOM     69  C   UNL A   1      42.379  22.027  25.600  1.00  0.00     0.001 A 
ATOM     70  C   UNL A   1      41.626  21.157  27.723  1.00  0.00     0.001 A 
ATOM     71  C   UNL A   1      41.891  20.970  26.367  1.00  0.00     0.000 A 
ENDBRANCH  47  66
BRANCH  59  72
ATOM     72  C   UNL A   1      47.901  26.479  30.457  1.00  0.00    -0.014 A 
ATOM     73  C   UNL A   1      48.226  25.815  31.651  1.00  0.00     0.009 A 
ATOM     74  C   UNL A   1      48.892  26.648  29.478  1.00  0.00     0.009 A 
ATOM     75  C   UNL A   1      49.527  25.356  31.869  1.00  0.00     0.001 A 
ATOM     76  C   UNL A   1      50.184  26.165  29.689  1.00  0.00     0.001 A 
ATOM     77  C   UNL A   1      50.502  25.527  30.887  1.00  0.00     0.000 A 
ENDBRANCH  59  72
ENDBRANCH  33  34
ENDBRANCH  25  28
ENDBRANCH  23  24
ENDBRANCH  22  23
ENDBRANCH  21  22
ENDBRANCH   1  21
TORSDOF 15
ENDMDL
MODEL 2
REMARK VINA RESULT:     -10.3      3.433      4.905
REMARK SMILES CC[C@@H](C)N(C)c1ccc(/C=C/C(=O)NCCCCNC(=O)c2ccc(-c3c4nc(c(-c5ccccc5)c5ccc([nH]5)c(-c5ccccc5)c5nc(c(-c6ccccc6)c6ccc3[nH]6)C=C5)C=C4)cc2)cc1F
REMARK SMILES IDX 16 1 15 2 13 3 14 4 12 6 11 7 10 8 7 9 8 10 72 11 9 12 71 13
REMARK SMILES IDX 73 14 5 15 6 16 3 17 4 18 2 19 1 20 17 21 18 22 19 23 20 24
REMARK SMILES IDX 21 25 22 27 23 28 24 29 70 30 25 31 69 32 26 33 27 34 28 35
REMARK SMILES IDX 63 36 29 37 68 38 62 39 64 40 30 41 67 42 61 43 60 44 31 46
REMARK SMILES IDX 53 47 38 48 52 49 39 50 42 51 51 52 65 53 40 54 41 55 50 57
REMARK SMILES IDX 66 58 43 59 32 60 33 61 37 62 34 63 36 64 35 65 54 66 55 67
REMARK SMILES IDX 59 68 56 69 58 70 57 71 44 72 45 73 49 74 46 75 48 76 47 77
REMARK H PARENT 15 5 20 26 64 45 42 56
REMARK Flexibility Score: inf
ROOT
ATOM      1  C   UNL A   1      31.826  30.077  25.113  1.00  0.00     0.116 C 
ENDROOT
BRANCH   1   2
ATOM      2  N   UNL A   1      30.657  30.012  24.253  1.00  0.00    -0.353 N 
ATOM      3  C   UNL A   1      30.147  28.964  23.545  1.00  0.00     0.243 C 
ATOM      4  O   UNL A   1      29.075  29.081  22.961  1.00  0.00    -0.270 OA
ATOM      5  H   UNL A   1      30.156  30.855  24.167  1.00  0.00     0.163 HD
BRANCH   3   6
ATOM      6  C   UNL A   1      30.838  27.656  23.557  1.00  0.00     0.072 C 
ATOM      7  C   UNL A   1      30.548  26.697  24.447  1.00  0.00     0.014 C 
BRANCH   7   8
ATOM      8  C   UNL A   1      31.160  25.364  24.471  1.00  0.00    -0.022 A 
ATOM      9  C   UNL A   1      32.483  22.836  24.586  1.00  0.00     0.073 A 
ATOM     10  C   UNL A   1      31.652  23.187  23.509  1.00  0.00     0.029 A 
ATOM     11  C   UNL A   1      32.635  23.802  25.592  1.00  0.00     0.147 A 
ATOM     12  C   UNL A   1      31.001  24.429  23.447  1.00  0.00     0.010 A 
ATOM     13  C   UNL A   1      31.990  25.037  25.545  1.00  0.00     0.049 A 
ATOM     14  F   UNL A   1      33.475  23.596  26.619  1.00  0.00    -0.205 F 
BRANCH   9  15
ATOM     15  N   UNL A   1      33.144  21.609  24.616  1.00  0.00    -0.370 N 
ATOM     16  C   UNL A   1      32.521  20.538  25.386  1.00  0.00     0.144 C 
BRANCH  15  17
ATOM     17  C   UNL A   1      34.590  21.492  24.318  1.00  0.00     0.078 C 
ATOM     18  C   UNL A   1      35.403  21.239  25.589  1.00  0.00     0.031 C 
BRANCH  17  19
ATOM     19  C   UNL A   1      35.112  22.685  23.502  1.00  0.00     0.021 C 
ATOM     20  C   UNL A   1      36.631  22.808  23.511  1.00  0.00     0.006 C 
ENDBRANCH  17  19
ENDBRANCH  15  17
ENDBRANCH   9  15
ENDBRANCH   7   8
ENDBRANCH   3   6
ENDBRANCH   1   2
BRANCH   1  21
ATOM     21  C   UNL A   1      31.479  30.659  26.483  1.00  0.00     0.023 C 
BRANCH  21  22
ATOM     22  C   UNL A   1      31.416  32.188  26.528  1.00  0.00     0.023 C 
BRANCH  22  23
ATOM     23  C   UNL A   1      32.581  32.864  27.243  1.00  0.00     0.116 C 
BRANCH  23  24
ATOM     24  N   UNL A   1      32.307  34.240  27.626  1.00  0.00    -0.352 N 
ATOM     25  C   UNL A   1      32.954  35.014  28.562  1.00  0.00     0.251 C 
ATOM     26  H   UNL A   1      31.560  34.674  27.153  1.00  0.00     0.163 HD
ATOM     27  O   UNL A   1      32.540  36.130  28.840  1.00  0.00    -0.269 OA
BRANCH  25  28
ATOM     28  C   UNL A   1      34.132  34.462  29.262  1.00  0.00     0.039 A 
ATOM     29  C   UNL A   1      33.945  33.822  30.489  1.00  0.00     0.014 A 
ATOM     30  C   UNL A   1      35.406  34.545  28.693  1.00  0.00     0.014 A 
ATOM     31  C   UNL A   1      35.027  33.201  31.115  1.00  0.00     0.010 A 
ATOM     32  C   UNL A   1      36.468  33.869  29.284  1.00  0.00     0.010 A 
ATOM     33  C   UNL A   1      36.288  33.188  30.497  1.00  0.00    -0.014 A 
BRANCH  33  34
ATOM     34  C   UNL A   1      37.430  32.457  31.099  1.00  0.00     0.031 A 
ATOM     35  C   UNL A   1      38.049  32.942  32.378  1.00  0.00     0.074 A 
ATOM     36  C   UNL A   1      37.961  31.402  30.450  1.00  0.00     0.049 A 
ATOM     37  N   UNL A   1      39.089  32.476  33.021  1.00  0.00    -0.248 NA
ATOM     38  C   UNL A   1      37.434  34.124  33.004  1.00  0.00     0.031 C 
ATOM     39  C   UNL A   1      37.486  30.866  29.171  1.00  0.00     0.029 A 
ATOM     40  N   UNL A   1      39.026  30.601  30.772  1.00  0.00    -0.354 N 
ATOM     41  C   UNL A   1      39.266  33.316  34.111  1.00  0.00     0.074 A 
ATOM     42  C   UNL A   1      38.256  34.349  34.018  1.00  0.00     0.031 C 
ATOM     43  C   UNL A   1      38.246  29.815  28.828  1.00  0.00     0.029 A 
ATOM     44  C   UNL A   1      39.279  29.623  29.841  1.00  0.00     0.049 A 
ATOM     45  H   UNL A   1      39.558  30.715  31.592  1.00  0.00     0.167 HD
ATOM     46  C   UNL A   1      40.174  33.228  35.112  1.00  0.00     0.031 A 
ATOM     47  C   UNL A   1      40.241  28.681  29.804  1.00  0.00     0.031 A 
ATOM     48  C   UNL A   1      41.171  32.197  35.211  1.00  0.00     0.049 A 
ATOM     49  C   UNL A   1      41.232  28.596  30.929  1.00  0.00     0.074 A 
ATOM     50  C   UNL A   1      42.094  31.983  36.220  1.00  0.00     0.029 A 
ATOM     51  N   UNL A   1      41.377  31.207  34.263  1.00  0.00    -0.354 N 
ATOM     52  N   UNL A   1      41.336  29.351  31.996  1.00  0.00    -0.248 NA
ATOM     53  C   UNL A   1      42.229  27.520  30.853  1.00  0.00     0.031 C 
ATOM     54  C   UNL A   1      42.889  30.890  35.860  1.00  0.00     0.029 A 
ATOM     55  C   UNL A   1      42.428  30.393  34.651  1.00  0.00     0.049 A 
ATOM     56  H   UNL A   1      40.854  31.098  33.437  1.00  0.00     0.167 HD
ATOM     57  C   UNL A   1      42.394  28.829  32.728  1.00  0.00     0.074 A 
ATOM     58  C   UNL A   1      42.888  27.683  31.991  1.00  0.00     0.031 C 
ATOM     59  C   UNL A   1      42.911  29.260  33.904  1.00  0.00     0.031 A 
BRANCH  46  60
ATOM     60  C   UNL A   1      40.128  34.290  36.176  1.00  0.00    -0.014 A 
ATOM     61  C   UNL A   1      39.339  34.132  37.327  1.00  0.00     0.009 A 
ATOM     62  C   UNL A   1      40.892  35.457  36.031  1.00  0.00     0.009 A 
ATOM     63  C   UNL A   1      39.282  35.143  38.289  1.00  0.00     0.001 A 
ATOM     64  C   UNL A   1      40.856  36.453  37.010  1.00  0.00     0.001 A 
ATOM     65  C   UNL A   1      40.043  36.300  38.132  1.00  0.00     0.000 A 
ENDBRANCH  46  60
BRANCH  47  66
ATOM     66  C   UNL A   1      40.299  27.730  28.664  1.00  0.00    -0.014 A 
ATOM     67  C   UNL A   1      41.039  28.042  27.513  1.00  0.00     0.009 A 
ATOM     68  C   UNL A   1      39.624  26.501  28.725  1.00  0.00     0.009 A 
ATOM     69  C   UNL A   1      41.082  27.152  26.437  1.00  0.00     0.001 A 
ATOM     70  C   UNL A   1      39.690  25.603  27.659  1.00  0.00     0.001 A 
ATOM     71  C   UNL A   1      40.412  25.932  26.513  1.00  0.00     0.000 A 
ENDBRANCH  47  66
BRANCH  59  72
ATOM     72  C   UNL A   1      44.052  28.473  34.481  1.00  0.00    -0.014 A 
ATOM     73  C   UNL A   1      45.384  28.816  34.203  1.00  0.00     0.009 A 
ATOM     74  C   UNL A   1      43.789  27.399  35.345  1.00  0.00     0.009 A 
ATOM     75  C   UNL A   1      46.432  28.078  34.759  1.00  0.00     0.001 A 
ATOM     76  C   UNL A   1      44.839  26.680  35.919  1.00  0.00     0.001 A 
ATOM     77  C   UNL A   1      46.158  27.014  35.619  1.00  0.00     0.000 A 
ENDBRANCH  59  72
ENDBRANCH  33  34
ENDBRANCH  25  28
ENDBRANCH  23  24
ENDBRANCH  22  23
ENDBRANCH  21  22
ENDBRANCH   1  21
TORSDOF 15
ENDMDL
MODEL 3
REMARK VINA RESULT:     -10.1      1.453      6.381
REMARK SMILES CC[C@@H](C)N(C)c1ccc(/C=C/C(=O)NCCCCNC(=O)c2ccc(-c3c4nc(c(-c5ccccc5)c5ccc([nH]5)c(-c5ccccc5)c5nc(c(-c6ccccc6)c6ccc3[nH]6)C=C5)C=C4)cc2)cc1F
REMARK SMILES IDX 16 1 15 2 13 3 14 4 12 6 11 7 10 8 7 9 8 10 72 11 9 12 71 13
REMARK SMILES IDX 73 14 5 15 6 16 3 17 4 18 2 19 1 20 17 21 18 22 19 23 20 24
REMARK SMILES IDX 21 25 22 27 23 28 24 29 70 30 25 31 69 32 26 33 27 34 28 35
REMARK SMILES IDX 63 36 29 37 68 38 62 39 64 40 30 41 67 42 61 43 60 44 31 46
REMARK SMILES IDX 53 47 38 48 52 49 39 50 42 51 51 52 65 53 40 54 41 55 50 57
REMARK SMILES IDX 66 58 43 59 32 60 33 61 37 62 34 63 36 64 35 65 54 66 55 67
REMARK SMILES IDX 59 68 56 69 58 70 57 71 44 72 45 73 49 74 46 75 48 76 47 77
REMARK H PARENT 15 5 20 26 64 45 42 56
REMARK Flexibility Score: inf
ROOT
ATOM      1  C   UNL A   1      31.524  27.083  24.256  1.00  0.00     0.116 C 
ENDROOT
BRANCH   1   2
ATOM      2  N   UNL A   1      32.395  27.057  23.093  1.00  0.00    -0.353 N 
ATOM      3  C   UNL A   1      33.088  26.022  22.541  1.00  0.00     0.243 C 
ATOM      4  O   UNL A   1      33.686  26.178  21.481  1.00  0.00    -0.270 OA
ATOM      5  H   UNL A   1      32.502  27.921  22.634  1.00  0.00     0.163 HD
BRANCH   3   6
ATOM      6  C   UNL A   1      33.045  24.682  23.169  1.00  0.00     0.072 C 
ATOM      7  C   UNL A   1      32.993  23.552  22.450  1.00  0.00     0.014 C 
BRANCH   7   8
ATOM      8  C   UNL A   1      33.004  22.199  23.015  1.00  0.00    -0.022 A 
ATOM      9  C   UNL A   1      33.187  19.574  24.127  1.00  0.00     0.073 A 
ATOM     10  C   UNL A   1      32.239  19.894  23.140  1.00  0.00     0.029 A 
ATOM     11  C   UNL A   1      34.044  20.612  24.524  1.00  0.00     0.147 A 
ATOM     12  C   UNL A   1      32.147  21.183  22.589  1.00  0.00     0.010 A 
ATOM     13  C   UNL A   1      33.959  21.897  23.988  1.00  0.00     0.049 A 
ATOM     14  F   UNL A   1      35.038  20.385  25.397  1.00  0.00    -0.205 F 
BRANCH   9  15
ATOM     15  N   UNL A   1      33.283  18.283  24.641  1.00  0.00    -0.370 N 
ATOM     16  C   UNL A   1      32.688  18.043  25.951  1.00  0.00     0.144 C 
BRANCH  15  17
ATOM     17  C   UNL A   1      34.308  17.325  24.165  1.00  0.00     0.078 C 
ATOM     18  C   UNL A   1      34.035  16.886  22.725  1.00  0.00     0.031 C 
BRANCH  17  19
ATOM     19  C   UNL A   1      34.485  16.141  25.127  1.00  0.00     0.021 C 
ATOM     20  C   UNL A   1      35.903  16.007  25.671  1.00  0.00     0.006 C 
ENDBRANCH  17  19
ENDBRANCH  15  17
ENDBRANCH   9  15
ENDBRANCH   7   8
ENDBRANCH   3   6
ENDBRANCH   1   2
BRANCH   1  21
ATOM     21  C   UNL A   1      32.134  27.903  25.392  1.00  0.00     0.023 C 
BRANCH  21  22
ATOM     22  C   UNL A   1      33.649  27.749  25.547  1.00  0.00     0.023 C 
BRANCH  22  23
ATOM     23  C   UNL A   1      34.214  28.219  26.883  1.00  0.00     0.116 C 
BRANCH  23  24
ATOM     24  N   UNL A   1      33.803  29.566  27.245  1.00  0.00    -0.352 N 
ATOM     25  C   UNL A   1      34.507  30.517  27.948  1.00  0.00     0.251 C 
ATOM     26  H   UNL A   1      32.903  29.833  26.948  1.00  0.00     0.163 HD
ATOM     27  O   UNL A   1      33.982  31.577  28.258  1.00  0.00    -0.269 OA
BRANCH  25  28
ATOM     28  C   UNL A   1      35.893  30.224  28.367  1.00  0.00     0.039 A 
ATOM     29  C   UNL A   1      36.107  29.620  29.607  1.00  0.00     0.014 A 
ATOM     30  C   UNL A   1      36.970  30.510  27.523  1.00  0.00     0.014 A 
ATOM     31  C   UNL A   1      37.398  29.238  29.975  1.00  0.00     0.010 A 
ATOM     32  C   UNL A   1      38.245  30.067  27.861  1.00  0.00     0.010 A 
ATOM     33  C   UNL A   1      38.470  29.425  29.087  1.00  0.00    -0.014 A 
BRANCH  33  34
ATOM     34  C   UNL A   1      39.834  28.944  29.418  1.00  0.00     0.031 A 
ATOM     35  C   UNL A   1      40.298  27.598  28.942  1.00  0.00     0.074 A 
ATOM     36  C   UNL A   1      40.626  29.688  30.216  1.00  0.00     0.049 A 
ATOM     37  N   UNL A   1      41.426  26.981  29.183  1.00  0.00    -0.248 NA
ATOM     38  C   UNL A   1      39.358  26.831  28.108  1.00  0.00     0.031 C 
ATOM     39  C   UNL A   1      40.270  30.989  30.789  1.00  0.00     0.029 A 
ATOM     40  N   UNL A   1      41.889  29.448  30.693  1.00  0.00    -0.354 N 
ATOM     41  C   UNL A   1      41.325  25.750  28.550  1.00  0.00     0.074 A 
ATOM     42  C   UNL A   1      40.007  25.687  27.955  1.00  0.00     0.031 C 
ATOM     43  C   UNL A   1      41.299  31.438  31.525  1.00  0.00     0.029 A 
ATOM     44  C   UNL A   1      42.370  30.447  31.504  1.00  0.00     0.049 A 
ATOM     45  H   UNL A   1      42.402  28.636  30.474  1.00  0.00     0.167 HD
ATOM     46  C   UNL A   1      42.251  24.766  28.454  1.00  0.00     0.031 A 
ATOM     47  C   UNL A   1      43.539  30.549  32.163  1.00  0.00     0.031 A 
ATOM     48  C   UNL A   1      43.564  24.832  29.036  1.00  0.00     0.049 A 
ATOM     49  C   UNL A   1      44.555  29.451  32.035  1.00  0.00     0.074 A 
ATOM     50  C   UNL A   1      44.597  23.916  28.941  1.00  0.00     0.029 A 
ATOM     51  N   UNL A   1      44.024  25.874  29.827  1.00  0.00    -0.354 N 
ATOM     52  N   UNL A   1      44.474  28.326  31.366  1.00  0.00    -0.248 NA
ATOM     53  C   UNL A   1      45.829  29.641  32.742  1.00  0.00     0.031 C 
ATOM     54  C   UNL A   1      45.667  24.382  29.712  1.00  0.00     0.029 A 
ATOM     55  C   UNL A   1      45.318  25.613  30.246  1.00  0.00     0.049 A 
ATOM     56  H   UNL A   1      43.507  26.679  30.056  1.00  0.00     0.167 HD
ATOM     57  C   UNL A   1      45.692  27.686  31.552  1.00  0.00     0.074 A 
ATOM     58  C   UNL A   1      46.499  28.555  32.384  1.00  0.00     0.031 C 
ATOM     59  C   UNL A   1      46.105  26.485  31.077  1.00  0.00     0.031 A 
BRANCH  46  60
ATOM     60  C   UNL A   1      41.861  23.528  27.694  1.00  0.00    -0.014 A 
ATOM     61  C   UNL A   1      41.091  22.519  28.295  1.00  0.00     0.009 A 
ATOM     62  C   UNL A   1      42.258  23.374  26.358  1.00  0.00     0.009 A 
ATOM     63  C   UNL A   1      40.767  21.360  27.586  1.00  0.00     0.001 A 
ATOM     64  C   UNL A   1      41.905  22.228  25.642  1.00  0.00     0.001 A 
ATOM     65  C   UNL A   1      41.170  21.218  26.260  1.00  0.00     0.000 A 
ENDBRANCH  46  60
BRANCH  47  66
ATOM     66  C   UNL A   1      43.817  31.751  32.990  1.00  0.00    -0.014 A 
ATOM     67  C   UNL A   1      43.477  31.773  34.352  1.00  0.00     0.009 A 
ATOM     68  C   UNL A   1      44.433  32.879  32.425  1.00  0.00     0.009 A 
ATOM     69  C   UNL A   1      43.728  32.909  35.124  1.00  0.00     0.001 A 
ATOM     70  C   UNL A   1      44.706  34.003  33.207  1.00  0.00     0.001 A 
ATOM     71  C   UNL A   1      44.346  34.020  34.554  1.00  0.00     0.000 A 
ENDBRANCH  47  66
BRANCH  59  72
ATOM     72  C   UNL A   1      47.501  26.055  31.424  1.00  0.00    -0.014 A 
ATOM     73  C   UNL A   1      48.582  26.342  30.576  1.00  0.00     0.009 A 
ATOM     74  C   UNL A   1      47.743  25.389  32.635  1.00  0.00     0.009 A 
ATOM     75  C   UNL A   1      49.875  25.944  30.922  1.00  0.00     0.001 A 
ATOM     76  C   UNL A   1      49.039  25.015  32.990  1.00  0.00     0.001 A 
ATOM     77  C   UNL A   1      50.103  25.285  32.131  1.00  0.00     0.000 A 
ENDBRANCH  59  72
ENDBRANCH  33  34
ENDBRANCH  25  28
ENDBRANCH  23  24
ENDBRANCH  22  23
ENDBRANCH  21  22
ENDBRANCH   1  21
TORSDOF 15
ENDMDL
