MODEL 1
REMARK VINA RESULT:     -11.0      0.000      0.000
REMARK SMILES CC[C@@H](C(=O)NCCCCNC(=O)c1ccc(-c2c3nc(c(-c4ccccc4)c4ccc([nH]4)c(-c4ccccc4)c4nc(c(-c5ccccc5)c5ccc2[nH]5)C=C4)C=C3)cc1)N1C(=O)/C(=C/C(C)=C/c2ccccc2)SC1=S
REMARK SMILES IDX 8 1 7 2 6 3 4 4 5 5 3 7 2 8 1 9 62 10 63 11 77 12 64 13
REMARK SMILES IDX 65 14 76 15 78 16 66 17 67 18 68 19 69 20 70 21 71 22 75 23
REMARK SMILES IDX 72 24 74 25 73 26 9 27 10 28 11 29 12 30 13 32 14 33 15 34
REMARK SMILES IDX 61 35 16 36 60 37 17 38 18 39 19 40 54 41 20 42 59 43 53 44
REMARK SMILES IDX 55 45 21 46 58 47 52 48 51 49 22 51 44 52 29 53 43 54 30 55
REMARK SMILES IDX 33 56 42 57 56 58 31 59 32 60 41 62 57 63 34 64 23 65 24 66
REMARK SMILES IDX 28 67 25 68 27 69 26 70 45 71 46 72 50 73 47 74 49 75 48 76
REMARK SMILES IDX 35 77 36 78 40 79 37 80 39 81 38 82
REMARK H PARENT 6 6 11 31 55 50 33 61
REMARK Flexibility Score: inf
ROOT
ATOM      1  C   UNL A   1      38.970  22.969  26.304  1.00  0.00     0.023 C 
ENDROOT
BRANCH   1   2
ATOM      2  C   UNL A   1      37.671  23.698  25.965  1.00  0.00     0.116 C 
BRANCH   2   3
ATOM      3  N   UNL A   1      37.373  23.556  24.555  1.00  0.00    -0.354 N 
ATOM      4  C   UNL A   1      36.227  23.144  23.938  1.00  0.00     0.243 C 
ATOM      5  O   UNL A   1      36.269  23.008  22.713  1.00  0.00    -0.273 OA
ATOM      6  H   UNL A   1      38.111  23.794  23.948  1.00  0.00     0.163 HD
BRANCH   4   7
ATOM      7  C   UNL A   1      34.935  22.914  24.752  1.00  0.00     0.181 C 
BRANCH   7   8
ATOM      8  C   UNL A   1      34.449  21.450  24.761  1.00  0.00     0.032 C 
ATOM      9  C   UNL A   1      35.513  20.391  24.997  1.00  0.00     0.006 C 
ENDBRANCH   7   8
BRANCH   7  10
ATOM     10  N   UNL A   1      33.926  23.855  24.194  1.00  0.00    -0.280 N 
ATOM     11  C   UNL A   1      33.852  25.164  24.646  1.00  0.00     0.266 C 
ATOM     12  C   UNL A   1      32.933  23.474  23.314  1.00  0.00     0.149 C 
ATOM     13  O   UNL A   1      34.539  25.681  25.517  1.00  0.00    -0.268 OA
ATOM     14  C   UNL A   1      32.823  25.928  23.887  1.00  0.00     0.080 C 
ATOM     15  S   UNL A   1      31.982  24.872  22.835  1.00  0.00    -0.054 SA
ATOM     16  S   UNL A   1      32.610  21.947  22.717  1.00  0.00    -0.052 S 
ATOM     17  C   UNL A   1      32.717  27.252  24.070  1.00  0.00     0.024 C 
BRANCH  17  18
ATOM     18  C   UNL A   1      31.864  28.269  23.454  1.00  0.00    -0.049 C 
ATOM     19  C   UNL A   1      32.547  29.040  22.341  1.00  0.00     0.044 C 
ATOM     20  C   UNL A   1      30.636  28.585  23.912  1.00  0.00     0.011 C 
BRANCH  20  21
ATOM     21  C   UNL A   1      29.707  29.604  23.401  1.00  0.00    -0.025 A 
ATOM     22  C   UNL A   1      29.623  30.821  24.090  1.00  0.00     0.008 A 
ATOM     23  C   UNL A   1      28.842  29.380  22.322  1.00  0.00     0.008 A 
ATOM     24  C   UNL A   1      28.718  31.806  23.694  1.00  0.00     0.001 A 
ATOM     25  C   UNL A   1      27.943  30.370  21.918  1.00  0.00     0.001 A 
ATOM     26  C   UNL A   1      27.881  31.582  22.603  1.00  0.00     0.000 A 
ENDBRANCH  20  21
ENDBRANCH  17  18
ENDBRANCH   7  10
ENDBRANCH   4   7
ENDBRANCH   2   3
ENDBRANCH   1   2
BRANCH   1  27
ATOM     27  C   UNL A   1      39.073  21.563  25.724  1.00  0.00     0.023 C 
BRANCH  27  28
ATOM     28  C   UNL A   1      39.607  20.519  26.691  1.00  0.00     0.116 C 
BRANCH  28  29
ATOM     29  N   UNL A   1      40.602  19.637  26.094  1.00  0.00    -0.352 N 
ATOM     30  C   UNL A   1      41.945  19.862  25.900  1.00  0.00     0.251 C 
ATOM     31  H   UNL A   1      40.269  18.762  25.789  1.00  0.00     0.163 HD
ATOM     32  O   UNL A   1      42.631  19.059  25.275  1.00  0.00    -0.269 OA
BRANCH  30  33
ATOM     33  C   UNL A   1      42.542  21.107  26.420  1.00  0.00     0.039 A 
ATOM     34  C   UNL A   1      42.892  22.118  25.523  1.00  0.00     0.014 A 
ATOM     35  C   UNL A   1      42.677  21.298  27.797  1.00  0.00     0.014 A 
ATOM     36  C   UNL A   1      43.301  23.358  26.015  1.00  0.00     0.010 A 
ATOM     37  C   UNL A   1      42.995  22.558  28.284  1.00  0.00     0.010 A 
ATOM     38  C   UNL A   1      43.309  23.601  27.399  1.00  0.00    -0.014 A 
BRANCH  38  39
ATOM     39  C   UNL A   1      43.645  24.935  27.952  1.00  0.00     0.031 A 
ATOM     40  C   UNL A   1      42.546  25.916  28.250  1.00  0.00     0.074 A 
ATOM     41  C   UNL A   1      44.934  25.297  28.098  1.00  0.00     0.049 A 
ATOM     42  N   UNL A   1      42.634  27.164  28.632  1.00  0.00    -0.248 NA
ATOM     43  C   UNL A   1      41.164  25.443  28.058  1.00  0.00     0.031 C 
ATOM     44  C   UNL A   1      46.095  24.455  27.794  1.00  0.00     0.029 A 
ATOM     45  N   UNL A   1      45.485  26.477  28.529  1.00  0.00    -0.354 N 
ATOM     46  C   UNL A   1      41.327  27.631  28.694  1.00  0.00     0.074 A 
ATOM     47  C   UNL A   1      40.468  26.549  28.266  1.00  0.00     0.031 C 
ATOM     48  C   UNL A   1      47.217  25.139  28.075  1.00  0.00     0.029 A 
ATOM     49  C   UNL A   1      46.859  26.474  28.539  1.00  0.00     0.049 A 
ATOM     50  H   UNL A   1      44.946  27.253  28.806  1.00  0.00     0.167 HD
ATOM     51  C   UNL A   1      40.879  28.844  29.093  1.00  0.00     0.031 A 
ATOM     52  C   UNL A   1      47.731  27.442  28.878  1.00  0.00     0.031 A 
ATOM     53  C   UNL A   1      41.730  29.907  29.552  1.00  0.00     0.049 A 
ATOM     54  C   UNL A   1      47.208  28.774  29.336  1.00  0.00     0.074 A 
ATOM     55  C   UNL A   1      41.368  31.147  30.048  1.00  0.00     0.029 A 
ATOM     56  N   UNL A   1      43.114  29.851  29.576  1.00  0.00    -0.354 N 
ATOM     57  N   UNL A   1      45.966  29.176  29.453  1.00  0.00    -0.248 NA
ATOM     58  C   UNL A   1      48.208  29.782  29.715  1.00  0.00     0.031 C 
ATOM     59  C   UNL A   1      42.537  31.858  30.337  1.00  0.00     0.029 A 
ATOM     60  C   UNL A   1      43.624  31.042  30.062  1.00  0.00     0.049 A 
ATOM     61  H   UNL A   1      43.654  29.080  29.290  1.00  0.00     0.167 HD
ATOM     62  C   UNL A   1      46.034  30.474  29.943  1.00  0.00     0.074 A 
ATOM     63  C   UNL A   1      47.439  30.786  30.113  1.00  0.00     0.031 C 
ATOM     64  C   UNL A   1      45.024  31.331  30.226  1.00  0.00     0.031 A 
BRANCH  51  65
ATOM     65  C   UNL A   1      39.396  29.078  29.049  1.00  0.00    -0.014 A 
ATOM     66  C   UNL A   1      38.587  28.828  30.168  1.00  0.00     0.009 A 
ATOM     67  C   UNL A   1      38.803  29.575  27.877  1.00  0.00     0.009 A 
ATOM     68  C   UNL A   1      37.208  29.033  30.104  1.00  0.00     0.001 A 
ATOM     69  C   UNL A   1      37.427  29.806  27.826  1.00  0.00     0.001 A 
ATOM     70  C   UNL A   1      36.630  29.526  28.935  1.00  0.00     0.000 A 
ENDBRANCH  51  65
BRANCH  52  71
ATOM     71  C   UNL A   1      49.193  27.182  28.819  1.00  0.00    -0.014 A 
ATOM     72  C   UNL A   1      49.868  26.675  29.940  1.00  0.00     0.009 A 
ATOM     73  C   UNL A   1      49.921  27.443  27.648  1.00  0.00     0.009 A 
ATOM     74  C   UNL A   1      51.246  26.458  29.897  1.00  0.00     0.001 A 
ATOM     75  C   UNL A   1      51.296  27.202  27.601  1.00  0.00     0.001 A 
ATOM     76  C   UNL A   1      51.959  26.718  28.728  1.00  0.00     0.000 A 
ENDBRANCH  52  71
BRANCH  64  77
ATOM     77  C   UNL A   1      45.399  32.675  30.779  1.00  0.00    -0.014 A 
ATOM     78  C   UNL A   1      45.562  32.872  32.158  1.00  0.00     0.009 A 
ATOM     79  C   UNL A   1      45.641  33.743  29.902  1.00  0.00     0.009 A 
ATOM     80  C   UNL A   1      45.937  34.124  32.650  1.00  0.00     0.001 A 
ATOM     81  C   UNL A   1      46.039  34.986  30.394  1.00  0.00     0.001 A 
ATOM     82  C   UNL A   1      46.180  35.176  31.768  1.00  0.00     0.000 A 
ENDBRANCH  64  77
ENDBRANCH  38  39
ENDBRANCH  30  33
ENDBRANCH  28  29
ENDBRANCH  27  28
ENDBRANCH   1  27
TORSDOF 15
ENDMDL
MODEL 2
REMARK VINA RESULT:     -11.0      0.878      5.900
REMARK SMILES CC[C@@H](C(=O)NCCCCNC(=O)c1ccc(-c2c3nc(c(-c4ccccc4)c4ccc([nH]4)c(-c4ccccc4)c4nc(c(-c5ccccc5)c5ccc2[nH]5)C=C4)C=C3)cc1)N1C(=O)/C(=C/C(C)=C/c2ccccc2)SC1=S
REMARK SMILES IDX 8 1 7 2 6 3 4 4 5 5 3 7 2 8 1 9 62 10 63 11 77 12 64 13
REMARK SMILES IDX 65 14 76 15 78 16 66 17 67 18 68 19 69 20 70 21 71 22 75 23
REMARK SMILES IDX 72 24 74 25 73 26 9 27 10 28 11 29 12 30 13 32 14 33 15 34
REMARK SMILES IDX 61 35 16 36 60 37 17 38 18 39 19 40 54 41 20 42 59 43 53 44
REMARK SMILES IDX 55 45 21 46 58 47 52 48 51 49 22 51 44 52 29 53 43 54 30 55
REMARK SMILES IDX 33 56 42 57 56 58 31 59 32 60 41 62 57 63 34 64 23 65 24 66
REMARK SMILES IDX 28 67 25 68 27 69 26 70 45 71 46 72 50 73 47 74 49 75 48 76
REMARK SMILES IDX 35 77 36 78 40 79 37 80 39 81 38 82
REMARK H PARENT 6 6 11 31 55 50 33 61
REMARK Flexibility Score: inf
ROOT
ATOM      1  C   UNL A   1      38.849  22.832  25.990  1.00  0.00     0.023 C 
ENDROOT
BRANCH   1   2
ATOM      2  C   UNL A   1      37.474  23.497  26.003  1.00  0.00     0.116 C 
BRANCH   2   3
ATOM      3  N   UNL A   1      36.967  23.623  24.651  1.00  0.00    -0.354 N 
ATOM      4  C   UNL A   1      35.723  23.365  24.153  1.00  0.00     0.243 C 
ATOM      5  O   UNL A   1      35.579  23.452  22.931  1.00  0.00    -0.273 OA
ATOM      6  H   UNL A   1      37.622  23.944  23.990  1.00  0.00     0.163 HD
BRANCH   4   7
ATOM      7  C   UNL A   1      34.550  23.030  25.102  1.00  0.00     0.181 C 
BRANCH   7   8
ATOM      8  C   UNL A   1      34.269  21.521  25.248  1.00  0.00     0.032 C 
ATOM      9  C   UNL A   1      35.418  20.588  24.904  1.00  0.00     0.006 C 
ENDBRANCH   7   8
BRANCH   7  10
ATOM     10  N   UNL A   1      33.378  23.791  24.587  1.00  0.00    -0.280 N 
ATOM     11  C   UNL A   1      33.041  25.022  25.125  1.00  0.00     0.266 C 
ATOM     12  C   UNL A   1      32.489  23.284  23.661  1.00  0.00     0.149 C 
ATOM     13  O   UNL A   1      33.604  25.602  26.045  1.00  0.00    -0.268 OA
ATOM     14  C   UNL A   1      31.886  25.619  24.398  1.00  0.00     0.080 C 
ATOM     15  S   UNL A   1      31.282  24.496  23.258  1.00  0.00    -0.054 SA
ATOM     16  S   UNL A   1      32.482  21.769  22.954  1.00  0.00    -0.052 S 
ATOM     17  C   UNL A   1      31.516  26.880  24.669  1.00  0.00     0.024 C 
BRANCH  17  18
ATOM     18  C   UNL A   1      30.482  27.749  24.106  1.00  0.00    -0.049 C 
ATOM     19  C   UNL A   1      29.200  27.019  23.759  1.00  0.00     0.044 C 
ATOM     20  C   UNL A   1      30.689  29.045  23.800  1.00  0.00     0.011 C 
BRANCH  20  21
ATOM     21  C   UNL A   1      29.744  30.002  23.203  1.00  0.00    -0.025 A 
ATOM     22  C   UNL A   1      29.458  29.877  21.837  1.00  0.00     0.008 A 
ATOM     23  C   UNL A   1      29.196  31.079  23.911  1.00  0.00     0.008 A 
ATOM     24  C   UNL A   1      28.619  30.789  21.197  1.00  0.00     0.001 A 
ATOM     25  C   UNL A   1      28.346  31.987  23.272  1.00  0.00     0.001 A 
ATOM     26  C   UNL A   1      28.058  31.841  21.917  1.00  0.00     0.000 A 
ENDBRANCH  20  21
ENDBRANCH  17  18
ENDBRANCH   7  10
ENDBRANCH   4   7
ENDBRANCH   2   3
ENDBRANCH   1   2
BRANCH   1  27
ATOM     27  C   UNL A   1      38.847  21.391  25.493  1.00  0.00     0.023 C 
BRANCH  27  28
ATOM     28  C   UNL A   1      39.362  20.376  26.501  1.00  0.00     0.116 C 
BRANCH  28  29
ATOM     29  N   UNL A   1      40.438  19.543  25.980  1.00  0.00    -0.352 N 
ATOM     30  C   UNL A   1      41.777  19.838  25.870  1.00  0.00     0.251 C 
ATOM     31  H   UNL A   1      40.172  18.649  25.666  1.00  0.00     0.163 HD
ATOM     32  O   UNL A   1      42.544  19.067  25.301  1.00  0.00    -0.269 OA
BRANCH  30  33
ATOM     33  C   UNL A   1      42.272  21.117  26.410  1.00  0.00     0.039 A 
ATOM     34  C   UNL A   1      42.632  22.136  25.525  1.00  0.00     0.014 A 
ATOM     35  C   UNL A   1      42.303  21.331  27.791  1.00  0.00     0.014 A 
ATOM     36  C   UNL A   1      42.941  23.401  26.026  1.00  0.00     0.010 A 
ATOM     37  C   UNL A   1      42.522  22.611  28.280  1.00  0.00     0.010 A 
ATOM     38  C   UNL A   1      42.842  23.659  27.403  1.00  0.00    -0.014 A 
BRANCH  38  39
ATOM     39  C   UNL A   1      43.070  25.015  27.958  1.00  0.00     0.031 A 
ATOM     40  C   UNL A   1      44.448  25.414  28.406  1.00  0.00     0.074 A 
ATOM     41  C   UNL A   1      42.029  25.849  28.144  1.00  0.00     0.049 A 
ATOM     42  N   UNL A   1      44.835  26.506  29.015  1.00  0.00    -0.248 NA
ATOM     43  C   UNL A   1      45.529  24.441  28.172  1.00  0.00     0.031 C 
ATOM     44  C   UNL A   1      40.633  25.561  27.800  1.00  0.00     0.029 A 
ATOM     45  N   UNL A   1      41.983  27.110  28.682  1.00  0.00    -0.354 N 
ATOM     46  C   UNL A   1      46.191  26.336  29.263  1.00  0.00     0.074 A 
ATOM     47  C   UNL A   1      46.551  25.020  28.783  1.00  0.00     0.031 C 
ATOM     48  C   UNL A   1      39.876  26.626  28.112  1.00  0.00     0.029 A 
ATOM     49  C   UNL A   1      40.721  27.653  28.711  1.00  0.00     0.049 A 
ATOM     50  H   UNL A   1      42.780  27.582  29.017  1.00  0.00     0.167 HD
ATOM     51  C   UNL A   1      47.065  27.206  29.821  1.00  0.00     0.031 A 
ATOM     52  C   UNL A   1      40.293  28.842  29.174  1.00  0.00     0.031 A 
ATOM     53  C   UNL A   1      46.716  28.527  30.265  1.00  0.00     0.049 A 
ATOM     54  C   UNL A   1      41.286  29.797  29.772  1.00  0.00     0.074 A 
ATOM     55  C   UNL A   1      47.544  29.511  30.775  1.00  0.00     0.029 A 
ATOM     56  N   UNL A   1      45.432  29.048  30.247  1.00  0.00    -0.354 N 
ATOM     57  N   UNL A   1      42.578  29.648  29.937  1.00  0.00    -0.248 NA
ATOM     58  C   UNL A   1      40.763  31.089  30.239  1.00  0.00     0.031 C 
ATOM     59  C   UNL A   1      46.753  30.618  31.101  1.00  0.00     0.029 A 
ATOM     60  C   UNL A   1      45.441  30.336  30.753  1.00  0.00     0.049 A 
ATOM     61  H   UNL A   1      44.633  28.574  29.922  1.00  0.00     0.167 HD
ATOM     62  C   UNL A   1      43.026  30.834  30.504  1.00  0.00     0.074 A 
ATOM     63  C   UNL A   1      41.870  31.698  30.641  1.00  0.00     0.031 C 
ATOM     64  C   UNL A   1      44.282  31.179  30.878  1.00  0.00     0.031 A 
BRANCH  51  65
ATOM     65  C   UNL A   1      48.487  26.747  29.976  1.00  0.00    -0.014 A 
ATOM     66  C   UNL A   1      49.440  26.982  28.973  1.00  0.00     0.009 A 
ATOM     67  C   UNL A   1      48.884  26.089  31.151  1.00  0.00     0.009 A 
ATOM     68  C   UNL A   1      50.753  26.533  29.125  1.00  0.00     0.001 A 
ATOM     69  C   UNL A   1      50.204  25.667  31.312  1.00  0.00     0.001 A 
ATOM     70  C   UNL A   1      51.135  25.880  30.296  1.00  0.00     0.000 A 
ENDBRANCH  51  65
BRANCH  52  71
ATOM     71  C   UNL A   1      38.856  29.207  29.074  1.00  0.00    -0.014 A 
ATOM     72  C   UNL A   1      37.995  28.999  30.162  1.00  0.00     0.009 A 
ATOM     73  C   UNL A   1      38.337  29.760  27.893  1.00  0.00     0.009 A 
ATOM     74  C   UNL A   1      36.638  29.313  30.061  1.00  0.00     0.001 A 
ATOM     75  C   UNL A   1      36.985  30.097  27.804  1.00  0.00     0.001 A 
ATOM     76  C   UNL A   1      36.134  29.865  28.884  1.00  0.00     0.000 A 
ENDBRANCH  52  71
BRANCH  64  77
ATOM     77  C   UNL A   1      44.476  32.556  31.441  1.00  0.00    -0.014 A 
ATOM     78  C   UNL A   1      44.724  33.653  30.602  1.00  0.00     0.009 A 
ATOM     79  C   UNL A   1      44.361  32.763  32.824  1.00  0.00     0.009 A 
ATOM     80  C   UNL A   1      44.877  34.931  31.144  1.00  0.00     0.001 A 
ATOM     81  C   UNL A   1      44.490  34.045  33.359  1.00  0.00     0.001 A 
ATOM     82  C   UNL A   1      44.755  35.126  32.519  1.00  0.00     0.000 A 
ENDBRANCH  64  77
ENDBRANCH  38  39
ENDBRANCH  30  33
ENDBRANCH  28  29
ENDBRANCH  27  28
ENDBRANCH   1  27
TORSDOF 15
ENDMDL
MODEL 3
REMARK VINA RESULT:     -10.8      1.421      1.985
REMARK SMILES CC[C@@H](C(=O)NCCCCNC(=O)c1ccc(-c2c3nc(c(-c4ccccc4)c4ccc([nH]4)c(-c4ccccc4)c4nc(c(-c5ccccc5)c5ccc2[nH]5)C=C4)C=C3)cc1)N1C(=O)/C(=C/C(C)=C/c2ccccc2)SC1=S
REMARK SMILES IDX 8 1 7 2 6 3 4 4 5 5 3 7 2 8 1 9 62 10 63 11 77 12 64 13
REMARK SMILES IDX 65 14 76 15 78 16 66 17 67 18 68 19 69 20 70 21 71 22 75 23
REMARK SMILES IDX 72 24 74 25 73 26 9 27 10 28 11 29 12 30 13 32 14 33 15 34
REMARK SMILES IDX 61 35 16 36 60 37 17 38 18 39 19 40 54 41 20 42 59 43 53 44
REMARK SMILES IDX 55 45 21 46 58 47 52 48 51 49 22 51 44 52 29 53 43 54 30 55
REMARK SMILES IDX 33 56 42 57 56 58 31 59 32 60 41 62 57 63 34 64 23 65 24 66
REMARK SMILES IDX 28 67 25 68 27 69 26 70 45 71 46 72 50 73 47 74 49 75 48 76
REMARK SMILES IDX 35 77 36 78 40 79 37 80 39 81 38 82
REMARK H PARENT 6 6 11 31 55 50 33 61
REMARK Flexibility Score: inf
ROOT
ATOM      1  C   UNL A   1      36.395  19.929  24.979  1.00  0.00     0.023 C 
ENDROOT
BRANCH   1   2
ATOM      2  C   UNL A   1      34.944  20.406  24.990  1.00  0.00     0.116 C 
BRANCH   2   3
ATOM      3  N   UNL A   1      34.814  21.588  25.818  1.00  0.00    -0.354 N 
ATOM      4  C   UNL A   1      33.912  22.610  25.752  1.00  0.00     0.243 C 
ATOM      5  O   UNL A   1      34.087  23.562  26.516  1.00  0.00    -0.273 OA
ATOM      6  H   UNL A   1      35.479  21.665  26.540  1.00  0.00     0.163 HD
BRANCH   4   7
ATOM      7  C   UNL A   1      32.706  22.533  24.790  1.00  0.00     0.181 C 
BRANCH   7   8
ATOM      8  C   UNL A   1      33.078  22.158  23.341  1.00  0.00     0.032 C 
ATOM      9  C   UNL A   1      32.124  21.218  22.625  1.00  0.00     0.006 C 
ENDBRANCH   7   8
BRANCH   7  10
ATOM     10  N   UNL A   1      32.019  23.850  24.889  1.00  0.00    -0.280 N 
ATOM     11  C   UNL A   1      32.520  24.962  24.230  1.00  0.00     0.266 C 
ATOM     12  C   UNL A   1      30.946  24.089  25.724  1.00  0.00     0.149 C 
ATOM     13  O   UNL A   1      33.533  25.016  23.545  1.00  0.00    -0.268 OA
ATOM     14  C   UNL A   1      31.623  26.137  24.416  1.00  0.00     0.080 C 
ATOM     15  S   UNL A   1      30.374  25.737  25.515  1.00  0.00    -0.054 SA
ATOM     16  S   UNL A   1      30.215  23.035  26.797  1.00  0.00    -0.052 S 
ATOM     17  C   UNL A   1      31.856  27.261  23.723  1.00  0.00     0.024 C 
BRANCH  17  18
ATOM     18  C   UNL A   1      31.146  28.538  23.645  1.00  0.00    -0.049 C 
ATOM     19  C   UNL A   1      31.494  29.494  24.770  1.00  0.00     0.044 C 
ATOM     20  C   UNL A   1      30.181  28.797  22.741  1.00  0.00     0.011 C 
BRANCH  20  21
ATOM     21  C   UNL A   1      29.380  30.022  22.588  1.00  0.00    -0.025 A 
ATOM     22  C   UNL A   1      29.101  30.465  21.289  1.00  0.00     0.008 A 
ATOM     23  C   UNL A   1      28.969  30.807  23.672  1.00  0.00     0.008 A 
ATOM     24  C   UNL A   1      28.399  31.651  21.074  1.00  0.00     0.001 A 
ATOM     25  C   UNL A   1      28.256  31.991  23.458  1.00  0.00     0.001 A 
ATOM     26  C   UNL A   1      27.971  32.412  22.160  1.00  0.00     0.000 A 
ENDBRANCH  20  21
ENDBRANCH  17  18
ENDBRANCH   7  10
ENDBRANCH   4   7
ENDBRANCH   2   3
ENDBRANCH   1   2
BRANCH   1  27
ATOM     27  C   UNL A   1      37.416  21.025  24.696  1.00  0.00     0.023 C 
BRANCH  27  28
ATOM     28  C   UNL A   1      38.552  21.104  25.703  1.00  0.00     0.116 C 
BRANCH  28  29
ATOM     29  N   UNL A   1      39.453  19.960  25.646  1.00  0.00    -0.352 N 
ATOM     30  C   UNL A   1      40.783  19.895  25.989  1.00  0.00     0.251 C 
ATOM     31  H   UNL A   1      39.057  19.120  25.317  1.00  0.00     0.163 HD
ATOM     32  O   UNL A   1      41.437  18.879  25.774  1.00  0.00    -0.269 OA
BRANCH  30  33
ATOM     33  C   UNL A   1      41.425  21.082  26.583  1.00  0.00     0.039 A 
ATOM     34  C   UNL A   1      41.987  22.044  25.741  1.00  0.00     0.014 A 
ATOM     35  C   UNL A   1      41.397  21.276  27.966  1.00  0.00     0.014 A 
ATOM     36  C   UNL A   1      42.446  23.245  26.284  1.00  0.00     0.010 A 
ATOM     37  C   UNL A   1      41.770  22.505  28.492  1.00  0.00     0.010 A 
ATOM     38  C   UNL A   1      42.296  23.502  27.657  1.00  0.00    -0.014 A 
BRANCH  38  39
ATOM     39  C   UNL A   1      42.685  24.805  28.250  1.00  0.00     0.031 A 
ATOM     40  C   UNL A   1      41.643  25.866  28.464  1.00  0.00     0.074 A 
ATOM     41  C   UNL A   1      43.981  25.065  28.509  1.00  0.00     0.049 A 
ATOM     42  N   UNL A   1      41.794  27.102  28.866  1.00  0.00    -0.248 NA
ATOM     43  C   UNL A   1      40.251  25.502  28.151  1.00  0.00     0.031 C 
ATOM     44  C   UNL A   1      45.096  24.138  28.295  1.00  0.00     0.029 A 
ATOM     45  N   UNL A   1      44.582  26.198  28.997  1.00  0.00    -0.354 N 
ATOM     46  C   UNL A   1      40.526  27.668  28.821  1.00  0.00     0.074 A 
ATOM     47  C   UNL A   1      39.626  26.658  28.310  1.00  0.00     0.031 C 
ATOM     48  C   UNL A   1      46.239  24.731  28.677  1.00  0.00     0.029 A 
ATOM     49  C   UNL A   1      45.946  26.088  29.124  1.00  0.00     0.049 A 
ATOM     50  H   UNL A   1      44.083  27.012  29.236  1.00  0.00     0.167 HD
ATOM     51  C   UNL A   1      40.140  28.911  29.193  1.00  0.00     0.031 A 
ATOM     52  C   UNL A   1      46.857  26.985  29.545  1.00  0.00     0.031 A 
ATOM     53  C   UNL A   1      41.027  29.903  29.734  1.00  0.00     0.049 A 
ATOM     54  C   UNL A   1      46.401  28.351  29.971  1.00  0.00     0.074 A 
ATOM     55  C   UNL A   1      40.721  31.166  30.210  1.00  0.00     0.029 A 
ATOM     56  N   UNL A   1      42.396  29.741  29.874  1.00  0.00    -0.354 N 
ATOM     57  N   UNL A   1      45.188  28.848  29.987  1.00  0.00    -0.248 NA
ATOM     58  C   UNL A   1      47.439  29.278  30.443  1.00  0.00     0.031 C 
ATOM     59  C   UNL A   1      41.911  31.783  30.605  1.00  0.00     0.029 A 
ATOM     60  C   UNL A   1      42.952  30.887  30.414  1.00  0.00     0.049 A 
ATOM     61  H   UNL A   1      42.898  28.931  29.628  1.00  0.00     0.167 HD
ATOM     62  C   UNL A   1      45.313  30.134  30.494  1.00  0.00     0.074 A 
ATOM     63  C   UNL A   1      46.718  30.337  30.786  1.00  0.00     0.031 C 
ATOM     64  C   UNL A   1      44.351  31.066  30.700  1.00  0.00     0.031 A 
BRANCH  51  65
ATOM     65  C   UNL A   1      38.688  29.259  29.026  1.00  0.00    -0.014 A 
ATOM     66  C   UNL A   1      37.788  29.159  30.098  1.00  0.00     0.009 A 
ATOM     67  C   UNL A   1      38.218  29.712  27.783  1.00  0.00     0.009 A 
ATOM     68  C   UNL A   1      36.439  29.468  29.921  1.00  0.00     0.001 A 
ATOM     69  C   UNL A   1      36.874  30.048  27.617  1.00  0.00     0.001 A 
ATOM     70  C   UNL A   1      35.984  29.916  28.682  1.00  0.00     0.000 A 
ENDBRANCH  51  65
BRANCH  52  71
ATOM     71  C   UNL A   1      48.295  26.613  29.607  1.00  0.00    -0.014 A 
ATOM     72  C   UNL A   1      49.165  26.978  28.569  1.00  0.00     0.009 A 
ATOM     73  C   UNL A   1      48.802  25.890  30.697  1.00  0.00     0.009 A 
ATOM     74  C   UNL A   1      50.510  26.604  28.610  1.00  0.00     0.001 A 
ATOM     75  C   UNL A   1      50.154  25.540  30.747  1.00  0.00     0.001 A 
ATOM     76  C   UNL A   1      51.005  25.889  29.699  1.00  0.00     0.000 A 
ENDBRANCH  52  71
BRANCH  64  77
ATOM     77  C   UNL A   1      44.780  32.374  31.296  1.00  0.00    -0.014 A 
ATOM     78  C   UNL A   1      45.140  33.459  30.481  1.00  0.00     0.009 A 
ATOM     79  C   UNL A   1      44.775  32.537  32.690  1.00  0.00     0.009 A 
ATOM     80  C   UNL A   1      45.511  34.676  31.056  1.00  0.00     0.001 A 
ATOM     81  C   UNL A   1      45.122  33.762  33.259  1.00  0.00     0.001 A 
ATOM     82  C   UNL A   1      45.497  34.828  32.442  1.00  0.00     0.000 A 
ENDBRANCH  64  77
ENDBRANCH  38  39
ENDBRANCH  30  33
ENDBRANCH  28  29
ENDBRANCH  27  28
ENDBRANCH   1  27
TORSDOF 15
ENDMDL
